MODEL 1
REMARK VINA RESULT:     -10.2      0.000      0.000
REMARK SMILES CCCC[C@@](CC)(C[C@H]1CCOC1)C(=O)NCCCNC(=O)c1ccc(-c2c3nc(c(-c4c(F)cccc4F)c4ccc([nH]4)c(-c4c(F)cccc4F)c4nc(c(-c5c(F)cccc5F)c5ccc2[nH]5)C=C4)C=C3)cc1
REMARK SMILES IDX 17 1 16 2 14 3 15 4 5 6 4 7 3 8 2 9 1 10 6 11 7 12 8 13 9 14
REMARK SMILES IDX 10 15 13 16 11 17 12 18 18 19 19 20 20 21 21 22 22 24 23 25
REMARK SMILES IDX 24 26 76 27 25 28 75 29 26 30 27 31 28 32 69 33 29 34 74 35
REMARK SMILES IDX 68 36 70 37 30 38 73 39 67 40 66 41 31 43 57 44 40 45 56 46
REMARK SMILES IDX 41 47 44 48 55 49 71 50 42 51 43 52 54 54 72 55 45 56 32 57
REMARK SMILES IDX 33 58 38 59 34 60 35 61 37 62 39 63 36 64 58 65 59 66 64 67
REMARK SMILES IDX 60 68 61 69 63 70 65 71 62 72 46 73 47 74 52 75 48 76 49 77
REMARK SMILES IDX 51 78 53 79 50 80
REMARK H PARENT 16 5 20 23 70 42 44 53
REMARK Flexibility Score: inf
ROOT
ATOM      1  C   UNL A   1      36.685  20.667  24.920  1.00  0.00     0.117 C 
ENDROOT
BRANCH   1   2
ATOM      2  N   UNL A   1      35.368  20.056  24.998  1.00  0.00    -0.356 N 
ATOM      3  C   UNL A   1      34.108  20.539  25.153  1.00  0.00     0.226 C 
ATOM      4  O   UNL A   1      33.277  19.684  25.464  1.00  0.00    -0.274 OA
ATOM      5  H   UNL A   1      35.395  19.075  24.922  1.00  0.00     0.163 HD
BRANCH   3   6
ATOM      6  C   UNL A   1      33.747  22.035  25.030  1.00  0.00     0.049 C 
BRANCH   6   7
ATOM      7  C   UNL A   1      34.212  22.688  23.672  1.00  0.00     0.017 C 
BRANCH   7   8
ATOM      8  C   UNL A   1      33.218  22.862  22.503  1.00  0.00     0.001 C 
BRANCH   8   9
ATOM      9  C   UNL A   1      32.892  24.287  22.047  1.00  0.00    -0.003 C 
ATOM     10  C   UNL A   1      33.672  25.368  22.786  1.00  0.00     0.004 C 
ENDBRANCH   8   9
ENDBRANCH   7   8
ENDBRANCH   6   7
BRANCH   6  11
ATOM     11  C   UNL A   1      34.457  22.814  26.196  1.00  0.00     0.013 C 
ATOM     12  C   UNL A   1      35.250  24.054  25.802  1.00  0.00     0.005 C 
ENDBRANCH   6  11
BRANCH   6  13
ATOM     13  C   UNL A   1      32.185  22.151  25.110  1.00  0.00     0.023 C 
BRANCH  13  14
ATOM     14  C   UNL A   1      31.469  23.213  25.988  1.00  0.00     0.018 C 
ATOM     15  C   UNL A   1      30.987  24.404  25.175  1.00  0.00     0.034 C 
ATOM     16  C   UNL A   1      30.256  22.906  26.853  1.00  0.00     0.163 C 
ATOM     17  C   UNL A   1      30.048  25.118  26.121  1.00  0.00     0.160 C 
ATOM     18  O   UNL A   1      29.557  24.150  27.051  1.00  0.00    -0.381 OA
ENDBRANCH  13  14
ENDBRANCH   6  13
ENDBRANCH   3   6
ENDBRANCH   1   2
BRANCH   1  19
ATOM     19  C   UNL A   1      37.792  19.627  25.030  1.00  0.00     0.042 C 
BRANCH  19  20
ATOM     20  C   UNL A   1      39.028  20.113  25.773  1.00  0.00     0.118 C 
BRANCH  20  21
ATOM     21  N   UNL A   1      40.081  19.110  25.829  1.00  0.00    -0.352 N 
ATOM     22  C   UNL A   1      41.437  19.254  25.989  1.00  0.00     0.251 C 
ATOM     23  H   UNL A   1      39.773  18.180  25.737  1.00  0.00     0.163 HD
ATOM     24  O   UNL A   1      42.175  18.290  25.811  1.00  0.00    -0.269 OA
BRANCH  22  25
ATOM     25  C   UNL A   1      42.013  20.567  26.353  1.00  0.00     0.039 A 
ATOM     26  C   UNL A   1      42.396  21.438  25.330  1.00  0.00     0.014 A 
ATOM     27  C   UNL A   1      42.200  20.933  27.688  1.00  0.00     0.014 A 
ATOM     28  C   UNL A   1      42.906  22.698  25.649  1.00  0.00     0.010 A 
ATOM     29  C   UNL A   1      42.618  22.221  28.004  1.00  0.00     0.010 A 
ATOM     30  C   UNL A   1      42.986  23.114  26.988  1.00  0.00    -0.014 A 
BRANCH  30  31
ATOM     31  C   UNL A   1      43.464  24.475  27.339  1.00  0.00     0.031 A 
ATOM     32  C   UNL A   1      42.487  25.534  27.773  1.00  0.00     0.074 A 
ATOM     33  C   UNL A   1      44.773  24.770  27.219  1.00  0.00     0.049 A 
ATOM     34  N   UNL A   1      42.712  26.785  28.087  1.00  0.00    -0.248 NA
ATOM     35  C   UNL A   1      41.070  25.146  27.837  1.00  0.00     0.031 C 
ATOM     36  C   UNL A   1      45.809  23.850  26.748  1.00  0.00     0.029 A 
ATOM     37  N   UNL A   1      45.455  25.932  27.477  1.00  0.00    -0.354 N 
ATOM     38  C   UNL A   1      41.468  27.330  28.377  1.00  0.00     0.074 A 
ATOM     39  C   UNL A   1      40.486  26.295  28.139  1.00  0.00     0.031 C 
ATOM     40  C   UNL A   1      46.998  24.473  26.779  1.00  0.00     0.029 A 
ATOM     41  C   UNL A   1      46.804  25.844  27.239  1.00  0.00     0.049 A 
ATOM     42  H   UNL A   1      45.017  26.752  27.804  1.00  0.00     0.167 HD
ATOM     43  C   UNL A   1      41.171  28.572  28.828  1.00  0.00     0.037 A 
ATOM     44  C   UNL A   1      47.776  26.765  27.375  1.00  0.00     0.037 A 
ATOM     45  C   UNL A   1      42.150  29.595  29.083  1.00  0.00     0.049 A 
ATOM     46  C   UNL A   1      47.423  28.133  27.888  1.00  0.00     0.074 A 
ATOM     47  C   UNL A   1      41.956  30.870  29.586  1.00  0.00     0.029 A 
ATOM     48  N   UNL A   1      43.511  29.458  28.855  1.00  0.00    -0.354 N 
ATOM     49  N   UNL A   1      46.249  28.613  28.222  1.00  0.00    -0.248 NA
ATOM     50  C   UNL A   1      48.531  29.083  28.055  1.00  0.00     0.031 C 
ATOM     51  C   UNL A   1      43.195  31.517  29.627  1.00  0.00     0.029 A 
ATOM     52  C   UNL A   1      44.167  30.630  29.194  1.00  0.00     0.049 A 
ATOM     53  H   UNL A   1      43.946  28.648  28.504  1.00  0.00     0.167 HD
ATOM     54  C   UNL A   1      46.480  29.910  28.661  1.00  0.00     0.074 A 
ATOM     55  C   UNL A   1      47.908  30.134  28.569  1.00  0.00     0.031 C 
ATOM     56  C   UNL A   1      45.590  30.834  29.098  1.00  0.00     0.037 A 
BRANCH  43  57
ATOM     57  C   UNL A   1      39.725  28.884  29.087  1.00  0.00     0.057 A 
ATOM     58  C   UNL A   1      38.877  29.342  28.069  1.00  0.00     0.134 A 
ATOM     59  C   UNL A   1      39.165  28.699  30.358  1.00  0.00     0.134 A 
ATOM     60  F   UNL A   1      39.352  29.552  26.832  1.00  0.00    -0.206 F 
ATOM     61  C   UNL A   1      37.533  29.632  28.312  1.00  0.00     0.040 A 
ATOM     62  C   UNL A   1      37.816  28.960  30.605  1.00  0.00     0.040 A 
ATOM     63  F   UNL A   1      39.917  28.258  31.377  1.00  0.00    -0.206 F 
ATOM     64  C   UNL A   1      36.998  29.434  29.582  1.00  0.00     0.006 A 
ENDBRANCH  43  57
BRANCH  44  65
ATOM     65  C   UNL A   1      49.181  26.415  27.047  1.00  0.00     0.057 A 
ATOM     66  C   UNL A   1      49.682  26.573  25.751  1.00  0.00     0.134 A 
ATOM     67  C   UNL A   1      50.053  25.909  28.019  1.00  0.00     0.134 A 
ATOM     68  F   UNL A   1      48.891  27.039  24.773  1.00  0.00    -0.206 F 
ATOM     69  C   UNL A   1      50.993  26.221  25.425  1.00  0.00     0.040 A 
ATOM     70  C   UNL A   1      51.373  25.576  27.713  1.00  0.00     0.040 A 
ATOM     71  F   UNL A   1      49.636  25.743  29.282  1.00  0.00    -0.206 F 
ATOM     72  C   UNL A   1      51.845  25.725  26.410  1.00  0.00     0.006 A 
ENDBRANCH  44  65
BRANCH  56  73
ATOM     73  C   UNL A   1      46.142  32.159  29.537  1.00  0.00     0.057 A 
ATOM     74  C   UNL A   1      46.559  32.387  30.854  1.00  0.00     0.134 A 
ATOM     75  C   UNL A   1      46.280  33.211  28.623  1.00  0.00     0.134 A 
ATOM     76  F   UNL A   1      46.442  31.423  31.781  1.00  0.00    -0.206 F 
ATOM     77  C   UNL A   1      47.069  33.623  31.254  1.00  0.00     0.040 A 
ATOM     78  C   UNL A   1      46.812  34.443  29.004  1.00  0.00     0.040 A 
ATOM     79  F   UNL A   1      45.908  33.056  27.344  1.00  0.00    -0.206 F 
ATOM     80  C   UNL A   1      47.201  34.654  30.326  1.00  0.00     0.006 A 
ENDBRANCH  56  73
ENDBRANCH  30  31
ENDBRANCH  22  25
ENDBRANCH  20  21
ENDBRANCH  19  20
ENDBRANCH   1  19
TORSDOF 16
ENDMDL
MODEL 2
REMARK VINA RESULT:     -10.2      5.207      9.872
REMARK SMILES CCCC[C@@](CC)(C[C@H]1CCOC1)C(=O)NCCCNC(=O)c1ccc(-c2c3nc(c(-c4c(F)cccc4F)c4ccc([nH]4)c(-c4c(F)cccc4F)c4nc(c(-c5c(F)cccc5F)c5ccc2[nH]5)C=C4)C=C3)cc1
REMARK SMILES IDX 17 1 16 2 14 3 15 4 5 6 4 7 3 8 2 9 1 10 6 11 7 12 8 13 9 14
REMARK SMILES IDX 10 15 13 16 11 17 12 18 18 19 19 20 20 21 21 22 22 24 23 25
REMARK SMILES IDX 24 26 76 27 25 28 75 29 26 30 27 31 28 32 69 33 29 34 74 35
REMARK SMILES IDX 68 36 70 37 30 38 73 39 67 40 66 41 31 43 57 44 40 45 56 46
REMARK SMILES IDX 41 47 44 48 55 49 71 50 42 51 43 52 54 54 72 55 45 56 32 57
REMARK SMILES IDX 33 58 38 59 34 60 35 61 37 62 39 63 36 64 58 65 59 66 64 67
REMARK SMILES IDX 60 68 61 69 63 70 65 71 62 72 46 73 47 74 52 75 48 76 49 77
REMARK SMILES IDX 51 78 53 79 50 80
REMARK H PARENT 16 5 20 23 70 42 44 53
REMARK Flexibility Score: inf
ROOT
ATOM      1  C   UNL A   1      31.569  30.200  26.150  1.00  0.00     0.117 C 
ENDROOT
BRANCH   1   2
ATOM      2  N   UNL A   1      32.622  30.000  25.167  1.00  0.00    -0.356 N 
ATOM      3  C   UNL A   1      32.795  29.150  24.123  1.00  0.00     0.226 C 
ATOM      4  O   UNL A   1      33.952  29.094  23.705  1.00  0.00    -0.274 OA
ATOM      5  H   UNL A   1      33.379  30.619  25.286  1.00  0.00     0.163 HD
BRANCH   3   6
ATOM      6  C   UNL A   1      31.666  28.264  23.549  1.00  0.00     0.049 C 
BRANCH   6   7
ATOM      7  C   UNL A   1      30.849  27.489  24.652  1.00  0.00     0.017 C 
BRANCH   7   8
ATOM      8  C   UNL A   1      31.436  26.230  25.325  1.00  0.00     0.001 C 
BRANCH   8   9
ATOM      9  C   UNL A   1      32.665  26.403  26.223  1.00  0.00    -0.003 C 
ATOM     10  C   UNL A   1      33.952  25.853  25.623  1.00  0.00     0.004 C 
ENDBRANCH   8   9
ENDBRANCH   7   8
ENDBRANCH   6   7
BRANCH   6  11
ATOM     11  C   UNL A   1      32.313  27.192  22.599  1.00  0.00     0.013 C 
ATOM     12  C   UNL A   1      31.350  26.334  21.786  1.00  0.00     0.005 C 
ENDBRANCH   6  11
BRANCH   6  13
ATOM     13  C   UNL A   1      30.672  29.206  22.785  1.00  0.00     0.023 C 
BRANCH  13  14
ATOM     14  C   UNL A   1      29.276  29.583  23.352  1.00  0.00     0.018 C 
ATOM     15  C   UNL A   1      29.064  31.087  23.412  1.00  0.00     0.034 C 
ATOM     16  C   UNL A   1      27.966  29.101  22.745  1.00  0.00     0.163 C 
ATOM     17  C   UNL A   1      27.577  31.223  23.647  1.00  0.00     0.160 C 
ATOM     18  O   UNL A   1      26.951  30.044  23.137  1.00  0.00    -0.381 OA
ENDBRANCH  13  14
ENDBRANCH   6  13
ENDBRANCH   3   6
ENDBRANCH   1   2
BRANCH   1  19
ATOM     19  C   UNL A   1      31.405  31.672  26.503  1.00  0.00     0.042 C 
BRANCH  19  20
ATOM     20  C   UNL A   1      32.676  32.332  27.017  1.00  0.00     0.118 C 
BRANCH  20  21
ATOM     21  N   UNL A   1      32.452  33.690  27.493  1.00  0.00    -0.352 N 
ATOM     22  C   UNL A   1      33.111  34.413  28.455  1.00  0.00     0.251 C 
ATOM     23  H   UNL A   1      31.709  34.164  27.055  1.00  0.00     0.163 HD
ATOM     24  O   UNL A   1      32.639  35.476  28.845  1.00  0.00    -0.269 OA
BRANCH  22  25
ATOM     25  C   UNL A   1      34.374  33.910  29.037  1.00  0.00     0.039 A 
ATOM     26  C   UNL A   1      34.310  33.082  30.161  1.00  0.00     0.014 A 
ATOM     27  C   UNL A   1      35.613  34.265  28.502  1.00  0.00     0.014 A 
ATOM     28  C   UNL A   1      35.486  32.562  30.705  1.00  0.00     0.010 A 
ATOM     29  C   UNL A   1      36.775  33.673  28.985  1.00  0.00     0.010 A 
ATOM     30  C   UNL A   1      36.726  32.824  30.098  1.00  0.00    -0.014 A 
BRANCH  30  31
ATOM     31  C   UNL A   1      37.977  32.225  30.627  1.00  0.00     0.031 A 
ATOM     32  C   UNL A   1      38.527  30.960  30.024  1.00  0.00     0.074 A 
ATOM     33  C   UNL A   1      38.591  32.794  31.682  1.00  0.00     0.049 A 
ATOM     34  N   UNL A   1      39.586  30.273  30.371  1.00  0.00    -0.248 NA
ATOM     35  C   UNL A   1      37.774  30.375  28.904  1.00  0.00     0.031 C 
ATOM     36  C   UNL A   1      38.124  33.984  32.394  1.00  0.00     0.029 A 
ATOM     37  N   UNL A   1      39.741  32.442  32.344  1.00  0.00    -0.354 N 
ATOM     38  C   UNL A   1      39.620  29.177  29.519  1.00  0.00     0.074 A 
ATOM     39  C   UNL A   1      38.442  29.254  28.683  1.00  0.00     0.031 C 
ATOM     40  C   UNL A   1      38.993  34.281  33.373  1.00  0.00     0.029 A 
ATOM     41  C   UNL A   1      40.059  33.285  33.381  1.00  0.00     0.049 A 
ATOM     42  H   UNL A   1      40.286  31.660  32.098  1.00  0.00     0.167 HD
ATOM     43  C   UNL A   1      40.561  28.208  29.421  1.00  0.00     0.037 A 
ATOM     44  C   UNL A   1      41.093  33.257  34.242  1.00  0.00     0.037 A 
ATOM     45  C   UNL A   1      41.743  28.143  30.241  1.00  0.00     0.049 A 
ATOM     46  C   UNL A   1      42.131  32.178  34.105  1.00  0.00     0.074 A 
ATOM     47  C   UNL A   1      42.780  27.229  30.188  1.00  0.00     0.029 A 
ATOM     48  N   UNL A   1      42.043  29.031  31.263  1.00  0.00    -0.354 N 
ATOM     49  N   UNL A   1      42.184  31.186  33.250  1.00  0.00    -0.248 NA
ATOM     50  C   UNL A   1      43.258  32.222  35.047  1.00  0.00     0.031 C 
ATOM     51  C   UNL A   1      43.690  27.542  31.203  1.00  0.00     0.029 A 
ATOM     52  C   UNL A   1      43.243  28.678  31.857  1.00  0.00     0.049 A 
ATOM     53  H   UNL A   1      41.486  29.798  31.526  1.00  0.00     0.167 HD
ATOM     54  C   UNL A   1      43.360  30.503  33.533  1.00  0.00     0.074 A 
ATOM     55  C   UNL A   1      43.999  31.207  34.626  1.00  0.00     0.031 C 
ATOM     56  C   UNL A   1      43.865  29.393  32.943  1.00  0.00     0.037 A 
BRANCH  43  57
ATOM     57  C   UNL A   1      40.353  27.148  28.378  1.00  0.00     0.057 A 
ATOM     58  C   UNL A   1      40.944  27.239  27.109  1.00  0.00     0.134 A 
ATOM     59  C   UNL A   1      39.581  26.012  28.649  1.00  0.00     0.134 A 
ATOM     60  F   UNL A   1      41.685  28.307  26.779  1.00  0.00    -0.206 F 
ATOM     61  C   UNL A   1      40.750  26.253  26.140  1.00  0.00     0.040 A 
ATOM     62  C   UNL A   1      39.403  25.006  27.698  1.00  0.00     0.040 A 
ATOM     63  F   UNL A   1      38.992  25.858  29.844  1.00  0.00    -0.206 F 
ATOM     64  C   UNL A   1      39.982  25.129  26.437  1.00  0.00     0.006 A 
ENDBRANCH  43  57
BRANCH  44  65
ATOM     65  C   UNL A   1      41.214  34.300  35.291  1.00  0.00     0.057 A 
ATOM     66  C   UNL A   1      41.912  35.489  35.051  1.00  0.00     0.134 A 
ATOM     67  C   UNL A   1      40.642  34.132  36.557  1.00  0.00     0.134 A 
ATOM     68  F   UNL A   1      42.496  35.701  33.862  1.00  0.00    -0.206 F 
ATOM     69  C   UNL A   1      42.057  36.464  36.038  1.00  0.00     0.040 A 
ATOM     70  C   UNL A   1      40.757  35.110  37.546  1.00  0.00     0.040 A 
ATOM     71  F   UNL A   1      39.952  33.020  36.846  1.00  0.00    -0.206 F 
ATOM     72  C   UNL A   1      41.474  36.278  37.290  1.00  0.00     0.006 A 
ENDBRANCH  44  65
BRANCH  56  73
ATOM     73  C   UNL A   1      45.185  28.890  33.451  1.00  0.00     0.057 A 
ATOM     74  C   UNL A   1      45.270  27.935  34.472  1.00  0.00     0.134 A 
ATOM     75  C   UNL A   1      46.384  29.350  32.893  1.00  0.00     0.134 A 
ATOM     76  F   UNL A   1      44.158  27.464  35.057  1.00  0.00    -0.206 F 
ATOM     77  C   UNL A   1      46.502  27.476  34.940  1.00  0.00     0.040 A 
ATOM     78  C   UNL A   1      47.622  28.879  33.334  1.00  0.00     0.040 A 
ATOM     79  F   UNL A   1      46.373  30.258  31.906  1.00  0.00    -0.206 F 
ATOM     80  C   UNL A   1      47.683  27.945  34.366  1.00  0.00     0.006 A 
ENDBRANCH  56  73
ENDBRANCH  30  31
ENDBRANCH  22  25
ENDBRANCH  20  21
ENDBRANCH  19  20
ENDBRANCH   1  19
TORSDOF 16
ENDMDL
MODEL 3
REMARK VINA RESULT:     -10.1      1.900      6.725
REMARK SMILES CCCC[C@@](CC)(C[C@H]1CCOC1)C(=O)NCCCNC(=O)c1ccc(-c2c3nc(c(-c4c(F)cccc4F)c4ccc([nH]4)c(-c4c(F)cccc4F)c4nc(c(-c5c(F)cccc5F)c5ccc2[nH]5)C=C4)C=C3)cc1
REMARK SMILES IDX 17 1 16 2 14 3 15 4 5 6 4 7 3 8 2 9 1 10 6 11 7 12 8 13 9 14
REMARK SMILES IDX 10 15 13 16 11 17 12 18 18 19 19 20 20 21 21 22 22 24 23 25
REMARK SMILES IDX 24 26 76 27 25 28 75 29 26 30 27 31 28 32 69 33 29 34 74 35
REMARK SMILES IDX 68 36 70 37 30 38 73 39 67 40 66 41 31 43 57 44 40 45 56 46
REMARK SMILES IDX 41 47 44 48 55 49 71 50 42 51 43 52 54 54 72 55 45 56 32 57
REMARK SMILES IDX 33 58 38 59 34 60 35 61 37 62 39 63 36 64 58 65 59 66 64 67
REMARK SMILES IDX 60 68 61 69 63 70 65 71 62 72 46 73 47 74 52 75 48 76 49 77
REMARK SMILES IDX 51 78 53 79 50 80
REMARK H PARENT 16 5 20 23 70 42 44 53
REMARK Flexibility Score: inf
ROOT
ATOM      1  C   UNL A   1      36.317  20.585  25.114  1.00  0.00     0.117 C 
ENDROOT
BRANCH   1   2
ATOM      2  N   UNL A   1      36.641  21.797  25.849  1.00  0.00    -0.356 N 
ATOM      3  C   UNL A   1      36.185  23.076  25.816  1.00  0.00     0.226 C 
ATOM      4  O   UNL A   1      36.913  23.884  26.395  1.00  0.00    -0.274 OA
ATOM      5  H   UNL A   1      37.347  21.660  26.522  1.00  0.00     0.163 HD
BRANCH   3   6
ATOM      6  C   UNL A   1      34.912  23.508  25.057  1.00  0.00     0.049 C 
BRANCH   6   7
ATOM      7  C   UNL A   1      33.635  22.662  25.433  1.00  0.00     0.017 C 
BRANCH   7   8
ATOM      8  C   UNL A   1      33.051  22.715  26.861  1.00  0.00     0.001 C 
BRANCH   8   9
ATOM      9  C   UNL A   1      31.559  23.027  27.014  1.00  0.00    -0.003 C 
ATOM     10  C   UNL A   1      30.809  23.125  25.692  1.00  0.00     0.004 C 
ENDBRANCH   8   9
ENDBRANCH   7   8
ENDBRANCH   6   7
BRANCH   6  11
ATOM     11  C   UNL A   1      35.165  23.321  23.516  1.00  0.00     0.013 C 
ATOM     12  C   UNL A   1      33.934  23.094  22.647  1.00  0.00     0.005 C 
ENDBRANCH   6  11
BRANCH   6  13
ATOM     13  C   UNL A   1      34.626  25.004  25.430  1.00  0.00     0.023 C 
BRANCH  13  14
ATOM     14  C   UNL A   1      33.369  25.766  24.926  1.00  0.00     0.018 C 
ATOM     15  C   UNL A   1      32.654  26.504  26.047  1.00  0.00     0.034 C 
ATOM     16  C   UNL A   1      33.411  26.818  23.828  1.00  0.00     0.163 C 
ATOM     17  C   UNL A   1      31.709  27.426  25.311  1.00  0.00     0.160 C 
ATOM     18  O   UNL A   1      32.261  27.664  24.015  1.00  0.00    -0.381 OA
ENDBRANCH  13  14
ENDBRANCH   6  13
ENDBRANCH   3   6
ENDBRANCH   1   2
BRANCH   1  19
ATOM     19  C   UNL A   1      37.526  19.670  24.982  1.00  0.00     0.042 C 
BRANCH  19  20
ATOM     20  C   UNL A   1      38.846  20.328  25.356  1.00  0.00     0.118 C 
BRANCH  20  21
ATOM     21  N   UNL A   1      39.906  19.361  25.606  1.00  0.00    -0.352 N 
ATOM     22  C   UNL A   1      41.178  19.543  26.088  1.00  0.00     0.251 C 
ATOM     23  H   UNL A   1      39.672  18.428  25.397  1.00  0.00     0.163 HD
ATOM     24  O   UNL A   1      41.983  18.619  26.040  1.00  0.00    -0.269 OA
BRANCH  22  25
ATOM     25  C   UNL A   1      41.589  20.851  26.645  1.00  0.00     0.039 A 
ATOM     26  C   UNL A   1      42.110  21.814  25.778  1.00  0.00     0.014 A 
ATOM     27  C   UNL A   1      41.486  21.123  28.011  1.00  0.00     0.014 A 
ATOM     28  C   UNL A   1      42.468  23.069  26.273  1.00  0.00     0.010 A 
ATOM     29  C   UNL A   1      41.753  22.403  28.486  1.00  0.00     0.010 A 
ATOM     30  C   UNL A   1      42.257  23.386  27.625  1.00  0.00    -0.014 A 
BRANCH  30  31
ATOM     31  C   UNL A   1      42.572  24.738  28.151  1.00  0.00     0.031 A 
ATOM     32  C   UNL A   1      43.977  25.086  28.561  1.00  0.00     0.074 A 
ATOM     33  C   UNL A   1      41.580  25.637  28.305  1.00  0.00     0.049 A 
ATOM     34  N   UNL A   1      44.436  26.201  29.072  1.00  0.00    -0.248 NA
ATOM     35  C   UNL A   1      44.994  24.035  28.405  1.00  0.00     0.031 C 
ATOM     36  C   UNL A   1      40.168  25.401  28.003  1.00  0.00     0.029 A 
ATOM     37  N   UNL A   1      41.610  26.932  28.760  1.00  0.00    -0.354 N 
ATOM     38  C   UNL A   1      45.788  25.981  29.301  1.00  0.00     0.074 A 
ATOM     39  C   UNL A   1      46.063  24.608  28.937  1.00  0.00     0.031 C 
ATOM     40  C   UNL A   1      39.471  26.521  28.254  1.00  0.00     0.029 A 
ATOM     41  C   UNL A   1      40.379  27.542  28.764  1.00  0.00     0.049 A 
ATOM     42  H   UNL A   1      42.435  27.380  29.055  1.00  0.00     0.167 HD
ATOM     43  C   UNL A   1      46.725  26.851  29.748  1.00  0.00     0.037 A 
ATOM     44  C   UNL A   1      40.024  28.785  29.138  1.00  0.00     0.037 A 
ATOM     45  C   UNL A   1      46.455  28.223  30.092  1.00  0.00     0.049 A 
ATOM     46  C   UNL A   1      41.083  29.737  29.620  1.00  0.00     0.074 A 
ATOM     47  C   UNL A   1      47.343  29.199  30.509  1.00  0.00     0.029 A 
ATOM     48  N   UNL A   1      45.200  28.812  30.057  1.00  0.00    -0.354 N 
ATOM     49  N   UNL A   1      42.371  29.535  29.768  1.00  0.00    -0.248 NA
ATOM     50  C   UNL A   1      40.642  31.093  29.976  1.00  0.00     0.031 C 
ATOM     51  C   UNL A   1      46.619  30.369  30.762  1.00  0.00     0.029 A 
ATOM     52  C   UNL A   1      45.288  30.135  30.458  1.00  0.00     0.049 A 
ATOM     53  H   UNL A   1      44.370  28.358  29.787  1.00  0.00     0.167 HD
ATOM     54  C   UNL A   1      42.896  30.742  30.209  1.00  0.00     0.074 A 
ATOM     55  C   UNL A   1      41.791  31.676  30.285  1.00  0.00     0.031 C 
ATOM     56  C   UNL A   1      44.177  31.050  30.525  1.00  0.00     0.037 A 
BRANCH  43  57
ATOM     57  C   UNL A   1      48.132  26.345  29.875  1.00  0.00     0.057 A 
ATOM     58  C   UNL A   1      49.044  26.430  28.813  1.00  0.00     0.134 A 
ATOM     59  C   UNL A   1      48.593  25.793  31.077  1.00  0.00     0.134 A 
ATOM     60  F   UNL A   1      48.663  26.935  27.630  1.00  0.00    -0.206 F 
ATOM     61  C   UNL A   1      50.352  25.958  28.933  1.00  0.00     0.040 A 
ATOM     62  C   UNL A   1      49.908  25.344  31.217  1.00  0.00     0.040 A 
ATOM     63  F   UNL A   1      47.777  25.687  32.135  1.00  0.00    -0.206 F 
ATOM     64  C   UNL A   1      50.789  25.419  30.140  1.00  0.00     0.006 A 
ENDBRANCH  43  57
BRANCH  44  65
ATOM     65  C   UNL A   1      38.605  29.211  29.044  1.00  0.00     0.057 A 
ATOM     66  C   UNL A   1      37.763  29.173  30.161  1.00  0.00     0.134 A 
ATOM     67  C   UNL A   1      38.056  29.659  27.837  1.00  0.00     0.134 A 
ATOM     68  F   UNL A   1      38.227  28.738  31.342  1.00  0.00    -0.206 F 
ATOM     69  C   UNL A   1      36.420  29.544  30.078  1.00  0.00     0.040 A 
ATOM     70  C   UNL A   1      36.721  30.057  27.745  1.00  0.00     0.040 A 
ATOM     71  F   UNL A   1      38.813  29.728  26.733  1.00  0.00    -0.206 F 
ATOM     72  C   UNL A   1      35.897  29.993  28.867  1.00  0.00     0.006 A 
ENDBRANCH  44  65
BRANCH  56  73
ATOM     73  C   UNL A   1      44.454  32.462  30.954  1.00  0.00     0.057 A 
ATOM     74  C   UNL A   1      44.429  32.845  32.301  1.00  0.00     0.134 A 
ATOM     75  C   UNL A   1      44.772  33.444  30.007  1.00  0.00     0.134 A 
ATOM     76  F   UNL A   1      44.118  31.954  33.256  1.00  0.00    -0.206 F 
ATOM     77  C   UNL A   1      44.685  34.160  32.690  1.00  0.00     0.040 A 
ATOM     78  C   UNL A   1      45.056  34.757  30.386  1.00  0.00     0.040 A 
ATOM     79  F   UNL A   1      44.822  33.142  28.702  1.00  0.00    -0.206 F 
ATOM     80  C   UNL A   1      45.005  35.120  31.731  1.00  0.00     0.006 A 
ENDBRANCH  56  73
ENDBRANCH  30  31
ENDBRANCH  22  25
ENDBRANCH  20  21
ENDBRANCH  19  20
ENDBRANCH   1  19
TORSDOF 16
ENDMDL
