MODEL 1
REMARK VINA RESULT:     -11.6      0.000      0.000
REMARK SMILES NC(=O)[C@@H]1CCCCN1c1cncc(C(=O)NCCCNC(=O)c2ccc(-c3c4nc(c(-c5c(F)cccc5F)c5ccc([nH]5)c(-c5c(F)cccc5F)c5nc(c(-c6c(F)cccc6F)c6ccc3[nH]6)C=C5)C=C4)cc2)n1
REMARK SMILES IDX 19 1 18 2 17 3 15 4 16 5 14 7 10 8 11 9 78 10 12 11 13 12
REMARK SMILES IDX 9 13 4 14 5 15 6 16 8 17 7 18 2 19 1 20 3 23 20 24 21 25
REMARK SMILES IDX 22 26 23 28 24 29 25 30 77 31 26 32 76 33 27 34 28 35 29 36
REMARK SMILES IDX 70 37 30 38 75 39 69 40 71 41 31 42 74 43 68 44 67 45 32 47
REMARK SMILES IDX 58 48 41 49 57 50 42 51 45 52 56 53 72 54 43 55 44 56 55 58
REMARK SMILES IDX 73 59 46 60 33 61 34 62 39 63 35 64 36 65 38 66 40 67 37 68
REMARK SMILES IDX 59 69 60 70 65 71 61 72 62 73 64 74 66 75 63 76 47 77 48 78
REMARK SMILES IDX 53 79 49 80 50 81 52 82 54 83 51 84
REMARK H PARENT 17 6 1 21 1 22 21 27 71 46 45 57
REMARK Flexibility Score: inf
ROOT
ATOM      1  C   UNL A   1      32.245  28.000  27.331  1.00  0.00     0.042 C 
ENDROOT
BRANCH   1   2
ATOM      2  C   UNL A   1      32.051  26.862  26.337  1.00  0.00     0.118 C 
BRANCH   2   3
ATOM      3  N   UNL A   1      31.408  25.709  26.943  1.00  0.00    -0.351 N 
ATOM      4  C   UNL A   1      31.253  24.415  26.506  1.00  0.00     0.271 C 
ATOM      5  O   UNL A   1      30.621  23.648  27.234  1.00  0.00    -0.267 OA
ATOM      6  H   UNL A   1      31.012  25.887  27.827  1.00  0.00     0.163 HD
BRANCH   4   7
ATOM      7  C   UNL A   1      31.819  23.901  25.222  1.00  0.00     0.148 A 
ATOM      8  C   UNL A   1      33.476  22.811  24.019  1.00  0.00     0.148 A 
ATOM      9  C   UNL A   1      32.676  22.974  22.877  1.00  0.00     0.157 A 
ATOM     10  N   UNL A   1      33.031  23.270  25.210  1.00  0.00    -0.222 NA
ATOM     11  N   UNL A   1      31.462  23.578  22.870  1.00  0.00    -0.258 NA
ATOM     12  C   UNL A   1      31.052  24.037  24.073  1.00  0.00     0.145 A 
BRANCH   8  13
ATOM     13  N   UNL A   1      34.698  22.173  23.927  1.00  0.00    -0.343 N 
ATOM     14  C   UNL A   1      35.147  21.025  24.759  1.00  0.00     0.172 C 
ATOM     15  C   UNL A   1      35.949  21.513  25.967  1.00  0.00     0.035 C 
ATOM     16  C   UNL A   1      37.123  22.377  25.506  1.00  0.00     0.004 C 
ATOM     17  C   UNL A   1      35.798  23.026  23.447  1.00  0.00     0.119 C 
ATOM     18  C   UNL A   1      36.636  23.529  24.628  1.00  0.00     0.022 C 
BRANCH  14  19
ATOM     19  C   UNL A   1      34.135  19.929  25.148  1.00  0.00     0.240 C 
ATOM     20  N   UNL A   1      33.379  20.073  26.264  1.00  0.00    -0.368 N 
ATOM     21  H   UNL A   1      32.732  19.375  26.514  1.00  0.00     0.159 HD
ATOM     22  H   UNL A   1      33.477  20.877  26.825  1.00  0.00     0.159 HD
ATOM     23  O   UNL A   1      34.060  18.870  24.523  1.00  0.00    -0.273 OA
ENDBRANCH  14  19
ENDBRANCH   8  13
ENDBRANCH   4   7
ENDBRANCH   2   3
ENDBRANCH   1   2
BRANCH   1  24
ATOM     24  C   UNL A   1      33.642  28.608  27.271  1.00  0.00     0.118 C 
BRANCH  24  25
ATOM     25  N   UNL A   1      33.647  30.014  27.659  1.00  0.00    -0.352 N 
ATOM     26  C   UNL A   1      34.597  30.754  28.311  1.00  0.00     0.251 C 
ATOM     27  H   UNL A   1      32.834  30.512  27.412  1.00  0.00     0.163 HD
ATOM     28  O   UNL A   1      34.304  31.874  28.738  1.00  0.00    -0.269 OA
BRANCH  26  29
ATOM     29  C   UNL A   1      35.958  30.227  28.515  1.00  0.00     0.039 A 
ATOM     30  C   UNL A   1      36.863  30.261  27.450  1.00  0.00     0.014 A 
ATOM     31  C   UNL A   1      36.336  29.663  29.736  1.00  0.00     0.014 A 
ATOM     32  C   UNL A   1      38.162  29.784  27.627  1.00  0.00     0.010 A 
ATOM     33  C   UNL A   1      37.653  29.262  29.937  1.00  0.00     0.010 A 
ATOM     34  C   UNL A   1      38.577  29.312  28.883  1.00  0.00    -0.014 A 
BRANCH  34  35
ATOM     35  C   UNL A   1      39.971  28.865  29.117  1.00  0.00     0.031 A 
ATOM     36  C   UNL A   1      40.973  29.805  29.727  1.00  0.00     0.074 A 
ATOM     37  C   UNL A   1      40.352  27.639  28.711  1.00  0.00     0.049 A 
ATOM     38  N   UNL A   1      42.255  29.631  29.928  1.00  0.00    -0.248 NA
ATOM     39  C   UNL A   1      40.475  31.128  30.138  1.00  0.00     0.031 C 
ATOM     40  C   UNL A   1      39.483  26.654  28.063  1.00  0.00     0.029 A 
ATOM     41  N   UNL A   1      41.573  27.017  28.770  1.00  0.00    -0.354 N 
ATOM     42  C   UNL A   1      42.718  30.823  30.470  1.00  0.00     0.074 A 
ATOM     43  C   UNL A   1      41.592  31.731  30.519  1.00  0.00     0.031 C 
ATOM     44  C   UNL A   1      40.192  25.545  27.805  1.00  0.00     0.029 A 
ATOM     45  C   UNL A   1      41.573  25.754  28.230  1.00  0.00     0.049 A 
ATOM     46  H   UNL A   1      42.373  27.436  29.163  1.00  0.00     0.167 HD
ATOM     47  C   UNL A   1      43.962  31.126  30.907  1.00  0.00     0.037 A 
ATOM     48  C   UNL A   1      42.575  24.868  28.087  1.00  0.00     0.037 A 
ATOM     49  C   UNL A   1      45.073  30.210  30.882  1.00  0.00     0.049 A 
ATOM     50  C   UNL A   1      43.949  25.228  28.580  1.00  0.00     0.074 A 
ATOM     51  C   UNL A   1      46.359  30.399  31.357  1.00  0.00     0.029 A 
ATOM     52  N   UNL A   1      45.028  28.930  30.348  1.00  0.00    -0.354 N 
ATOM     53  N   UNL A   1      44.358  26.335  29.150  1.00  0.00    -0.248 NA
ATOM     54  C   UNL A   1      44.998  24.212  28.417  1.00  0.00     0.031 C 
ATOM     55  C   UNL A   1      47.103  29.250  31.074  1.00  0.00     0.029 A 
ATOM     56  C   UNL A   1      46.269  28.326  30.464  1.00  0.00     0.049 A 
ATOM     57  H   UNL A   1      44.231  28.513  29.946  1.00  0.00     0.167 HD
ATOM     58  C   UNL A   1      45.702  26.140  29.438  1.00  0.00     0.074 A 
ATOM     59  C   UNL A   1      46.036  24.804  28.991  1.00  0.00     0.031 C 
ATOM     60  C   UNL A   1      46.581  26.991  30.021  1.00  0.00     0.037 A 
BRANCH  47  61
ATOM     61  C   UNL A   1      44.186  32.506  31.455  1.00  0.00     0.057 A 
ATOM     62  C   UNL A   1      44.040  32.792  32.819  1.00  0.00     0.134 A 
ATOM     63  C   UNL A   1      44.581  33.554  30.614  1.00  0.00     0.134 A 
ATOM     64  F   UNL A   1      43.653  31.837  33.676  1.00  0.00    -0.206 F 
ATOM     65  C   UNL A   1      44.250  34.078  33.322  1.00  0.00     0.040 A 
ATOM     66  C   UNL A   1      44.821  34.837  31.110  1.00  0.00     0.040 A 
ATOM     67  F   UNL A   1      44.747  33.348  29.299  1.00  0.00    -0.206 F 
ATOM     68  C   UNL A   1      44.648  35.104  32.466  1.00  0.00     0.006 A 
ENDBRANCH  47  61
BRANCH  48  69
ATOM     69  C   UNL A   1      42.311  23.544  27.471  1.00  0.00     0.057 A 
ATOM     70  C   UNL A   1      42.398  23.365  26.085  1.00  0.00     0.134 A 
ATOM     71  C   UNL A   1      41.972  22.429  28.246  1.00  0.00     0.134 A 
ATOM     72  F   UNL A   1      42.704  24.400  25.289  1.00  0.00    -0.206 F 
ATOM     73  C   UNL A   1      42.138  22.130  25.489  1.00  0.00     0.040 A 
ATOM     74  C   UNL A   1      41.732  21.182  27.666  1.00  0.00     0.040 A 
ATOM     75  F   UNL A   1      41.881  22.533  29.580  1.00  0.00    -0.206 F 
ATOM     76  C   UNL A   1      41.809  21.032  26.282  1.00  0.00     0.006 A 
ENDBRANCH  48  69
BRANCH  60  77
ATOM     77  C   UNL A   1      47.978  26.489  30.244  1.00  0.00     0.057 A 
ATOM     78  C   UNL A   1      48.349  25.834  31.424  1.00  0.00     0.134 A 
ATOM     79  C   UNL A   1      48.951  26.632  29.246  1.00  0.00     0.134 A 
ATOM     80  F   UNL A   1      47.468  25.679  32.423  1.00  0.00    -0.206 F 
ATOM     81  C   UNL A   1      49.648  25.355  31.613  1.00  0.00     0.040 A 
ATOM     82  C   UNL A   1      50.244  26.134  29.413  1.00  0.00     0.040 A 
ATOM     83  F   UNL A   1      48.657  27.243  28.089  1.00  0.00    -0.206 F 
ATOM     84  C   UNL A   1      50.596  25.499  30.602  1.00  0.00     0.006 A 
ENDBRANCH  60  77
ENDBRANCH  34  35
ENDBRANCH  26  29
ENDBRANCH  24  25
ENDBRANCH   1  24
TORSDOF 12
ENDMDL
MODEL 2
REMARK VINA RESULT:     -11.4      2.388      7.220
REMARK SMILES NC(=O)[C@@H]1CCCCN1c1cncc(C(=O)NCCCNC(=O)c2ccc(-c3c4nc(c(-c5c(F)cccc5F)c5ccc([nH]5)c(-c5c(F)cccc5F)c5nc(c(-c6c(F)cccc6F)c6ccc3[nH]6)C=C5)C=C4)cc2)n1
REMARK SMILES IDX 19 1 18 2 17 3 15 4 16 5 14 7 10 8 11 9 78 10 12 11 13 12
REMARK SMILES IDX 9 13 4 14 5 15 6 16 8 17 7 18 2 19 1 20 3 23 20 24 21 25
REMARK SMILES IDX 22 26 23 28 24 29 25 30 77 31 26 32 76 33 27 34 28 35 29 36
REMARK SMILES IDX 70 37 30 38 75 39 69 40 71 41 31 42 74 43 68 44 67 45 32 47
REMARK SMILES IDX 58 48 41 49 57 50 42 51 45 52 56 53 72 54 43 55 44 56 55 58
REMARK SMILES IDX 73 59 46 60 33 61 34 62 39 63 35 64 36 65 38 66 40 67 37 68
REMARK SMILES IDX 59 69 60 70 65 71 61 72 62 73 64 74 66 75 63 76 47 77 48 78
REMARK SMILES IDX 53 79 49 80 50 81 52 82 54 83 51 84
REMARK H PARENT 17 6 1 21 1 22 21 27 71 46 45 57
REMARK Flexibility Score: inf
ROOT
ATOM      1  C   UNL A   1      37.676  19.720  24.706  1.00  0.00     0.042 C 
ENDROOT
BRANCH   1   2
ATOM      2  C   UNL A   1      36.330  20.358  25.023  1.00  0.00     0.118 C 
BRANCH   2   3
ATOM      3  N   UNL A   1      35.247  19.392  24.999  1.00  0.00    -0.351 N 
ATOM      4  C   UNL A   1      33.897  19.538  24.780  1.00  0.00     0.271 C 
ATOM      5  O   UNL A   1      33.203  18.522  24.856  1.00  0.00    -0.267 OA
ATOM      6  H   UNL A   1      35.530  18.465  25.171  1.00  0.00     0.163 HD
BRANCH   4   7
ATOM      7  C   UNL A   1      33.248  20.842  24.445  1.00  0.00     0.148 A 
ATOM      8  C   UNL A   1      32.831  23.080  24.884  1.00  0.00     0.148 A 
ATOM      9  C   UNL A   1      32.090  23.119  23.692  1.00  0.00     0.157 A 
ATOM     10  N   UNL A   1      33.429  21.926  25.255  1.00  0.00    -0.222 NA
ATOM     11  N   UNL A   1      31.915  22.060  22.863  1.00  0.00    -0.258 NA
ATOM     12  C   UNL A   1      32.514  20.919  23.269  1.00  0.00     0.145 A 
BRANCH   8  13
ATOM     13  N   UNL A   1      32.959  24.217  25.659  1.00  0.00    -0.343 N 
ATOM     14  C   UNL A   1      31.840  25.032  26.203  1.00  0.00     0.172 C 
ATOM     15  C   UNL A   1      31.515  26.199  25.267  1.00  0.00     0.035 C 
ATOM     16  C   UNL A   1      32.767  27.041  25.021  1.00  0.00     0.004 C 
ATOM     17  C   UNL A   1      34.192  24.984  25.420  1.00  0.00     0.119 C 
ATOM     18  C   UNL A   1      33.909  26.173  24.493  1.00  0.00     0.022 C 
BRANCH  14  19
ATOM     19  C   UNL A   1      30.563  24.328  26.705  1.00  0.00     0.240 C 
ATOM     20  N   UNL A   1      29.350  24.892  26.486  1.00  0.00    -0.368 N 
ATOM     21  H   UNL A   1      28.534  24.443  26.805  1.00  0.00     0.159 HD
ATOM     22  H   UNL A   1      29.285  25.750  26.007  1.00  0.00     0.159 HD
ATOM     23  O   UNL A   1      30.619  23.307  27.392  1.00  0.00    -0.273 OA
ENDBRANCH  14  19
ENDBRANCH   8  13
ENDBRANCH   4   7
ENDBRANCH   2   3
ENDBRANCH   1   2
BRANCH   1  24
ATOM     24  C   UNL A   1      38.797  20.218  25.612  1.00  0.00     0.118 C 
BRANCH  24  25
ATOM     25  N   UNL A   1      39.838  19.214  25.802  1.00  0.00    -0.352 N 
ATOM     26  C   UNL A   1      41.171  19.356  26.081  1.00  0.00     0.251 C 
ATOM     27  H   UNL A   1      39.532  18.282  25.715  1.00  0.00     0.163 HD
ATOM     28  O   UNL A   1      41.918  18.380  25.980  1.00  0.00    -0.269 OA
BRANCH  26  29
ATOM     29  C   UNL A   1      41.723  20.659  26.493  1.00  0.00     0.039 A 
ATOM     30  C   UNL A   1      42.103  21.576  25.508  1.00  0.00     0.014 A 
ATOM     31  C   UNL A   1      41.907  20.967  27.843  1.00  0.00     0.014 A 
ATOM     32  C   UNL A   1      42.612  22.821  25.878  1.00  0.00     0.010 A 
ATOM     33  C   UNL A   1      42.338  22.237  28.213  1.00  0.00     0.010 A 
ATOM     34  C   UNL A   1      42.701  23.174  27.234  1.00  0.00    -0.014 A 
BRANCH  34  35
ATOM     35  C   UNL A   1      43.171  24.517  27.653  1.00  0.00     0.031 A 
ATOM     36  C   UNL A   1      42.180  25.569  28.066  1.00  0.00     0.074 A 
ATOM     37  C   UNL A   1      44.484  24.810  27.588  1.00  0.00     0.049 A 
ATOM     38  N   UNL A   1      42.388  26.823  28.379  1.00  0.00    -0.248 NA
ATOM     39  C   UNL A   1      40.765  25.167  28.105  1.00  0.00     0.031 C 
ATOM     40  C   UNL A   1      45.536  23.888  27.156  1.00  0.00     0.029 A 
ATOM     41  N   UNL A   1      45.155  25.972  27.870  1.00  0.00    -0.354 N 
ATOM     42  C   UNL A   1      41.134  27.362  28.633  1.00  0.00     0.074 A 
ATOM     43  C   UNL A   1      40.166  26.314  28.389  1.00  0.00     0.031 C 
ATOM     44  C   UNL A   1      46.722  24.512  27.224  1.00  0.00     0.029 A 
ATOM     45  C   UNL A   1      46.510  25.888  27.663  1.00  0.00     0.049 A 
ATOM     46  H   UNL A   1      44.708  26.788  28.192  1.00  0.00     0.167 HD
ATOM     47  C   UNL A   1      40.819  28.610  29.052  1.00  0.00     0.037 A 
ATOM     48  C   UNL A   1      47.472  26.818  27.803  1.00  0.00     0.037 A 
ATOM     49  C   UNL A   1      41.787  29.641  29.320  1.00  0.00     0.049 A 
ATOM     50  C   UNL A   1      47.097  28.197  28.270  1.00  0.00     0.074 A 
ATOM     51  C   UNL A   1      41.575  30.918  29.807  1.00  0.00     0.029 A 
ATOM     52  N   UNL A   1      43.154  29.511  29.120  1.00  0.00    -0.354 N 
ATOM     53  N   UNL A   1      45.913  28.675  28.569  1.00  0.00    -0.248 NA
ATOM     54  C   UNL A   1      48.193  29.164  28.426  1.00  0.00     0.031 C 
ATOM     55  C   UNL A   1      42.808  31.575  29.862  1.00  0.00     0.029 A 
ATOM     56  C   UNL A   1      43.795  30.691  29.455  1.00  0.00     0.049 A 
ATOM     57  H   UNL A   1      43.602  28.698  28.789  1.00  0.00     0.167 HD
ATOM     58  C   UNL A   1      46.124  29.986  28.973  1.00  0.00     0.074 A 
ATOM     59  C   UNL A   1      47.550  30.225  28.893  1.00  0.00     0.031 C 
ATOM     60  C   UNL A   1      45.217  30.909  29.377  1.00  0.00     0.037 A 
BRANCH  47  61
ATOM     61  C   UNL A   1      39.364  28.926  29.251  1.00  0.00     0.057 A 
ATOM     62  C   UNL A   1      38.564  29.409  28.207  1.00  0.00     0.134 A 
ATOM     63  C   UNL A   1      38.750  28.718  30.493  1.00  0.00     0.134 A 
ATOM     64  F   UNL A   1      39.093  29.642  26.997  1.00  0.00    -0.206 F 
ATOM     65  C   UNL A   1      37.212  29.701  28.399  1.00  0.00     0.040 A 
ATOM     66  C   UNL A   1      37.393  28.980  30.688  1.00  0.00     0.040 A 
ATOM     67  F   UNL A   1      39.456  28.251  31.533  1.00  0.00    -0.206 F 
ATOM     68  C   UNL A   1      36.621  29.481  29.642  1.00  0.00     0.006 A 
ENDBRANCH  47  61
BRANCH  48  69
ATOM     69  C   UNL A   1      48.887  26.470  27.522  1.00  0.00     0.057 A 
ATOM     70  C   UNL A   1      49.439  26.672  26.251  1.00  0.00     0.134 A 
ATOM     71  C   UNL A   1      49.720  25.932  28.510  1.00  0.00     0.134 A 
ATOM     72  F   UNL A   1      48.685  27.169  25.260  1.00  0.00    -0.206 F 
ATOM     73  C   UNL A   1      50.763  26.335  25.967  1.00  0.00     0.040 A 
ATOM     74  C   UNL A   1      51.053  25.613  28.246  1.00  0.00     0.040 A 
ATOM     75  F   UNL A   1      49.254  25.723  29.749  1.00  0.00    -0.206 F 
ATOM     76  C   UNL A   1      51.576  25.809  26.969  1.00  0.00     0.006 A 
ENDBRANCH  48  69
BRANCH  60  77
ATOM     77  C   UNL A   1      45.743  32.250  29.798  1.00  0.00     0.057 A 
ATOM     78  C   UNL A   1      46.122  32.514  31.119  1.00  0.00     0.134 A 
ATOM     79  C   UNL A   1      45.908  33.275  28.858  1.00  0.00     0.134 A 
ATOM     80  F   UNL A   1      45.975  31.579  32.070  1.00  0.00    -0.206 F 
ATOM     81  C   UNL A   1      46.627  33.761  31.496  1.00  0.00     0.040 A 
ATOM     82  C   UNL A   1      46.437  34.515  29.217  1.00  0.00     0.040 A 
ATOM     83  F   UNL A   1      45.572  33.084  27.573  1.00  0.00    -0.206 F 
ATOM     84  C   UNL A   1      46.792  34.762  30.541  1.00  0.00     0.006 A 
ENDBRANCH  60  77
ENDBRANCH  34  35
ENDBRANCH  26  29
ENDBRANCH  24  25
ENDBRANCH   1  24
TORSDOF 12
ENDMDL
MODEL 3
REMARK VINA RESULT:     -11.4      1.972      7.433
REMARK SMILES NC(=O)[C@@H]1CCCCN1c1cncc(C(=O)NCCCNC(=O)c2ccc(-c3c4nc(c(-c5c(F)cccc5F)c5ccc([nH]5)c(-c5c(F)cccc5F)c5nc(c(-c6c(F)cccc6F)c6ccc3[nH]6)C=C5)C=C4)cc2)n1
REMARK SMILES IDX 19 1 18 2 17 3 15 4 16 5 14 7 10 8 11 9 78 10 12 11 13 12
REMARK SMILES IDX 9 13 4 14 5 15 6 16 8 17 7 18 2 19 1 20 3 23 20 24 21 25
REMARK SMILES IDX 22 26 23 28 24 29 25 30 77 31 26 32 76 33 27 34 28 35 29 36
REMARK SMILES IDX 70 37 30 38 75 39 69 40 71 41 31 42 74 43 68 44 67 45 32 47
REMARK SMILES IDX 58 48 41 49 57 50 42 51 45 52 56 53 72 54 43 55 44 56 55 58
REMARK SMILES IDX 73 59 46 60 33 61 34 62 39 63 35 64 36 65 38 66 40 67 37 68
REMARK SMILES IDX 59 69 60 70 65 71 61 72 62 73 64 74 66 75 63 76 47 77 48 78
REMARK SMILES IDX 53 79 49 80 50 81 52 82 54 83 51 84
REMARK H PARENT 17 6 1 21 1 22 21 27 71 46 45 57
REMARK Flexibility Score: inf
ROOT
ATOM      1  C   UNL A   1      37.721  19.672  24.810  1.00  0.00     0.042 C 
ENDROOT
BRANCH   1   2
ATOM      2  C   UNL A   1      36.355  20.314  25.016  1.00  0.00     0.118 C 
BRANCH   2   3
ATOM      3  N   UNL A   1      35.281  19.337  24.989  1.00  0.00    -0.351 N 
ATOM      4  C   UNL A   1      33.925  19.476  24.809  1.00  0.00     0.271 C 
ATOM      5  O   UNL A   1      33.243  18.451  24.869  1.00  0.00    -0.267 OA
ATOM      6  H   UNL A   1      35.578  18.408  25.123  1.00  0.00     0.163 HD
BRANCH   4   7
ATOM      7  C   UNL A   1      33.255  20.782  24.533  1.00  0.00     0.148 A 
ATOM      8  C   UNL A   1      32.795  22.990  25.076  1.00  0.00     0.148 A 
ATOM      9  C   UNL A   1      32.061  23.073  23.884  1.00  0.00     0.157 A 
ATOM     10  N   UNL A   1      33.412  21.830  25.396  1.00  0.00    -0.222 NA
ATOM     11  N   UNL A   1      31.909  22.053  23.003  1.00  0.00    -0.258 NA
ATOM     12  C   UNL A   1      32.526  20.903  23.358  1.00  0.00     0.145 A 
BRANCH   8  13
ATOM     13  N   UNL A   1      32.899  24.089  25.907  1.00  0.00    -0.343 N 
ATOM     14  C   UNL A   1      31.774  24.955  26.351  1.00  0.00     0.172 C 
ATOM     15  C   UNL A   1      31.630  26.171  25.432  1.00  0.00     0.035 C 
ATOM     16  C   UNL A   1      32.950  26.940  25.365  1.00  0.00     0.004 C 
ATOM     17  C   UNL A   1      34.195  24.785  25.841  1.00  0.00     0.119 C 
ATOM     18  C   UNL A   1      34.092  26.019  24.936  1.00  0.00     0.022 C 
BRANCH  14  19
ATOM     19  C   UNL A   1      30.409  24.318  26.675  1.00  0.00     0.240 C 
ATOM     20  N   UNL A   1      29.266  24.921  26.265  1.00  0.00    -0.368 N 
ATOM     21  H   UNL A   1      28.393  24.515  26.471  1.00  0.00     0.159 HD
ATOM     22  H   UNL A   1      29.310  25.767  25.762  1.00  0.00     0.159 HD
ATOM     23  O   UNL A   1      30.318  23.316  27.387  1.00  0.00    -0.273 OA
ENDBRANCH  14  19
ENDBRANCH   8  13
ENDBRANCH   4   7
ENDBRANCH   2   3
ENDBRANCH   1   2
BRANCH   1  24
ATOM     24  C   UNL A   1      38.768  20.173  25.798  1.00  0.00     0.118 C 
BRANCH  24  25
ATOM     25  N   UNL A   1      39.943  19.310  25.839  1.00  0.00    -0.352 N 
ATOM     26  C   UNL A   1      41.259  19.610  26.071  1.00  0.00     0.251 C 
ATOM     27  H   UNL A   1      39.761  18.357  25.673  1.00  0.00     0.163 HD
ATOM     28  O   UNL A   1      42.123  18.760  25.839  1.00  0.00    -0.269 OA
BRANCH  26  29
ATOM     29  C   UNL A   1      41.655  20.932  26.587  1.00  0.00     0.039 A 
ATOM     30  C   UNL A   1      42.086  21.910  25.686  1.00  0.00     0.014 A 
ATOM     31  C   UNL A   1      41.643  21.201  27.958  1.00  0.00     0.014 A 
ATOM     32  C   UNL A   1      42.448  23.173  26.153  1.00  0.00     0.010 A 
ATOM     33  C   UNL A   1      41.927  22.484  28.415  1.00  0.00     0.010 A 
ATOM     34  C   UNL A   1      42.339  23.481  27.519  1.00  0.00    -0.014 A 
BRANCH  34  35
ATOM     35  C   UNL A   1      42.649  24.837  28.032  1.00  0.00     0.031 A 
ATOM     36  C   UNL A   1      44.052  25.185  28.446  1.00  0.00     0.074 A 
ATOM     37  C   UNL A   1      41.653  25.728  28.195  1.00  0.00     0.049 A 
ATOM     38  N   UNL A   1      44.502  26.283  28.998  1.00  0.00    -0.248 NA
ATOM     39  C   UNL A   1      45.079  24.151  28.239  1.00  0.00     0.031 C 
ATOM     40  C   UNL A   1      40.244  25.491  27.875  1.00  0.00     0.029 A 
ATOM     41  N   UNL A   1      41.672  27.009  28.685  1.00  0.00    -0.354 N 
ATOM     42  C   UNL A   1      45.856  26.065  29.220  1.00  0.00     0.074 A 
ATOM     43  C   UNL A   1      46.144  24.714  28.791  1.00  0.00     0.031 C 
ATOM     44  C   UNL A   1      39.538  26.597  28.156  1.00  0.00     0.029 A 
ATOM     45  C   UNL A   1      40.435  27.605  28.713  1.00  0.00     0.049 A 
ATOM     46  H   UNL A   1      42.494  27.459  28.987  1.00  0.00     0.167 HD
ATOM     47  C   UNL A   1      46.779  26.922  29.716  1.00  0.00     0.037 A 
ATOM     48  C   UNL A   1      40.063  28.823  29.147  1.00  0.00     0.037 A 
ATOM     49  C   UNL A   1      46.494  28.275  30.117  1.00  0.00     0.049 A 
ATOM     50  C   UNL A   1      41.108  29.756  29.694  1.00  0.00     0.074 A 
ATOM     51  C   UNL A   1      47.371  29.242  30.575  1.00  0.00     0.029 A 
ATOM     52  N   UNL A   1      45.232  28.850  30.109  1.00  0.00    -0.354 N 
ATOM     53  N   UNL A   1      42.396  29.561  29.838  1.00  0.00    -0.248 NA
ATOM     54  C   UNL A   1      40.648  31.081  30.132  1.00  0.00     0.031 C 
ATOM     55  C   UNL A   1      46.633  30.390  30.883  1.00  0.00     0.029 A 
ATOM     56  C   UNL A   1      45.303  30.153  30.573  1.00  0.00     0.049 A 
ATOM     57  H   UNL A   1      44.406  28.399  29.817  1.00  0.00     0.167 HD
ATOM     58  C   UNL A   1      42.904  30.745  30.357  1.00  0.00     0.074 A 
ATOM     59  C   UNL A   1      41.787  31.656  30.490  1.00  0.00     0.031 C 
ATOM     60  C   UNL A   1      44.182  31.050  30.691  1.00  0.00     0.037 A 
BRANCH  47  61
ATOM     61  C   UNL A   1      48.188  26.419  29.849  1.00  0.00     0.057 A 
ATOM     62  C   UNL A   1      48.632  25.761  31.004  1.00  0.00     0.134 A 
ATOM     63  C   UNL A   1      49.104  26.570  28.800  1.00  0.00     0.134 A 
ATOM     64  F   UNL A   1      47.809  25.595  32.050  1.00  0.00    -0.206 F 
ATOM     65  C   UNL A   1      49.943  25.296  31.122  1.00  0.00     0.040 A 
ATOM     66  C   UNL A   1      50.409  26.084  28.896  1.00  0.00     0.040 A 
ATOM     67  F   UNL A   1      48.743  27.184  27.663  1.00  0.00    -0.206 F 
ATOM     68  C   UNL A   1      50.835  25.452  30.062  1.00  0.00     0.006 A 
ENDBRANCH  47  61
BRANCH  48  69
ATOM     69  C   UNL A   1      38.642  29.241  29.058  1.00  0.00     0.057 A 
ATOM     70  C   UNL A   1      38.094  29.674  27.846  1.00  0.00     0.134 A 
ATOM     71  C   UNL A   1      37.800  29.215  30.176  1.00  0.00     0.134 A 
ATOM     72  F   UNL A   1      38.856  29.736  26.744  1.00  0.00    -0.206 F 
ATOM     73  C   UNL A   1      36.764  30.085  27.750  1.00  0.00     0.040 A 
ATOM     74  C   UNL A   1      36.461  29.600  30.090  1.00  0.00     0.040 A 
ATOM     75  F   UNL A   1      38.263  28.801  31.364  1.00  0.00    -0.206 F 
ATOM     76  C   UNL A   1      35.941  30.042  28.874  1.00  0.00     0.006 A 
ENDBRANCH  48  69
BRANCH  60  77
ATOM     77  C   UNL A   1      44.446  32.437  31.198  1.00  0.00     0.057 A 
ATOM     78  C   UNL A   1      44.740  33.498  30.332  1.00  0.00     0.134 A 
ATOM     79  C   UNL A   1      44.367  32.720  32.567  1.00  0.00     0.134 A 
ATOM     80  F   UNL A   1      44.844  33.289  29.011  1.00  0.00    -0.206 F 
ATOM     81  C   UNL A   1      44.967  34.789  30.813  1.00  0.00     0.040 A 
ATOM     82  C   UNL A   1      44.565  34.011  33.058  1.00  0.00     0.040 A 
ATOM     83  F   UNL A   1      44.081  31.750  33.449  1.00  0.00    -0.206 F 
ATOM     84  C   UNL A   1      44.872  35.048  32.179  1.00  0.00     0.006 A 
ENDBRANCH  60  77
ENDBRANCH  34  35
ENDBRANCH  26  29
ENDBRANCH  24  25
ENDBRANCH   1  24
TORSDOF 12
ENDMDL
