MODEL 1
REMARK VINA RESULT:     -13.5      0.000      0.000
REMARK SMILES CC1(C)C[C@@H]([NH2+]C[C@@H]2CCCC[C@@H]2C(=O)NCCCNC(=O)c2ccc(-c3c4nc(c(-c5c(F)cccc5F)c5ccc([nH]5)c(-c5c(F)cccc5F)c5nc(c(-c6c(F)cccc6F)c6ccc3[nH]6)C=C5)C=C4)cc2)C(C)(C)O1
REMARK SMILES IDX 17 1 16 2 14 3 15 4 13 6 8 7 9 8 10 9 12 10 11 11 7 12 6 13
REMARK SMILES IDX 5 16 1 17 2 18 3 19 4 20 80 21 77 22 78 23 79 24 18 25 19 26
REMARK SMILES IDX 20 27 21 28 22 30 23 31 24 32 76 33 25 34 75 35 26 36 27 37
REMARK SMILES IDX 28 38 69 39 29 40 74 41 68 42 70 43 30 44 73 45 67 46 66 47
REMARK SMILES IDX 31 49 57 50 40 51 56 52 41 53 44 54 55 55 71 56 42 57 43 58
REMARK SMILES IDX 54 60 72 61 45 62 32 63 33 64 38 65 34 66 35 67 37 68 39 69
REMARK SMILES IDX 36 70 58 71 59 72 64 73 60 74 61 75 63 76 65 77 62 78 46 79
REMARK SMILES IDX 47 80 52 81 48 82 49 83 51 84 53 85 50 86
REMARK H PARENT 16 5 6 14 6 15 20 29 70 48 44 59
REMARK Flexibility Score: inf
ROOT
ATOM      1  C   UNL A   1      35.782  19.890  24.969  1.00  0.00     0.117 C 
ENDROOT
BRANCH   1   2
ATOM      2  N   UNL A   1      34.829  21.153  26.328  1.00  0.00    -0.356 N 
ATOM      3  C   UNL A   1      34.363  22.472  26.737  1.00  0.00     0.223 C 
ATOM      4  O   UNL A   1      34.177  22.614  27.955  1.00  0.00    -0.275 OA
ATOM      5  H   UNL A   1      34.558  20.559  27.064  1.00  0.00     0.163 HD
BRANCH   3   6
ATOM      6  C   UNL A   1      34.051  23.713  25.782  1.00  0.00     0.087 C 
ATOM      7  C   UNL A   1      32.674  23.883  25.152  1.00  0.00     0.056 C 
ATOM      8  C   UNL A   1      32.526  23.210  23.789  1.00  0.00     0.010 C 
ATOM      9  C   UNL A   1      33.715  23.570  22.881  1.00  0.00     0.001 C 
ATOM     10  C   UNL A   1      35.246  23.854  24.829  1.00  0.00     0.014 C 
ATOM     11  C   UNL A   1      35.035  23.144  23.506  1.00  0.00     0.001 C 
BRANCH   7  12
ATOM     12  C   UNL A   1      31.554  23.705  26.191  1.00  0.00     0.265 C 
BRANCH  12  13
ATOM     13  N   UNL A   1      31.152  24.910  26.911  1.00  0.00    -0.341 N 
ATOM     14  H   UNL A   1      30.422  24.646  27.572  1.00  0.00     0.346 HD
ATOM     15  H   UNL A   1      32.008  25.263  27.338  1.00  0.00     0.346 HD
BRANCH  13  16
ATOM     16  C   UNL A   1      30.623  26.057  26.075  1.00  0.00     0.217 C 
ATOM     17  C   UNL A   1      31.706  26.785  21.930  1.00  0.00     0.042 C 
ATOM     18  C   UNL A   1      30.759  27.281  23.074  1.00  0.00     0.069 C 
ATOM     19  C   UNL A   1      29.849  28.352  22.440  1.00  0.00     0.042 C 
ATOM     20  C   UNL A   1      29.786  25.972  24.181  1.00  0.00     0.103 C 
ATOM     21  O   UNL A   1      32.080  28.033  24.065  1.00  0.00    -0.363 OA
ATOM     22  C   UNL A   1      32.007  27.630  25.903  1.00  0.00     0.115 C 
ATOM     23  C   UNL A   1      33.418  27.255  26.428  1.00  0.00     0.048 C 
ATOM     24  C   UNL A   1      31.941  29.383  25.755  1.00  0.00     0.048 C 
ENDBRANCH  13  16
ENDBRANCH  12  13
ENDBRANCH   7  12
ENDBRANCH   3   6
ENDBRANCH   1   2
BRANCH   1  25
ATOM     25  C   UNL A   1      37.665  19.607  24.839  1.00  0.00     0.042 C 
BRANCH  25  26
ATOM     26  C   UNL A   1      38.910  20.258  25.657  1.00  0.00     0.118 C 
BRANCH  26  27
ATOM     27  N   UNL A   1      40.115  19.440  25.949  1.00  0.00    -0.352 N 
ATOM     28  C   UNL A   1      41.448  19.773  25.800  1.00  0.00     0.251 C 
ATOM     29  H   UNL A   1      39.940  18.537  26.298  1.00  0.00     0.163 HD
ATOM     30  O   UNL A   1      42.317  19.049  25.341  1.00  0.00    -0.269 OA
BRANCH  28  31
ATOM     31  C   UNL A   1      41.791  20.972  26.516  1.00  0.00     0.039 A 
ATOM     32  C   UNL A   1      42.093  20.991  27.872  1.00  0.00     0.014 A 
ATOM     33  C   UNL A   1      41.941  22.057  25.656  1.00  0.00     0.014 A 
ATOM     34  C   UNL A   1      42.634  22.161  28.369  1.00  0.00     0.010 A 
ATOM     35  C   UNL A   1      42.629  23.132  26.109  1.00  0.00     0.010 A 
ATOM     36  C   UNL A   1      42.920  23.208  27.476  1.00  0.00    -0.014 A 
BRANCH  36  37
ATOM     37  C   UNL A   1      43.457  24.497  27.895  1.00  0.00     0.031 A 
ATOM     38  C   UNL A   1      42.463  25.547  28.282  1.00  0.00     0.074 A 
ATOM     39  C   UNL A   1      44.760  24.737  27.702  1.00  0.00     0.049 A 
ATOM     40  N   UNL A   1      42.632  26.832  28.394  1.00  0.00    -0.248 NA
ATOM     41  C   UNL A   1      41.064  25.101  28.470  1.00  0.00     0.031 C 
ATOM     42  C   UNL A   1      45.753  23.762  27.243  1.00  0.00     0.029 A 
ATOM     43  N   UNL A   1      45.460  25.898  27.835  1.00  0.00    -0.354 N 
ATOM     44  C   UNL A   1      41.365  27.344  28.631  1.00  0.00     0.074 A 
ATOM     45  C   UNL A   1      40.425  26.256  28.537  1.00  0.00     0.031 C 
ATOM     46  C   UNL A   1      46.950  24.365  27.168  1.00  0.00     0.029 A 
ATOM     47  C   UNL A   1      46.783  25.772  27.508  1.00  0.00     0.049 A 
ATOM     48  H   UNL A   1      45.053  26.743  28.138  1.00  0.00     0.167 HD
ATOM     49  C   UNL A   1      41.034  28.613  28.945  1.00  0.00     0.037 A 
ATOM     50  C   UNL A   1      47.737  26.716  27.478  1.00  0.00     0.037 A 
ATOM     51  C   UNL A   1      42.012  29.655  29.061  1.00  0.00     0.049 A 
ATOM     52  C   UNL A   1      47.345  28.121  27.841  1.00  0.00     0.074 A 
ATOM     53  C   UNL A   1      41.833  30.967  29.443  1.00  0.00     0.029 A 
ATOM     54  N   UNL A   1      43.365  29.486  28.791  1.00  0.00    -0.354 N 
ATOM     55  N   UNL A   1      46.161  28.598  28.148  1.00  0.00    -0.248 NA
ATOM     56  C   UNL A   1      48.420  29.117  27.864  1.00  0.00     0.031 C 
ATOM     57  C   UNL A   1      43.068  31.611  29.341  1.00  0.00     0.029 A 
ATOM     58  C   UNL A   1      44.031  30.680  28.978  1.00  0.00     0.049 A 
ATOM     59  H   UNL A   1      43.785  28.642  28.508  1.00  0.00     0.167 HD
ATOM     60  C   UNL A   1      46.354  29.939  28.447  1.00  0.00     0.074 A 
ATOM     61  C   UNL A   1      47.772  30.194  28.285  1.00  0.00     0.031 C 
ATOM     62  C   UNL A   1      45.452  30.877  28.828  1.00  0.00     0.037 A 
BRANCH  49  63
ATOM     63  C   UNL A   1      39.586  28.914  29.193  1.00  0.00     0.057 A 
ATOM     64  C   UNL A   1      39.007  28.789  30.465  1.00  0.00     0.134 A 
ATOM     65  C   UNL A   1      38.759  29.341  28.149  1.00  0.00     0.134 A 
ATOM     66  F   UNL A   1      39.736  28.364  31.508  1.00  0.00    -0.206 F 
ATOM     67  C   UNL A   1      37.653  29.045  30.680  1.00  0.00     0.040 A 
ATOM     68  C   UNL A   1      37.412  29.639  28.360  1.00  0.00     0.040 A 
ATOM     69  F   UNL A   1      39.244  29.477  26.906  1.00  0.00    -0.206 F 
ATOM     70  C   UNL A   1      36.854  29.483  29.627  1.00  0.00     0.006 A 
ENDBRANCH  49  63
BRANCH  50  71
ATOM     71  C   UNL A   1      49.133  26.352  27.142  1.00  0.00     0.057 A 
ATOM     72  C   UNL A   1      50.017  25.920  28.137  1.00  0.00     0.134 A 
ATOM     73  C   UNL A   1      49.617  26.412  25.830  1.00  0.00     0.134 A 
ATOM     74  F   UNL A   1      49.608  25.834  29.413  1.00  0.00    -0.206 F 
ATOM     75  C   UNL A   1      51.344  25.601  27.848  1.00  0.00     0.040 A 
ATOM     76  C   UNL A   1      50.934  26.065  25.522  1.00  0.00     0.040 A 
ATOM     77  F   UNL A   1      48.812  26.788  24.826  1.00  0.00    -0.206 F 
ATOM     78  C   UNL A   1      51.805  25.672  26.536  1.00  0.00     0.006 A 
ENDBRANCH  50  71
BRANCH  62  79
ATOM     79  C   UNL A   1      45.980  32.238  29.168  1.00  0.00     0.057 A 
ATOM     80  C   UNL A   1      46.431  32.565  30.452  1.00  0.00     0.134 A 
ATOM     81  C   UNL A   1      46.108  33.209  28.164  1.00  0.00     0.134 A 
ATOM     82  F   UNL A   1      46.327  31.682  31.456  1.00  0.00    -0.206 F 
ATOM     83  C   UNL A   1      46.969  33.821  30.732  1.00  0.00     0.040 A 
ATOM     84  C   UNL A   1      46.680  34.451  28.423  1.00  0.00     0.040 A 
ATOM     85  F   UNL A   1      45.709  32.949  26.911  1.00  0.00    -0.206 F 
ATOM     86  C   UNL A   1      47.106  34.763  29.713  1.00  0.00     0.006 A 
ENDBRANCH  62  79
ENDBRANCH  36  37
ENDBRANCH  28  31
ENDBRANCH  26  27
ENDBRANCH  25  26
ENDBRANCH   1  25
TORSDOF 13
ENDMDL
MODEL 2
REMARK VINA RESULT:     -13.4      5.003     10.157
REMARK SMILES CC1(C)C[C@@H]([NH2+]C[C@@H]2CCCC[C@@H]2C(=O)NCCCNC(=O)c2ccc(-c3c4nc(c(-c5c(F)cccc5F)c5ccc([nH]5)c(-c5c(F)cccc5F)c5nc(c(-c6c(F)cccc6F)c6ccc3[nH]6)C=C5)C=C4)cc2)C(C)(C)O1
REMARK SMILES IDX 17 1 16 2 14 3 15 4 13 6 8 7 9 8 10 9 12 10 11 11 7 12 6 13
REMARK SMILES IDX 5 16 1 17 2 18 3 19 4 20 80 21 77 22 78 23 79 24 18 25 19 26
REMARK SMILES IDX 20 27 21 28 22 30 23 31 24 32 76 33 25 34 75 35 26 36 27 37
REMARK SMILES IDX 28 38 69 39 29 40 74 41 68 42 70 43 30 44 73 45 67 46 66 47
REMARK SMILES IDX 31 49 57 50 40 51 56 52 41 53 44 54 55 55 71 56 42 57 43 58
REMARK SMILES IDX 54 60 72 61 45 62 32 63 33 64 38 65 34 66 35 67 37 68 39 69
REMARK SMILES IDX 36 70 58 71 59 72 64 73 60 74 61 75 63 76 65 77 62 78 46 79
REMARK SMILES IDX 47 80 52 81 48 82 49 83 51 84 53 85 50 86
REMARK H PARENT 16 5 6 14 6 15 20 29 70 48 44 59
REMARK Flexibility Score: inf
ROOT
ATOM      1  C   UNL A   1      30.282  31.725  24.868  1.00  0.00     0.117 C 
ENDROOT
BRANCH   1   2
ATOM      2  N   UNL A   1      30.108  30.078  23.600  1.00  0.00    -0.356 N 
ATOM      3  C   UNL A   1      30.632  28.845  23.027  1.00  0.00     0.223 C 
ATOM      4  O   UNL A   1      30.137  28.514  21.939  1.00  0.00    -0.275 OA
ATOM      5  H   UNL A   1      29.228  30.192  23.172  1.00  0.00     0.163 HD
BRANCH   3   6
ATOM      6  C   UNL A   1      31.739  27.889  23.669  1.00  0.00     0.087 C 
ATOM      7  C   UNL A   1      31.393  26.974  24.836  1.00  0.00     0.056 C 
ATOM      8  C   UNL A   1      31.609  27.608  26.209  1.00  0.00     0.010 C 
ATOM      9  C   UNL A   1      32.994  28.273  26.281  1.00  0.00     0.001 C 
ATOM     10  C   UNL A   1      33.014  28.729  23.829  1.00  0.00     0.014 C 
ATOM     11  C   UNL A   1      33.149  29.341  25.209  1.00  0.00     0.001 C 
BRANCH   7  12
ATOM     12  C   UNL A   1      30.092  26.196  24.576  1.00  0.00     0.265 C 
BRANCH  12  13
ATOM     13  N   UNL A   1      30.250  24.806  24.160  1.00  0.00    -0.341 N 
ATOM     14  H   UNL A   1      29.520  24.261  24.616  1.00  0.00     0.346 HD
ATOM     15  H   UNL A   1      30.196  24.825  23.141  1.00  0.00     0.346 HD
BRANCH  13  16
ATOM     16  C   UNL A   1      31.578  24.148  24.473  1.00  0.00     0.217 C 
ATOM     17  C   UNL A   1      32.423  19.922  23.912  1.00  0.00     0.042 C 
ATOM     18  C   UNL A   1      33.091  21.284  24.303  1.00  0.00     0.069 C 
ATOM     19  C   UNL A   1      34.596  20.991  24.455  1.00  0.00     0.042 C 
ATOM     20  C   UNL A   1      32.702  22.906  23.253  1.00  0.00     0.103 C 
ATOM     21  O   UNL A   1      32.271  21.409  25.917  1.00  0.00    -0.363 OA
ATOM     22  C   UNL A   1      31.547  23.105  26.298  1.00  0.00     0.115 C 
ATOM     23  C   UNL A   1      30.119  22.959  26.887  1.00  0.00     0.048 C 
ATOM     24  C   UNL A   1      32.694  22.733  27.581  1.00  0.00     0.048 C 
ENDBRANCH  13  16
ENDBRANCH  12  13
ENDBRANCH   7  12
ENDBRANCH   3   6
ENDBRANCH   1   2
BRANCH   1  25
ATOM     25  C   UNL A   1      31.086  31.721  26.599  1.00  0.00     0.042 C 
BRANCH  25  26
ATOM     26  C   UNL A   1      32.508  32.307  27.126  1.00  0.00     0.118 C 
BRANCH  26  27
ATOM     27  N   UNL A   1      32.625  33.736  27.515  1.00  0.00    -0.352 N 
ATOM     28  C   UNL A   1      33.096  34.279  28.694  1.00  0.00     0.251 C 
ATOM     29  H   UNL A   1      32.325  34.385  26.839  1.00  0.00     0.163 HD
ATOM     30  O   UNL A   1      32.592  35.208  29.305  1.00  0.00    -0.269 OA
BRANCH  28  31
ATOM     31  C   UNL A   1      34.431  33.838  28.999  1.00  0.00     0.039 A 
ATOM     32  C   UNL A   1      35.572  34.452  28.499  1.00  0.00     0.014 A 
ATOM     33  C   UNL A   1      34.430  32.841  29.973  1.00  0.00     0.014 A 
ATOM     34  C   UNL A   1      36.775  34.075  29.062  1.00  0.00     0.010 A 
ATOM     35  C   UNL A   1      35.586  32.606  30.637  1.00  0.00     0.010 A 
ATOM     36  C   UNL A   1      36.766  33.176  30.143  1.00  0.00    -0.014 A 
BRANCH  36  37
ATOM     37  C   UNL A   1      37.976  32.683  30.789  1.00  0.00     0.031 A 
ATOM     38  C   UNL A   1      38.613  31.469  30.188  1.00  0.00     0.074 A 
ATOM     39  C   UNL A   1      38.315  33.193  31.979  1.00  0.00     0.049 A 
ATOM     40  N   UNL A   1      39.486  30.658  30.713  1.00  0.00    -0.248 NA
ATOM     41  C   UNL A   1      38.125  31.053  28.853  1.00  0.00     0.031 C 
ATOM     42  C   UNL A   1      37.666  34.326  32.644  1.00  0.00     0.029 A 
ATOM     43  N   UNL A   1      39.275  32.789  32.857  1.00  0.00    -0.354 N 
ATOM     44  C   UNL A   1      39.624  29.631  29.792  1.00  0.00     0.074 A 
ATOM     45  C   UNL A   1      38.671  29.856  28.733  1.00  0.00     0.031 C 
ATOM     46  C   UNL A   1      38.276  34.548  33.818  1.00  0.00     0.029 A 
ATOM     47  C   UNL A   1      39.305  33.534  34.006  1.00  0.00     0.049 A 
ATOM     48  H   UNL A   1      39.887  32.036  32.682  1.00  0.00     0.167 HD
ATOM     49  C   UNL A   1      40.509  28.614  29.818  1.00  0.00     0.037 A 
ATOM     50  C   UNL A   1      40.082  33.380  35.090  1.00  0.00     0.037 A 
ATOM     51  C   UNL A   1      41.461  28.453  30.877  1.00  0.00     0.049 A 
ATOM     52  C   UNL A   1      41.067  32.244  35.090  1.00  0.00     0.074 A 
ATOM     53  C   UNL A   1      42.464  27.515  31.000  1.00  0.00     0.029 A 
ATOM     54  N   UNL A   1      41.519  29.266  32.003  1.00  0.00    -0.354 N 
ATOM     55  N   UNL A   1      41.261  31.314  34.184  1.00  0.00    -0.248 NA
ATOM     56  C   UNL A   1      41.948  32.140  36.258  1.00  0.00     0.031 C 
ATOM     57  C   UNL A   1      43.089  27.720  32.232  1.00  0.00     0.029 A 
ATOM     58  C   UNL A   1      42.531  28.837  32.838  1.00  0.00     0.049 A 
ATOM     59  H   UNL A   1      40.927  30.032  32.179  1.00  0.00     0.167 HD
ATOM     60  C   UNL A   1      42.317  30.542  34.647  1.00  0.00     0.074 A 
ATOM     61  C   UNL A   1      42.720  31.118  35.915  1.00  0.00     0.031 C 
ATOM     62  C   UNL A   1      42.909  29.461  34.081  1.00  0.00     0.037 A 
BRANCH  49  63
ATOM     63  C   UNL A   1      40.485  27.641  28.678  1.00  0.00     0.057 A 
ATOM     64  C   UNL A   1      39.714  26.468  28.715  1.00  0.00     0.134 A 
ATOM     65  C   UNL A   1      41.236  27.879  27.522  1.00  0.00     0.134 A 
ATOM     66  F   UNL A   1      38.986  26.165  29.801  1.00  0.00    -0.206 F 
ATOM     67  C   UNL A   1      39.720  25.555  27.661  1.00  0.00     0.040 A 
ATOM     68  C   UNL A   1      41.218  26.993  26.444  1.00  0.00     0.040 A 
ATOM     69  F   UNL A   1      41.999  28.977  27.419  1.00  0.00    -0.206 F 
ATOM     70  C   UNL A   1      40.465  25.823  26.516  1.00  0.00     0.006 A 
ENDBRANCH  49  63
BRANCH  50  71
ATOM     71  C   UNL A   1      39.988  34.338  36.214  1.00  0.00     0.057 A 
ATOM     72  C   UNL A   1      40.710  35.537  36.193  1.00  0.00     0.134 A 
ATOM     73  C   UNL A   1      39.173  34.096  37.326  1.00  0.00     0.134 A 
ATOM     74  F   UNL A   1      41.502  35.829  35.150  1.00  0.00    -0.206 F 
ATOM     75  C   UNL A   1      40.660  36.440  37.254  1.00  0.00     0.040 A 
ATOM     76  C   UNL A   1      39.089  35.006  38.381  1.00  0.00     0.040 A 
ATOM     77  F   UNL A   1      38.432  32.981  37.394  1.00  0.00    -0.206 F 
ATOM     78  C   UNL A   1      39.846  36.175  38.353  1.00  0.00     0.006 A 
ENDBRANCH  50  71
BRANCH  62  79
ATOM     79  C   UNL A   1      44.098  28.883  34.788  1.00  0.00     0.057 A 
ATOM     80  C   UNL A   1      45.402  29.330  34.545  1.00  0.00     0.134 A 
ATOM     81  C   UNL A   1      43.915  27.913  35.784  1.00  0.00     0.134 A 
ATOM     82  F   UNL A   1      45.642  30.250  33.599  1.00  0.00    -0.206 F 
ATOM     83  C   UNL A   1      46.487  28.816  35.254  1.00  0.00     0.040 A 
ATOM     84  C   UNL A   1      44.986  27.421  36.524  1.00  0.00     0.040 A 
ATOM     85  F   UNL A   1      42.688  27.457  36.073  1.00  0.00    -0.206 F 
ATOM     86  C   UNL A   1      46.278  27.867  36.255  1.00  0.00     0.006 A 
ENDBRANCH  62  79
ENDBRANCH  36  37
ENDBRANCH  28  31
ENDBRANCH  26  27
ENDBRANCH  25  26
ENDBRANCH   1  25
TORSDOF 13
ENDMDL
MODEL 3
REMARK VINA RESULT:     -13.3      1.651      2.613
REMARK SMILES CC1(C)C[C@@H]([NH2+]C[C@@H]2CCCC[C@@H]2C(=O)NCCCNC(=O)c2ccc(-c3c4nc(c(-c5c(F)cccc5F)c5ccc([nH]5)c(-c5c(F)cccc5F)c5nc(c(-c6c(F)cccc6F)c6ccc3[nH]6)C=C5)C=C4)cc2)C(C)(C)O1
REMARK SMILES IDX 17 1 16 2 14 3 15 4 13 6 8 7 9 8 10 9 12 10 11 11 7 12 6 13
REMARK SMILES IDX 5 16 1 17 2 18 3 19 4 20 80 21 77 22 78 23 79 24 18 25 19 26
REMARK SMILES IDX 20 27 21 28 22 30 23 31 24 32 76 33 25 34 75 35 26 36 27 37
REMARK SMILES IDX 28 38 69 39 29 40 74 41 68 42 70 43 30 44 73 45 67 46 66 47
REMARK SMILES IDX 31 49 57 50 40 51 56 52 41 53 44 54 55 55 71 56 42 57 43 58
REMARK SMILES IDX 54 60 72 61 45 62 32 63 33 64 38 65 34 66 35 67 37 68 39 69
REMARK SMILES IDX 36 70 58 71 59 72 64 73 60 74 61 75 63 76 65 77 62 78 46 79
REMARK SMILES IDX 47 80 52 81 48 82 49 83 51 84 53 85 50 86
REMARK H PARENT 16 5 6 14 6 15 20 29 70 48 44 59
REMARK Flexibility Score: inf
ROOT
ATOM      1  C   UNL A   1      37.284  23.927  25.674  1.00  0.00     0.117 C 
ENDROOT
BRANCH   1   2
ATOM      2  N   UNL A   1      35.806  23.812  24.207  1.00  0.00    -0.356 N 
ATOM      3  C   UNL A   1      34.762  23.083  23.499  1.00  0.00     0.223 C 
ATOM      4  O   UNL A   1      34.493  23.508  22.366  1.00  0.00    -0.275 OA
ATOM      5  H   UNL A   1      35.824  24.696  23.774  1.00  0.00     0.163 HD
BRANCH   3   6
ATOM      6  C   UNL A   1      33.933  21.831  24.046  1.00  0.00     0.087 C 
ATOM      7  C   UNL A   1      32.521  22.012  24.589  1.00  0.00     0.056 C 
ATOM      8  C   UNL A   1      32.463  22.296  26.089  1.00  0.00     0.010 C 
ATOM      9  C   UNL A   1      33.343  21.295  26.858  1.00  0.00     0.001 C 
ATOM     10  C   UNL A   1      34.889  21.011  24.922  1.00  0.00     0.014 C 
ATOM     11  C   UNL A   1      34.790  21.362  26.394  1.00  0.00     0.001 C 
BRANCH   7  12
ATOM     12  C   UNL A   1      31.657  22.862  23.641  1.00  0.00     0.265 C 
BRANCH  12  13
ATOM     13  N   UNL A   1      31.032  24.042  24.231  1.00  0.00    -0.341 N 
ATOM     14  H   UNL A   1      30.174  24.229  23.714  1.00  0.00     0.346 HD
ATOM     15  H   UNL A   1      30.896  23.807  25.215  1.00  0.00     0.346 HD
BRANCH  13  16
ATOM     16  C   UNL A   1      31.852  25.315  24.238  1.00  0.00     0.217 C 
ATOM     17  C   UNL A   1      31.944  28.164  27.518  1.00  0.00     0.042 C 
ATOM     18  C   UNL A   1      32.599  27.839  26.133  1.00  0.00     0.069 C 
ATOM     19  C   UNL A   1      33.727  28.873  25.943  1.00  0.00     0.042 C 
ATOM     20  C   UNL A   1      33.141  25.992  25.713  1.00  0.00     0.103 C 
ATOM     21  O   UNL A   1      31.132  28.267  25.155  1.00  0.00    -0.363 OA
ATOM     22  C   UNL A   1      30.693  27.018  23.816  1.00  0.00     0.115 C 
ATOM     23  C   UNL A   1      29.169  26.731  23.827  1.00  0.00     0.048 C 
ATOM     24  C   UNL A   1      30.939  28.568  23.017  1.00  0.00     0.048 C 
ENDBRANCH  13  16
ENDBRANCH  12  13
ENDBRANCH   7  12
ENDBRANCH   3   6
ENDBRANCH   1   2
BRANCH   1  25
ATOM     25  C   UNL A   1      38.518  22.543  26.127  1.00  0.00     0.042 C 
BRANCH  25  26
ATOM     26  C   UNL A   1      38.881  21.141  25.389  1.00  0.00     0.118 C 
BRANCH  26  27
ATOM     27  N   UNL A   1      39.739  20.141  26.074  1.00  0.00    -0.352 N 
ATOM     28  C   UNL A   1      41.115  20.024  26.064  1.00  0.00     0.251 C 
ATOM     29  H   UNL A   1      39.260  19.468  26.611  1.00  0.00     0.163 HD
ATOM     30  O   UNL A   1      41.743  18.982  25.956  1.00  0.00    -0.269 OA
BRANCH  28  31
ATOM     31  C   UNL A   1      41.766  21.232  26.493  1.00  0.00     0.039 A 
ATOM     32  C   UNL A   1      42.213  22.212  25.617  1.00  0.00     0.014 A 
ATOM     33  C   UNL A   1      41.737  21.364  27.881  1.00  0.00     0.014 A 
ATOM     34  C   UNL A   1      42.597  23.415  26.176  1.00  0.00     0.010 A 
ATOM     35  C   UNL A   1      41.946  22.595  28.402  1.00  0.00     0.010 A 
ATOM     36  C   UNL A   1      42.433  23.602  27.560  1.00  0.00    -0.014 A 
BRANCH  36  37
ATOM     37  C   UNL A   1      42.837  24.815  28.261  1.00  0.00     0.031 A 
ATOM     38  C   UNL A   1      41.773  25.842  28.496  1.00  0.00     0.074 A 
ATOM     39  C   UNL A   1      44.143  25.036  28.451  1.00  0.00     0.049 A 
ATOM     40  N   UNL A   1      41.904  27.099  28.805  1.00  0.00    -0.248 NA
ATOM     41  C   UNL A   1      40.375  25.420  28.250  1.00  0.00     0.031 C 
ATOM     42  C   UNL A   1      45.224  24.092  28.156  1.00  0.00     0.029 A 
ATOM     43  N   UNL A   1      44.780  26.150  28.906  1.00  0.00    -0.354 N 
ATOM     44  C   UNL A   1      40.619  27.618  28.759  1.00  0.00     0.074 A 
ATOM     45  C   UNL A   1      39.740  26.578  28.286  1.00  0.00     0.031 C 
ATOM     46  C   UNL A   1      46.397  24.662  28.474  1.00  0.00     0.029 A 
ATOM     47  C   UNL A   1      46.143  26.023  28.928  1.00  0.00     0.049 A 
ATOM     48  H   UNL A   1      44.306  26.966  29.190  1.00  0.00     0.167 HD
ATOM     49  C   UNL A   1      40.214  28.851  29.126  1.00  0.00     0.037 A 
ATOM     50  C   UNL A   1      47.069  26.933  29.267  1.00  0.00     0.037 A 
ATOM     51  C   UNL A   1      41.124  29.841  29.624  1.00  0.00     0.049 A 
ATOM     52  C   UNL A   1      46.591  28.297  29.683  1.00  0.00     0.074 A 
ATOM     53  C   UNL A   1      40.848  31.104  30.102  1.00  0.00     0.029 A 
ATOM     54  N   UNL A   1      42.501  29.663  29.704  1.00  0.00    -0.354 N 
ATOM     55  N   UNL A   1      45.368  28.772  29.721  1.00  0.00    -0.248 NA
ATOM     56  C   UNL A   1      47.620  29.250  30.112  1.00  0.00     0.031 C 
ATOM     57  C   UNL A   1      42.064  31.717  30.411  1.00  0.00     0.029 A 
ATOM     58  C   UNL A   1      43.091  30.806  30.206  1.00  0.00     0.049 A 
ATOM     59  H   UNL A   1      42.982  28.846  29.441  1.00  0.00     0.167 HD
ATOM     60  C   UNL A   1      45.472  30.061  30.222  1.00  0.00     0.074 A 
ATOM     61  C   UNL A   1      46.881  30.290  30.474  1.00  0.00     0.031 C 
ATOM     62  C   UNL A   1      44.499  30.975  30.462  1.00  0.00     0.037 A 
BRANCH  49  63
ATOM     63  C   UNL A   1      38.752  29.165  29.017  1.00  0.00     0.057 A 
ATOM     64  C   UNL A   1      37.885  29.070  30.117  1.00  0.00     0.134 A 
ATOM     65  C   UNL A   1      38.202  29.574  27.798  1.00  0.00     0.134 A 
ATOM     66  F   UNL A   1      38.342  28.664  31.312  1.00  0.00    -0.206 F 
ATOM     67  C   UNL A   1      36.522  29.339  29.998  1.00  0.00     0.040 A 
ATOM     68  C   UNL A   1      36.846  29.884  27.677  1.00  0.00     0.040 A 
ATOM     69  F   UNL A   1      38.970  29.682  26.703  1.00  0.00    -0.206 F 
ATOM     70  C   UNL A   1      36.001  29.758  28.777  1.00  0.00     0.006 A 
ENDBRANCH  49  63
BRANCH  50  71
ATOM     71  C   UNL A   1      48.504  26.569  29.271  1.00  0.00     0.057 A 
ATOM     72  C   UNL A   1      49.317  26.857  28.169  1.00  0.00     0.134 A 
ATOM     73  C   UNL A   1      49.104  25.941  30.369  1.00  0.00     0.134 A 
ATOM     74  F   UNL A   1      48.801  27.466  27.090  1.00  0.00    -0.206 F 
ATOM     75  C   UNL A   1      50.664  26.496  28.140  1.00  0.00     0.040 A 
ATOM     76  C   UNL A   1      50.458  25.603  30.366  1.00  0.00     0.040 A 
ATOM     77  F   UNL A   1      48.387  25.666  31.468  1.00  0.00    -0.206 F 
ATOM     78  C   UNL A   1      51.238  25.868  29.242  1.00  0.00     0.006 A 
ENDBRANCH  50  71
BRANCH  62  79
ATOM     79  C   UNL A   1      44.916  32.269  31.093  1.00  0.00     0.057 A 
ATOM     80  C   UNL A   1      45.007  32.428  32.481  1.00  0.00     0.134 A 
ATOM     81  C   UNL A   1      45.304  33.347  30.286  1.00  0.00     0.134 A 
ATOM     82  F   UNL A   1      44.642  31.435  33.306  1.00  0.00    -0.206 F 
ATOM     83  C   UNL A   1      45.450  33.624  33.045  1.00  0.00     0.040 A 
ATOM     84  C   UNL A   1      45.784  34.532  30.838  1.00  0.00     0.040 A 
ATOM     85  F   UNL A   1      45.254  33.251  28.950  1.00  0.00    -0.206 F 
ATOM     86  C   UNL A   1      45.851  34.676  32.222  1.00  0.00     0.006 A 
ENDBRANCH  62  79
ENDBRANCH  36  37
ENDBRANCH  28  31
ENDBRANCH  26  27
ENDBRANCH  25  26
ENDBRANCH   1  25
TORSDOF 13
ENDMDL
