MODEL 1
REMARK VINA RESULT:     -12.1      0.000      0.000
REMARK SMILES Cc1ccc(C#N)cc1Nc1cc(C)c(N)c(C(=O)NCCCNC(=O)c2ccc(-c3c4nc(c(-c5c(F)cccc5F)c5ccc([nH]5)c(-c5c(F)cccc5F)c5nc(c(-c6c(F)cccc6F)c6ccc3[nH]6)C=C5)C=C4)cc2)c1
REMARK SMILES IDX 21 1 20 2 18 3 19 4 17 6 11 7 12 8 81 9 13 10 14 11 15 12
REMARK SMILES IDX 10 13 9 15 1 16 2 17 3 18 4 19 8 20 5 21 6 22 7 23 16 24
REMARK SMILES IDX 22 27 23 28 24 29 25 30 26 32 27 33 28 34 80 35 29 36 79 37
REMARK SMILES IDX 30 38 31 39 32 40 73 41 33 42 78 43 72 44 74 45 34 46 77 47
REMARK SMILES IDX 71 48 70 49 35 51 61 52 44 53 60 54 45 55 48 56 59 57 75 58
REMARK SMILES IDX 46 59 47 60 58 62 76 63 49 64 36 65 37 66 42 67 38 68 39 69
REMARK SMILES IDX 41 70 43 71 40 72 62 73 63 74 68 75 64 76 65 77 67 78 69 79
REMARK SMILES IDX 66 80 50 81 51 82 56 83 52 84 53 85 55 86 57 87 54 88
REMARK H PARENT 20 5 10 14 16 25 16 26 24 31 74 50 48 61
REMARK Flexibility Score: inf
ROOT
ATOM      1  C   UNL A   1      31.942  30.501  26.427  1.00  0.00     0.118 C 
ENDROOT
BRANCH   1   2
ATOM      2  N   UNL A   1      33.320  30.210  26.777  1.00  0.00    -0.352 N 
ATOM      3  C   UNL A   1      34.175  29.162  26.539  1.00  0.00     0.253 C 
ATOM      4  O   UNL A   1      35.292  29.276  27.055  1.00  0.00    -0.269 OA
ATOM      5  H   UNL A   1      33.736  30.928  27.307  1.00  0.00     0.163 HD
BRANCH   3   6
ATOM      6  C   UNL A   1      33.858  27.976  25.667  1.00  0.00     0.065 A 
ATOM      7  C   UNL A   1      33.205  25.632  25.448  1.00  0.00     0.040 A 
ATOM      8  C   UNL A   1      33.003  25.818  24.085  1.00  0.00     0.031 A 
ATOM      9  C   UNL A   1      33.711  26.693  26.199  1.00  0.00     0.042 A 
ATOM     10  C   UNL A   1      33.251  27.062  23.477  1.00  0.00    -0.025 A 
ATOM     11  C   UNL A   1      33.062  27.132  21.985  1.00  0.00     0.047 C 
ATOM     12  C   UNL A   1      33.631  28.168  24.273  1.00  0.00     0.047 A 
BRANCH   7  13
ATOM     13  N   UNL A   1      32.739  24.472  26.096  1.00  0.00    -0.355 N 
ATOM     14  H   UNL A   1      32.128  24.603  26.857  1.00  0.00     0.167 HD
BRANCH  13  15
ATOM     15  C   UNL A   1      33.062  23.131  25.761  1.00  0.00     0.043 A 
ATOM     16  C   UNL A   1      30.596  22.420  25.826  1.00  0.00     0.046 C 
ATOM     17  C   UNL A   1      32.062  22.146  25.634  1.00  0.00    -0.027 A 
ATOM     18  C   UNL A   1      32.427  20.820  25.321  1.00  0.00     0.007 A 
ATOM     19  C   UNL A   1      33.759  20.467  25.107  1.00  0.00     0.020 A 
ATOM     20  C   UNL A   1      34.398  22.759  25.505  1.00  0.00     0.045 A 
ATOM     21  C   UNL A   1      34.749  21.440  25.194  1.00  0.00     0.054 A 
BRANCH  21  22
ATOM     22  C   UNL A   1      36.125  21.093  24.981  1.00  0.00     0.099 C 
ATOM     23  N   UNL A   1      37.236  20.814  24.808  1.00  0.00    -0.192 NA
ENDBRANCH  21  22
ENDBRANCH  13  15
ENDBRANCH   7  13
BRANCH  12  24
ATOM     24  N   UNL A   1      33.874  29.404  23.673  1.00  0.00    -0.398 N 
ATOM     25  H   UNL A   1      33.525  30.228  24.083  1.00  0.00     0.156 HD
ATOM     26  H   UNL A   1      34.396  29.452  22.839  1.00  0.00     0.156 HD
ENDBRANCH  12  24
ENDBRANCH   3   6
ENDBRANCH   1   2
BRANCH   1  27
ATOM     27  C   UNL A   1      31.621  31.968  26.704  1.00  0.00     0.042 C 
BRANCH  27  28
ATOM     28  C   UNL A   1      32.805  32.708  27.320  1.00  0.00     0.118 C 
BRANCH  28  29
ATOM     29  N   UNL A   1      32.478  34.097  27.636  1.00  0.00    -0.352 N 
ATOM     30  C   UNL A   1      32.981  34.926  28.608  1.00  0.00     0.251 C 
ATOM     31  H   UNL A   1      31.789  34.502  27.061  1.00  0.00     0.163 HD
ATOM     32  O   UNL A   1      32.417  35.985  28.866  1.00  0.00    -0.269 OA
BRANCH  30  33
ATOM     33  C   UNL A   1      34.185  34.522  29.359  1.00  0.00     0.039 A 
ATOM     34  C   UNL A   1      35.446  34.626  28.773  1.00  0.00     0.014 A 
ATOM     35  C   UNL A   1      34.045  34.002  30.648  1.00  0.00     0.014 A 
ATOM     36  C   UNL A   1      36.535  34.017  29.380  1.00  0.00     0.010 A 
ATOM     37  C   UNL A   1      35.164  33.487  31.305  1.00  0.00     0.010 A 
ATOM     38  C   UNL A   1      36.404  33.429  30.648  1.00  0.00    -0.014 A 
BRANCH  38  39
ATOM     39  C   UNL A   1      37.559  32.712  31.247  1.00  0.00     0.031 A 
ATOM     40  C   UNL A   1      38.125  33.165  32.568  1.00  0.00     0.074 A 
ATOM     41  C   UNL A   1      38.065  31.627  30.632  1.00  0.00     0.049 A 
ATOM     42  N   UNL A   1      39.161  32.705  33.226  1.00  0.00    -0.248 NA
ATOM     43  C   UNL A   1      37.444  34.284  33.239  1.00  0.00     0.031 C 
ATOM     44  C   UNL A   1      37.577  31.064  29.370  1.00  0.00     0.029 A 
ATOM     45  N   UNL A   1      39.095  30.796  30.987  1.00  0.00    -0.354 N 
ATOM     46  C   UNL A   1      39.266  33.490  34.369  1.00  0.00     0.074 A 
ATOM     47  C   UNL A   1      38.213  34.478  34.301  1.00  0.00     0.031 C 
ATOM     48  C   UNL A   1      38.285  29.963  29.075  1.00  0.00     0.029 A 
ATOM     49  C   UNL A   1      39.329  29.791  30.079  1.00  0.00     0.049 A 
ATOM     50  H   UNL A   1      39.620  30.909  31.813  1.00  0.00     0.167 HD
ATOM     51  C   UNL A   1      40.155  33.388  35.385  1.00  0.00     0.037 A 
ATOM     52  C   UNL A   1      40.300  28.861  30.041  1.00  0.00     0.037 A 
ATOM     53  C   UNL A   1      41.195  32.395  35.453  1.00  0.00     0.049 A 
ATOM     54  C   UNL A   1      41.332  28.840  31.135  1.00  0.00     0.074 A 
ATOM     55  C   UNL A   1      42.137  32.202  36.448  1.00  0.00     0.029 A 
ATOM     56  N   UNL A   1      41.432  31.433  34.484  1.00  0.00    -0.354 N 
ATOM     57  N   UNL A   1      41.416  29.582  32.213  1.00  0.00    -0.248 NA
ATOM     58  C   UNL A   1      42.411  27.852  31.003  1.00  0.00     0.031 C 
ATOM     59  C   UNL A   1      42.990  31.169  36.047  1.00  0.00     0.029 A 
ATOM     60  C   UNL A   1      42.527  30.664  34.843  1.00  0.00     0.049 A 
ATOM     61  H   UNL A   1      40.902  31.314  33.663  1.00  0.00     0.167 HD
ATOM     62  C   UNL A   1      42.528  29.122  32.905  1.00  0.00     0.074 A 
ATOM     63  C   UNL A   1      43.078  28.027  32.134  1.00  0.00     0.031 C 
ATOM     64  C   UNL A   1      43.049  29.563  34.076  1.00  0.00     0.037 A 
BRANCH  51  65
ATOM     65  C   UNL A   1      40.066  34.396  36.497  1.00  0.00     0.057 A 
ATOM     66  C   UNL A   1      39.238  34.158  37.603  1.00  0.00     0.134 A 
ATOM     67  C   UNL A   1      40.751  35.616  36.457  1.00  0.00     0.134 A 
ATOM     68  F   UNL A   1      38.544  33.015  37.702  1.00  0.00    -0.206 F 
ATOM     69  C   UNL A   1      39.091  35.100  38.622  1.00  0.00     0.040 A 
ATOM     70  C   UNL A   1      40.637  36.553  37.486  1.00  0.00     0.040 A 
ATOM     71  F   UNL A   1      41.568  35.905  35.433  1.00  0.00    -0.206 F 
ATOM     72  C   UNL A   1      39.798  36.299  38.570  1.00  0.00     0.006 A 
ENDBRANCH  51  65
BRANCH  52  73
ATOM     73  C   UNL A   1      40.386  27.899  28.911  1.00  0.00     0.057 A 
ATOM     74  C   UNL A   1      39.664  26.698  28.917  1.00  0.00     0.134 A 
ATOM     75  C   UNL A   1      41.128  28.195  27.760  1.00  0.00     0.134 A 
ATOM     76  F   UNL A   1      38.941  26.347  29.991  1.00  0.00    -0.206 F 
ATOM     77  C   UNL A   1      39.664  25.837  27.820  1.00  0.00     0.040 A 
ATOM     78  C   UNL A   1      41.105  27.363  26.641  1.00  0.00     0.040 A 
ATOM     79  F   UNL A   1      41.829  29.336  27.685  1.00  0.00    -0.206 F 
ATOM     80  C   UNL A   1      40.370  26.179  26.670  1.00  0.00     0.006 A 
ENDBRANCH  52  73
BRANCH  64  81
ATOM     81  C   UNL A   1      44.225  28.813  34.634  1.00  0.00     0.057 A 
ATOM     82  C   UNL A   1      45.530  29.192  34.289  1.00  0.00     0.134 A 
ATOM     83  C   UNL A   1      44.077  27.707  35.479  1.00  0.00     0.134 A 
ATOM     84  F   UNL A   1      45.744  30.236  33.473  1.00  0.00    -0.206 F 
ATOM     85  C   UNL A   1      46.642  28.497  34.761  1.00  0.00     0.040 A 
ATOM     86  C   UNL A   1      45.185  27.026  35.988  1.00  0.00     0.040 A 
ATOM     87  F   UNL A   1      42.858  27.298  35.859  1.00  0.00    -0.206 F 
ATOM     88  C   UNL A   1      46.472  27.416  35.622  1.00  0.00     0.006 A 
ENDBRANCH  64  81
ENDBRANCH  38  39
ENDBRANCH  30  33
ENDBRANCH  28  29
ENDBRANCH  27  28
ENDBRANCH   1  27
TORSDOF 14
ENDMDL
MODEL 2
REMARK VINA RESULT:     -12.0      1.744      2.322
REMARK SMILES Cc1ccc(C#N)cc1Nc1cc(C)c(N)c(C(=O)NCCCNC(=O)c2ccc(-c3c4nc(c(-c5c(F)cccc5F)c5ccc([nH]5)c(-c5c(F)cccc5F)c5nc(c(-c6c(F)cccc6F)c6ccc3[nH]6)C=C5)C=C4)cc2)c1
REMARK SMILES IDX 21 1 20 2 18 3 19 4 17 6 11 7 12 8 81 9 13 10 14 11 15 12
REMARK SMILES IDX 10 13 9 15 1 16 2 17 3 18 4 19 8 20 5 21 6 22 7 23 16 24
REMARK SMILES IDX 22 27 23 28 24 29 25 30 26 32 27 33 28 34 80 35 29 36 79 37
REMARK SMILES IDX 30 38 31 39 32 40 73 41 33 42 78 43 72 44 74 45 34 46 77 47
REMARK SMILES IDX 71 48 70 49 35 51 61 52 44 53 60 54 45 55 48 56 59 57 75 58
REMARK SMILES IDX 46 59 47 60 58 62 76 63 49 64 36 65 37 66 42 67 38 68 39 69
REMARK SMILES IDX 41 70 43 71 40 72 62 73 63 74 68 75 64 76 65 77 67 78 69 79
REMARK SMILES IDX 66 80 50 81 51 82 56 83 52 84 53 85 55 86 57 87 54 88
REMARK H PARENT 20 5 10 14 16 25 16 26 24 31 74 50 48 61
REMARK Flexibility Score: inf
ROOT
ATOM      1  C   UNL A   1      31.796  30.179  26.556  1.00  0.00     0.118 C 
ENDROOT
BRANCH   1   2
ATOM      2  N   UNL A   1      32.569  29.963  25.347  1.00  0.00    -0.352 N 
ATOM      3  C   UNL A   1      32.406  29.193  24.221  1.00  0.00     0.253 C 
ATOM      4  O   UNL A   1      33.334  29.258  23.409  1.00  0.00    -0.269 OA
ATOM      5  H   UNL A   1      33.402  30.489  25.330  1.00  0.00     0.163 HD
BRANCH   3   6
ATOM      6  C   UNL A   1      31.182  28.372  23.913  1.00  0.00     0.065 A 
ATOM      7  C   UNL A   1      30.007  26.231  23.975  1.00  0.00     0.040 A 
ATOM      8  C   UNL A   1      28.829  26.868  23.601  1.00  0.00     0.031 A 
ATOM      9  C   UNL A   1      31.181  26.981  24.040  1.00  0.00     0.042 A 
ATOM     10  C   UNL A   1      28.803  28.252  23.344  1.00  0.00    -0.025 A 
ATOM     11  C   UNL A   1      27.489  28.826  22.883  1.00  0.00     0.047 C 
ATOM     12  C   UNL A   1      29.969  29.026  23.550  1.00  0.00     0.047 A 
BRANCH   7  13
ATOM     13  N   UNL A   1      29.990  24.907  24.456  1.00  0.00    -0.355 N 
ATOM     14  H   UNL A   1      29.107  24.488  24.572  1.00  0.00     0.167 HD
BRANCH  13  15
ATOM     15  C   UNL A   1      31.120  24.116  24.790  1.00  0.00     0.043 A 
ATOM     16  C   UNL A   1      30.000  23.245  26.929  1.00  0.00     0.046 C 
ATOM     17  C   UNL A   1      31.145  23.328  25.957  1.00  0.00    -0.027 A 
ATOM     18  C   UNL A   1      32.297  22.573  26.263  1.00  0.00     0.007 A 
ATOM     19  C   UNL A   1      33.405  22.569  25.418  1.00  0.00     0.020 A 
ATOM     20  C   UNL A   1      32.239  24.069  23.932  1.00  0.00     0.045 A 
ATOM     21  C   UNL A   1      33.376  23.315  24.245  1.00  0.00     0.054 A 
BRANCH  21  22
ATOM     22  C   UNL A   1      34.510  23.326  23.366  1.00  0.00     0.099 C 
ATOM     23  N   UNL A   1      35.424  23.333  22.655  1.00  0.00    -0.192 NA
ENDBRANCH  21  22
ENDBRANCH  13  15
ENDBRANCH   7  13
BRANCH  12  24
ATOM     24  N   UNL A   1      29.944  30.398  23.298  1.00  0.00    -0.398 N 
ATOM     25  H   UNL A   1      30.444  30.768  22.535  1.00  0.00     0.156 HD
ATOM     26  H   UNL A   1      29.427  30.996  23.884  1.00  0.00     0.156 HD
ENDBRANCH  12  24
ENDBRANCH   3   6
ENDBRANCH   1   2
BRANCH   1  27
ATOM     27  C   UNL A   1      31.547  31.670  26.768  1.00  0.00     0.042 C 
BRANCH  27  28
ATOM     28  C   UNL A   1      32.832  32.427  27.090  1.00  0.00     0.118 C 
BRANCH  28  29
ATOM     29  N   UNL A   1      32.572  33.815  27.464  1.00  0.00    -0.352 N 
ATOM     30  C   UNL A   1      33.104  34.574  28.477  1.00  0.00     0.251 C 
ATOM     31  H   UNL A   1      31.911  34.279  26.901  1.00  0.00     0.163 HD
ATOM     32  O   UNL A   1      32.591  35.647  28.778  1.00  0.00    -0.269 OA
BRANCH  30  33
ATOM     33  C   UNL A   1      34.277  34.077  29.221  1.00  0.00     0.039 A 
ATOM     34  C   UNL A   1      35.566  34.335  28.754  1.00  0.00     0.014 A 
ATOM     35  C   UNL A   1      34.083  33.316  30.376  1.00  0.00     0.014 A 
ATOM     36  C   UNL A   1      36.643  33.660  29.311  1.00  0.00     0.010 A 
ATOM     37  C   UNL A   1      35.182  32.725  31.001  1.00  0.00     0.010 A 
ATOM     38  C   UNL A   1      36.462  32.837  30.434  1.00  0.00    -0.014 A 
BRANCH  38  39
ATOM     39  C   UNL A   1      37.611  32.060  30.967  1.00  0.00     0.031 A 
ATOM     40  C   UNL A   1      38.128  32.334  32.355  1.00  0.00     0.074 A 
ATOM     41  C   UNL A   1      38.155  31.077  30.224  1.00  0.00     0.049 A 
ATOM     42  N   UNL A   1      39.151  31.803  32.977  1.00  0.00    -0.248 NA
ATOM     43  C   UNL A   1      37.406  33.341  33.151  1.00  0.00     0.031 C 
ATOM     44  C   UNL A   1      37.716  30.687  28.882  1.00  0.00     0.029 A 
ATOM     45  N   UNL A   1      39.189  30.220  30.497  1.00  0.00    -0.354 N 
ATOM     46  C   UNL A   1      39.207  32.423  34.219  1.00  0.00     0.074 A 
ATOM     47  C   UNL A   1      38.139  33.397  34.254  1.00  0.00     0.031 C 
ATOM     48  C   UNL A   1      38.453  29.647  28.463  1.00  0.00     0.029 A 
ATOM     49  C   UNL A   1      39.468  29.352  29.467  1.00  0.00     0.049 A 
ATOM     50  H   UNL A   1      39.685  30.225  31.347  1.00  0.00     0.167 HD
ATOM     51  C   UNL A   1      40.066  32.195  35.241  1.00  0.00     0.037 A 
ATOM     52  C   UNL A   1      40.457  28.450  29.333  1.00  0.00     0.037 A 
ATOM     53  C   UNL A   1      41.120  31.216  35.206  1.00  0.00     0.049 A 
ATOM     54  C   UNL A   1      41.455  28.293  30.448  1.00  0.00     0.074 A 
ATOM     55  C   UNL A   1      42.035  30.900  36.196  1.00  0.00     0.029 A 
ATOM     56  N   UNL A   1      41.405  30.400  34.123  1.00  0.00    -0.354 N 
ATOM     57  N   UNL A   1      41.492  28.880  31.619  1.00  0.00    -0.248 NA
ATOM     58  C   UNL A   1      42.556  27.347  30.217  1.00  0.00     0.031 C 
ATOM     59  C   UNL A   1      42.918  29.945  35.685  1.00  0.00     0.029 A 
ATOM     60  C   UNL A   1      42.502  29.604  34.409  1.00  0.00     0.049 A 
ATOM     61  H   UNL A   1      40.903  30.388  33.276  1.00  0.00     0.167 HD
ATOM     62  C   UNL A   1      42.591  28.344  32.278  1.00  0.00     0.074 A 
ATOM     63  C   UNL A   1      43.183  27.374  31.383  1.00  0.00     0.031 C 
ATOM     64  C   UNL A   1      43.067  28.626  33.516  1.00  0.00     0.037 A 
BRANCH  51  65
ATOM     65  C   UNL A   1      39.924  33.038  36.478  1.00  0.00     0.057 A 
ATOM     66  C   UNL A   1      39.003  32.686  37.474  1.00  0.00     0.134 A 
ATOM     67  C   UNL A   1      40.653  34.219  36.664  1.00  0.00     0.134 A 
ATOM     68  F   UNL A   1      38.263  31.573  37.355  1.00  0.00    -0.206 F 
ATOM     69  C   UNL A   1      38.809  33.480  38.605  1.00  0.00     0.040 A 
ATOM     70  C   UNL A   1      40.491  35.005  37.807  1.00  0.00     0.040 A 
ATOM     71  F   UNL A   1      41.558  34.611  35.756  1.00  0.00    -0.206 F 
ATOM     72  C   UNL A   1      39.560  34.640  38.778  1.00  0.00     0.006 A 
ENDBRANCH  51  65
BRANCH  52  73
ATOM     73  C   UNL A   1      40.595  27.654  28.085  1.00  0.00     0.057 A 
ATOM     74  C   UNL A   1      41.344  28.124  26.999  1.00  0.00     0.134 A 
ATOM     75  C   UNL A   1      40.048  26.369  27.980  1.00  0.00     0.134 A 
ATOM     76  F   UNL A   1      41.886  29.350  27.028  1.00  0.00    -0.206 F 
ATOM     77  C   UNL A   1      41.558  27.343  25.864  1.00  0.00     0.040 A 
ATOM     78  C   UNL A   1      40.287  25.561  26.868  1.00  0.00     0.040 A 
ATOM     79  F   UNL A   1      39.332  25.855  28.992  1.00  0.00    -0.206 F 
ATOM     80  C   UNL A   1      41.045  26.049  25.805  1.00  0.00     0.006 A 
ENDBRANCH  52  73
BRANCH  64  81
ATOM     81  C   UNL A   1      44.239  27.823  34.003  1.00  0.00     0.057 A 
ATOM     82  C   UNL A   1      44.033  26.589  34.637  1.00  0.00     0.134 A 
ATOM     83  C   UNL A   1      45.559  28.271  33.880  1.00  0.00     0.134 A 
ATOM     84  F   UNL A   1      42.792  26.105  34.799  1.00  0.00    -0.206 F 
ATOM     85  C   UNL A   1      45.095  25.835  35.131  1.00  0.00     0.040 A 
ATOM     86  C   UNL A   1      46.634  27.507  34.338  1.00  0.00     0.040 A 
ATOM     87  F   UNL A   1      45.829  29.437  33.273  1.00  0.00    -0.206 F 
ATOM     88  C   UNL A   1      46.402  26.288  34.973  1.00  0.00     0.006 A 
ENDBRANCH  64  81
ENDBRANCH  38  39
ENDBRANCH  30  33
ENDBRANCH  28  29
ENDBRANCH  27  28
ENDBRANCH   1  27
TORSDOF 14
ENDMDL
MODEL 3
REMARK VINA RESULT:     -12.0      5.182     10.362
REMARK SMILES Cc1ccc(C#N)cc1Nc1cc(C)c(N)c(C(=O)NCCCNC(=O)c2ccc(-c3c4nc(c(-c5c(F)cccc5F)c5ccc([nH]5)c(-c5c(F)cccc5F)c5nc(c(-c6c(F)cccc6F)c6ccc3[nH]6)C=C5)C=C4)cc2)c1
REMARK SMILES IDX 21 1 20 2 18 3 19 4 17 6 11 7 12 8 81 9 13 10 14 11 15 12
REMARK SMILES IDX 10 13 9 15 1 16 2 17 3 18 4 19 8 20 5 21 6 22 7 23 16 24
REMARK SMILES IDX 22 27 23 28 24 29 25 30 26 32 27 33 28 34 80 35 29 36 79 37
REMARK SMILES IDX 30 38 31 39 32 40 73 41 33 42 78 43 72 44 74 45 34 46 77 47
REMARK SMILES IDX 71 48 70 49 35 51 61 52 44 53 60 54 45 55 48 56 59 57 75 58
REMARK SMILES IDX 46 59 47 60 58 62 76 63 49 64 36 65 37 66 42 67 38 68 39 69
REMARK SMILES IDX 41 70 43 71 40 72 62 73 63 74 68 75 64 76 65 77 67 78 69 79
REMARK SMILES IDX 66 80 50 81 51 82 56 83 52 84 53 85 55 86 57 87 54 88
REMARK H PARENT 20 5 10 14 16 25 16 26 24 31 74 50 48 61
REMARK Flexibility Score: inf
ROOT
ATOM      1  C   UNL A   1      36.987  21.239  24.815  1.00  0.00     0.118 C 
ENDROOT
BRANCH   1   2
ATOM      2  N   UNL A   1      36.135  21.395  25.979  1.00  0.00    -0.352 N 
ATOM      3  C   UNL A   1      34.777  21.445  26.182  1.00  0.00     0.253 C 
ATOM      4  O   UNL A   1      34.433  21.634  27.353  1.00  0.00    -0.269 OA
ATOM      5  H   UNL A   1      36.647  21.488  26.815  1.00  0.00     0.163 HD
BRANCH   3   6
ATOM      6  C   UNL A   1      33.741  21.220  25.112  1.00  0.00     0.065 A 
ATOM      7  C   UNL A   1      32.176  22.123  23.468  1.00  0.00     0.040 A 
ATOM      8  C   UNL A   1      32.006  20.850  22.933  1.00  0.00     0.031 A 
ATOM      9  C   UNL A   1      32.974  22.270  24.602  1.00  0.00     0.042 A 
ATOM     10  C   UNL A   1      32.664  19.737  23.488  1.00  0.00    -0.025 A 
ATOM     11  C   UNL A   1      32.357  18.398  22.871  1.00  0.00     0.047 C 
ATOM     12  C   UNL A   1      33.581  19.921  24.549  1.00  0.00     0.047 A 
BRANCH   7  13
ATOM     13  N   UNL A   1      31.711  23.262  22.782  1.00  0.00    -0.355 N 
ATOM     14  H   UNL A   1      31.189  23.104  21.963  1.00  0.00     0.167 HD
BRANCH  13  15
ATOM     15  C   UNL A   1      31.919  24.615  23.156  1.00  0.00     0.043 A 
ATOM     16  C   UNL A   1      32.828  25.218  20.832  1.00  0.00     0.046 C 
ATOM     17  C   UNL A   1      32.451  25.553  22.249  1.00  0.00    -0.027 A 
ATOM     18  C   UNL A   1      32.663  26.884  22.667  1.00  0.00     0.007 A 
ATOM     19  C   UNL A   1      32.331  27.299  23.956  1.00  0.00     0.020 A 
ATOM     20  C   UNL A   1      31.557  25.066  24.443  1.00  0.00     0.045 A 
ATOM     21  C   UNL A   1      31.771  26.389  24.846  1.00  0.00     0.054 A 
BRANCH  21  22
ATOM     22  C   UNL A   1      31.427  26.799  26.178  1.00  0.00     0.099 C 
ATOM     23  N   UNL A   1      31.147  27.129  27.252  1.00  0.00    -0.192 NA
ENDBRANCH  21  22
ENDBRANCH  13  15
ENDBRANCH   7  13
BRANCH  12  24
ATOM     24  N   UNL A   1      34.237  18.818  25.097  1.00  0.00    -0.398 N 
ATOM     25  H   UNL A   1      35.192  18.669  24.906  1.00  0.00     0.156 HD
ATOM     26  H   UNL A   1      33.746  18.190  25.675  1.00  0.00     0.156 HD
ENDBRANCH  12  24
ENDBRANCH   3   6
ENDBRANCH   1   2
BRANCH   1  27
ATOM     27  C   UNL A   1      37.916  20.040  24.994  1.00  0.00     0.042 C 
BRANCH  27  28
ATOM     28  C   UNL A   1      39.110  20.367  25.887  1.00  0.00     0.118 C 
BRANCH  28  29
ATOM     29  N   UNL A   1      40.067  19.265  25.946  1.00  0.00    -0.352 N 
ATOM     30  C   UNL A   1      41.433  19.285  26.077  1.00  0.00     0.251 C 
ATOM     31  H   UNL A   1      39.669  18.366  25.883  1.00  0.00     0.163 HD
ATOM     32  O   UNL A   1      42.087  18.266  25.874  1.00  0.00    -0.269 OA
BRANCH  30  33
ATOM     33  C   UNL A   1      42.114  20.544  26.433  1.00  0.00     0.039 A 
ATOM     34  C   UNL A   1      42.225  20.929  27.769  1.00  0.00     0.014 A 
ATOM     35  C   UNL A   1      42.611  21.365  25.418  1.00  0.00     0.014 A 
ATOM     36  C   UNL A   1      42.635  22.218  28.078  1.00  0.00     0.010 A 
ATOM     37  C   UNL A   1      43.126  22.621  25.741  1.00  0.00     0.010 A 
ATOM     38  C   UNL A   1      43.078  23.084  27.066  1.00  0.00    -0.014 A 
BRANCH  38  39
ATOM     39  C   UNL A   1      43.437  24.485  27.404  1.00  0.00     0.031 A 
ATOM     40  C   UNL A   1      44.871  24.939  27.320  1.00  0.00     0.074 A 
ATOM     41  C   UNL A   1      42.470  25.361  27.738  1.00  0.00     0.049 A 
ATOM     42  N   UNL A   1      45.390  26.102  27.626  1.00  0.00    -0.248 NA
ATOM     43  C   UNL A   1      45.855  23.958  26.834  1.00  0.00     0.031 C 
ATOM     44  C   UNL A   1      41.038  25.055  27.813  1.00  0.00     0.029 A 
ATOM     45  N   UNL A   1      42.541  26.690  28.065  1.00  0.00    -0.354 N 
ATOM     46  C   UNL A   1      46.756  25.984  27.391  1.00  0.00     0.074 A 
ATOM     47  C   UNL A   1      46.993  24.627  26.952  1.00  0.00     0.031 C 
ATOM     48  C   UNL A   1      40.366  26.171  28.132  1.00  0.00     0.029 A 
ATOM     49  C   UNL A   1      41.321  27.248  28.365  1.00  0.00     0.049 A 
ATOM     50  H   UNL A   1      43.385  27.197  28.086  1.00  0.00     0.167 HD
ATOM     51  C   UNL A   1      47.721  26.925  27.522  1.00  0.00     0.037 A 
ATOM     52  C   UNL A   1      41.013  28.477  28.816  1.00  0.00     0.037 A 
ATOM     53  C   UNL A   1      47.478  28.277  27.949  1.00  0.00     0.049 A 
ATOM     54  C   UNL A   1      42.122  29.468  29.047  1.00  0.00     0.074 A 
ATOM     55  C   UNL A   1      48.388  29.310  28.101  1.00  0.00     0.029 A 
ATOM     56  N   UNL A   1      46.236  28.784  28.299  1.00  0.00    -0.354 N 
ATOM     57  N   UNL A   1      43.407  29.345  28.814  1.00  0.00    -0.248 NA
ATOM     58  C   UNL A   1      41.737  30.768  29.610  1.00  0.00     0.031 C 
ATOM     59  C   UNL A   1      47.708  30.419  28.611  1.00  0.00     0.029 A 
ATOM     60  C   UNL A   1      46.362  30.105  28.696  1.00  0.00     0.049 A 
ATOM     61  H   UNL A   1      45.391  28.281  28.269  1.00  0.00     0.167 HD
ATOM     62  C   UNL A   1      43.973  30.565  29.161  1.00  0.00     0.074 A 
ATOM     63  C   UNL A   1      42.891  31.418  29.605  1.00  0.00     0.031 C 
ATOM     64  C   UNL A   1      45.272  30.949  29.115  1.00  0.00     0.037 A 
BRANCH  51  65
ATOM     65  C   UNL A   1      49.138  26.520  27.230  1.00  0.00     0.057 A 
ATOM     66  C   UNL A   1      49.641  26.593  25.923  1.00  0.00     0.134 A 
ATOM     67  C   UNL A   1      49.990  26.011  28.219  1.00  0.00     0.134 A 
ATOM     68  F   UNL A   1      48.877  27.059  24.924  1.00  0.00    -0.206 F 
ATOM     69  C   UNL A   1      50.934  26.169  25.612  1.00  0.00     0.040 A 
ATOM     70  C   UNL A   1      51.296  25.615  27.925  1.00  0.00     0.040 A 
ATOM     71  F   UNL A   1      49.577  25.923  29.492  1.00  0.00    -0.206 F 
ATOM     72  C   UNL A   1      51.769  25.686  26.616  1.00  0.00     0.006 A 
ENDBRANCH  51  65
BRANCH  52  73
ATOM     73  C   UNL A   1      39.606  28.841  29.131  1.00  0.00     0.057 A 
ATOM     74  C   UNL A   1      38.740  29.331  28.145  1.00  0.00     0.134 A 
ATOM     75  C   UNL A   1      39.071  28.629  30.408  1.00  0.00     0.134 A 
ATOM     76  F   UNL A   1      39.190  29.567  26.903  1.00  0.00    -0.206 F 
ATOM     77  C   UNL A   1      37.395  29.583  28.411  1.00  0.00     0.040 A 
ATOM     78  C   UNL A   1      37.718  28.838  30.677  1.00  0.00     0.040 A 
ATOM     79  F   UNL A   1      39.844  28.148  31.393  1.00  0.00    -0.206 F 
ATOM     80  C   UNL A   1      36.876  29.316  29.676  1.00  0.00     0.006 A 
ENDBRANCH  52  73
BRANCH  64  81
ATOM     81  C   UNL A   1      45.585  32.371  29.480  1.00  0.00     0.057 A 
ATOM     82  C   UNL A   1      45.550  33.374  28.500  1.00  0.00     0.134 A 
ATOM     83  C   UNL A   1      45.948  32.750  30.778  1.00  0.00     0.134 A 
ATOM     84  F   UNL A   1      45.221  33.079  27.233  1.00  0.00    -0.206 F 
ATOM     85  C   UNL A   1      45.867  34.698  28.798  1.00  0.00     0.040 A 
ATOM     86  C   UNL A   1      46.232  34.080  31.096  1.00  0.00     0.040 A 
ATOM     87  F   UNL A   1      45.990  31.844  31.766  1.00  0.00    -0.206 F 
ATOM     88  C   UNL A   1      46.200  35.057  30.102  1.00  0.00     0.006 A 
ENDBRANCH  64  81
ENDBRANCH  38  39
ENDBRANCH  30  33
ENDBRANCH  28  29
ENDBRANCH  27  28
ENDBRANCH   1  27
TORSDOF 14
ENDMDL
