MODEL 1
REMARK VINA RESULT:     -11.4      0.000      0.000
REMARK SMILES CNC(=O)CCCn1cc(C(=O)NCCCNC(=O)c2ccc(-c3c4nc(c(-c5c(F)cccc5F)c5ccc([nH]5)c(-c5c(F)cccc5F)c5nc(c(-c6c(F)cccc6F)c6ccc3[nH]6)C=C5)C=C4)cc2)cc1Br
REMARK SMILES IDX 14 1 13 2 11 3 12 4 10 6 8 7 9 8 75 9 74 10 76 11 7 12 6 13
REMARK SMILES IDX 5 14 3 15 1 16 2 17 4 19 15 20 16 21 17 22 18 23 19 25 20 26
REMARK SMILES IDX 21 27 73 28 22 29 72 30 23 31 24 32 25 33 66 34 26 35 71 36
REMARK SMILES IDX 65 37 67 38 27 39 70 40 64 41 63 42 28 44 54 45 37 46 53 47
REMARK SMILES IDX 38 48 41 49 52 50 68 51 39 52 40 53 51 55 69 56 42 57 29 58
REMARK SMILES IDX 30 59 35 60 31 61 32 62 34 63 36 64 33 65 55 66 56 67 61 68
REMARK SMILES IDX 57 69 58 70 60 71 62 72 59 73 43 74 44 75 49 76 45 77 46 78
REMARK SMILES IDX 48 79 50 80 47 81
REMARK H PARENT 13 5 2 18 17 24 67 43 41 54
REMARK Flexibility Score: inf
ROOT
ATOM      1  C   UNL A   1      31.404  30.846  26.189  1.00  0.00     0.118 C 
ENDROOT
BRANCH   1   2
ATOM      2  N   UNL A   1      32.359  30.147  27.041  1.00  0.00    -0.352 N 
ATOM      3  C   UNL A   1      33.012  28.953  26.851  1.00  0.00     0.252 C 
ATOM      4  O   UNL A   1      33.961  28.686  27.601  1.00  0.00    -0.269 OA
ATOM      5  H   UNL A   1      32.569  30.604  27.887  1.00  0.00     0.163 HD
BRANCH   3   6
ATOM      6  C   UNL A   1      32.646  28.069  25.751  1.00  0.00     0.058 A 
ATOM      7  N   UNL A   1      31.451  26.771  24.364  1.00  0.00    -0.342 N 
ATOM      8  C   UNL A   1      31.559  27.211  25.659  1.00  0.00     0.100 A 
ATOM      9  C   UNL A   1      32.641  27.041  23.735  1.00  0.00     0.085 A 
ATOM     10  C   UNL A   1      33.396  27.844  24.558  1.00  0.00     0.049 A 
ATOM     11  Br  UNL A   1      33.166  26.490  22.029  1.00  0.00    -0.031 Br
BRANCH   7  12
ATOM     12  C   UNL A   1      30.268  26.237  23.704  1.00  0.00     0.123 C 
BRANCH  12  13
ATOM     13  C   UNL A   1      28.966  27.051  23.696  1.00  0.00     0.032 C 
BRANCH  13  14
ATOM     14  C   UNL A   1      28.909  28.368  22.919  1.00  0.00     0.102 C 
BRANCH  14  15
ATOM     15  C   UNL A   1      27.582  29.087  22.807  1.00  0.00     0.219 C 
ATOM     16  C   UNL A   1      28.391  30.899  21.207  1.00  0.00     0.142 C 
ATOM     17  N   UNL A   1      27.456  30.219  22.068  1.00  0.00    -0.359 N 
ATOM     18  H   UNL A   1      26.573  30.650  22.132  1.00  0.00     0.163 HD
ATOM     19  O   UNL A   1      26.604  28.697  23.447  1.00  0.00    -0.275 OA
ENDBRANCH  14  15
ENDBRANCH  13  14
ENDBRANCH  12  13
ENDBRANCH   7  12
ENDBRANCH   3   6
ENDBRANCH   1   2
BRANCH   1  20
ATOM     20  C   UNL A   1      31.308  32.347  26.490  1.00  0.00     0.042 C 
BRANCH  20  21
ATOM     21  C   UNL A   1      32.521  32.860  27.240  1.00  0.00     0.118 C 
BRANCH  21  22
ATOM     22  N   UNL A   1      32.389  34.264  27.681  1.00  0.00    -0.352 N 
ATOM     23  C   UNL A   1      33.013  34.908  28.740  1.00  0.00     0.251 C 
ATOM     24  H   UNL A   1      31.774  34.819  27.149  1.00  0.00     0.163 HD
ATOM     25  O   UNL A   1      32.576  35.977  29.182  1.00  0.00    -0.269 OA
BRANCH  23  26
ATOM     26  C   UNL A   1      34.227  34.320  29.320  1.00  0.00     0.039 A 
ATOM     27  C   UNL A   1      34.355  33.823  30.624  1.00  0.00     0.014 A 
ATOM     28  C   UNL A   1      35.275  34.194  28.443  1.00  0.00     0.014 A 
ATOM     29  C   UNL A   1      35.563  33.213  30.985  1.00  0.00     0.010 A 
ATOM     30  C   UNL A   1      36.073  33.129  28.661  1.00  0.00     0.010 A 
ATOM     31  C   UNL A   1      36.457  32.914  29.962  1.00  0.00    -0.014 A 
BRANCH  31  32
ATOM     32  C   UNL A   1      37.783  32.332  30.084  1.00  0.00     0.031 A 
ATOM     33  C   UNL A   1      37.912  30.990  29.471  1.00  0.00     0.074 A 
ATOM     34  C   UNL A   1      38.846  33.140  30.333  1.00  0.00     0.049 A 
ATOM     35  N   UNL A   1      38.093  29.858  30.065  1.00  0.00    -0.248 NA
ATOM     36  C   UNL A   1      37.616  30.862  28.031  1.00  0.00     0.031 C 
ATOM     37  C   UNL A   1      38.862  34.597  30.560  1.00  0.00     0.029 A 
ATOM     38  N   UNL A   1      40.176  32.845  30.298  1.00  0.00    -0.354 N 
ATOM     39  C   UNL A   1      38.168  28.919  29.039  1.00  0.00     0.074 A 
ATOM     40  C   UNL A   1      37.584  29.538  27.885  1.00  0.00     0.031 C 
ATOM     41  C   UNL A   1      40.120  35.076  30.417  1.00  0.00     0.029 A 
ATOM     42  C   UNL A   1      41.022  33.955  30.243  1.00  0.00     0.049 A 
ATOM     43  H   UNL A   1      40.515  31.920  30.310  1.00  0.00     0.167 HD
ATOM     44  C   UNL A   1      38.994  27.839  29.122  1.00  0.00     0.037 A 
ATOM     45  C   UNL A   1      42.360  33.922  30.011  1.00  0.00     0.037 A 
ATOM     46  C   UNL A   1      39.489  27.677  30.468  1.00  0.00     0.049 A 
ATOM     47  C   UNL A   1      42.803  32.522  30.255  1.00  0.00     0.074 A 
ATOM     48  C   UNL A   1      38.897  27.495  31.703  1.00  0.00     0.029 A 
ATOM     49  N   UNL A   1      40.765  28.118  30.726  1.00  0.00    -0.354 N 
ATOM     50  N   UNL A   1      42.770  31.952  31.431  1.00  0.00    -0.248 NA
ATOM     51  C   UNL A   1      42.778  31.611  29.120  1.00  0.00     0.031 C 
ATOM     52  C   UNL A   1      39.660  28.306  32.595  1.00  0.00     0.029 A 
ATOM     53  C   UNL A   1      40.723  28.860  31.879  1.00  0.00     0.049 A 
ATOM     54  H   UNL A   1      41.565  27.936  30.182  1.00  0.00     0.167 HD
ATOM     55  C   UNL A   1      42.294  30.669  31.192  1.00  0.00     0.074 A 
ATOM     56  C   UNL A   1      42.374  30.498  29.742  1.00  0.00     0.031 C 
ATOM     57  C   UNL A   1      41.591  29.984  32.145  1.00  0.00     0.037 A 
BRANCH  44  58
ATOM     58  C   UNL A   1      39.671  27.178  27.944  1.00  0.00     0.057 A 
ATOM     59  C   UNL A   1      39.658  25.774  27.860  1.00  0.00     0.134 A 
ATOM     60  C   UNL A   1      40.553  27.818  27.046  1.00  0.00     0.134 A 
ATOM     61  F   UNL A   1      38.866  25.047  28.661  1.00  0.00    -0.206 F 
ATOM     62  C   UNL A   1      40.515  25.063  27.011  1.00  0.00     0.040 A 
ATOM     63  C   UNL A   1      41.370  27.119  26.154  1.00  0.00     0.040 A 
ATOM     64  F   UNL A   1      40.757  29.140  27.044  1.00  0.00    -0.206 F 
ATOM     65  C   UNL A   1      41.380  25.735  26.159  1.00  0.00     0.006 A 
ENDBRANCH  44  58
BRANCH  45  66
ATOM     66  C   UNL A   1      43.190  34.905  29.271  1.00  0.00     0.057 A 
ATOM     67  C   UNL A   1      42.745  35.501  28.082  1.00  0.00     0.134 A 
ATOM     68  C   UNL A   1      44.332  35.482  29.857  1.00  0.00     0.134 A 
ATOM     69  F   UNL A   1      41.639  35.053  27.471  1.00  0.00    -0.206 F 
ATOM     70  C   UNL A   1      43.389  36.614  27.517  1.00  0.00     0.040 A 
ATOM     71  C   UNL A   1      44.985  36.589  29.303  1.00  0.00     0.040 A 
ATOM     72  F   UNL A   1      44.797  35.045  31.035  1.00  0.00    -0.206 F 
ATOM     73  C   UNL A   1      44.508  37.167  28.134  1.00  0.00     0.006 A 
ENDBRANCH  45  66
BRANCH  57  74
ATOM     74  C   UNL A   1      41.525  30.572  33.533  1.00  0.00     0.057 A 
ATOM     75  C   UNL A   1      40.487  31.399  33.993  1.00  0.00     0.134 A 
ATOM     76  C   UNL A   1      42.450  30.143  34.489  1.00  0.00     0.134 A 
ATOM     77  F   UNL A   1      39.495  31.780  33.182  1.00  0.00    -0.206 F 
ATOM     78  C   UNL A   1      40.397  31.812  35.326  1.00  0.00     0.040 A 
ATOM     79  C   UNL A   1      42.356  30.521  35.830  1.00  0.00     0.040 A 
ATOM     80  F   UNL A   1      43.435  29.301  34.142  1.00  0.00    -0.206 F 
ATOM     81  C   UNL A   1      41.332  31.366  36.252  1.00  0.00     0.006 A 
ENDBRANCH  57  74
ENDBRANCH  31  32
ENDBRANCH  23  26
ENDBRANCH  21  22
ENDBRANCH  20  21
ENDBRANCH   1  20
TORSDOF 14
ENDMDL
MODEL 2
REMARK VINA RESULT:     -11.1      1.953      3.437
REMARK SMILES CNC(=O)CCCn1cc(C(=O)NCCCNC(=O)c2ccc(-c3c4nc(c(-c5c(F)cccc5F)c5ccc([nH]5)c(-c5c(F)cccc5F)c5nc(c(-c6c(F)cccc6F)c6ccc3[nH]6)C=C5)C=C4)cc2)cc1Br
REMARK SMILES IDX 14 1 13 2 11 3 12 4 10 6 8 7 9 8 75 9 74 10 76 11 7 12 6 13
REMARK SMILES IDX 5 14 3 15 1 16 2 17 4 19 15 20 16 21 17 22 18 23 19 25 20 26
REMARK SMILES IDX 21 27 73 28 22 29 72 30 23 31 24 32 25 33 66 34 26 35 71 36
REMARK SMILES IDX 65 37 67 38 27 39 70 40 64 41 63 42 28 44 54 45 37 46 53 47
REMARK SMILES IDX 38 48 41 49 52 50 68 51 39 52 40 53 51 55 69 56 42 57 29 58
REMARK SMILES IDX 30 59 35 60 31 61 32 62 34 63 36 64 33 65 55 66 56 67 61 68
REMARK SMILES IDX 57 69 58 70 60 71 62 72 59 73 43 74 44 75 49 76 45 77 46 78
REMARK SMILES IDX 48 79 50 80 47 81
REMARK H PARENT 13 5 2 18 17 24 67 43 41 54
REMARK Flexibility Score: inf
ROOT
ATOM      1  C   UNL A   1      31.482  30.548  25.857  1.00  0.00     0.118 C 
ENDROOT
BRANCH   1   2
ATOM      2  N   UNL A   1      30.889  30.291  24.549  1.00  0.00    -0.352 N 
ATOM      3  C   UNL A   1      30.704  29.110  23.873  1.00  0.00     0.252 C 
ATOM      4  O   UNL A   1      29.954  29.118  22.887  1.00  0.00    -0.269 OA
ATOM      5  H   UNL A   1      30.569  31.093  24.076  1.00  0.00     0.163 HD
BRANCH   3   6
ATOM      6  C   UNL A   1      31.310  27.873  24.351  1.00  0.00     0.058 A 
ATOM      7  N   UNL A   1      32.825  26.360  25.022  1.00  0.00    -0.342 N 
ATOM      8  C   UNL A   1      32.619  27.440  24.201  1.00  0.00     0.100 A 
ATOM      9  C   UNL A   1      31.593  25.890  25.403  1.00  0.00     0.085 A 
ATOM     10  C   UNL A   1      30.639  26.801  25.013  1.00  0.00     0.049 A 
ATOM     11  Br  UNL A   1      31.228  24.319  26.347  1.00  0.00    -0.031 Br
BRANCH   7  12
ATOM     12  C   UNL A   1      34.096  25.859  25.528  1.00  0.00     0.123 C 
BRANCH  12  13
ATOM     13  C   UNL A   1      34.672  24.547  24.977  1.00  0.00     0.032 C 
BRANCH  13  14
ATOM     14  C   UNL A   1      35.603  23.709  25.856  1.00  0.00     0.102 C 
BRANCH  14  15
ATOM     15  C   UNL A   1      35.665  22.215  25.627  1.00  0.00     0.219 C 
ATOM     16  C   UNL A   1      34.033  21.590  27.483  1.00  0.00     0.142 C 
ATOM     17  N   UNL A   1      34.978  21.353  26.420  1.00  0.00    -0.359 N 
ATOM     18  H   UNL A   1      35.155  20.402  26.237  1.00  0.00     0.163 HD
ATOM     19  O   UNL A   1      36.403  21.745  24.759  1.00  0.00    -0.275 OA
ENDBRANCH  14  15
ENDBRANCH  13  14
ENDBRANCH  12  13
ENDBRANCH   7  12
ENDBRANCH   3   6
ENDBRANCH   1   2
BRANCH   1  20
ATOM     20  C   UNL A   1      31.221  31.967  26.374  1.00  0.00     0.042 C 
BRANCH  20  21
ATOM     21  C   UNL A   1      32.342  32.469  27.263  1.00  0.00     0.118 C 
BRANCH  21  22
ATOM     22  N   UNL A   1      32.275  33.920  27.532  1.00  0.00    -0.352 N 
ATOM     23  C   UNL A   1      32.963  34.664  28.480  1.00  0.00     0.251 C 
ATOM     24  H   UNL A   1      31.657  34.429  26.959  1.00  0.00     0.163 HD
ATOM     25  O   UNL A   1      32.580  35.796  28.801  1.00  0.00    -0.269 OA
BRANCH  23  26
ATOM     26  C   UNL A   1      34.180  34.106  29.082  1.00  0.00     0.039 A 
ATOM     27  C   UNL A   1      34.299  33.625  30.394  1.00  0.00     0.014 A 
ATOM     28  C   UNL A   1      35.242  33.991  28.221  1.00  0.00     0.014 A 
ATOM     29  C   UNL A   1      35.513  33.042  30.777  1.00  0.00     0.010 A 
ATOM     30  C   UNL A   1      36.056  32.944  28.461  1.00  0.00     0.010 A 
ATOM     31  C   UNL A   1      36.427  32.750  29.771  1.00  0.00    -0.014 A 
BRANCH  31  32
ATOM     32  C   UNL A   1      37.762  32.194  29.917  1.00  0.00     0.031 A 
ATOM     33  C   UNL A   1      37.926  30.850  29.316  1.00  0.00     0.074 A 
ATOM     34  C   UNL A   1      38.805  33.025  30.175  1.00  0.00     0.049 A 
ATOM     35  N   UNL A   1      38.119  29.727  29.923  1.00  0.00    -0.248 NA
ATOM     36  C   UNL A   1      37.654  30.705  27.874  1.00  0.00     0.031 C 
ATOM     37  C   UNL A   1      38.789  34.484  30.390  1.00  0.00     0.029 A 
ATOM     38  N   UNL A   1      40.141  32.755  30.162  1.00  0.00    -0.354 N 
ATOM     39  C   UNL A   1      38.228  28.781  28.906  1.00  0.00     0.074 A 
ATOM     40  C   UNL A   1      37.649  29.380  27.738  1.00  0.00     0.031 C 
ATOM     41  C   UNL A   1      40.040  34.986  30.262  1.00  0.00     0.029 A 
ATOM     42  C   UNL A   1      40.966  33.882  30.110  1.00  0.00     0.049 A 
ATOM     43  H   UNL A   1      40.497  31.838  30.186  1.00  0.00     0.167 HD
ATOM     44  C   UNL A   1      39.073  27.719  29.010  1.00  0.00     0.037 A 
ATOM     45  C   UNL A   1      42.308  33.872  29.899  1.00  0.00     0.037 A 
ATOM     46  C   UNL A   1      39.551  27.576  30.364  1.00  0.00     0.049 A 
ATOM     47  C   UNL A   1      42.774  32.483  30.161  1.00  0.00     0.074 A 
ATOM     48  C   UNL A   1      38.944  27.393  31.592  1.00  0.00     0.029 A 
ATOM     49  N   UNL A   1      40.815  28.044  30.638  1.00  0.00    -0.354 N 
ATOM     50  N   UNL A   1      42.734  31.921  31.341  1.00  0.00    -0.248 NA
ATOM     51  C   UNL A   1      42.783  31.562  29.033  1.00  0.00     0.031 C 
ATOM     52  C   UNL A   1      39.678  28.225  32.489  1.00  0.00     0.029 A 
ATOM     53  C   UNL A   1      40.741  28.795  31.784  1.00  0.00     0.049 A 
ATOM     54  H   UNL A   1      41.625  27.873  30.107  1.00  0.00     0.167 HD
ATOM     55  C   UNL A   1      42.286  30.628  31.106  1.00  0.00     0.074 A 
ATOM     56  C   UNL A   1      42.391  30.447  29.658  1.00  0.00     0.031 C 
ATOM     57  C   UNL A   1      41.583  29.937  32.054  1.00  0.00     0.037 A 
BRANCH  44  58
ATOM     58  C   UNL A   1      39.781  27.061  27.847  1.00  0.00     0.057 A 
ATOM     59  C   UNL A   1      39.761  25.658  27.753  1.00  0.00     0.134 A 
ATOM     60  C   UNL A   1      40.693  27.701  26.981  1.00  0.00     0.134 A 
ATOM     61  F   UNL A   1      38.941  24.930  28.526  1.00  0.00    -0.206 F 
ATOM     62  C   UNL A   1      40.638  24.947  26.925  1.00  0.00     0.040 A 
ATOM     63  C   UNL A   1      41.532  27.003  26.108  1.00  0.00     0.040 A 
ATOM     64  F   UNL A   1      40.905  29.022  26.994  1.00  0.00    -0.206 F 
ATOM     65  C   UNL A   1      41.532  25.620  26.103  1.00  0.00     0.006 A 
ENDBRANCH  44  58
BRANCH  45  66
ATOM     66  C   UNL A   1      43.130  34.865  29.163  1.00  0.00     0.057 A 
ATOM     67  C   UNL A   1      44.454  35.144  29.530  1.00  0.00     0.134 A 
ATOM     68  C   UNL A   1      42.720  35.369  27.915  1.00  0.00     0.134 A 
ATOM     69  F   UNL A   1      44.954  34.670  30.680  1.00  0.00    -0.206 F 
ATOM     70  C   UNL A   1      45.323  35.871  28.700  1.00  0.00     0.040 A 
ATOM     71  C   UNL A   1      43.574  36.097  27.079  1.00  0.00     0.040 A 
ATOM     72  F   UNL A   1      41.502  35.094  27.427  1.00  0.00    -0.206 F 
ATOM     73  C   UNL A   1      44.885  36.341  27.465  1.00  0.00     0.006 A 
ENDBRANCH  45  66
BRANCH  57  74
ATOM     74  C   UNL A   1      41.484  30.534  33.435  1.00  0.00     0.057 A 
ATOM     75  C   UNL A   1      40.425  31.346  33.872  1.00  0.00     0.134 A 
ATOM     76  C   UNL A   1      42.402  30.131  34.409  1.00  0.00     0.134 A 
ATOM     77  F   UNL A   1      39.439  31.703  33.043  1.00  0.00    -0.206 F 
ATOM     78  C   UNL A   1      40.306  31.768  35.200  1.00  0.00     0.040 A 
ATOM     79  C   UNL A   1      42.280  30.517  35.746  1.00  0.00     0.040 A 
ATOM     80  F   UNL A   1      43.408  29.304  34.084  1.00  0.00    -0.206 F 
ATOM     81  C   UNL A   1      41.235  31.346  36.145  1.00  0.00     0.006 A 
ENDBRANCH  57  74
ENDBRANCH  31  32
ENDBRANCH  23  26
ENDBRANCH  21  22
ENDBRANCH  20  21
ENDBRANCH   1  20
TORSDOF 14
ENDMDL
MODEL 3
REMARK VINA RESULT:     -11.1      4.443      8.505
REMARK SMILES CNC(=O)CCCn1cc(C(=O)NCCCNC(=O)c2ccc(-c3c4nc(c(-c5c(F)cccc5F)c5ccc([nH]5)c(-c5c(F)cccc5F)c5nc(c(-c6c(F)cccc6F)c6ccc3[nH]6)C=C5)C=C4)cc2)cc1Br
REMARK SMILES IDX 14 1 13 2 11 3 12 4 10 6 8 7 9 8 75 9 74 10 76 11 7 12 6 13
REMARK SMILES IDX 5 14 3 15 1 16 2 17 4 19 15 20 16 21 17 22 18 23 19 25 20 26
REMARK SMILES IDX 21 27 73 28 22 29 72 30 23 31 24 32 25 33 66 34 26 35 71 36
REMARK SMILES IDX 65 37 67 38 27 39 70 40 64 41 63 42 28 44 54 45 37 46 53 47
REMARK SMILES IDX 38 48 41 49 52 50 68 51 39 52 40 53 51 55 69 56 42 57 29 58
REMARK SMILES IDX 30 59 35 60 31 61 32 62 34 63 36 64 33 65 55 66 56 67 61 68
REMARK SMILES IDX 57 69 58 70 60 71 62 72 59 73 43 74 44 75 49 76 45 77 46 78
REMARK SMILES IDX 48 79 50 80 47 81
REMARK H PARENT 13 5 2 18 17 24 67 43 41 54
REMARK Flexibility Score: inf
ROOT
ATOM      1  C   UNL A   1      37.911  22.477  25.783  1.00  0.00     0.118 C 
ENDROOT
BRANCH   1   2
ATOM      2  N   UNL A   1      37.652  22.648  24.358  1.00  0.00    -0.352 N 
ATOM      3  C   UNL A   1      36.463  22.758  23.678  1.00  0.00     0.252 C 
ATOM      4  O   UNL A   1      36.504  23.144  22.501  1.00  0.00    -0.269 OA
ATOM      5  H   UNL A   1      38.457  22.692  23.794  1.00  0.00     0.163 HD
BRANCH   3   6
ATOM      6  C   UNL A   1      35.193  22.502  24.346  1.00  0.00     0.058 A 
ATOM      7  N   UNL A   1      33.463  21.446  25.308  1.00  0.00    -0.342 N 
ATOM      8  C   UNL A   1      34.438  21.338  24.348  1.00  0.00     0.100 A 
ATOM      9  C   UNL A   1      33.363  22.771  25.649  1.00  0.00     0.085 A 
ATOM     10  C   UNL A   1      34.417  23.448  25.081  1.00  0.00     0.049 A 
ATOM     11  Br  UNL A   1      32.073  23.559  26.747  1.00  0.00    -0.031 Br
BRANCH   7  12
ATOM     12  C   UNL A   1      32.742  20.364  25.964  1.00  0.00     0.123 C 
BRANCH  12  13
ATOM     13  C   UNL A   1      33.031  18.907  25.574  1.00  0.00     0.032 C 
BRANCH  13  14
ATOM     14  C   UNL A   1      32.440  18.346  24.278  1.00  0.00     0.102 C 
BRANCH  14  15
ATOM     15  C   UNL A   1      33.046  17.092  23.688  1.00  0.00     0.219 C 
ATOM     16  C   UNL A   1      32.476  15.567  25.649  1.00  0.00     0.142 C 
ATOM     17  N   UNL A   1      33.059  15.924  24.379  1.00  0.00    -0.359 N 
ATOM     18  H   UNL A   1      33.552  15.196  23.938  1.00  0.00     0.163 HD
ATOM     19  O   UNL A   1      33.609  17.126  22.592  1.00  0.00    -0.275 OA
ENDBRANCH  14  15
ENDBRANCH  13  14
ENDBRANCH  12  13
ENDBRANCH   7  12
ENDBRANCH   3   6
ENDBRANCH   1   2
BRANCH   1  20
ATOM     20  C   UNL A   1      39.123  21.585  26.077  1.00  0.00     0.042 C 
BRANCH  20  21
ATOM     21  C   UNL A   1      40.217  22.330  26.817  1.00  0.00     0.118 C 
BRANCH  21  22
ATOM     22  N   UNL A   1      41.508  22.345  26.099  1.00  0.00    -0.352 N 
ATOM     23  C   UNL A   1      42.248  23.433  25.658  1.00  0.00     0.251 C 
ATOM     24  H   UNL A   1      41.896  21.461  25.907  1.00  0.00     0.163 HD
ATOM     25  O   UNL A   1      43.134  23.297  24.806  1.00  0.00    -0.269 OA
BRANCH  23  26
ATOM     26  C   UNL A   1      41.992  24.756  26.241  1.00  0.00     0.039 A 
ATOM     27  C   UNL A   1      41.004  25.658  25.822  1.00  0.00     0.014 A 
ATOM     28  C   UNL A   1      42.756  25.054  27.341  1.00  0.00     0.014 A 
ATOM     29  C   UNL A   1      40.838  26.843  26.549  1.00  0.00     0.010 A 
ATOM     30  C   UNL A   1      42.151  25.832  28.259  1.00  0.00     0.010 A 
ATOM     31  C   UNL A   1      41.483  26.933  27.778  1.00  0.00    -0.014 A 
BRANCH  31  32
ATOM     32  C   UNL A   1      41.506  28.065  28.689  1.00  0.00     0.031 A 
ATOM     33  C   UNL A   1      42.582  29.044  28.409  1.00  0.00     0.074 A 
ATOM     34  C   UNL A   1      40.389  28.373  29.399  1.00  0.00     0.049 A 
ATOM     35  N   UNL A   1      43.624  29.305  29.125  1.00  0.00    -0.248 NA
ATOM     36  C   UNL A   1      42.604  29.677  27.077  1.00  0.00     0.031 C 
ATOM     37  C   UNL A   1      39.094  27.667  29.430  1.00  0.00     0.029 A 
ATOM     38  N   UNL A   1      40.126  29.479  30.150  1.00  0.00    -0.354 N 
ATOM     39  C   UNL A   1      44.296  30.310  28.431  1.00  0.00     0.074 A 
ATOM     40  C   UNL A   1      43.796  30.272  27.088  1.00  0.00     0.031 C 
ATOM     41  C   UNL A   1      38.142  28.466  29.966  1.00  0.00     0.029 A 
ATOM     42  C   UNL A   1      38.777  29.673  30.456  1.00  0.00     0.049 A 
ATOM     43  H   UNL A   1      40.833  30.094  30.454  1.00  0.00     0.167 HD
ATOM     44  C   UNL A   1      44.961  31.302  29.085  1.00  0.00     0.037 A 
ATOM     45  C   UNL A   1      38.245  30.788  31.021  1.00  0.00     0.037 A 
ATOM     46  C   UNL A   1      45.110  30.982  30.484  1.00  0.00     0.049 A 
ATOM     47  C   UNL A   1      39.376  31.543  31.628  1.00  0.00     0.074 A 
ATOM     48  C   UNL A   1      45.689  29.942  31.184  1.00  0.00     0.029 A 
ATOM     49  N   UNL A   1      44.244  31.588  31.363  1.00  0.00    -0.354 N 
ATOM     50  N   UNL A   1      40.078  31.099  32.637  1.00  0.00    -0.248 NA
ATOM     51  C   UNL A   1      40.046  32.523  30.785  1.00  0.00     0.031 C 
ATOM     52  C   UNL A   1      44.784  29.673  32.253  1.00  0.00     0.029 A 
ATOM     53  C   UNL A   1      43.756  30.618  32.201  1.00  0.00     0.049 A 
ATOM     54  H   UNL A   1      44.013  32.545  31.386  1.00  0.00     0.167 HD
ATOM     55  C   UNL A   1      41.395  31.406  32.317  1.00  0.00     0.074 A 
ATOM     56  C   UNL A   1      41.306  32.337  31.192  1.00  0.00     0.031 C 
ATOM     57  C   UNL A   1      42.433  30.645  32.781  1.00  0.00     0.037 A 
BRANCH  44  58
ATOM     58  C   UNL A   1      45.121  32.716  28.573  1.00  0.00     0.057 A 
ATOM     59  C   UNL A   1      46.418  33.203  28.338  1.00  0.00     0.134 A 
ATOM     60  C   UNL A   1      44.106  33.697  28.559  1.00  0.00     0.134 A 
ATOM     61  F   UNL A   1      47.472  32.374  28.329  1.00  0.00    -0.206 F 
ATOM     62  C   UNL A   1      46.693  34.568  28.184  1.00  0.00     0.040 A 
ATOM     63  C   UNL A   1      44.363  35.054  28.348  1.00  0.00     0.040 A 
ATOM     64  F   UNL A   1      42.828  33.426  28.846  1.00  0.00    -0.206 F 
ATOM     65  C   UNL A   1      45.664  35.499  28.196  1.00  0.00     0.006 A 
ENDBRANCH  44  58
BRANCH  45  66
ATOM     66  C   UNL A   1      36.918  31.403  30.771  1.00  0.00     0.057 A 
ATOM     67  C   UNL A   1      36.011  31.651  31.811  1.00  0.00     0.134 A 
ATOM     68  C   UNL A   1      36.615  32.006  29.536  1.00  0.00     0.134 A 
ATOM     69  F   UNL A   1      36.234  31.158  33.038  1.00  0.00    -0.206 F 
ATOM     70  C   UNL A   1      34.877  32.461  31.637  1.00  0.00     0.040 A 
ATOM     71  C   UNL A   1      35.488  32.814  29.348  1.00  0.00     0.040 A 
ATOM     72  F   UNL A   1      37.454  31.904  28.496  1.00  0.00    -0.206 F 
ATOM     73  C   UNL A   1      34.619  33.054  30.404  1.00  0.00     0.006 A 
ENDBRANCH  45  66
BRANCH  57  74
ATOM     74  C   UNL A   1      42.129  29.590  33.815  1.00  0.00     0.057 A 
ATOM     75  C   UNL A   1      41.867  28.243  33.517  1.00  0.00     0.134 A 
ATOM     76  C   UNL A   1      42.281  29.911  35.166  1.00  0.00     0.134 A 
ATOM     77  F   UNL A   1      41.806  27.813  32.252  1.00  0.00    -0.206 F 
ATOM     78  C   UNL A   1      41.723  27.272  34.513  1.00  0.00     0.040 A 
ATOM     79  C   UNL A   1      42.171  28.947  36.172  1.00  0.00     0.040 A 
ATOM     80  F   UNL A   1      42.594  31.164  35.530  1.00  0.00    -0.206 F 
ATOM     81  C   UNL A   1      41.883  27.624  35.848  1.00  0.00     0.006 A 
ENDBRANCH  57  74
ENDBRANCH  31  32
ENDBRANCH  23  26
ENDBRANCH  21  22
ENDBRANCH  20  21
ENDBRANCH   1  20
TORSDOF 14
ENDMDL
