MODEL 1
REMARK VINA RESULT:     -11.5      0.000      0.000
REMARK SMILES CC[C@@H](C)S(=O)(=O)c1cc(C(=O)NCCCNC(=O)c2ccc(-c3c4nc(c(-c5c(F)cccc5F)c5ccc([nH]5)c(-c5c(F)cccc5F)c5nc(c(-c6c(F)cccc6F)c6ccc3[nH]6)C=C5)C=C4)cc2)c(C)cc1C
REMARK SMILES IDX 14 1 13 2 11 3 12 4 10 6 8 7 9 8 77 9 76 10 78 11 74 12
REMARK SMILES IDX 75 13 5 14 6 15 7 16 3 17 4 18 2 19 1 20 15 21 16 22 17 23
REMARK SMILES IDX 18 24 19 26 20 27 21 28 73 29 22 30 72 31 23 32 24 33 25 34
REMARK SMILES IDX 66 35 26 36 71 37 65 38 67 39 27 40 70 41 64 42 63 43 28 45
REMARK SMILES IDX 54 46 37 47 53 48 38 49 41 50 52 51 68 52 39 53 40 54 51 56
REMARK SMILES IDX 69 57 42 58 29 59 30 60 35 61 31 62 32 63 34 64 36 65 33 66
REMARK SMILES IDX 55 67 56 68 61 69 57 70 58 71 60 72 62 73 59 74 43 75 44 76
REMARK SMILES IDX 49 77 45 78 46 79 48 80 50 81 47 82
REMARK H PARENT 13 5 17 25 67 44 41 55
REMARK Flexibility Score: inf
ROOT
ATOM      1  C   UNL A   1      36.151  20.561  24.686  1.00  0.00     0.118 C 
ENDROOT
BRANCH   1   2
ATOM      2  N   UNL A   1      35.238  20.588  25.809  1.00  0.00    -0.352 N 
ATOM      3  C   UNL A   1      34.562  21.575  26.474  1.00  0.00     0.251 C 
ATOM      4  O   UNL A   1      33.955  21.202  27.484  1.00  0.00    -0.269 OA
ATOM      5  H   UNL A   1      35.063  19.693  26.177  1.00  0.00     0.163 HD
BRANCH   3   6
ATOM      6  C   UNL A   1      34.413  23.011  26.052  1.00  0.00     0.044 A 
ATOM      7  C   UNL A   1      32.713  24.804  25.809  1.00  0.00     0.071 A 
ATOM      8  C   UNL A   1      33.078  23.475  26.111  1.00  0.00     0.034 A 
ATOM      9  C   UNL A   1      33.664  25.666  25.259  1.00  0.00    -0.032 A 
ATOM     10  C   UNL A   1      34.995  25.225  25.250  1.00  0.00     0.009 A 
ATOM     11  C   UNL A   1      33.445  27.053  24.731  1.00  0.00     0.046 C 
ATOM     12  C   UNL A   1      35.396  23.959  25.731  1.00  0.00    -0.038 A 
ATOM     13  C   UNL A   1      36.868  23.824  25.951  1.00  0.00     0.045 C 
BRANCH   7  14
ATOM     14  S   UNL A   1      31.026  25.288  26.188  1.00  0.00     0.181 S 
ATOM     15  O   UNL A   1      31.078  26.636  26.725  1.00  0.00    -0.223 OA
ATOM     16  O   UNL A   1      30.434  24.243  27.003  1.00  0.00    -0.223 OA
BRANCH  14  17
ATOM     17  C   UNL A   1      30.145  25.375  24.611  1.00  0.00     0.110 C 
ATOM     18  C   UNL A   1      30.659  24.373  23.584  1.00  0.00     0.025 C 
BRANCH  17  19
ATOM     19  C   UNL A   1      30.097  26.810  24.055  1.00  0.00     0.016 C 
ATOM     20  C   UNL A   1      28.703  27.243  23.614  1.00  0.00     0.005 C 
ENDBRANCH  17  19
ENDBRANCH  14  17
ENDBRANCH   7  14
ENDBRANCH   3   6
ENDBRANCH   1   2
BRANCH   1  21
ATOM     21  C   UNL A   1      37.319  19.622  24.994  1.00  0.00     0.042 C 
BRANCH  21  22
ATOM     22  C   UNL A   1      38.594  20.325  25.433  1.00  0.00     0.118 C 
BRANCH  22  23
ATOM     23  N   UNL A   1      39.683  19.386  25.640  1.00  0.00    -0.352 N 
ATOM     24  C   UNL A   1      40.976  19.608  26.043  1.00  0.00     0.251 C 
ATOM     25  H   UNL A   1      39.458  18.444  25.465  1.00  0.00     0.163 HD
ATOM     26  O   UNL A   1      41.805  18.710  25.913  1.00  0.00    -0.269 OA
BRANCH  24  27
ATOM     27  C   UNL A   1      41.393  20.911  26.619  1.00  0.00     0.039 A 
ATOM     28  C   UNL A   1      41.899  21.891  25.758  1.00  0.00     0.014 A 
ATOM     29  C   UNL A   1      41.346  21.160  27.993  1.00  0.00     0.014 A 
ATOM     30  C   UNL A   1      42.313  23.124  26.268  1.00  0.00     0.010 A 
ATOM     31  C   UNL A   1      41.668  22.421  28.488  1.00  0.00     0.010 A 
ATOM     32  C   UNL A   1      42.175  23.411  27.636  1.00  0.00    -0.014 A 
BRANCH  32  33
ATOM     33  C   UNL A   1      42.578  24.730  28.190  1.00  0.00     0.031 A 
ATOM     34  C   UNL A   1      41.551  25.812  28.393  1.00  0.00     0.074 A 
ATOM     35  C   UNL A   1      43.874  24.971  28.462  1.00  0.00     0.049 A 
ATOM     36  N   UNL A   1      41.714  27.041  28.814  1.00  0.00    -0.248 NA
ATOM     37  C   UNL A   1      40.158  25.479  28.054  1.00  0.00     0.031 C 
ATOM     38  C   UNL A   1      44.970  24.020  28.267  1.00  0.00     0.029 A 
ATOM     39  N   UNL A   1      44.493  26.092  28.957  1.00  0.00    -0.354 N 
ATOM     40  C   UNL A   1      40.455  27.627  28.775  1.00  0.00     0.074 A 
ATOM     41  C   UNL A   1      39.547  26.640  28.236  1.00  0.00     0.031 C 
ATOM     42  C   UNL A   1      46.121  24.588  28.661  1.00  0.00     0.029 A 
ATOM     43  C   UNL A   1      45.853  25.955  29.095  1.00  0.00     0.049 A 
ATOM     44  H   UNL A   1      44.008  26.917  29.189  1.00  0.00     0.167 HD
ATOM     45  C   UNL A   1      40.084  28.866  29.177  1.00  0.00     0.037 A 
ATOM     46  C   UNL A   1      46.782  26.835  29.515  1.00  0.00     0.037 A 
ATOM     47  C   UNL A   1      40.989  29.838  29.732  1.00  0.00     0.049 A 
ATOM     48  C   UNL A   1      46.347  28.211  29.940  1.00  0.00     0.074 A 
ATOM     49  C   UNL A   1      40.703  31.100  30.222  1.00  0.00     0.029 A 
ATOM     50  N   UNL A   1      42.358  29.658  29.863  1.00  0.00    -0.354 N 
ATOM     51  N   UNL A   1      45.141  28.726  29.964  1.00  0.00    -0.248 NA
ATOM     52  C   UNL A   1      47.400  29.125  30.403  1.00  0.00     0.031 C 
ATOM     53  C   UNL A   1      41.907  31.705  30.596  1.00  0.00     0.029 A 
ATOM     54  C   UNL A   1      42.935  30.797  30.401  1.00  0.00     0.049 A 
ATOM     55  H   UNL A   1      42.847  28.840  29.613  1.00  0.00     0.167 HD
ATOM     56  C   UNL A   1      45.287  30.011  30.471  1.00  0.00     0.074 A 
ATOM     57  C   UNL A   1      46.696  30.190  30.756  1.00  0.00     0.031 C 
ATOM     58  C   UNL A   1      44.339  30.958  30.683  1.00  0.00     0.037 A 
BRANCH  45  59
ATOM     59  C   UNL A   1      38.637  29.243  29.024  1.00  0.00     0.057 A 
ATOM     60  C   UNL A   1      38.100  29.641  27.792  1.00  0.00     0.134 A 
ATOM     61  C   UNL A   1      37.760  29.174  30.114  1.00  0.00     0.134 A 
ATOM     62  F   UNL A   1      38.884  29.740  26.708  1.00  0.00    -0.206 F 
ATOM     63  C   UNL A   1      36.753  29.983  27.656  1.00  0.00     0.040 A 
ATOM     64  C   UNL A   1      36.405  29.483  29.985  1.00  0.00     0.040 A 
ATOM     65  F   UNL A   1      38.203  28.793  31.322  1.00  0.00    -0.206 F 
ATOM     66  C   UNL A   1      35.899  29.897  28.754  1.00  0.00     0.006 A 
ENDBRANCH  45  59
BRANCH  46  67
ATOM     67  C   UNL A   1      48.212  26.438  29.569  1.00  0.00     0.057 A 
ATOM     68  C   UNL A   1      48.753  25.827  30.706  1.00  0.00     0.134 A 
ATOM     69  C   UNL A   1      49.075  26.665  28.489  1.00  0.00     0.134 A 
ATOM     70  F   UNL A   1      47.983  25.597  31.779  1.00  0.00    -0.206 F 
ATOM     71  C   UNL A   1      50.103  25.474  30.776  1.00  0.00     0.040 A 
ATOM     72  C   UNL A   1      50.419  26.292  28.534  1.00  0.00     0.040 A 
ATOM     73  F   UNL A   1      48.619  27.239  27.366  1.00  0.00    -0.206 F 
ATOM     74  C   UNL A   1      50.938  25.703  29.685  1.00  0.00     0.006 A 
ENDBRANCH  46  67
BRANCH  58  75
ATOM     75  C   UNL A   1      44.788  32.258  31.285  1.00  0.00     0.057 A 
ATOM     76  C   UNL A   1      44.853  32.453  32.671  1.00  0.00     0.134 A 
ATOM     77  C   UNL A   1      45.199  33.317  30.464  1.00  0.00     0.134 A 
ATOM     78  F   UNL A   1      44.464  31.484  33.513  1.00  0.00    -0.206 F 
ATOM     79  C   UNL A   1      45.285  33.662  33.218  1.00  0.00     0.040 A 
ATOM     80  C   UNL A   1      45.663  34.519  30.999  1.00  0.00     0.040 A 
ATOM     81  F   UNL A   1      45.172  33.194  29.128  1.00  0.00    -0.206 F 
ATOM     82  C   UNL A   1      45.700  34.696  32.380  1.00  0.00     0.006 A 
ENDBRANCH  58  75
ENDBRANCH  32  33
ENDBRANCH  24  27
ENDBRANCH  22  23
ENDBRANCH  21  22
ENDBRANCH   1  21
TORSDOF 13
ENDMDL
MODEL 2
REMARK VINA RESULT:     -11.3      4.079      8.948
REMARK SMILES CC[C@@H](C)S(=O)(=O)c1cc(C(=O)NCCCNC(=O)c2ccc(-c3c4nc(c(-c5c(F)cccc5F)c5ccc([nH]5)c(-c5c(F)cccc5F)c5nc(c(-c6c(F)cccc6F)c6ccc3[nH]6)C=C5)C=C4)cc2)c(C)cc1C
REMARK SMILES IDX 14 1 13 2 11 3 12 4 10 6 8 7 9 8 77 9 76 10 78 11 74 12
REMARK SMILES IDX 75 13 5 14 6 15 7 16 3 17 4 18 2 19 1 20 15 21 16 22 17 23
REMARK SMILES IDX 18 24 19 26 20 27 21 28 73 29 22 30 72 31 23 32 24 33 25 34
REMARK SMILES IDX 66 35 26 36 71 37 65 38 67 39 27 40 70 41 64 42 63 43 28 45
REMARK SMILES IDX 54 46 37 47 53 48 38 49 41 50 52 51 68 52 39 53 40 54 51 56
REMARK SMILES IDX 69 57 42 58 29 59 30 60 35 61 31 62 32 63 34 64 36 65 33 66
REMARK SMILES IDX 55 67 56 68 61 69 57 70 58 71 60 72 62 73 59 74 43 75 44 76
REMARK SMILES IDX 49 77 45 78 46 79 48 80 50 81 47 82
REMARK H PARENT 13 5 17 25 67 44 41 55
REMARK Flexibility Score: inf
ROOT
ATOM      1  C   UNL A   1      31.509  30.738  26.353  1.00  0.00     0.118 C 
ENDROOT
BRANCH   1   2
ATOM      2  N   UNL A   1      30.951  30.335  25.079  1.00  0.00    -0.352 N 
ATOM      3  C   UNL A   1      31.207  29.321  24.196  1.00  0.00     0.251 C 
ATOM      4  O   UNL A   1      30.578  29.384  23.134  1.00  0.00    -0.269 OA
ATOM      5  H   UNL A   1      30.221  30.924  24.781  1.00  0.00     0.163 HD
BRANCH   3   6
ATOM      6  C   UNL A   1      32.084  28.121  24.428  1.00  0.00     0.044 A 
ATOM      7  C   UNL A   1      32.077  25.884  25.505  1.00  0.00     0.071 A 
ATOM      8  C   UNL A   1      31.460  27.116  25.206  1.00  0.00     0.034 A 
ATOM      9  C   UNL A   1      33.422  25.695  25.178  1.00  0.00    -0.032 A 
ATOM     10  C   UNL A   1      34.023  26.666  24.363  1.00  0.00     0.009 A 
ATOM     11  C   UNL A   1      34.298  24.533  25.541  1.00  0.00     0.046 C 
ATOM     12  C   UNL A   1      33.347  27.816  23.900  1.00  0.00    -0.038 A 
ATOM     13  C   UNL A   1      34.041  28.528  22.784  1.00  0.00     0.045 C 
BRANCH   7  14
ATOM     14  S   UNL A   1      31.051  24.628  26.273  1.00  0.00     0.181 S 
ATOM     15  O   UNL A   1      29.745  25.220  26.498  1.00  0.00    -0.223 OA
ATOM     16  O   UNL A   1      31.774  24.097  27.414  1.00  0.00    -0.223 OA
BRANCH  14  17
ATOM     17  C   UNL A   1      30.836  23.313  25.048  1.00  0.00     0.110 C 
ATOM     18  C   UNL A   1      31.662  22.070  25.356  1.00  0.00     0.025 C 
BRANCH  17  19
ATOM     19  C   UNL A   1      31.056  23.822  23.613  1.00  0.00     0.016 C 
ATOM     20  C   UNL A   1      32.122  23.041  22.850  1.00  0.00     0.005 C 
ENDBRANCH  17  19
ENDBRANCH  14  17
ENDBRANCH   7  14
ENDBRANCH   3   6
ENDBRANCH   1   2
BRANCH   1  21
ATOM     21  C   UNL A   1      31.405  32.258  26.503  1.00  0.00     0.042 C 
BRANCH  21  22
ATOM     22  C   UNL A   1      32.701  32.942  26.907  1.00  0.00     0.118 C 
BRANCH  22  23
ATOM     23  N   UNL A   1      32.456  34.179  27.626  1.00  0.00    -0.352 N 
ATOM     24  C   UNL A   1      33.057  34.679  28.755  1.00  0.00     0.251 C 
ATOM     25  H   UNL A   1      31.749  34.749  27.245  1.00  0.00     0.163 HD
ATOM     26  O   UNL A   1      32.532  35.621  29.344  1.00  0.00    -0.269 OA
BRANCH  24  27
ATOM     27  C   UNL A   1      34.317  34.098  29.280  1.00  0.00     0.039 A 
ATOM     28  C   UNL A   1      34.248  33.231  30.375  1.00  0.00     0.014 A 
ATOM     29  C   UNL A   1      35.564  34.438  28.749  1.00  0.00     0.014 A 
ATOM     30  C   UNL A   1      35.417  32.676  30.904  1.00  0.00     0.010 A 
ATOM     31  C   UNL A   1      36.718  33.810  29.214  1.00  0.00     0.010 A 
ATOM     32  C   UNL A   1      36.661  32.939  30.309  1.00  0.00    -0.014 A 
BRANCH  32  33
ATOM     33  C   UNL A   1      37.910  32.330  30.837  1.00  0.00     0.031 A 
ATOM     34  C   UNL A   1      38.476  31.089  30.199  1.00  0.00     0.074 A 
ATOM     35  C   UNL A   1      38.506  32.863  31.920  1.00  0.00     0.049 A 
ATOM     36  N   UNL A   1      39.523  30.383  30.546  1.00  0.00    -0.248 NA
ATOM     37  C   UNL A   1      37.756  30.555  29.031  1.00  0.00     0.031 C 
ATOM     38  C   UNL A   1      38.031  34.037  32.655  1.00  0.00     0.029 A 
ATOM     39  N   UNL A   1      39.638  32.485  32.597  1.00  0.00    -0.354 N 
ATOM     40  C   UNL A   1      39.576  29.319  29.654  1.00  0.00     0.074 A 
ATOM     41  C   UNL A   1      38.426  29.439  28.785  1.00  0.00     0.031 C 
ATOM     42  C   UNL A   1      38.878  34.299  33.663  1.00  0.00     0.029 A 
ATOM     43  C   UNL A   1      39.930  33.287  33.674  1.00  0.00     0.049 A 
ATOM     44  H   UNL A   1      40.189  31.711  32.337  1.00  0.00     0.167 HD
ATOM     45  C   UNL A   1      40.512  28.346  29.550  1.00  0.00     0.037 A 
ATOM     46  C   UNL A   1      40.928  33.211  34.576  1.00  0.00     0.037 A 
ATOM     47  C   UNL A   1      41.666  28.243  30.405  1.00  0.00     0.049 A 
ATOM     48  C   UNL A   1      41.946  32.111  34.450  1.00  0.00     0.074 A 
ATOM     49  C   UNL A   1      42.703  27.329  30.346  1.00  0.00     0.029 A 
ATOM     50  N   UNL A   1      41.930  29.081  31.479  1.00  0.00    -0.354 N 
ATOM     51  N   UNL A   1      42.022  31.154  33.556  1.00  0.00    -0.248 NA
ATOM     52  C   UNL A   1      43.020  32.085  35.451  1.00  0.00     0.031 C 
ATOM     53  C   UNL A   1      43.564  27.577  31.420  1.00  0.00     0.029 A 
ATOM     54  C   UNL A   1      43.099  28.687  32.108  1.00  0.00     0.049 A 
ATOM     55  H   UNL A   1      41.370  29.843  31.752  1.00  0.00     0.167 HD
ATOM     56  C   UNL A   1      43.166  30.431  33.870  1.00  0.00     0.074 A 
ATOM     57  C   UNL A   1      43.760  31.071  35.026  1.00  0.00     0.031 C 
ATOM     58  C   UNL A   1      43.680  29.336  33.256  1.00  0.00     0.037 A 
BRANCH  45  59
ATOM     59  C   UNL A   1      40.324  27.310  28.478  1.00  0.00     0.057 A 
ATOM     60  C   UNL A   1      40.953  27.411  27.228  1.00  0.00     0.134 A 
ATOM     61  C   UNL A   1      39.533  26.177  28.708  1.00  0.00     0.134 A 
ATOM     62  F   UNL A   1      41.716  28.475  26.936  1.00  0.00    -0.206 F 
ATOM     63  C   UNL A   1      40.779  26.440  26.240  1.00  0.00     0.040 A 
ATOM     64  C   UNL A   1      39.377  25.183  27.740  1.00  0.00     0.040 A 
ATOM     65  F   UNL A   1      38.908  26.010  29.884  1.00  0.00    -0.206 F 
ATOM     66  C   UNL A   1      39.995  25.317  26.498  1.00  0.00     0.006 A 
ENDBRANCH  45  59
BRANCH  46  67
ATOM     67  C   UNL A   1      41.022  34.214  35.668  1.00  0.00     0.057 A 
ATOM     68  C   UNL A   1      40.372  34.015  36.892  1.00  0.00     0.134 A 
ATOM     69  C   UNL A   1      41.758  35.395  35.514  1.00  0.00     0.134 A 
ATOM     70  F   UNL A   1      39.638  32.912  37.096  1.00  0.00    -0.206 F 
ATOM     71  C   UNL A   1      40.432  34.963  37.916  1.00  0.00     0.040 A 
ATOM     72  C   UNL A   1      41.851  36.338  36.540  1.00  0.00     0.040 A 
ATOM     73  F   UNL A   1      42.412  35.643  34.370  1.00  0.00    -0.206 F 
ATOM     74  C   UNL A   1      41.178  36.127  37.741  1.00  0.00     0.006 A 
ENDBRANCH  46  67
BRANCH  58  75
ATOM     75  C   UNL A   1      44.967  28.784  33.799  1.00  0.00     0.057 A 
ATOM     76  C   UNL A   1      46.216  29.249  33.368  1.00  0.00     0.134 A 
ATOM     77  C   UNL A   1      44.953  27.799  34.796  1.00  0.00     0.134 A 
ATOM     78  F   UNL A   1      46.301  30.182  32.408  1.00  0.00    -0.206 F 
ATOM     79  C   UNL A   1      47.404  28.735  33.890  1.00  0.00     0.040 A 
ATOM     80  C   UNL A   1      46.132  27.301  35.348  1.00  0.00     0.040 A 
ATOM     81  F   UNL A   1      43.790  27.317  35.261  1.00  0.00    -0.206 F 
ATOM     82  C   UNL A   1      47.364  27.765  34.890  1.00  0.00     0.006 A 
ENDBRANCH  58  75
ENDBRANCH  32  33
ENDBRANCH  24  27
ENDBRANCH  22  23
ENDBRANCH  21  22
ENDBRANCH   1  21
TORSDOF 13
ENDMDL
MODEL 3
REMARK VINA RESULT:     -11.2      0.422      6.457
REMARK SMILES CC[C@@H](C)S(=O)(=O)c1cc(C(=O)NCCCNC(=O)c2ccc(-c3c4nc(c(-c5c(F)cccc5F)c5ccc([nH]5)c(-c5c(F)cccc5F)c5nc(c(-c6c(F)cccc6F)c6ccc3[nH]6)C=C5)C=C4)cc2)c(C)cc1C
REMARK SMILES IDX 14 1 13 2 11 3 12 4 10 6 8 7 9 8 77 9 76 10 78 11 74 12
REMARK SMILES IDX 75 13 5 14 6 15 7 16 3 17 4 18 2 19 1 20 15 21 16 22 17 23
REMARK SMILES IDX 18 24 19 26 20 27 21 28 73 29 22 30 72 31 23 32 24 33 25 34
REMARK SMILES IDX 66 35 26 36 71 37 65 38 67 39 27 40 70 41 64 42 63 43 28 45
REMARK SMILES IDX 54 46 37 47 53 48 38 49 41 50 52 51 68 52 39 53 40 54 51 56
REMARK SMILES IDX 69 57 42 58 29 59 30 60 35 61 31 62 32 63 34 64 36 65 33 66
REMARK SMILES IDX 55 67 56 68 61 69 57 70 58 71 60 72 62 73 59 74 43 75 44 76
REMARK SMILES IDX 49 77 45 78 46 79 48 80 50 81 47 82
REMARK H PARENT 13 5 17 25 67 44 41 55
REMARK Flexibility Score: inf
ROOT
ATOM      1  C   UNL A   1      36.101  20.442  24.710  1.00  0.00     0.118 C 
ENDROOT
BRANCH   1   2
ATOM      2  N   UNL A   1      35.222  20.525  25.857  1.00  0.00    -0.352 N 
ATOM      3  C   UNL A   1      34.611  21.551  26.527  1.00  0.00     0.251 C 
ATOM      4  O   UNL A   1      34.016  21.218  27.558  1.00  0.00    -0.269 OA
ATOM      5  H   UNL A   1      35.016  19.644  26.243  1.00  0.00     0.163 HD
BRANCH   3   6
ATOM      6  C   UNL A   1      34.517  22.987  26.090  1.00  0.00     0.044 A 
ATOM      7  C   UNL A   1      32.874  24.820  25.767  1.00  0.00     0.071 A 
ATOM      8  C   UNL A   1      33.192  23.485  26.093  1.00  0.00     0.034 A 
ATOM      9  C   UNL A   1      33.869  25.654  25.250  1.00  0.00    -0.032 A 
ATOM     10  C   UNL A   1      35.187  25.178  25.298  1.00  0.00     0.009 A 
ATOM     11  C   UNL A   1      33.707  27.041  24.704  1.00  0.00     0.046 C 
ATOM     12  C   UNL A   1      35.536  23.907  25.802  1.00  0.00    -0.038 A 
ATOM     13  C   UNL A   1      36.994  23.736  26.082  1.00  0.00     0.045 C 
BRANCH   7  14
ATOM     14  S   UNL A   1      31.187  25.351  26.075  1.00  0.00     0.181 S 
ATOM     15  O   UNL A   1      31.258  26.571  26.857  1.00  0.00    -0.223 OA
ATOM     16  O   UNL A   1      30.457  24.221  26.622  1.00  0.00    -0.223 OA
BRANCH  14  17
ATOM     17  C   UNL A   1      30.480  25.787  24.468  1.00  0.00     0.110 C 
ATOM     18  C   UNL A   1      29.015  26.199  24.553  1.00  0.00     0.025 C 
BRANCH  17  19
ATOM     19  C   UNL A   1      30.719  24.691  23.415  1.00  0.00     0.016 C 
ATOM     20  C   UNL A   1      31.668  25.118  22.300  1.00  0.00     0.005 C 
ENDBRANCH  17  19
ENDBRANCH  14  17
ENDBRANCH   7  14
ENDBRANCH   3   6
ENDBRANCH   1   2
BRANCH   1  21
ATOM     21  C   UNL A   1      37.295  19.544  25.040  1.00  0.00     0.042 C 
BRANCH  21  22
ATOM     22  C   UNL A   1      38.543  20.291  25.483  1.00  0.00     0.118 C 
BRANCH  22  23
ATOM     23  N   UNL A   1      39.661  19.392  25.701  1.00  0.00    -0.352 N 
ATOM     24  C   UNL A   1      40.948  19.661  26.098  1.00  0.00     0.251 C 
ATOM     25  H   UNL A   1      39.466  18.440  25.541  1.00  0.00     0.163 HD
ATOM     26  O   UNL A   1      41.804  18.788  25.979  1.00  0.00    -0.269 OA
BRANCH  24  27
ATOM     27  C   UNL A   1      41.324  20.984  26.653  1.00  0.00     0.039 A 
ATOM     28  C   UNL A   1      41.752  21.982  25.771  1.00  0.00     0.014 A 
ATOM     29  C   UNL A   1      41.315  21.238  28.027  1.00  0.00     0.014 A 
ATOM     30  C   UNL A   1      42.127  23.236  26.262  1.00  0.00     0.010 A 
ATOM     31  C   UNL A   1      41.595  22.515  28.506  1.00  0.00     0.010 A 
ATOM     32  C   UNL A   1      42.024  23.523  27.632  1.00  0.00    -0.014 A 
BRANCH  32  33
ATOM     33  C   UNL A   1      42.385  24.862  28.167  1.00  0.00     0.031 A 
ATOM     34  C   UNL A   1      43.804  25.159  28.572  1.00  0.00     0.074 A 
ATOM     35  C   UNL A   1      41.427  25.794  28.335  1.00  0.00     0.049 A 
ATOM     36  N   UNL A   1      44.304  26.246  29.106  1.00  0.00    -0.248 NA
ATOM     37  C   UNL A   1      44.790  24.084  28.376  1.00  0.00     0.031 C 
ATOM     38  C   UNL A   1      40.008  25.614  28.022  1.00  0.00     0.029 A 
ATOM     39  N   UNL A   1      41.499  27.077  28.816  1.00  0.00    -0.354 N 
ATOM     40  C   UNL A   1      45.650  25.979  29.321  1.00  0.00     0.074 A 
ATOM     41  C   UNL A   1      45.879  24.610  28.916  1.00  0.00     0.031 C 
ATOM     42  C   UNL A   1      39.349  26.751  28.294  1.00  0.00     0.029 A 
ATOM     43  C   UNL A   1      40.288  27.725  28.841  1.00  0.00     0.049 A 
ATOM     44  H   UNL A   1      42.340  27.494  29.116  1.00  0.00     0.167 HD
ATOM     45  C   UNL A   1      46.614  26.807  29.790  1.00  0.00     0.037 A 
ATOM     46  C   UNL A   1      39.966  28.962  29.266  1.00  0.00     0.037 A 
ATOM     47  C   UNL A   1      46.384  28.175  30.174  1.00  0.00     0.049 A 
ATOM     48  C   UNL A   1      41.052  29.857  29.799  1.00  0.00     0.074 A 
ATOM     49  C   UNL A   1      47.303  29.114  30.607  1.00  0.00     0.029 A 
ATOM     50  N   UNL A   1      45.143  28.797  30.177  1.00  0.00    -0.354 N 
ATOM     51  N   UNL A   1      42.334  29.614  29.930  1.00  0.00    -0.248 NA
ATOM     52  C   UNL A   1      40.648  31.200  30.235  1.00  0.00     0.031 C 
ATOM     53  C   UNL A   1      46.610  30.286  30.928  1.00  0.00     0.029 A 
ATOM     54  C   UNL A   1      45.269  30.099  30.632  1.00  0.00     0.049 A 
ATOM     55  H   UNL A   1      44.299  28.375  29.897  1.00  0.00     0.167 HD
ATOM     56  C   UNL A   1      42.893  30.781  30.436  1.00  0.00     0.074 A 
ATOM     57  C   UNL A   1      41.812  31.736  30.571  1.00  0.00     0.031 C 
ATOM     58  C   UNL A   1      44.185  31.039  30.758  1.00  0.00     0.037 A 
BRANCH  45  59
ATOM     59  C   UNL A   1      48.005  26.253  29.921  1.00  0.00     0.057 A 
ATOM     60  C   UNL A   1      48.490  25.744  31.134  1.00  0.00     0.134 A 
ATOM     61  C   UNL A   1      48.859  26.193  28.813  1.00  0.00     0.134 A 
ATOM     62  F   UNL A   1      47.730  25.780  32.239  1.00  0.00    -0.206 F 
ATOM     63  C   UNL A   1      49.782  25.225  31.246  1.00  0.00     0.040 A 
ATOM     64  C   UNL A   1      50.141  25.647  28.904  1.00  0.00     0.040 A 
ATOM     65  F   UNL A   1      48.458  26.654  27.618  1.00  0.00    -0.206 F 
ATOM     66  C   UNL A   1      50.608  25.168  30.126  1.00  0.00     0.006 A 
ENDBRANCH  45  59
BRANCH  46  67
ATOM     67  C   UNL A   1      38.560  29.433  29.193  1.00  0.00     0.057 A 
ATOM     68  C   UNL A   1      37.988  29.822  27.976  1.00  0.00     0.134 A 
ATOM     69  C   UNL A   1      37.754  29.509  30.336  1.00  0.00     0.134 A 
ATOM     70  F   UNL A   1      38.713  29.787  26.848  1.00  0.00    -0.206 F 
ATOM     71  C   UNL A   1      36.675  30.291  27.900  1.00  0.00     0.040 A 
ATOM     72  C   UNL A   1      36.430  29.948  30.270  1.00  0.00     0.040 A 
ATOM     73  F   UNL A   1      38.236  29.141  31.532  1.00  0.00    -0.206 F 
ATOM     74  C   UNL A   1      35.891  30.350  29.050  1.00  0.00     0.006 A 
ENDBRANCH  46  67
BRANCH  58  75
ATOM     75  C   UNL A   1      44.508  32.421  31.252  1.00  0.00     0.057 A 
ATOM     76  C   UNL A   1      44.831  33.466  30.378  1.00  0.00     0.134 A 
ATOM     77  C   UNL A   1      44.454  32.716  32.621  1.00  0.00     0.134 A 
ATOM     78  F   UNL A   1      44.910  33.249  29.056  1.00  0.00    -0.206 F 
ATOM     79  C   UNL A   1      45.116  34.748  30.850  1.00  0.00     0.040 A 
ATOM     80  C   UNL A   1      44.706  34.001  33.102  1.00  0.00     0.040 A 
ATOM     81  F   UNL A   1      44.141  31.762  33.512  1.00  0.00    -0.206 F 
ATOM     82  C   UNL A   1      45.045  35.020  32.215  1.00  0.00     0.006 A 
ENDBRANCH  58  75
ENDBRANCH  32  33
ENDBRANCH  24  27
ENDBRANCH  22  23
ENDBRANCH  21  22
ENDBRANCH   1  21
TORSDOF 13
ENDMDL
