MODEL 1
REMARK VINA RESULT:     -13.3      0.000      0.000
REMARK SMILES C[C@@H](CCC(=O)NCCCNC(=O)c1ccc(-c2c3nc(c(-c4c(F)cccc4F)c4ccc([nH]4)c(-c4c(F)cccc4F)c4nc(c(-c5c(F)cccc5F)c5ccc2[nH]5)C=C4)C=C3)cc1)[C@@H]1CC[C@H]2[C@@H]3CC[C@H]4CC(=O)CC[C@@]4(C)[C@H]3CC(=O)[C@@]21C
REMARK SMILES IDX 8 1 7 2 5 3 6 4 4 6 3 7 2 8 1 9 68 10 69 11 87 12 70 13
REMARK SMILES IDX 71 14 85 15 88 16 72 17 84 18 86 19 73 20 83 21 74 22 81 23
REMARK SMILES IDX 75 24 80 25 82 26 76 27 79 28 77 29 78 30 9 31 10 32 11 33
REMARK SMILES IDX 12 34 13 36 14 37 15 38 67 39 16 40 66 41 17 42 18 43 19 44
REMARK SMILES IDX 60 45 20 46 65 47 59 48 61 49 21 50 64 51 58 52 57 53 22 55
REMARK SMILES IDX 48 56 31 57 47 58 32 59 35 60 46 61 62 62 33 63 34 64 45 66
REMARK SMILES IDX 63 67 36 68 23 69 24 70 29 71 25 72 26 73 28 74 30 75 27 76
REMARK SMILES IDX 49 77 50 78 55 79 51 80 52 81 54 82 56 83 53 84 37 85 38 86
REMARK SMILES IDX 43 87 39 88 40 89 42 90 44 91 41 92
REMARK H PARENT 7 5 11 35 61 54 35 65
REMARK Flexibility Score: inf
ROOT
ATOM      1  C   UNL A   1      31.781  30.786  26.309  1.00  0.00     0.117 C 
ENDROOT
BRANCH   1   2
ATOM      2  N   UNL A   1      31.346  30.097  25.080  1.00  0.00    -0.356 N 
ATOM      3  C   UNL A   1      31.830  29.293  24.098  1.00  0.00     0.220 C 
ATOM      4  O   UNL A   1      31.018  28.796  23.308  1.00  0.00    -0.275 OA
ATOM      5  H   UNL A   1      30.393  30.280  24.917  1.00  0.00     0.163 HD
BRANCH   3   6
ATOM      6  C   UNL A   1      33.296  29.061  23.857  1.00  0.00     0.100 C 
BRANCH   6   7
ATOM      7  C   UNL A   1      33.823  27.869  24.654  1.00  0.00     0.013 C 
BRANCH   7   8
ATOM      8  C   UNL A   1      33.799  26.529  23.884  1.00  0.00    -0.010 C 
ATOM      9  C   UNL A   1      34.008  26.915  22.396  1.00  0.00     0.008 C 
BRANCH   8  10
ATOM     10  C   UNL A   1      32.863  25.406  24.727  1.00  0.00     0.005 C 
ATOM     11  C   UNL A   1      33.628  25.367  26.140  1.00  0.00     0.005 C 
ATOM     12  C   UNL A   1      32.276  23.808  24.719  1.00  0.00     0.032 C 
ATOM     13  C   UNL A   1      33.858  23.912  26.515  1.00  0.00     0.005 C 
ATOM     14  C   UNL A   1      33.572  23.184  25.206  1.00  0.00     0.006 C 
ATOM     15  C   UNL A   1      31.508  22.772  23.741  1.00  0.00     0.139 C 
ATOM     16  C   UNL A   1      31.088  23.879  25.757  1.00  0.00     0.020 C 
ATOM     17  C   UNL A   1      33.770  21.683  25.286  1.00  0.00    -0.003 C 
ATOM     18  C   UNL A   1      31.378  21.225  24.135  1.00  0.00     0.080 C 
ATOM     19  O   UNL A   1      30.845  23.128  22.764  1.00  0.00    -0.299 OA
ATOM     20  C   UNL A   1      35.541  21.475  25.282  1.00  0.00     0.004 C 
ATOM     21  C   UNL A   1      32.751  20.584  24.250  1.00  0.00     0.006 C 
ATOM     22  C   UNL A   1      36.346  19.787  24.865  1.00  0.00     0.005 C 
ATOM     23  C   UNL A   1      33.079  18.678  24.109  1.00  0.00    -0.025 C 
ATOM     24  C   UNL A   1      35.020  18.174  24.151  1.00  0.00     0.002 C 
ATOM     25  C   UNL A   1      32.319  17.866  25.277  1.00  0.00     0.015 C 
ATOM     26  C   UNL A   1      32.373  18.167  22.823  1.00  0.00     0.012 C 
ATOM     27  C   UNL A   1      34.975  16.554  24.266  1.00  0.00     0.079 C 
ATOM     28  C   UNL A   1      33.037  16.728  26.007  1.00  0.00     0.076 C 
ATOM     29  C   UNL A   1      34.010  15.906  25.217  1.00  0.00     0.133 C 
ATOM     30  O   UNL A   1      34.073  14.685  25.398  1.00  0.00    -0.300 OA
ENDBRANCH   8  10
ENDBRANCH   7   8
ENDBRANCH   6   7
ENDBRANCH   3   6
ENDBRANCH   1   2
BRANCH   1  31
ATOM     31  C   UNL A   1      32.799  30.085  27.229  1.00  0.00     0.042 C 
BRANCH  31  32
ATOM     32  C   UNL A   1      34.015  30.613  27.959  1.00  0.00     0.118 C 
BRANCH  32  33
ATOM     33  N   UNL A   1      34.028  31.871  28.588  1.00  0.00    -0.352 N 
ATOM     34  C   UNL A   1      34.938  32.302  29.528  1.00  0.00     0.251 C 
ATOM     35  H   UNL A   1      33.318  32.504  28.333  1.00  0.00     0.163 HD
ATOM     36  O   UNL A   1      34.685  33.418  29.997  1.00  0.00    -0.269 OA
BRANCH  34  37
ATOM     37  C   UNL A   1      36.120  31.457  30.188  1.00  0.00     0.039 A 
ATOM     38  C   UNL A   1      37.211  31.587  28.770  1.00  0.00     0.014 A 
ATOM     39  C   UNL A   1      36.502  29.960  31.375  1.00  0.00     0.014 A 
ATOM     40  C   UNL A   1      38.469  30.438  28.563  1.00  0.00     0.010 A 
ATOM     41  C   UNL A   1      37.845  28.871  31.052  1.00  0.00     0.010 A 
ATOM     42  C   UNL A   1      38.828  29.182  29.681  1.00  0.00    -0.014 A 
BRANCH  42  43
ATOM     43  C   UNL A   1      40.238  28.697  29.867  1.00  0.00     0.031 A 
ATOM     44  C   UNL A   1      41.292  29.715  30.185  1.00  0.00     0.074 A 
ATOM     45  C   UNL A   1      40.582  27.497  29.350  1.00  0.00     0.049 A 
ATOM     46  N   UNL A   1      42.559  29.760  29.882  1.00  0.00    -0.248 NA
ATOM     47  C   UNL A   1      40.803  30.941  30.818  1.00  0.00     0.031 C 
ATOM     48  C   UNL A   1      39.677  26.476  28.810  1.00  0.00     0.029 A 
ATOM     49  N   UNL A   1      41.818  26.961  29.102  1.00  0.00    -0.354 N 
ATOM     50  C   UNL A   1      42.966  31.029  30.286  1.00  0.00     0.074 A 
ATOM     51  C   UNL A   1      41.775  31.797  30.548  1.00  0.00     0.031 C 
ATOM     52  C   UNL A   1      40.371  25.482  28.249  1.00  0.00     0.029 A 
ATOM     53  C   UNL A   1      41.776  25.761  28.432  1.00  0.00     0.049 A 
ATOM     54  H   UNL A   1      42.658  27.396  29.377  1.00  0.00     0.167 HD
ATOM     55  C   UNL A   1      44.205  31.434  30.655  1.00  0.00     0.037 A 
ATOM     56  C   UNL A   1      42.772  24.951  28.042  1.00  0.00     0.037 A 
ATOM     57  C   UNL A   1      45.317  30.530  30.629  1.00  0.00     0.049 A 
ATOM     58  C   UNL A   1      44.144  25.365  28.464  1.00  0.00     0.074 A 
ATOM     59  C   UNL A   1      46.597  30.700  31.108  1.00  0.00     0.029 A 
ATOM     60  N   UNL A   1      45.230  29.233  30.134  1.00  0.00    -0.354 N 
ATOM     61  N   UNL A   1      44.523  26.505  28.994  1.00  0.00    -0.248 NA
ATOM     62  C   UNL A   1      45.209  24.375  28.311  1.00  0.00     0.031 C 
ATOM     63  C   UNL A   1      47.299  29.514  30.860  1.00  0.00     0.029 A 
ATOM     64  C   UNL A   1      46.443  28.596  30.265  1.00  0.00     0.049 A 
ATOM     65  H   UNL A   1      44.420  28.830  29.745  1.00  0.00     0.167 HD
ATOM     66  C   UNL A   1      45.864  26.359  29.287  1.00  0.00     0.074 A 
ATOM     67  C   UNL A   1      46.225  25.011  28.880  1.00  0.00     0.031 C 
ATOM     68  C   UNL A   1      46.724  27.246  29.844  1.00  0.00     0.037 A 
BRANCH  55  69
ATOM     69  C   UNL A   1      44.348  32.809  31.255  1.00  0.00     0.057 A 
ATOM     70  C   UNL A   1      44.158  33.037  32.630  1.00  0.00     0.134 A 
ATOM     71  C   UNL A   1      44.641  33.924  30.464  1.00  0.00     0.134 A 
ATOM     72  F   UNL A   1      43.886  32.016  33.458  1.00  0.00    -0.206 F 
ATOM     73  C   UNL A   1      44.167  34.323  33.175  1.00  0.00     0.040 A 
ATOM     74  C   UNL A   1      44.696  35.212  31.006  1.00  0.00     0.040 A 
ATOM     75  F   UNL A   1      44.862  33.788  29.148  1.00  0.00    -0.206 F 
ATOM     76  C   UNL A   1      44.438  35.417  32.360  1.00  0.00     0.006 A 
ENDBRANCH  55  69
BRANCH  56  77
ATOM     77  C   UNL A   1      42.460  23.640  27.419  1.00  0.00     0.057 A 
ATOM     78  C   UNL A   1      42.550  23.471  26.032  1.00  0.00     0.134 A 
ATOM     79  C   UNL A   1      42.168  22.502  28.182  1.00  0.00     0.134 A 
ATOM     80  F   UNL A   1      42.864  24.512  25.246  1.00  0.00    -0.206 F 
ATOM     81  C   UNL A   1      42.322  22.235  25.423  1.00  0.00     0.040 A 
ATOM     82  C   UNL A   1      41.959  21.253  27.589  1.00  0.00     0.040 A 
ATOM     83  F   UNL A   1      42.128  22.576  29.521  1.00  0.00    -0.206 F 
ATOM     84  C   UNL A   1      42.025  21.121  26.203  1.00  0.00     0.006 A 
ENDBRANCH  56  77
BRANCH  68  85
ATOM     85  C   UNL A   1      48.124  26.772  30.028  1.00  0.00     0.057 A 
ATOM     86  C   UNL A   1      48.491  26.043  31.163  1.00  0.00     0.134 A 
ATOM     87  C   UNL A   1      49.081  26.975  29.028  1.00  0.00     0.134 A 
ATOM     88  F   UNL A   1      47.610  25.837  32.154  1.00  0.00    -0.206 F 
ATOM     89  C   UNL A   1      49.779  25.540  31.306  1.00  0.00     0.040 A 
ATOM     90  C   UNL A   1      50.361  26.443  29.143  1.00  0.00     0.040 A 
ATOM     91  F   UNL A   1      48.773  27.659  27.915  1.00  0.00    -0.206 F 
ATOM     92  C   UNL A   1      50.712  25.727  30.288  1.00  0.00     0.006 A 
ENDBRANCH  68  85
ENDBRANCH  42  43
ENDBRANCH  34  37
ENDBRANCH  32  33
ENDBRANCH  31  32
ENDBRANCH   1  31
TORSDOF 13
ENDMDL
MODEL 2
REMARK VINA RESULT:     -13.1      1.438      2.543
REMARK SMILES C[C@@H](CCC(=O)NCCCNC(=O)c1ccc(-c2c3nc(c(-c4c(F)cccc4F)c4ccc([nH]4)c(-c4c(F)cccc4F)c4nc(c(-c5c(F)cccc5F)c5ccc2[nH]5)C=C4)C=C3)cc1)[C@@H]1CC[C@H]2[C@@H]3CC[C@H]4CC(=O)CC[C@@]4(C)[C@H]3CC(=O)[C@@]21C
REMARK SMILES IDX 8 1 7 2 5 3 6 4 4 6 3 7 2 8 1 9 68 10 69 11 87 12 70 13
REMARK SMILES IDX 71 14 85 15 88 16 72 17 84 18 86 19 73 20 83 21 74 22 81 23
REMARK SMILES IDX 75 24 80 25 82 26 76 27 79 28 77 29 78 30 9 31 10 32 11 33
REMARK SMILES IDX 12 34 13 36 14 37 15 38 67 39 16 40 66 41 17 42 18 43 19 44
REMARK SMILES IDX 60 45 20 46 65 47 59 48 61 49 21 50 64 51 58 52 57 53 22 55
REMARK SMILES IDX 48 56 31 57 47 58 32 59 35 60 46 61 62 62 33 63 34 64 45 66
REMARK SMILES IDX 63 67 36 68 23 69 24 70 29 71 25 72 26 73 28 74 30 75 27 76
REMARK SMILES IDX 49 77 50 78 55 79 51 80 52 81 54 82 56 83 53 84 37 85 38 86
REMARK SMILES IDX 43 87 39 88 40 89 42 90 44 91 41 92
REMARK H PARENT 7 5 11 35 61 54 35 65
REMARK Flexibility Score: inf
ROOT
ATOM      1  C   UNL A   1      31.776  29.875  25.956  1.00  0.00     0.117 C 
ENDROOT
BRANCH   1   2
ATOM      2  N   UNL A   1      30.896  30.847  25.282  1.00  0.00    -0.356 N 
ATOM      3  C   UNL A   1      30.042  30.938  24.230  1.00  0.00     0.220 C 
ATOM      4  O   UNL A   1      29.359  31.965  24.130  1.00  0.00    -0.275 OA
ATOM      5  H   UNL A   1      30.942  31.713  25.746  1.00  0.00     0.163 HD
BRANCH   3   6
ATOM      6  C   UNL A   1      29.960  29.915  23.132  1.00  0.00     0.100 C 
BRANCH   6   7
ATOM      7  C   UNL A   1      28.868  28.880  23.397  1.00  0.00     0.013 C 
BRANCH   7   8
ATOM      8  C   UNL A   1      29.348  27.414  23.319  1.00  0.00    -0.010 C 
ATOM      9  C   UNL A   1      28.192  26.578  23.930  1.00  0.00     0.008 C 
BRANCH   8  10
ATOM     10  C   UNL A   1      31.035  27.365  23.359  1.00  0.00     0.005 C 
ATOM     11  C   UNL A   1      31.369  27.051  21.819  1.00  0.00     0.005 C 
ATOM     12  C   UNL A   1      32.382  26.602  24.067  1.00  0.00     0.032 C 
ATOM     13  C   UNL A   1      32.366  25.903  21.775  1.00  0.00     0.005 C 
ATOM     14  C   UNL A   1      32.306  25.359  23.199  1.00  0.00     0.006 C 
ATOM     15  C   UNL A   1      32.963  26.211  25.526  1.00  0.00     0.139 C 
ATOM     16  C   UNL A   1      33.549  27.617  23.753  1.00  0.00     0.020 C 
ATOM     17  C   UNL A   1      33.194  24.152  23.428  1.00  0.00    -0.003 C 
ATOM     18  C   UNL A   1      34.231  25.242  25.663  1.00  0.00     0.080 C 
ATOM     19  O   UNL A   1      32.596  26.756  26.569  1.00  0.00    -0.299 OA
ATOM     20  C   UNL A   1      32.328  22.812  22.633  1.00  0.00     0.004 C 
ATOM     21  C   UNL A   1      33.927  23.874  25.073  1.00  0.00     0.006 C 
ATOM     22  C   UNL A   1      32.734  20.983  23.035  1.00  0.00     0.005 C 
ATOM     23  C   UNL A   1      34.886  22.253  25.532  1.00  0.00    -0.025 C 
ATOM     24  C   UNL A   1      34.137  20.592  24.693  1.00  0.00     0.002 C 
ATOM     25  C   UNL A   1      36.445  22.363  25.134  1.00  0.00     0.015 C 
ATOM     26  C   UNL A   1      34.936  22.151  27.081  1.00  0.00     0.012 C 
ATOM     27  C   UNL A   1      35.258  19.468  25.042  1.00  0.00     0.079 C 
ATOM     28  C   UNL A   1      37.151  21.175  24.475  1.00  0.00     0.076 C 
ATOM     29  C   UNL A   1      36.714  19.801  24.882  1.00  0.00     0.133 C 
ATOM     30  O   UNL A   1      37.553  18.903  25.019  1.00  0.00    -0.300 OA
ENDBRANCH   8  10
ENDBRANCH   7   8
ENDBRANCH   6   7
ENDBRANCH   3   6
ENDBRANCH   1   2
BRANCH   1  31
ATOM     31  C   UNL A   1      33.228  30.285  26.271  1.00  0.00     0.042 C 
BRANCH  31  32
ATOM     32  C   UNL A   1      33.921  30.580  27.584  1.00  0.00     0.118 C 
BRANCH  32  33
ATOM     33  N   UNL A   1      33.865  31.844  28.198  1.00  0.00    -0.352 N 
ATOM     34  C   UNL A   1      34.724  32.319  29.164  1.00  0.00     0.251 C 
ATOM     35  H   UNL A   1      33.141  32.446  27.911  1.00  0.00     0.163 HD
ATOM     36  O   UNL A   1      34.412  33.429  29.610  1.00  0.00    -0.269 OA
BRANCH  34  37
ATOM     37  C   UNL A   1      35.912  31.526  29.874  1.00  0.00     0.039 A 
ATOM     38  C   UNL A   1      37.007  31.585  28.454  1.00  0.00     0.014 A 
ATOM     39  C   UNL A   1      36.306  30.105  31.148  1.00  0.00     0.014 A 
ATOM     40  C   UNL A   1      38.277  30.440  28.317  1.00  0.00     0.010 A 
ATOM     41  C   UNL A   1      37.662  29.013  30.891  1.00  0.00     0.010 A 
ATOM     42  C   UNL A   1      38.646  29.255  29.507  1.00  0.00    -0.014 A 
BRANCH  42  43
ATOM     43  C   UNL A   1      40.061  28.797  29.725  1.00  0.00     0.031 A 
ATOM     44  C   UNL A   1      41.095  29.839  30.027  1.00  0.00     0.074 A 
ATOM     45  C   UNL A   1      40.429  27.587  29.246  1.00  0.00     0.049 A 
ATOM     46  N   UNL A   1      42.365  29.895  29.739  1.00  0.00    -0.248 NA
ATOM     47  C   UNL A   1      40.580  31.075  30.619  1.00  0.00     0.031 C 
ATOM     48  C   UNL A   1      39.546  26.539  28.723  1.00  0.00     0.029 A 
ATOM     49  N   UNL A   1      41.676  27.064  29.029  1.00  0.00    -0.354 N 
ATOM     50  C   UNL A   1      42.748  31.180  30.112  1.00  0.00     0.074 A 
ATOM     51  C   UNL A   1      41.543  31.937  30.337  1.00  0.00     0.031 C 
ATOM     52  C   UNL A   1      40.261  25.540  28.199  1.00  0.00     0.029 A 
ATOM     53  C   UNL A   1      41.660  25.845  28.392  1.00  0.00     0.049 A 
ATOM     54  H   UNL A   1      42.505  27.519  29.302  1.00  0.00     0.167 HD
ATOM     55  C   UNL A   1      43.976  31.614  30.485  1.00  0.00     0.037 A 
ATOM     56  C   UNL A   1      42.673  25.040  28.038  1.00  0.00     0.037 A 
ATOM     57  C   UNL A   1      45.101  30.727  30.498  1.00  0.00     0.049 A 
ATOM     58  C   UNL A   1      44.033  25.486  28.465  1.00  0.00     0.074 A 
ATOM     59  C   UNL A   1      46.372  30.930  30.988  1.00  0.00     0.029 A 
ATOM     60  N   UNL A   1      45.040  29.416  30.038  1.00  0.00    -0.354 N 
ATOM     61  N   UNL A   1      44.388  26.646  28.967  1.00  0.00    -0.248 NA
ATOM     62  C   UNL A   1      45.115  24.509  28.354  1.00  0.00     0.031 C 
ATOM     63  C   UNL A   1      47.095  29.748  30.783  1.00  0.00     0.029 A 
ATOM     64  C   UNL A   1      46.261  28.800  30.203  1.00  0.00     0.049 A 
ATOM     65  H   UNL A   1      44.241  28.990  29.651  1.00  0.00     0.167 HD
ATOM     66  C   UNL A   1      45.727  26.528  29.281  1.00  0.00     0.074 A 
ATOM     67  C   UNL A   1      46.113  25.175  28.917  1.00  0.00     0.031 C 
ATOM     68  C   UNL A   1      46.567  27.443  29.824  1.00  0.00     0.037 A 
BRANCH  55  69
ATOM     69  C   UNL A   1      44.090  33.008  31.047  1.00  0.00     0.057 A 
ATOM     70  C   UNL A   1      43.905  33.267  32.417  1.00  0.00     0.134 A 
ATOM     71  C   UNL A   1      44.353  34.107  30.225  1.00  0.00     0.134 A 
ATOM     72  F   UNL A   1      43.662  32.263  33.274  1.00  0.00    -0.206 F 
ATOM     73  C   UNL A   1      43.887  34.567  32.928  1.00  0.00     0.040 A 
ATOM     74  C   UNL A   1      44.382  35.410  30.733  1.00  0.00     0.040 A 
ATOM     75  F   UNL A   1      44.569  33.942  28.912  1.00  0.00    -0.206 F 
ATOM     76  C   UNL A   1      44.127  35.645  32.083  1.00  0.00     0.006 A 
ENDBRANCH  55  69
BRANCH  56  77
ATOM     77  C   UNL A   1      42.388  23.707  27.448  1.00  0.00     0.057 A 
ATOM     78  C   UNL A   1      42.482  23.505  26.065  1.00  0.00     0.134 A 
ATOM     79  C   UNL A   1      42.120  22.583  28.240  1.00  0.00     0.134 A 
ATOM     80  F   UNL A   1      42.775  24.532  25.254  1.00  0.00    -0.206 F 
ATOM     81  C   UNL A   1      42.281  22.250  25.488  1.00  0.00     0.040 A 
ATOM     82  C   UNL A   1      41.937  21.316  27.678  1.00  0.00     0.040 A 
ATOM     83  F   UNL A   1      42.077  22.690  29.576  1.00  0.00    -0.206 F 
ATOM     84  C   UNL A   1      42.006  21.149  26.296  1.00  0.00     0.006 A 
ENDBRANCH  56  77
BRANCH  68  85
ATOM     85  C   UNL A   1      47.971  26.996  30.039  1.00  0.00     0.057 A 
ATOM     86  C   UNL A   1      48.318  26.234  31.158  1.00  0.00     0.134 A 
ATOM     87  C   UNL A   1      48.956  27.260  29.081  1.00  0.00     0.134 A 
ATOM     88  F   UNL A   1      47.409  25.970  32.110  1.00  0.00    -0.206 F 
ATOM     89  C   UNL A   1      49.613  25.757  31.327  1.00  0.00     0.040 A 
ATOM     90  C   UNL A   1      50.244  26.754  29.220  1.00  0.00     0.040 A 
ATOM     91  F   UNL A   1      48.669  27.977  27.984  1.00  0.00    -0.206 F 
ATOM     92  C   UNL A   1      50.574  26.004  30.349  1.00  0.00     0.006 A 
ENDBRANCH  68  85
ENDBRANCH  42  43
ENDBRANCH  34  37
ENDBRANCH  32  33
ENDBRANCH  31  32
ENDBRANCH   1  31
TORSDOF 13
ENDMDL
MODEL 3
REMARK VINA RESULT:     -12.9      3.656      5.380
REMARK SMILES C[C@@H](CCC(=O)NCCCNC(=O)c1ccc(-c2c3nc(c(-c4c(F)cccc4F)c4ccc([nH]4)c(-c4c(F)cccc4F)c4nc(c(-c5c(F)cccc5F)c5ccc2[nH]5)C=C4)C=C3)cc1)[C@@H]1CC[C@H]2[C@@H]3CC[C@H]4CC(=O)CC[C@@]4(C)[C@H]3CC(=O)[C@@]21C
REMARK SMILES IDX 8 1 7 2 5 3 6 4 4 6 3 7 2 8 1 9 68 10 69 11 87 12 70 13
REMARK SMILES IDX 71 14 85 15 88 16 72 17 84 18 86 19 73 20 83 21 74 22 81 23
REMARK SMILES IDX 75 24 80 25 82 26 76 27 79 28 77 29 78 30 9 31 10 32 11 33
REMARK SMILES IDX 12 34 13 36 14 37 15 38 67 39 16 40 66 41 17 42 18 43 19 44
REMARK SMILES IDX 60 45 20 46 65 47 59 48 61 49 21 50 64 51 58 52 57 53 22 55
REMARK SMILES IDX 48 56 31 57 47 58 32 59 35 60 46 61 62 62 33 63 34 64 45 66
REMARK SMILES IDX 63 67 36 68 23 69 24 70 29 71 25 72 26 73 28 74 30 75 27 76
REMARK SMILES IDX 49 77 50 78 55 79 51 80 52 81 54 82 56 83 53 84 37 85 38 86
REMARK SMILES IDX 43 87 39 88 40 89 42 90 44 91 41 92
REMARK H PARENT 7 5 11 35 61 54 35 65
REMARK Flexibility Score: inf
ROOT
ATOM      1  C   UNL A   1      30.670  31.210  25.000  1.00  0.00     0.117 C 
ENDROOT
BRANCH   1   2
ATOM      2  N   UNL A   1      29.541  31.791  24.251  1.00  0.00    -0.356 N 
ATOM      3  C   UNL A   1      28.552  31.431  23.393  1.00  0.00     0.220 C 
ATOM      4  O   UNL A   1      27.681  32.271  23.132  1.00  0.00    -0.275 OA
ATOM      5  H   UNL A   1      29.486  32.758  24.431  1.00  0.00     0.163 HD
BRANCH   3   6
ATOM      6  C   UNL A   1      28.515  30.115  22.668  1.00  0.00     0.100 C 
BRANCH   6   7
ATOM      7  C   UNL A   1      27.782  29.041  23.471  1.00  0.00     0.013 C 
BRANCH   7   8
ATOM      8  C   UNL A   1      28.480  27.663  23.476  1.00  0.00    -0.010 C 
ATOM      9  C   UNL A   1      27.405  26.668  23.985  1.00  0.00     0.008 C 
BRANCH   8  10
ATOM     10  C   UNL A   1      30.142  27.867  23.688  1.00  0.00     0.005 C 
ATOM     11  C   UNL A   1      30.657  27.799  22.167  1.00  0.00     0.005 C 
ATOM     12  C   UNL A   1      31.530  27.239  24.448  1.00  0.00     0.032 C 
ATOM     13  C   UNL A   1      31.828  26.832  22.106  1.00  0.00     0.005 C 
ATOM     14  C   UNL A   1      31.734  26.114  23.449  1.00  0.00     0.006 C 
ATOM     15  C   UNL A   1      32.037  26.765  25.911  1.00  0.00     0.139 C 
ATOM     16  C   UNL A   1      32.538  28.451  24.370  1.00  0.00     0.020 C 
ATOM     17  C   UNL A   1      32.785  25.039  23.640  1.00  0.00    -0.003 C 
ATOM     18  C   UNL A   1      33.430  25.991  26.076  1.00  0.00     0.080 C 
ATOM     19  O   UNL A   1      31.497  27.116  26.962  1.00  0.00    -0.299 OA
ATOM     20  C   UNL A   1      32.224  23.689  22.619  1.00  0.00     0.004 C 
ATOM     21  C   UNL A   1      33.408  24.677  25.315  1.00  0.00     0.006 C 
ATOM     22  C   UNL A   1      32.887  21.909  22.864  1.00  0.00     0.005 C 
ATOM     23  C   UNL A   1      34.576  23.177  25.696  1.00  0.00    -0.025 C 
ATOM     24  C   UNL A   1      34.185  21.536  24.609  1.00  0.00     0.002 C 
ATOM     25  C   UNL A   1      36.124  23.572  25.478  1.00  0.00     0.015 C 
ATOM     26  C   UNL A   1      34.507  22.895  27.222  1.00  0.00     0.012 C 
ATOM     27  C   UNL A   1      35.440  20.563  24.953  1.00  0.00     0.079 C 
ATOM     28  C   UNL A   1      37.070  22.595  24.775  1.00  0.00     0.076 C 
ATOM     29  C   UNL A   1      36.831  21.131  24.983  1.00  0.00     0.133 C 
ATOM     30  O   UNL A   1      37.791  20.363  25.112  1.00  0.00    -0.300 OA
ENDBRANCH   8  10
ENDBRANCH   7   8
ENDBRANCH   6   7
ENDBRANCH   3   6
ENDBRANCH   1   2
BRANCH   1  31
ATOM     31  C   UNL A   1      31.021  31.794  26.382  1.00  0.00     0.042 C 
BRANCH  31  32
ATOM     32  C   UNL A   1      32.249  32.528  26.874  1.00  0.00     0.118 C 
BRANCH  32  33
ATOM     33  N   UNL A   1      32.170  33.761  27.545  1.00  0.00    -0.352 N 
ATOM     34  C   UNL A   1      33.186  34.373  28.247  1.00  0.00     0.251 C 
ATOM     35  H   UNL A   1      31.307  34.233  27.511  1.00  0.00     0.163 HD
ATOM     36  O   UNL A   1      32.843  35.412  28.823  1.00  0.00    -0.269 OA
BRANCH  34  37
ATOM     37  C   UNL A   1      34.642  33.793  28.542  1.00  0.00     0.039 A 
ATOM     38  C   UNL A   1      34.139  32.834  29.973  1.00  0.00     0.014 A 
ATOM     39  C   UNL A   1      36.543  34.221  28.475  1.00  0.00     0.014 A 
ATOM     40  C   UNL A   1      35.312  32.372  31.136  1.00  0.00     0.010 A 
ATOM     41  C   UNL A   1      37.639  33.658  29.731  1.00  0.00     0.010 A 
ATOM     42  C   UNL A   1      36.996  32.695  30.996  1.00  0.00    -0.014 A 
BRANCH  42  43
ATOM     43  C   UNL A   1      38.012  31.744  31.564  1.00  0.00     0.031 A 
ATOM     44  C   UNL A   1      38.676  32.119  32.855  1.00  0.00     0.074 A 
ATOM     45  C   UNL A   1      38.587  30.843  30.736  1.00  0.00     0.049 A 
ATOM     46  N   UNL A   1      39.873  31.871  33.306  1.00  0.00    -0.248 NA
ATOM     47  C   UNL A   1      37.915  33.038  33.702  1.00  0.00     0.031 C 
ATOM     48  C   UNL A   1      38.175  30.514  29.367  1.00  0.00     0.029 A 
ATOM     49  N   UNL A   1      39.722  30.094  30.896  1.00  0.00    -0.354 N 
ATOM     50  C   UNL A   1      39.968  32.631  34.469  1.00  0.00     0.074 A 
ATOM     51  C   UNL A   1      38.863  33.556  34.467  1.00  0.00     0.031 C 
ATOM     52  C   UNL A   1      39.059  29.691  28.796  1.00  0.00     0.029 A 
ATOM     53  C   UNL A   1      40.080  29.385  29.772  1.00  0.00     0.049 A 
ATOM     54  H   UNL A   1      40.235  30.066  31.736  1.00  0.00     0.167 HD
ATOM     55  C   UNL A   1      40.745  32.407  35.556  1.00  0.00     0.037 A 
ATOM     56  C   UNL A   1      41.105  28.545  29.567  1.00  0.00     0.037 A 
ATOM     57  C   UNL A   1      41.645  31.293  35.604  1.00  0.00     0.049 A 
ATOM     58  C   UNL A   1      41.956  28.262  30.761  1.00  0.00     0.074 A 
ATOM     59  C   UNL A   1      42.387  30.811  36.660  1.00  0.00     0.029 A 
ATOM     60  N   UNL A   1      41.861  30.444  34.525  1.00  0.00    -0.354 N 
ATOM     61  N   UNL A   1      41.953  28.869  31.925  1.00  0.00    -0.248 NA
ATOM     62  C   UNL A   1      42.894  27.146  30.655  1.00  0.00     0.031 C 
ATOM     63  C   UNL A   1      43.089  29.689  36.201  1.00  0.00     0.029 A 
ATOM     64  C   UNL A   1      42.751  29.453  34.874  1.00  0.00     0.049 A 
ATOM     65  H   UNL A   1      41.440  30.537  33.640  1.00  0.00     0.167 HD
ATOM     66  C   UNL A   1      42.852  28.181  32.714  1.00  0.00     0.074 A 
ATOM     67  C   UNL A   1      43.374  27.103  31.890  1.00  0.00     0.031 C 
ATOM     68  C   UNL A   1      43.217  28.405  34.000  1.00  0.00     0.037 A 
BRANCH  55  69
ATOM     69  C   UNL A   1      40.512  33.260  36.776  1.00  0.00     0.057 A 
ATOM     70  C   UNL A   1      39.466  32.988  37.677  1.00  0.00     0.134 A 
ATOM     71  C   UNL A   1      41.305  34.378  37.048  1.00  0.00     0.134 A 
ATOM     72  F   UNL A   1      38.668  31.925  37.493  1.00  0.00    -0.206 F 
ATOM     73  C   UNL A   1      39.166  33.841  38.741  1.00  0.00     0.040 A 
ATOM     74  C   UNL A   1      41.042  35.216  38.137  1.00  0.00     0.040 A 
ATOM     75  F   UNL A   1      42.340  34.691  36.253  1.00  0.00    -0.206 F 
ATOM     76  C   UNL A   1      39.957  34.961  38.974  1.00  0.00     0.006 A 
ENDBRANCH  55  69
BRANCH  56  77
ATOM     77  C   UNL A   1      41.216  27.812  28.281  1.00  0.00     0.057 A 
ATOM     78  C   UNL A   1      40.509  26.620  28.077  1.00  0.00     0.134 A 
ATOM     79  C   UNL A   1      41.935  28.320  27.192  1.00  0.00     0.134 A 
ATOM     80  F   UNL A   1      39.768  26.100  29.067  1.00  0.00    -0.206 F 
ATOM     81  C   UNL A   1      40.544  25.941  26.858  1.00  0.00     0.040 A 
ATOM     82  C   UNL A   1      41.963  27.663  25.958  1.00  0.00     0.040 A 
ATOM     83  F   UNL A   1      42.585  29.489  27.295  1.00  0.00    -0.206 F 
ATOM     84  C   UNL A   1      41.275  26.462  25.793  1.00  0.00     0.006 A 
ENDBRANCH  56  77
BRANCH  68  85
ATOM     85  C   UNL A   1      44.227  27.469  34.567  1.00  0.00     0.057 A 
ATOM     86  C   UNL A   1      43.836  26.254  35.137  1.00  0.00     0.134 A 
ATOM     87  C   UNL A   1      45.593  27.749  34.465  1.00  0.00     0.134 A 
ATOM     88  F   UNL A   1      42.535  25.950  35.269  1.00  0.00    -0.206 F 
ATOM     89  C   UNL A   1      44.780  25.346  35.606  1.00  0.00     0.040 A 
ATOM     90  C   UNL A   1      46.546  26.832  34.895  1.00  0.00     0.040 A 
ATOM     91  F   UNL A   1      46.017  28.897  33.915  1.00  0.00    -0.206 F 
ATOM     92  C   UNL A   1      46.138  25.628  35.471  1.00  0.00     0.006 A 
ENDBRANCH  68  85
ENDBRANCH  42  43
ENDBRANCH  34  37
ENDBRANCH  32  33
ENDBRANCH  31  32
ENDBRANCH   1  31
TORSDOF 13
ENDMDL
