MODEL 1
REMARK VINA RESULT:     -10.8      0.000      0.000
REMARK SMILES CC[N@@H+](C[C@H]1CCCO1)[C@@H](C)c1ccc(C(=O)NCCCNC(=O)c2ccc(-c3c4nc(c(-c5c(F)cccc5F)c5ccc([nH]5)c(-c5c(F)cccc5F)c5nc(c(-c6c(F)cccc6F)c6ccc3[nH]6)C=C5)C=C4)cc2)o1
REMARK SMILES IDX 19 1 18 2 16 3 17 4 15 6 12 7 13 8 79 9 14 10 10 11 11 12
REMARK SMILES IDX 3 13 2 15 1 16 4 17 5 18 6 19 9 20 7 21 8 22 20 23 21 24
REMARK SMILES IDX 22 25 23 26 24 28 25 29 26 30 78 31 27 32 77 33 28 34 29 35
REMARK SMILES IDX 30 36 71 37 31 38 76 39 70 40 72 41 32 42 75 43 69 44 68 45
REMARK SMILES IDX 33 47 59 48 42 49 58 50 43 51 46 52 57 53 73 54 44 55 45 56
REMARK SMILES IDX 56 58 74 59 47 60 34 61 35 62 40 63 36 64 37 65 39 66 41 67
REMARK SMILES IDX 38 68 60 69 61 70 66 71 62 72 63 73 65 74 67 75 64 76 48 77
REMARK SMILES IDX 49 78 54 79 50 80 51 81 53 82 55 83 52 84
REMARK H PARENT 18 5 3 14 22 27 72 46 46 57
REMARK Flexibility Score: inf
ROOT
ATOM      1  C   UNL A   1      35.865  20.303  24.988  1.00  0.00     0.118 C 
ENDROOT
BRANCH   1   2
ATOM      2  N   UNL A   1      34.777  19.351  25.032  1.00  0.00    -0.349 N 
ATOM      3  C   UNL A   1      33.437  19.507  24.766  1.00  0.00     0.287 C 
ATOM      4  O   UNL A   1      32.774  18.460  24.783  1.00  0.00    -0.266 OA
ATOM      5  H   UNL A   1      35.039  18.440  25.296  1.00  0.00     0.163 HD
BRANCH   3   6
ATOM      6  C   UNL A   1      32.857  20.809  24.491  1.00  0.00     0.191 A 
ATOM      7  C   UNL A   1      31.914  22.711  25.143  1.00  0.00     0.161 A 
ATOM      8  C   UNL A   1      32.093  22.813  23.781  1.00  0.00     0.053 A 
ATOM      9  O   UNL A   1      32.338  21.489  25.569  1.00  0.00    -0.450 OA
ATOM     10  C   UNL A   1      32.719  21.613  23.371  1.00  0.00     0.057 A 
BRANCH   7  11
ATOM     11  C   UNL A   1      31.396  23.657  26.193  1.00  0.00     0.248 C 
ATOM     12  C   UNL A   1      30.147  23.053  26.853  1.00  0.00     0.084 C 
BRANCH  11  13
ATOM     13  N   UNL A   1      31.273  25.056  25.723  1.00  0.00    -0.324 N 
ATOM     14  H   UNL A   1      31.767  24.961  24.836  1.00  0.00     0.348 HD
BRANCH  13  15
ATOM     15  C   UNL A   1      29.951  25.541  25.309  1.00  0.00     0.259 C 
ATOM     16  C   UNL A   1      29.977  26.644  24.251  1.00  0.00     0.071 C 
ENDBRANCH  13  15
BRANCH  13  17
ATOM     17  C   UNL A   1      32.006  26.057  26.530  1.00  0.00     0.295 C 
BRANCH  17  18
ATOM     18  C   UNL A   1      33.330  26.677  25.992  1.00  0.00     0.173 C 
ATOM     19  C   UNL A   1      34.010  25.779  24.960  1.00  0.00     0.040 C 
ATOM     20  O   UNL A   1      33.116  27.948  25.347  1.00  0.00    -0.372 OA
ATOM     21  C   UNL A   1      33.663  26.431  23.645  1.00  0.00     0.031 C 
ATOM     22  C   UNL A   1      33.634  27.892  24.017  1.00  0.00     0.161 C 
ENDBRANCH  17  18
ENDBRANCH  13  17
ENDBRANCH  11  13
ENDBRANCH   7  11
ENDBRANCH   3   6
ENDBRANCH   1   2
BRANCH   1  23
ATOM     23  C   UNL A   1      37.206  19.628  24.701  1.00  0.00     0.042 C 
BRANCH  23  24
ATOM     24  C   UNL A   1      38.379  20.293  25.421  1.00  0.00     0.118 C 
BRANCH  24  25
ATOM     25  N   UNL A   1      39.478  19.359  25.634  1.00  0.00    -0.352 N 
ATOM     26  C   UNL A   1      40.774  19.580  26.017  1.00  0.00     0.251 C 
ATOM     27  H   UNL A   1      39.252  18.415  25.474  1.00  0.00     0.163 HD
ATOM     28  O   UNL A   1      41.598  18.676  25.898  1.00  0.00    -0.269 OA
BRANCH  26  29
ATOM     29  C   UNL A   1      41.196  20.882  26.576  1.00  0.00     0.039 A 
ATOM     30  C   UNL A   1      41.718  21.846  25.706  1.00  0.00     0.014 A 
ATOM     31  C   UNL A   1      41.153  21.131  27.950  1.00  0.00     0.014 A 
ATOM     32  C   UNL A   1      42.161  23.071  26.208  1.00  0.00     0.010 A 
ATOM     33  C   UNL A   1      41.538  22.377  28.443  1.00  0.00     0.010 A 
ATOM     34  C   UNL A   1      42.055  23.352  27.577  1.00  0.00    -0.014 A 
BRANCH  34  35
ATOM     35  C   UNL A   1      42.490  24.660  28.128  1.00  0.00     0.031 A 
ATOM     36  C   UNL A   1      41.484  25.751  28.369  1.00  0.00     0.074 A 
ATOM     37  C   UNL A   1      43.799  24.883  28.346  1.00  0.00     0.049 A 
ATOM     38  N   UNL A   1      41.679  26.983  28.762  1.00  0.00    -0.248 NA
ATOM     39  C   UNL A   1      40.074  25.420  28.109  1.00  0.00     0.031 C 
ATOM     40  C   UNL A   1      44.874  23.918  28.108  1.00  0.00     0.029 A 
ATOM     41  N   UNL A   1      44.450  26.001  28.802  1.00  0.00    -0.354 N 
ATOM     42  C   UNL A   1      40.425  27.580  28.773  1.00  0.00     0.074 A 
ATOM     43  C   UNL A   1      39.481  26.587  28.311  1.00  0.00     0.031 C 
ATOM     44  C   UNL A   1      46.049  24.481  28.433  1.00  0.00     0.029 A 
ATOM     45  C   UNL A   1      45.814  25.853  28.869  1.00  0.00     0.049 A 
ATOM     46  H   UNL A   1      43.984  26.830  29.057  1.00  0.00     0.167 HD
ATOM     47  C   UNL A   1      40.090  28.837  29.150  1.00  0.00     0.037 A 
ATOM     48  C   UNL A   1      46.768  26.730  29.233  1.00  0.00     0.037 A 
ATOM     49  C   UNL A   1      41.029  29.811  29.643  1.00  0.00     0.049 A 
ATOM     50  C   UNL A   1      46.369  28.113  29.664  1.00  0.00     0.074 A 
ATOM     51  C   UNL A   1      40.780  31.086  30.116  1.00  0.00     0.029 A 
ATOM     52  N   UNL A   1      42.399  29.612  29.727  1.00  0.00    -0.354 N 
ATOM     53  N   UNL A   1      45.172  28.643  29.730  1.00  0.00    -0.248 NA
ATOM     54  C   UNL A   1      47.451  29.017  30.076  1.00  0.00     0.031 C 
ATOM     55  C   UNL A   1      42.004  31.674  30.456  1.00  0.00     0.029 A 
ATOM     56  C   UNL A   1      43.011  30.749  30.229  1.00  0.00     0.049 A 
ATOM     57  H   UNL A   1      42.867  28.786  29.468  1.00  0.00     0.167 HD
ATOM     58  C   UNL A   1      45.353  29.932  30.213  1.00  0.00     0.074 A 
ATOM     59  C   UNL A   1      46.774  30.099  30.436  1.00  0.00     0.031 C 
ATOM     60  C   UNL A   1      44.426  30.892  30.450  1.00  0.00     0.037 A 
BRANCH  47  61
ATOM     61  C   UNL A   1      38.646  29.229  29.047  1.00  0.00     0.057 A 
ATOM     62  C   UNL A   1      38.086  29.674  27.843  1.00  0.00     0.134 A 
ATOM     63  C   UNL A   1      37.796  29.128  30.156  1.00  0.00     0.134 A 
ATOM     64  F   UNL A   1      38.849  29.804  26.746  1.00  0.00    -0.206 F 
ATOM     65  C   UNL A   1      36.739  30.030  27.751  1.00  0.00     0.040 A 
ATOM     66  C   UNL A   1      36.443  29.457  30.071  1.00  0.00     0.040 A 
ATOM     67  F   UNL A   1      38.266  28.702  31.338  1.00  0.00    -0.206 F 
ATOM     68  C   UNL A   1      35.912  29.915  28.867  1.00  0.00     0.006 A 
ENDBRANCH  47  61
BRANCH  48  69
ATOM     69  C   UNL A   1      48.193  26.318  29.228  1.00  0.00     0.057 A 
ATOM     70  C   UNL A   1      48.993  26.512  28.096  1.00  0.00     0.134 A 
ATOM     71  C   UNL A   1      48.787  25.723  30.346  1.00  0.00     0.134 A 
ATOM     72  F   UNL A   1      48.474  27.062  26.989  1.00  0.00    -0.206 F 
ATOM     73  C   UNL A   1      50.330  26.114  28.071  1.00  0.00     0.040 A 
ATOM     74  C   UNL A   1      50.130  25.340  30.342  1.00  0.00     0.040 A 
ATOM     75  F   UNL A   1      48.074  25.517  31.463  1.00  0.00    -0.206 F 
ATOM     76  C   UNL A   1      50.903  25.530  29.199  1.00  0.00     0.006 A 
ENDBRANCH  48  69
BRANCH  60  77
ATOM     77  C   UNL A   1      44.919  32.192  31.009  1.00  0.00     0.057 A 
ATOM     78  C   UNL A   1      45.272  33.264  30.178  1.00  0.00     0.134 A 
ATOM     79  C   UNL A   1      45.008  32.386  32.392  1.00  0.00     0.134 A 
ATOM     80  F   UNL A   1      45.223  33.135  28.844  1.00  0.00    -0.206 F 
ATOM     81  C   UNL A   1      45.714  34.478  30.707  1.00  0.00     0.040 A 
ATOM     82  C   UNL A   1      45.426  33.603  32.933  1.00  0.00     0.040 A 
ATOM     83  F   UNL A   1      44.677  31.401  33.241  1.00  0.00    -0.206 F 
ATOM     84  C   UNL A   1      45.786  34.651  32.088  1.00  0.00     0.006 A 
ENDBRANCH  60  77
ENDBRANCH  34  35
ENDBRANCH  26  29
ENDBRANCH  24  25
ENDBRANCH  23  24
ENDBRANCH   1  23
TORSDOF 15
ENDMDL
MODEL 2
REMARK VINA RESULT:     -10.7      4.992      9.650
REMARK SMILES CC[N@@H+](C[C@H]1CCCO1)[C@@H](C)c1ccc(C(=O)NCCCNC(=O)c2ccc(-c3c4nc(c(-c5c(F)cccc5F)c5ccc([nH]5)c(-c5c(F)cccc5F)c5nc(c(-c6c(F)cccc6F)c6ccc3[nH]6)C=C5)C=C4)cc2)o1
REMARK SMILES IDX 19 1 18 2 16 3 17 4 15 6 12 7 13 8 79 9 14 10 10 11 11 12
REMARK SMILES IDX 3 13 2 15 1 16 4 17 5 18 6 19 9 20 7 21 8 22 20 23 21 24
REMARK SMILES IDX 22 25 23 26 24 28 25 29 26 30 78 31 27 32 77 33 28 34 29 35
REMARK SMILES IDX 30 36 71 37 31 38 76 39 70 40 72 41 32 42 75 43 69 44 68 45
REMARK SMILES IDX 33 47 59 48 42 49 58 50 43 51 46 52 57 53 73 54 44 55 45 56
REMARK SMILES IDX 56 58 74 59 47 60 34 61 35 62 40 63 36 64 37 65 39 66 41 67
REMARK SMILES IDX 38 68 60 69 61 70 66 71 62 72 63 73 65 74 67 75 64 76 48 77
REMARK SMILES IDX 49 78 54 79 50 80 51 81 53 82 55 83 52 84
REMARK H PARENT 18 5 3 14 22 27 72 46 46 57
REMARK Flexibility Score: inf
ROOT
ATOM      1  C   UNL A   1      31.719  30.629  26.889  1.00  0.00     0.118 C 
ENDROOT
BRANCH   1   2
ATOM      2  N   UNL A   1      32.996  30.308  27.489  1.00  0.00    -0.349 N 
ATOM      3  C   UNL A   1      33.876  29.284  27.231  1.00  0.00     0.287 C 
ATOM      4  O   UNL A   1      34.951  29.350  27.844  1.00  0.00    -0.266 OA
ATOM      5  H   UNL A   1      33.282  30.926  28.199  1.00  0.00     0.163 HD
BRANCH   3   6
ATOM      6  C   UNL A   1      33.554  28.210  26.309  1.00  0.00     0.191 A 
ATOM      7  C   UNL A   1      33.337  27.388  24.257  1.00  0.00     0.161 A 
ATOM      8  C   UNL A   1      33.082  26.347  25.122  1.00  0.00     0.053 A 
ATOM      9  O   UNL A   1      33.585  28.523  24.969  1.00  0.00    -0.450 OA
ATOM     10  C   UNL A   1      33.247  26.864  26.428  1.00  0.00     0.057 A 
BRANCH   7  11
ATOM     11  C   UNL A   1      33.420  27.493  22.758  1.00  0.00     0.248 C 
ATOM     12  C   UNL A   1      34.436  28.579  22.376  1.00  0.00     0.084 C 
BRANCH  11  13
ATOM     13  N   UNL A   1      32.098  27.575  22.095  1.00  0.00    -0.324 N 
ATOM     14  H   UNL A   1      32.391  28.032  21.232  1.00  0.00     0.348 HD
BRANCH  13  15
ATOM     15  C   UNL A   1      31.479  26.334  21.613  1.00  0.00     0.259 C 
ATOM     16  C   UNL A   1      32.315  25.555  20.598  1.00  0.00     0.071 C 
ENDBRANCH  13  15
BRANCH  13  17
ATOM     17  C   UNL A   1      31.117  28.466  22.754  1.00  0.00     0.295 C 
BRANCH  17  18
ATOM     18  C   UNL A   1      29.777  28.816  22.041  1.00  0.00     0.173 C 
ATOM     19  C   UNL A   1      28.627  28.998  23.031  1.00  0.00     0.040 C 
ATOM     20  O   UNL A   1      29.863  30.042  21.288  1.00  0.00    -0.372 OA
ATOM     21  C   UNL A   1      28.482  30.496  23.128  1.00  0.00     0.031 C 
ATOM     22  C   UNL A   1      28.842  30.938  21.731  1.00  0.00     0.161 C 
ENDBRANCH  17  18
ENDBRANCH  13  17
ENDBRANCH  11  13
ENDBRANCH   7  11
ENDBRANCH   3   6
ENDBRANCH   1   2
BRANCH   1  23
ATOM     23  C   UNL A   1      31.459  32.135  26.863  1.00  0.00     0.042 C 
BRANCH  23  24
ATOM     24  C   UNL A   1      32.740  32.966  26.929  1.00  0.00     0.118 C 
BRANCH  24  25
ATOM     25  N   UNL A   1      32.525  34.230  27.623  1.00  0.00    -0.352 N 
ATOM     26  C   UNL A   1      33.064  34.713  28.786  1.00  0.00     0.251 C 
ATOM     27  H   UNL A   1      31.886  34.836  27.184  1.00  0.00     0.163 HD
ATOM     28  O   UNL A   1      32.560  35.699  29.318  1.00  0.00    -0.269 OA
BRANCH  26  29
ATOM     29  C   UNL A   1      34.243  34.071  29.406  1.00  0.00     0.039 A 
ATOM     30  C   UNL A   1      34.035  33.103  30.394  1.00  0.00     0.014 A 
ATOM     31  C   UNL A   1      35.542  34.469  29.080  1.00  0.00     0.014 A 
ATOM     32  C   UNL A   1      35.128  32.508  31.027  1.00  0.00     0.010 A 
ATOM     33  C   UNL A   1      36.633  33.831  29.667  1.00  0.00     0.010 A 
ATOM     34  C   UNL A   1      36.434  32.852  30.653  1.00  0.00    -0.014 A 
BRANCH  34  35
ATOM     35  C   UNL A   1      37.610  32.208  31.289  1.00  0.00     0.031 A 
ATOM     36  C   UNL A   1      38.321  31.080  30.596  1.00  0.00     0.074 A 
ATOM     37  C   UNL A   1      37.993  32.598  32.520  1.00  0.00     0.049 A 
ATOM     38  N   UNL A   1      39.309  30.338  31.025  1.00  0.00    -0.248 NA
ATOM     39  C   UNL A   1      37.841  30.722  29.252  1.00  0.00     0.031 C 
ATOM     40  C   UNL A   1      37.354  33.651  33.311  1.00  0.00     0.029 A 
ATOM     41  N   UNL A   1      39.002  32.141  33.327  1.00  0.00    -0.354 N 
ATOM     42  C   UNL A   1      39.552  29.412  30.019  1.00  0.00     0.074 A 
ATOM     43  C   UNL A   1      38.584  29.661  28.973  1.00  0.00     0.031 C 
ATOM     44  C   UNL A   1      37.995  33.769  34.484  1.00  0.00     0.029 A 
ATOM     45  C   UNL A   1      39.066  32.780  34.542  1.00  0.00     0.049 A 
ATOM     46  H   UNL A   1      39.622  31.423  33.062  1.00  0.00     0.167 HD
ATOM     47  C   UNL A   1      40.507  28.453  29.965  1.00  0.00     0.037 A 
ATOM     48  C   UNL A   1      39.891  32.582  35.587  1.00  0.00     0.037 A 
ATOM     49  C   UNL A   1      41.490  28.232  30.992  1.00  0.00     0.049 A 
ATOM     50  C   UNL A   1      40.953  31.523  35.495  1.00  0.00     0.074 A 
ATOM     51  C   UNL A   1      42.542  27.334  31.001  1.00  0.00     0.029 A 
ATOM     52  N   UNL A   1      41.543  28.922  32.195  1.00  0.00    -0.354 N 
ATOM     53  N   UNL A   1      41.211  30.697  34.510  1.00  0.00    -0.248 NA
ATOM     54  C   UNL A   1      41.840  31.372  36.656  1.00  0.00     0.031 C 
ATOM     55  C   UNL A   1      43.212  27.455  32.224  1.00  0.00     0.029 A 
ATOM     56  C   UNL A   1      42.599  28.457  32.960  1.00  0.00     0.049 A 
ATOM     57  H   UNL A   1      40.921  29.635  32.463  1.00  0.00     0.167 HD
ATOM     58  C   UNL A   1      42.304  29.947  34.921  1.00  0.00     0.074 A 
ATOM     59  C   UNL A   1      42.668  30.424  36.239  1.00  0.00     0.031 C 
ATOM     60  C   UNL A   1      42.949  28.950  34.266  1.00  0.00     0.037 A 
BRANCH  47  61
ATOM     61  C   UNL A   1      40.534  27.571  28.751  1.00  0.00     0.057 A 
ATOM     62  C   UNL A   1      39.726  26.432  28.648  1.00  0.00     0.134 A 
ATOM     63  C   UNL A   1      41.353  27.883  27.659  1.00  0.00     0.134 A 
ATOM     64  F   UNL A   1      38.928  26.071  29.664  1.00  0.00    -0.206 F 
ATOM     65  C   UNL A   1      39.750  25.620  27.512  1.00  0.00     0.040 A 
ATOM     66  C   UNL A   1      41.368  27.093  26.508  1.00  0.00     0.040 A 
ATOM     67  F   UNL A   1      42.147  28.964  27.689  1.00  0.00    -0.206 F 
ATOM     68  C   UNL A   1      40.569  25.954  26.435  1.00  0.00     0.006 A 
ENDBRANCH  47  61
BRANCH  48  69
ATOM     69  C   UNL A   1      39.759  33.422  36.802  1.00  0.00     0.057 A 
ATOM     70  C   UNL A   1      40.498  34.601  36.944  1.00  0.00     0.134 A 
ATOM     71  C   UNL A   1      38.897  33.069  37.846  1.00  0.00     0.134 A 
ATOM     72  F   UNL A   1      41.354  34.982  35.984  1.00  0.00    -0.206 F 
ATOM     73  C   UNL A   1      40.398  35.393  38.089  1.00  0.00     0.040 A 
ATOM     74  C   UNL A   1      38.770  33.863  38.988  1.00  0.00     0.040 A 
ATOM     75  F   UNL A   1      38.156  31.954  37.766  1.00  0.00    -0.206 F 
ATOM     76  C   UNL A   1      39.527  35.026  39.113  1.00  0.00     0.006 A 
ENDBRANCH  48  69
BRANCH  60  77
ATOM     77  C   UNL A   1      44.131  28.337  34.953  1.00  0.00     0.057 A 
ATOM     78  C   UNL A   1      44.003  27.206  35.770  1.00  0.00     0.134 A 
ATOM     79  C   UNL A   1      45.416  28.861  34.766  1.00  0.00     0.134 A 
ATOM     80  F   UNL A   1      42.797  26.667  36.000  1.00  0.00    -0.206 F 
ATOM     81  C   UNL A   1      45.112  26.631  36.393  1.00  0.00     0.040 A 
ATOM     82  C   UNL A   1      46.535  28.280  35.364  1.00  0.00     0.040 A 
ATOM     83  F   UNL A   1      45.605  29.938  33.988  1.00  0.00    -0.206 F 
ATOM     84  C   UNL A   1      46.382  27.164  36.185  1.00  0.00     0.006 A 
ENDBRANCH  60  77
ENDBRANCH  34  35
ENDBRANCH  26  29
ENDBRANCH  24  25
ENDBRANCH  23  24
ENDBRANCH   1  23
TORSDOF 15
ENDMDL
MODEL 3
REMARK VINA RESULT:     -10.6      3.547      8.465
REMARK SMILES CC[N@@H+](C[C@H]1CCCO1)[C@@H](C)c1ccc(C(=O)NCCCNC(=O)c2ccc(-c3c4nc(c(-c5c(F)cccc5F)c5ccc([nH]5)c(-c5c(F)cccc5F)c5nc(c(-c6c(F)cccc6F)c6ccc3[nH]6)C=C5)C=C4)cc2)o1
REMARK SMILES IDX 19 1 18 2 16 3 17 4 15 6 12 7 13 8 79 9 14 10 10 11 11 12
REMARK SMILES IDX 3 13 2 15 1 16 4 17 5 18 6 19 9 20 7 21 8 22 20 23 21 24
REMARK SMILES IDX 22 25 23 26 24 28 25 29 26 30 78 31 27 32 77 33 28 34 29 35
REMARK SMILES IDX 30 36 71 37 31 38 76 39 70 40 72 41 32 42 75 43 69 44 68 45
REMARK SMILES IDX 33 47 59 48 42 49 58 50 43 51 46 52 57 53 73 54 44 55 45 56
REMARK SMILES IDX 56 58 74 59 47 60 34 61 35 62 40 63 36 64 37 65 39 66 41 67
REMARK SMILES IDX 38 68 60 69 61 70 66 71 62 72 63 73 65 74 67 75 64 76 48 77
REMARK SMILES IDX 49 78 54 79 50 80 51 81 53 82 55 83 52 84
REMARK H PARENT 18 5 3 14 22 27 72 46 46 57
REMARK Flexibility Score: inf
ROOT
ATOM      1  C   UNL A   1      32.433  28.056  22.973  1.00  0.00     0.118 C 
ENDROOT
BRANCH   1   2
ATOM      2  N   UNL A   1      32.825  27.298  21.805  1.00  0.00    -0.349 N 
ATOM      3  C   UNL A   1      32.734  25.952  21.536  1.00  0.00     0.287 C 
ATOM      4  O   UNL A   1      33.056  25.625  20.386  1.00  0.00    -0.266 OA
ATOM      5  H   UNL A   1      33.224  27.834  21.083  1.00  0.00     0.163 HD
BRANCH   3   6
ATOM      6  C   UNL A   1      32.293  24.999  22.538  1.00  0.00     0.191 A 
ATOM      7  C   UNL A   1      32.680  23.622  24.237  1.00  0.00     0.161 A 
ATOM      8  C   UNL A   1      31.317  23.625  24.042  1.00  0.00     0.053 A 
ATOM      9  O   UNL A   1      33.276  24.420  23.307  1.00  0.00    -0.450 OA
ATOM     10  C   UNL A   1      31.069  24.523  22.978  1.00  0.00     0.057 A 
BRANCH   7  11
ATOM     11  C   UNL A   1      33.580  22.964  25.248  1.00  0.00     0.248 C 
ATOM     12  C   UNL A   1      34.228  24.039  26.132  1.00  0.00     0.084 C 
BRANCH  11  13
ATOM     13  N   UNL A   1      34.500  21.963  24.661  1.00  0.00    -0.324 N 
ATOM     14  H   UNL A   1      34.223  22.058  23.683  1.00  0.00     0.348 HD
BRANCH  13  15
ATOM     15  C   UNL A   1      35.935  22.268  24.623  1.00  0.00     0.259 C 
ATOM     16  C   UNL A   1      36.444  22.786  23.278  1.00  0.00     0.071 C 
ENDBRANCH  13  15
BRANCH  13  17
ATOM     17  C   UNL A   1      34.240  20.561  25.056  1.00  0.00     0.295 C 
BRANCH  17  18
ATOM     18  C   UNL A   1      32.807  19.964  24.924  1.00  0.00     0.173 C 
ATOM     19  C   UNL A   1      32.433  19.678  23.470  1.00  0.00     0.040 C 
ATOM     20  O   UNL A   1      32.666  18.717  25.633  1.00  0.00    -0.372 OA
ATOM     21  C   UNL A   1      32.612  18.185  23.350  1.00  0.00     0.031 C 
ATOM     22  C   UNL A   1      32.216  17.709  24.726  1.00  0.00     0.161 C 
ENDBRANCH  17  18
ENDBRANCH  13  17
ENDBRANCH  11  13
ENDBRANCH   7  11
ENDBRANCH   3   6
ENDBRANCH   1   2
BRANCH   1  23
ATOM     23  C   UNL A   1      33.630  28.707  23.664  1.00  0.00     0.042 C 
BRANCH  23  24
ATOM     24  C   UNL A   1      33.498  28.744  25.185  1.00  0.00     0.118 C 
BRANCH  24  25
ATOM     25  N   UNL A   1      32.838  29.963  25.638  1.00  0.00    -0.352 N 
ATOM     26  C   UNL A   1      33.096  30.771  26.714  1.00  0.00     0.251 C 
ATOM     27  H   UNL A   1      32.082  30.254  25.079  1.00  0.00     0.163 HD
ATOM     28  O   UNL A   1      32.265  31.612  27.047  1.00  0.00    -0.269 OA
BRANCH  26  29
ATOM     29  C   UNL A   1      34.358  30.651  27.475  1.00  0.00     0.039 A 
ATOM     30  C   UNL A   1      35.149  31.793  27.643  1.00  0.00     0.014 A 
ATOM     31  C   UNL A   1      34.804  29.416  27.953  1.00  0.00     0.014 A 
ATOM     32  C   UNL A   1      36.365  31.705  28.322  1.00  0.00     0.010 A 
ATOM     33  C   UNL A   1      35.988  29.340  28.684  1.00  0.00     0.010 A 
ATOM     34  C   UNL A   1      36.783  30.481  28.866  1.00  0.00    -0.014 A 
BRANCH  34  35
ATOM     35  C   UNL A   1      38.056  30.372  29.620  1.00  0.00     0.031 A 
ATOM     36  C   UNL A   1      39.228  29.643  29.023  1.00  0.00     0.074 A 
ATOM     37  C   UNL A   1      38.132  30.872  30.867  1.00  0.00     0.049 A 
ATOM     38  N   UNL A   1      40.390  29.368  29.558  1.00  0.00    -0.248 NA
ATOM     39  C   UNL A   1      39.061  29.132  27.653  1.00  0.00     0.031 C 
ATOM     40  C   UNL A   1      37.048  31.561  31.570  1.00  0.00     0.029 A 
ATOM     41  N   UNL A   1      39.162  30.863  31.772  1.00  0.00    -0.354 N 
ATOM     42  C   UNL A   1      41.082  28.634  28.602  1.00  0.00     0.074 A 
ATOM     43  C   UNL A   1      40.196  28.474  27.470  1.00  0.00     0.031 C 
ATOM     44  C   UNL A   1      37.475  31.920  32.791  1.00  0.00     0.029 A 
ATOM     45  C   UNL A   1      38.847  31.459  32.969  1.00  0.00     0.049 A 
ATOM     46  H   UNL A   1      40.043  30.466  31.582  1.00  0.00     0.167 HD
ATOM     47  C   UNL A   1      42.346  28.153  28.658  1.00  0.00     0.037 A 
ATOM     48  C   UNL A   1      39.582  31.608  34.087  1.00  0.00     0.037 A 
ATOM     49  C   UNL A   1      43.236  28.346  29.774  1.00  0.00     0.049 A 
ATOM     50  C   UNL A   1      40.989  31.080  34.117  1.00  0.00     0.074 A 
ATOM     51  C   UNL A   1      44.559  27.960  29.899  1.00  0.00     0.029 A 
ATOM     52  N   UNL A   1      42.892  28.985  30.956  1.00  0.00    -0.354 N 
ATOM     53  N   UNL A   1      41.651  30.443  33.183  1.00  0.00    -0.248 NA
ATOM     54  C   UNL A   1      41.751  31.296  35.355  1.00  0.00     0.031 C 
ATOM     55  C   UNL A   1      45.005  28.334  31.171  1.00  0.00     0.029 A 
ATOM     56  C   UNL A   1      43.971  28.988  31.823  1.00  0.00     0.049 A 
ATOM     57  H   UNL A   1      42.010  29.376  31.149  1.00  0.00     0.167 HD
ATOM     58  C   UNL A   1      42.914  30.205  33.708  1.00  0.00     0.074 A 
ATOM     59  C   UNL A   1      42.928  30.776  35.038  1.00  0.00     0.031 C 
ATOM     60  C   UNL A   1      43.968  29.568  33.140  1.00  0.00     0.037 A 
BRANCH  47  61
ATOM     61  C   UNL A   1      42.843  27.373  27.478  1.00  0.00     0.057 A 
ATOM     62  C   UNL A   1      42.690  25.983  27.393  1.00  0.00     0.134 A 
ATOM     63  C   UNL A   1      43.452  28.022  26.396  1.00  0.00     0.134 A 
ATOM     64  F   UNL A   1      42.125  25.300  28.401  1.00  0.00    -0.206 F 
ATOM     65  C   UNL A   1      43.147  25.264  26.287  1.00  0.00     0.040 A 
ATOM     66  C   UNL A   1      43.891  27.317  25.275  1.00  0.00     0.040 A 
ATOM     67  F   UNL A   1      43.624  29.353  26.409  1.00  0.00    -0.206 F 
ATOM     68  C   UNL A   1      43.744  25.933  25.221  1.00  0.00     0.006 A 
ENDBRANCH  47  61
BRANCH  48  69
ATOM     69  C   UNL A   1      39.008  32.307  35.262  1.00  0.00     0.057 A 
ATOM     70  C   UNL A   1      39.118  33.695  35.397  1.00  0.00     0.134 A 
ATOM     71  C   UNL A   1      38.338  31.610  36.274  1.00  0.00     0.134 A 
ATOM     72  F   UNL A   1      39.764  34.415  34.467  1.00  0.00    -0.206 F 
ATOM     73  C   UNL A   1      38.598  34.365  36.505  1.00  0.00     0.040 A 
ATOM     74  C   UNL A   1      37.793  32.270  37.377  1.00  0.00     0.040 A 
ATOM     75  F   UNL A   1      38.193  30.279  36.198  1.00  0.00    -0.206 F 
ATOM     76  C   UNL A   1      37.929  33.651  37.497  1.00  0.00     0.006 A 
ENDBRANCH  48  69
BRANCH  60  77
ATOM     77  C   UNL A   1      45.230  29.489  33.944  1.00  0.00     0.057 A 
ATOM     78  C   UNL A   1      46.202  30.496  33.889  1.00  0.00     0.134 A 
ATOM     79  C   UNL A   1      45.458  28.412  34.808  1.00  0.00     0.134 A 
ATOM     80  F   UNL A   1      46.048  31.546  33.070  1.00  0.00    -0.206 F 
ATOM     81  C   UNL A   1      47.367  30.423  34.654  1.00  0.00     0.040 A 
ATOM     82  C   UNL A   1      46.608  28.339  35.595  1.00  0.00     0.040 A 
ATOM     83  F   UNL A   1      44.561  27.418  34.911  1.00  0.00    -0.206 F 
ATOM     84  C   UNL A   1      47.569  29.345  35.514  1.00  0.00     0.006 A 
ENDBRANCH  60  77
ENDBRANCH  34  35
ENDBRANCH  26  29
ENDBRANCH  24  25
ENDBRANCH  23  24
ENDBRANCH   1  23
TORSDOF 15
ENDMDL
