MODEL 1
REMARK VINA RESULT:     -11.1      0.000      0.000
REMARK SMILES C[C@@H]1CCC[C@]1(Sc1ccc(F)cc1)C(=O)NCCCNC(=O)c1ccc(-c2c3nc(c(-c4c(F)cccc4F)c4ccc([nH]4)c(-c4c(F)cccc4F)c4nc(c(-c5c(F)cccc5F)c5ccc2[nH]5)C=C4)C=C3)cc1
REMARK SMILES IDX 19 1 18 2 17 3 15 4 16 5 6 7 1 8 2 9 3 10 4 11 5 12 7 13
REMARK SMILES IDX 8 14 9 15 14 16 10 17 13 18 11 19 12 20 20 21 21 22 22 23
REMARK SMILES IDX 23 25 24 26 25 27 77 28 26 29 76 30 27 31 28 32 29 33 70 34
REMARK SMILES IDX 30 35 75 36 69 37 71 38 31 39 74 40 68 41 67 42 32 44 58 45
REMARK SMILES IDX 41 46 57 47 42 48 45 49 56 50 72 51 43 52 44 53 55 55 73 56
REMARK SMILES IDX 46 57 33 58 34 59 39 60 35 61 36 62 38 63 40 64 37 65 59 66
REMARK SMILES IDX 60 67 65 68 61 69 62 70 64 71 66 72 63 73 47 74 48 75 53 76
REMARK SMILES IDX 49 77 50 78 52 79 54 80 51 81
REMARK H PARENT 17 6 21 24 71 43 45 54
REMARK Flexibility Score: inf
ROOT
ATOM      1  C   UNL A   1      33.895  28.463  25.770  1.00  0.00     0.042 C 
ENDROOT
BRANCH   1   2
ATOM      2  C   UNL A   1      33.699  27.046  25.257  1.00  0.00     0.117 C 
BRANCH   2   3
ATOM      3  N   UNL A   1      32.307  26.732  24.973  1.00  0.00    -0.355 N 
ATOM      4  C   UNL A   1      31.713  25.553  24.603  1.00  0.00     0.236 C 
ATOM      5  O   UNL A   1      30.481  25.563  24.521  1.00  0.00    -0.273 OA
ATOM      6  H   UNL A   1      31.689  27.493  25.060  1.00  0.00     0.163 HD
BRANCH   4   7
ATOM      7  C   UNL A   1      32.562  24.288  24.278  1.00  0.00     0.102 C 
ATOM      8  C   UNL A   1      32.879  25.428  21.966  1.00  0.00     0.009 C 
ATOM      9  C   UNL A   1      33.491  24.519  23.053  1.00  0.00     0.012 C 
ATOM     10  C   UNL A   1      33.691  23.133  22.422  1.00  0.00     0.005 C 
ATOM     11  C   UNL A   1      32.502  22.282  22.847  1.00  0.00     0.002 C 
ATOM     12  C   UNL A   1      31.661  23.131  23.796  1.00  0.00     0.028 C 
BRANCH   7  13
ATOM     13  S   UNL A   1      33.293  23.817  25.967  1.00  0.00    -0.109 SA
BRANCH  13  14
ATOM     14  C   UNL A   1      34.945  23.246  25.701  1.00  0.00     0.008 A 
ATOM     15  C   UNL A   1      36.049  24.103  25.749  1.00  0.00     0.018 A 
ATOM     16  C   UNL A   1      35.158  21.864  25.610  1.00  0.00     0.018 A 
ATOM     17  C   UNL A   1      37.342  23.595  25.600  1.00  0.00     0.040 A 
ATOM     18  C   UNL A   1      36.450  21.352  25.492  1.00  0.00     0.040 A 
ATOM     19  C   UNL A   1      37.529  22.224  25.470  1.00  0.00     0.123 A 
ATOM     20  F   UNL A   1      38.770  21.737  25.341  1.00  0.00    -0.207 F 
ENDBRANCH  13  14
ENDBRANCH   7  13
ENDBRANCH   4   7
ENDBRANCH   2   3
ENDBRANCH   1   2
BRANCH   1  21
ATOM     21  C   UNL A   1      33.648  28.623  27.263  1.00  0.00     0.118 C 
BRANCH  21  22
ATOM     22  N   UNL A   1      33.672  30.016  27.689  1.00  0.00    -0.352 N 
ATOM     23  C   UNL A   1      34.653  30.727  28.331  1.00  0.00     0.251 C 
ATOM     24  H   UNL A   1      32.856  30.526  27.483  1.00  0.00     0.163 HD
ATOM     25  O   UNL A   1      34.399  31.847  28.776  1.00  0.00    -0.269 OA
BRANCH  23  26
ATOM     26  C   UNL A   1      36.004  30.155  28.516  1.00  0.00     0.039 A 
ATOM     27  C   UNL A   1      36.909  30.209  27.453  1.00  0.00     0.014 A 
ATOM     28  C   UNL A   1      36.377  29.553  29.720  1.00  0.00     0.014 A 
ATOM     29  C   UNL A   1      38.209  29.728  27.624  1.00  0.00     0.010 A 
ATOM     30  C   UNL A   1      37.697  29.155  29.919  1.00  0.00     0.010 A 
ATOM     31  C   UNL A   1      38.628  29.238  28.873  1.00  0.00    -0.014 A 
BRANCH  31  32
ATOM     32  C   UNL A   1      40.034  28.822  29.106  1.00  0.00     0.031 A 
ATOM     33  C   UNL A   1      41.020  29.782  29.715  1.00  0.00     0.074 A 
ATOM     34  C   UNL A   1      40.442  27.601  28.704  1.00  0.00     0.049 A 
ATOM     35  N   UNL A   1      42.304  29.626  29.917  1.00  0.00    -0.248 NA
ATOM     36  C   UNL A   1      40.505  31.097  30.133  1.00  0.00     0.031 C 
ATOM     37  C   UNL A   1      39.595  26.598  28.055  1.00  0.00     0.029 A 
ATOM     38  N   UNL A   1      41.675  26.999  28.771  1.00  0.00    -0.354 N 
ATOM     39  C   UNL A   1      42.749  30.822  30.466  1.00  0.00     0.074 A 
ATOM     40  C   UNL A   1      41.611  31.711  30.528  1.00  0.00     0.031 C 
ATOM     41  C   UNL A   1      40.326  25.501  27.801  1.00  0.00     0.029 A 
ATOM     42  C   UNL A   1      41.703  25.737  28.225  1.00  0.00     0.049 A 
ATOM     43  H   UNL A   1      42.464  27.430  29.170  1.00  0.00     0.167 HD
ATOM     44  C   UNL A   1      43.991  31.138  30.901  1.00  0.00     0.037 A 
ATOM     45  C   UNL A   1      42.722  24.870  28.069  1.00  0.00     0.037 A 
ATOM     46  C   UNL A   1      45.111  30.236  30.878  1.00  0.00     0.049 A 
ATOM     47  C   UNL A   1      44.091  25.249  28.565  1.00  0.00     0.074 A 
ATOM     48  C   UNL A   1      46.388  30.444  31.370  1.00  0.00     0.029 A 
ATOM     49  N   UNL A   1      45.092  28.960  30.339  1.00  0.00    -0.354 N 
ATOM     50  N   UNL A   1      44.478  26.358  29.147  1.00  0.00    -0.248 NA
ATOM     51  C   UNL A   1      45.163  24.259  28.389  1.00  0.00     0.031 C 
ATOM     52  C   UNL A   1      47.156  29.317  31.079  1.00  0.00     0.029 A 
ATOM     53  C   UNL A   1      46.344  28.381  30.460  1.00  0.00     0.049 A 
ATOM     54  H   UNL A   1      44.306  28.529  29.930  1.00  0.00     0.167 HD
ATOM     55  C   UNL A   1      45.829  26.191  29.425  1.00  0.00     0.074 A 
ATOM     56  C   UNL A   1      46.191  24.868  28.965  1.00  0.00     0.031 C 
ATOM     57  C   UNL A   1      46.691  27.059  30.007  1.00  0.00     0.037 A 
BRANCH  44  58
ATOM     58  C   UNL A   1      44.220  32.509  31.466  1.00  0.00     0.057 A 
ATOM     59  C   UNL A   1      43.976  32.770  32.820  1.00  0.00     0.134 A 
ATOM     60  C   UNL A   1      44.559  33.593  30.648  1.00  0.00     0.134 A 
ATOM     61  F   UNL A   1      43.641  31.775  33.656  1.00  0.00    -0.206 F 
ATOM     62  C   UNL A   1      44.033  34.066  33.335  1.00  0.00     0.040 A 
ATOM     63  C   UNL A   1      44.643  34.890  31.156  1.00  0.00     0.040 A 
ATOM     64  F   UNL A   1      44.814  33.408  29.344  1.00  0.00    -0.206 F 
ATOM     65  C   UNL A   1      44.366  35.131  32.501  1.00  0.00     0.006 A 
ENDBRANCH  44  58
BRANCH  45  66
ATOM     66  C   UNL A   1      42.484  23.556  27.418  1.00  0.00     0.057 A 
ATOM     67  C   UNL A   1      42.123  22.428  28.165  1.00  0.00     0.134 A 
ATOM     68  C   UNL A   1      42.614  23.396  26.034  1.00  0.00     0.134 A 
ATOM     69  F   UNL A   1      41.989  22.510  29.497  1.00  0.00    -0.206 F 
ATOM     70  C   UNL A   1      41.913  21.186  27.562  1.00  0.00     0.040 A 
ATOM     71  C   UNL A   1      42.380  22.168  25.414  1.00  0.00     0.040 A 
ATOM     72  F   UNL A   1      42.939  24.444  25.261  1.00  0.00    -0.206 F 
ATOM     73  C   UNL A   1      42.034  21.056  26.180  1.00  0.00     0.006 A 
ENDBRANCH  45  66
BRANCH  57  74
ATOM     74  C   UNL A   1      48.108  26.611  30.208  1.00  0.00     0.057 A 
ATOM     75  C   UNL A   1      49.069  26.820  29.211  1.00  0.00     0.134 A 
ATOM     76  C   UNL A   1      48.498  25.890  31.343  1.00  0.00     0.134 A 
ATOM     77  F   UNL A   1      48.756  27.492  28.092  1.00  0.00    -0.206 F 
ATOM     78  C   UNL A   1      50.363  26.311  29.326  1.00  0.00     0.040 A 
ATOM     79  C   UNL A   1      49.798  25.400  31.482  1.00  0.00     0.040 A 
ATOM     80  F   UNL A   1      47.627  25.663  32.337  1.00  0.00    -0.206 F 
ATOM     81  C   UNL A   1      50.731  25.600  30.466  1.00  0.00     0.006 A 
ENDBRANCH  57  74
ENDBRANCH  31  32
ENDBRANCH  23  26
ENDBRANCH  21  22
ENDBRANCH   1  21
TORSDOF 12
ENDMDL
MODEL 2
REMARK VINA RESULT:     -10.8      4.489      8.733
REMARK SMILES C[C@@H]1CCC[C@]1(Sc1ccc(F)cc1)C(=O)NCCCNC(=O)c1ccc(-c2c3nc(c(-c4c(F)cccc4F)c4ccc([nH]4)c(-c4c(F)cccc4F)c4nc(c(-c5c(F)cccc5F)c5ccc2[nH]5)C=C4)C=C3)cc1
REMARK SMILES IDX 19 1 18 2 17 3 15 4 16 5 6 7 1 8 2 9 3 10 4 11 5 12 7 13
REMARK SMILES IDX 8 14 9 15 14 16 10 17 13 18 11 19 12 20 20 21 21 22 22 23
REMARK SMILES IDX 23 25 24 26 25 27 77 28 26 29 76 30 27 31 28 32 29 33 70 34
REMARK SMILES IDX 30 35 75 36 69 37 71 38 31 39 74 40 68 41 67 42 32 44 58 45
REMARK SMILES IDX 41 46 57 47 42 48 45 49 56 50 72 51 43 52 44 53 55 55 73 56
REMARK SMILES IDX 46 57 33 58 34 59 39 60 35 61 36 62 38 63 40 64 37 65 59 66
REMARK SMILES IDX 60 67 65 68 61 69 62 70 64 71 66 72 63 73 47 74 48 75 53 76
REMARK SMILES IDX 49 77 50 78 52 79 54 80 51 81
REMARK H PARENT 17 6 21 24 71 43 45 54
REMARK Flexibility Score: inf
ROOT
ATOM      1  C   UNL A   1      31.379  32.210  26.546  1.00  0.00     0.042 C 
ENDROOT
BRANCH   1   2
ATOM      2  C   UNL A   1      31.614  30.814  25.993  1.00  0.00     0.117 C 
BRANCH   2   3
ATOM      3  N   UNL A   1      32.955  30.316  26.257  1.00  0.00    -0.355 N 
ATOM      4  C   UNL A   1      33.510  29.081  26.042  1.00  0.00     0.236 C 
ATOM      5  O   UNL A   1      34.716  28.973  26.282  1.00  0.00    -0.273 OA
ATOM      6  H   UNL A   1      33.566  30.976  26.658  1.00  0.00     0.163 HD
BRANCH   4   7
ATOM      7  C   UNL A   1      32.645  27.881  25.553  1.00  0.00     0.102 C 
ATOM      8  C   UNL A   1      31.777  27.860  28.001  1.00  0.00     0.009 C 
ATOM      9  C   UNL A   1      31.455  27.602  26.513  1.00  0.00     0.012 C 
ATOM     10  C   UNL A   1      31.155  26.101  26.370  1.00  0.00     0.005 C 
ATOM     11  C   UNL A   1      32.433  25.446  25.866  1.00  0.00     0.002 C 
ATOM     12  C   UNL A   1      33.444  26.562  25.625  1.00  0.00     0.028 C 
BRANCH   7  13
ATOM     13  S   UNL A   1      32.332  28.296  23.726  1.00  0.00    -0.109 SA
BRANCH  13  14
ATOM     14  C   UNL A   1      30.583  28.319  23.469  1.00  0.00     0.008 A 
ATOM     15  C   UNL A   1      29.785  27.185  23.648  1.00  0.00     0.018 A 
ATOM     16  C   UNL A   1      29.967  29.557  23.244  1.00  0.00     0.018 A 
ATOM     17  C   UNL A   1      28.399  27.267  23.499  1.00  0.00     0.040 A 
ATOM     18  C   UNL A   1      28.579  29.648  23.126  1.00  0.00     0.040 A 
ATOM     19  C   UNL A   1      27.810  28.499  23.236  1.00  0.00     0.123 A 
ATOM     20  F   UNL A   1      26.479  28.579  23.106  1.00  0.00    -0.207 F 
ENDBRANCH  13  14
ENDBRANCH   7  13
ENDBRANCH   4   7
ENDBRANCH   2   3
ENDBRANCH   1   2
BRANCH   1  21
ATOM     21  C   UNL A   1      32.586  32.811  27.251  1.00  0.00     0.118 C 
BRANCH  21  22
ATOM     22  N   UNL A   1      32.381  34.203  27.626  1.00  0.00    -0.352 N 
ATOM     23  C   UNL A   1      32.986  34.955  28.601  1.00  0.00     0.251 C 
ATOM     24  H   UNL A   1      31.701  34.679  27.096  1.00  0.00     0.163 HD
ATOM     25  O   UNL A   1      32.530  36.063  28.884  1.00  0.00    -0.269 OA
BRANCH  23  26
ATOM     26  C   UNL A   1      34.163  34.439  29.331  1.00  0.00     0.039 A 
ATOM     27  C   UNL A   1      33.971  33.826  30.572  1.00  0.00     0.014 A 
ATOM     28  C   UNL A   1      35.453  34.570  28.811  1.00  0.00     0.014 A 
ATOM     29  C   UNL A   1      35.061  33.280  31.252  1.00  0.00     0.010 A 
ATOM     30  C   UNL A   1      36.525  33.948  29.446  1.00  0.00     0.010 A 
ATOM     31  C   UNL A   1      36.341  33.296  30.674  1.00  0.00    -0.014 A 
BRANCH  31  32
ATOM     32  C   UNL A   1      37.493  32.627  31.331  1.00  0.00     0.031 A 
ATOM     33  C   UNL A   1      38.186  31.472  30.658  1.00  0.00     0.074 A 
ATOM     34  C   UNL A   1      37.871  33.013  32.566  1.00  0.00     0.049 A 
ATOM     35  N   UNL A   1      39.150  30.713  31.112  1.00  0.00    -0.248 NA
ATOM     36  C   UNL A   1      37.722  31.106  29.309  1.00  0.00     0.031 C 
ATOM     37  C   UNL A   1      37.247  34.086  33.344  1.00  0.00     0.029 A 
ATOM     38  N   UNL A   1      38.864  32.543  33.390  1.00  0.00    -0.354 N 
ATOM     39  C   UNL A   1      39.395  29.776  30.117  1.00  0.00     0.074 A 
ATOM     40  C   UNL A   1      38.451  30.030  29.052  1.00  0.00     0.031 C 
ATOM     41  C   UNL A   1      37.882  34.203  34.521  1.00  0.00     0.029 A 
ATOM     42  C   UNL A   1      38.927  33.187  34.603  1.00  0.00     0.049 A 
ATOM     43  H   UNL A   1      39.473  31.811  33.137  1.00  0.00     0.167 HD
ATOM     44  C   UNL A   1      40.339  28.807  30.088  1.00  0.00     0.037 A 
ATOM     45  C   UNL A   1      39.724  32.977  35.669  1.00  0.00     0.037 A 
ATOM     46  C   UNL A   1      41.304  28.585  31.131  1.00  0.00     0.049 A 
ATOM     47  C   UNL A   1      40.765  31.893  35.605  1.00  0.00     0.074 A 
ATOM     48  C   UNL A   1      42.349  27.675  31.151  1.00  0.00     0.029 A 
ATOM     49  N   UNL A   1      41.349  29.273  32.332  1.00  0.00    -0.354 N 
ATOM     50  N   UNL A   1      41.030  31.062  34.626  1.00  0.00    -0.248 NA
ATOM     51  C   UNL A   1      41.622  31.720  36.787  1.00  0.00     0.031 C 
ATOM     52  C   UNL A   1      42.989  27.775  32.386  1.00  0.00     0.029 A 
ATOM     53  C   UNL A   1      42.384  28.788  33.113  1.00  0.00     0.049 A 
ATOM     54  H   UNL A   1      40.736  29.998  32.592  1.00  0.00     0.167 HD
ATOM     55  C   UNL A   1      42.094  30.284  35.064  1.00  0.00     0.074 A 
ATOM     56  C   UNL A   1      42.439  30.753  36.389  1.00  0.00     0.031 C 
ATOM     57  C   UNL A   1      42.725  29.270  34.426  1.00  0.00     0.037 A 
BRANCH  44  58
ATOM     58  C   UNL A   1      40.406  27.913  28.884  1.00  0.00     0.057 A 
ATOM     59  C   UNL A   1      39.718  26.692  28.865  1.00  0.00     0.134 A 
ATOM     60  C   UNL A   1      41.245  28.200  27.801  1.00  0.00     0.134 A 
ATOM     61  F   UNL A   1      38.903  26.354  29.876  1.00  0.00    -0.206 F 
ATOM     62  C   UNL A   1      39.886  25.777  27.826  1.00  0.00     0.040 A 
ATOM     63  C   UNL A   1      41.402  27.303  26.744  1.00  0.00     0.040 A 
ATOM     64  F   UNL A   1      41.924  29.357  27.755  1.00  0.00    -0.206 F 
ATOM     65  C   UNL A   1      40.733  26.081  26.762  1.00  0.00     0.006 A 
ENDBRANCH  44  58
BRANCH  45  66
ATOM     66  C   UNL A   1      39.570  33.816  36.885  1.00  0.00     0.057 A 
ATOM     67  C   UNL A   1      40.227  35.046  37.010  1.00  0.00     0.134 A 
ATOM     68  C   UNL A   1      38.764  33.406  37.953  1.00  0.00     0.134 A 
ATOM     69  F   UNL A   1      41.021  35.494  36.026  1.00  0.00    -0.206 F 
ATOM     70  C   UNL A   1      40.100  35.832  38.157  1.00  0.00     0.040 A 
ATOM     71  C   UNL A   1      38.605  34.194  39.094  1.00  0.00     0.040 A 
ATOM     72  F   UNL A   1      38.094  32.246  37.887  1.00  0.00    -0.206 F 
ATOM     73  C   UNL A   1      39.280  35.409  39.201  1.00  0.00     0.006 A 
ENDBRANCH  45  66
BRANCH  57  74
ATOM     74  C   UNL A   1      43.871  28.604  35.129  1.00  0.00     0.057 A 
ATOM     75  C   UNL A   1      43.644  27.540  36.011  1.00  0.00     0.134 A 
ATOM     76  C   UNL A   1      45.183  29.077  35.007  1.00  0.00     0.134 A 
ATOM     77  F   UNL A   1      42.408  27.049  36.183  1.00  0.00    -0.206 F 
ATOM     78  C   UNL A   1      44.679  26.982  36.762  1.00  0.00     0.040 A 
ATOM     79  C   UNL A   1      46.232  28.508  35.732  1.00  0.00     0.040 A 
ATOM     80  F   UNL A   1      45.468  30.087  34.172  1.00  0.00    -0.206 F 
ATOM     81  C   UNL A   1      45.977  27.465  36.622  1.00  0.00     0.006 A 
ENDBRANCH  57  74
ENDBRANCH  31  32
ENDBRANCH  23  26
ENDBRANCH  21  22
ENDBRANCH   1  21
TORSDOF 12
ENDMDL
MODEL 3
REMARK VINA RESULT:     -10.8      3.172      8.049
REMARK SMILES C[C@@H]1CCC[C@]1(Sc1ccc(F)cc1)C(=O)NCCCNC(=O)c1ccc(-c2c3nc(c(-c4c(F)cccc4F)c4ccc([nH]4)c(-c4c(F)cccc4F)c4nc(c(-c5c(F)cccc5F)c5ccc2[nH]5)C=C4)C=C3)cc1
REMARK SMILES IDX 19 1 18 2 17 3 15 4 16 5 6 7 1 8 2 9 3 10 4 11 5 12 7 13
REMARK SMILES IDX 8 14 9 15 14 16 10 17 13 18 11 19 12 20 20 21 21 22 22 23
REMARK SMILES IDX 23 25 24 26 25 27 77 28 26 29 76 30 27 31 28 32 29 33 70 34
REMARK SMILES IDX 30 35 75 36 69 37 71 38 31 39 74 40 68 41 67 42 32 44 58 45
REMARK SMILES IDX 41 46 57 47 42 48 45 49 56 50 72 51 43 52 44 53 55 55 73 56
REMARK SMILES IDX 46 57 33 58 34 59 39 60 35 61 36 62 38 63 40 64 37 65 59 66
REMARK SMILES IDX 60 67 65 68 61 69 62 70 64 71 66 72 63 73 47 74 48 75 53 76
REMARK SMILES IDX 49 77 50 78 52 79 54 80 51 81
REMARK H PARENT 17 6 21 24 71 43 45 54
REMARK Flexibility Score: inf
ROOT
ATOM      1  C   UNL A   1      35.885  23.165  25.969  1.00  0.00     0.042 C 
ENDROOT
BRANCH   1   2
ATOM      2  C   UNL A   1      34.660  24.002  25.635  1.00  0.00     0.117 C 
BRANCH   2   3
ATOM      3  N   UNL A   1      33.821  23.399  24.612  1.00  0.00    -0.355 N 
ATOM      4  C   UNL A   1      32.686  23.862  23.998  1.00  0.00     0.236 C 
ATOM      5  O   UNL A   1      32.233  23.164  23.085  1.00  0.00    -0.273 OA
ATOM      6  H   UNL A   1      34.116  22.509  24.310  1.00  0.00     0.163 HD
BRANCH   4   7
ATOM      7  C   UNL A   1      32.000  25.183  24.457  1.00  0.00     0.102 C 
ATOM      8  C   UNL A   1      30.973  23.683  26.313  1.00  0.00     0.009 C 
ATOM      9  C   UNL A   1      31.490  25.084  25.923  1.00  0.00     0.012 C 
ATOM     10  C   UNL A   1      30.295  26.046  26.007  1.00  0.00     0.005 C 
ATOM     11  C   UNL A   1      29.764  26.210  24.590  1.00  0.00     0.002 C 
ATOM     12  C   UNL A   1      30.695  25.428  23.669  1.00  0.00     0.028 C 
BRANCH   7  13
ATOM     13  S   UNL A   1      33.260  26.515  23.963  1.00  0.00    -0.109 SA
BRANCH  13  14
ATOM     14  C   UNL A   1      33.191  27.801  25.175  1.00  0.00     0.008 A 
ATOM     15  C   UNL A   1      34.030  27.820  26.294  1.00  0.00     0.018 A 
ATOM     16  C   UNL A   1      32.387  28.916  24.907  1.00  0.00     0.018 A 
ATOM     17  C   UNL A   1      33.987  28.892  27.189  1.00  0.00     0.040 A 
ATOM     18  C   UNL A   1      32.365  30.002  25.783  1.00  0.00     0.040 A 
ATOM     19  C   UNL A   1      33.152  29.971  26.925  1.00  0.00     0.123 A 
ATOM     20  F   UNL A   1      33.121  31.004  27.778  1.00  0.00    -0.207 F 
ENDBRANCH  13  14
ENDBRANCH   7  13
ENDBRANCH   4   7
ENDBRANCH   2   3
ENDBRANCH   1   2
BRANCH   1  21
ATOM     21  C   UNL A   1      37.139  23.568  25.208  1.00  0.00     0.118 C 
BRANCH  21  22
ATOM     22  N   UNL A   1      38.275  22.706  25.505  1.00  0.00    -0.352 N 
ATOM     23  C   UNL A   1      39.458  22.990  26.140  1.00  0.00     0.251 C 
ATOM     24  H   UNL A   1      38.179  21.774  25.202  1.00  0.00     0.163 HD
ATOM     25  O   UNL A   1      40.371  22.165  26.118  1.00  0.00    -0.269 OA
BRANCH  23  26
ATOM     26  C   UNL A   1      39.655  24.283  26.827  1.00  0.00     0.039 A 
ATOM     27  C   UNL A   1      39.117  24.456  28.105  1.00  0.00     0.014 A 
ATOM     28  C   UNL A   1      40.350  25.330  26.217  1.00  0.00     0.014 A 
ATOM     29  C   UNL A   1      39.341  25.648  28.797  1.00  0.00     0.010 A 
ATOM     30  C   UNL A   1      40.648  26.482  26.940  1.00  0.00     0.010 A 
ATOM     31  C   UNL A   1      40.147  26.654  28.239  1.00  0.00    -0.014 A 
BRANCH  31  32
ATOM     32  C   UNL A   1      40.486  27.882  29.001  1.00  0.00     0.031 A 
ATOM     33  C   UNL A   1      41.806  27.995  29.715  1.00  0.00     0.074 A 
ATOM     34  C   UNL A   1      39.576  28.871  29.108  1.00  0.00     0.049 A 
ATOM     35  N   UNL A   1      42.241  28.950  30.496  1.00  0.00    -0.248 NA
ATOM     36  C   UNL A   1      42.753  26.878  29.552  1.00  0.00     0.031 C 
ATOM     37  C   UNL A   1      38.241  28.861  28.505  1.00  0.00     0.029 A 
ATOM     38  N   UNL A   1      39.628  30.073  29.772  1.00  0.00    -0.354 N 
ATOM     39  C   UNL A   1      43.498  28.546  30.926  1.00  0.00     0.074 A 
ATOM     40  C   UNL A   1      43.741  27.238  30.358  1.00  0.00     0.031 C 
ATOM     41  C   UNL A   1      37.610  30.006  28.809  1.00  0.00     0.029 A 
ATOM     42  C   UNL A   1      38.473  30.812  29.667  1.00  0.00     0.049 A 
ATOM     43  H   UNL A   1      40.416  30.375  30.278  1.00  0.00     0.167 HD
ATOM     44  C   UNL A   1      44.377  29.216  31.706  1.00  0.00     0.037 A 
ATOM     45  C   UNL A   1      38.139  31.999  30.209  1.00  0.00     0.037 A 
ATOM     46  C   UNL A   1      44.150  30.534  32.234  1.00  0.00     0.049 A 
ATOM     47  C   UNL A   1      39.139  32.722  31.069  1.00  0.00     0.074 A 
ATOM     48  C   UNL A   1      45.018  31.323  32.969  1.00  0.00     0.029 A 
ATOM     49  N   UNL A   1      42.978  31.258  32.085  1.00  0.00    -0.354 N 
ATOM     50  N   UNL A   1      40.351  32.356  31.408  1.00  0.00    -0.248 NA
ATOM     51  C   UNL A   1      38.730  34.023  31.619  1.00  0.00     0.031 C 
ATOM     52  C   UNL A   1      44.353  32.501  33.312  1.00  0.00     0.029 A 
ATOM     53  C   UNL A   1      43.091  32.473  32.740  1.00  0.00     0.049 A 
ATOM     54  H   UNL A   1      42.184  30.955  31.588  1.00  0.00     0.167 HD
ATOM     55  C   UNL A   1      40.856  33.386  32.190  1.00  0.00     0.074 A 
ATOM     56  C   UNL A   1      39.827  34.402  32.261  1.00  0.00     0.031 C 
ATOM     57  C   UNL A   1      42.064  33.481  32.796  1.00  0.00     0.037 A 
BRANCH  44  58
ATOM     58  C   UNL A   1      45.687  28.560  32.030  1.00  0.00     0.057 A 
ATOM     59  C   UNL A   1      46.775  28.672  31.153  1.00  0.00     0.134 A 
ATOM     60  C   UNL A   1      45.833  27.717  33.138  1.00  0.00     0.134 A 
ATOM     61  F   UNL A   1      46.697  29.458  30.068  1.00  0.00    -0.206 F 
ATOM     62  C   UNL A   1      47.951  27.947  31.353  1.00  0.00     0.040 A 
ATOM     63  C   UNL A   1      47.013  27.006  33.362  1.00  0.00     0.040 A 
ATOM     64  F   UNL A   1      44.832  27.574  34.020  1.00  0.00    -0.206 F 
ATOM     65  C   UNL A   1      48.071  27.109  32.460  1.00  0.00     0.006 A 
ENDBRANCH  44  58
BRANCH  45  66
ATOM     66  C   UNL A   1      36.797  32.580  29.948  1.00  0.00     0.057 A 
ATOM     67  C   UNL A   1      35.698  32.271  30.759  1.00  0.00     0.134 A 
ATOM     68  C   UNL A   1      36.580  33.458  28.880  1.00  0.00     0.134 A 
ATOM     69  F   UNL A   1      35.834  31.431  31.796  1.00  0.00    -0.206 F 
ATOM     70  C   UNL A   1      34.430  32.801  30.510  1.00  0.00     0.040 A 
ATOM     71  C   UNL A   1      35.325  34.017  28.635  1.00  0.00     0.040 A 
ATOM     72  F   UNL A   1      37.596  33.808  28.077  1.00  0.00    -0.206 F 
ATOM     73  C   UNL A   1      34.243  33.684  29.448  1.00  0.00     0.006 A 
ENDBRANCH  45  66
BRANCH  57  74
ATOM     74  C   UNL A   1      42.363  34.728  33.574  1.00  0.00     0.057 A 
ATOM     75  C   UNL A   1      41.936  34.859  34.902  1.00  0.00     0.134 A 
ATOM     76  C   UNL A   1      42.986  35.832  32.981  1.00  0.00     0.134 A 
ATOM     77  F   UNL A   1      41.321  33.842  35.523  1.00  0.00    -0.206 F 
ATOM     78  C   UNL A   1      42.101  36.051  35.607  1.00  0.00     0.040 A 
ATOM     79  C   UNL A   1      43.182  37.022  33.686  1.00  0.00     0.040 A 
ATOM     80  F   UNL A   1      43.425  35.768  31.716  1.00  0.00    -0.206 F 
ATOM     81  C   UNL A   1      42.727  37.136  34.999  1.00  0.00     0.006 A 
ENDBRANCH  57  74
ENDBRANCH  31  32
ENDBRANCH  23  26
ENDBRANCH  21  22
ENDBRANCH   1  21
TORSDOF 12
ENDMDL
