MODEL 1
REMARK VINA RESULT:     -13.2      0.000      0.000
REMARK SMILES Cc1ccnc(C(=O)c2[nH]c3cc(Cl)c(F)cc3c2CC(=O)NCCCNC(=O)c2ccc(-c3c4nc(c(-c5c(F)cccc5F)c5ccc([nH]5)c(-c5c(F)cccc5F)c5nc(c(-c6c(F)cccc6F)c6ccc3[nH]6)C=C5)C=C4)cc2)c1
REMARK SMILES IDX 24 1 23 2 21 3 22 4 20 6 19 7 9 8 10 9 11 10 18 12 12 13
REMARK SMILES IDX 17 14 13 15 15 16 14 17 16 18 7 19 8 20 6 21 1 22 2 23 3 24
REMARK SMILES IDX 84 25 4 26 5 27 25 28 26 29 27 30 28 31 29 33 30 34 31 35
REMARK SMILES IDX 83 36 32 37 82 38 33 39 34 40 35 41 76 42 36 43 81 44 75 45
REMARK SMILES IDX 77 46 37 47 80 48 74 49 73 50 38 52 64 53 47 54 63 55 48 56
REMARK SMILES IDX 51 57 62 58 78 59 49 60 50 61 61 63 79 64 52 65 39 66 40 67
REMARK SMILES IDX 45 68 41 69 42 70 44 71 46 72 43 73 65 74 66 75 71 76 67 77
REMARK SMILES IDX 68 78 70 79 72 80 69 81 53 82 54 83 59 84 55 85 56 86 58 87
REMARK SMILES IDX 60 88 57 89
REMARK H PARENT 23 5 10 11 27 32 77 51 51 62
REMARK Flexibility Score: inf
ROOT
ATOM      1  C   UNL A   1      32.525  27.450  26.171  1.00  0.00     0.117 C 
ENDROOT
BRANCH   1   2
ATOM      2  N   UNL A   1      31.810  26.276  26.635  1.00  0.00    -0.356 N 
ATOM      3  C   UNL A   1      32.085  24.946  26.562  1.00  0.00     0.224 C 
ATOM      4  O   UNL A   1      31.367  24.199  27.236  1.00  0.00    -0.275 OA
ATOM      5  H   UNL A   1      30.962  26.482  27.089  1.00  0.00     0.163 HD
BRANCH   3   6
ATOM      6  C   UNL A   1      33.234  24.371  25.760  1.00  0.00     0.138 C 
BRANCH   6   7
ATOM      7  C   UNL A   1      32.896  23.723  24.447  1.00  0.00    -0.002 A 
ATOM      8  C   UNL A   1      32.562  24.304  23.219  1.00  0.00     0.093 A 
ATOM      9  N   UNL A   1      32.189  23.267  22.383  1.00  0.00    -0.351 N 
ATOM     10  C   UNL A   1      32.342  22.047  22.982  1.00  0.00     0.048 A 
ATOM     11  H   UNL A   1      31.853  23.393  21.466  1.00  0.00     0.167 HD
ATOM     12  C   UNL A   1      32.717  22.295  24.298  1.00  0.00     0.007 A 
ATOM     13  C   UNL A   1      32.149  20.755  22.469  1.00  0.00     0.050 A 
ATOM     14  C   UNL A   1      32.852  21.190  25.169  1.00  0.00     0.051 A 
ATOM     15  C   UNL A   1      32.345  19.678  23.340  1.00  0.00     0.078 A 
ATOM     16  C   UNL A   1      32.680  19.897  24.670  1.00  0.00     0.142 A 
ATOM     17  Cl  UNL A   1      32.166  18.072  22.740  1.00  0.00    -0.081 Cl
ATOM     18  F   UNL A   1      32.860  18.866  25.510  1.00  0.00    -0.205 F 
BRANCH   8  19
ATOM     19  C   UNL A   1      32.419  25.674  22.720  1.00  0.00     0.227 C 
ATOM     20  O   UNL A   1      33.394  26.216  22.184  1.00  0.00    -0.285 OA
BRANCH  19  21
ATOM     21  C   UNL A   1      31.200  26.513  22.972  1.00  0.00     0.113 A 
ATOM     22  C   UNL A   1      29.692  29.888  22.075  1.00  0.00     0.044 C 
ATOM     23  C   UNL A   1      29.879  28.503  22.616  1.00  0.00    -0.047 A 
ATOM     24  C   UNL A   1      28.865  27.913  23.362  1.00  0.00     0.023 A 
ATOM     25  C   UNL A   1      31.044  27.759  22.381  1.00  0.00     0.036 A 
ATOM     26  C   UNL A   1      29.073  26.644  23.874  1.00  0.00     0.112 A 
ATOM     27  N   UNL A   1      30.212  25.936  23.703  1.00  0.00    -0.253 NA
ENDBRANCH  19  21
ENDBRANCH   8  19
ENDBRANCH   6   7
ENDBRANCH   3   6
ENDBRANCH   1   2
BRANCH   1  28
ATOM     28  C   UNL A   1      32.968  28.426  27.260  1.00  0.00     0.042 C 
BRANCH  28  29
ATOM     29  C   UNL A   1      34.376  28.995  27.157  1.00  0.00     0.118 C 
BRANCH  29  30
ATOM     30  N   UNL A   1      34.773  29.950  28.171  1.00  0.00    -0.352 N 
ATOM     31  C   UNL A   1      35.966  30.291  28.736  1.00  0.00     0.251 C 
ATOM     32  H   UNL A   1      34.017  30.466  28.530  1.00  0.00     0.163 HD
ATOM     33  O   UNL A   1      35.979  31.276  29.487  1.00  0.00    -0.269 OA
BRANCH  31  34
ATOM     34  C   UNL A   1      37.185  29.472  28.604  1.00  0.00     0.039 A 
ATOM     35  C   UNL A   1      37.623  28.555  29.558  1.00  0.00     0.014 A 
ATOM     36  C   UNL A   1      37.964  29.698  27.464  1.00  0.00     0.014 A 
ATOM     37  C   UNL A   1      38.927  28.085  29.513  1.00  0.00     0.010 A 
ATOM     38  C   UNL A   1      39.231  29.146  27.365  1.00  0.00     0.010 A 
ATOM     39  C   UNL A   1      39.755  28.438  28.448  1.00  0.00    -0.014 A 
BRANCH  39  40
ATOM     40  C   UNL A   1      41.162  28.036  28.512  1.00  0.00     0.031 A 
ATOM     41  C   UNL A   1      41.537  26.741  27.860  1.00  0.00     0.074 A 
ATOM     42  C   UNL A   1      42.112  28.844  29.026  1.00  0.00     0.049 A 
ATOM     43  N   UNL A   1      42.230  25.753  28.336  1.00  0.00    -0.248 NA
ATOM     44  C   UNL A   1      41.030  26.512  26.496  1.00  0.00     0.031 C 
ATOM     45  C   UNL A   1      41.986  30.243  29.450  1.00  0.00     0.029 A 
ATOM     46  N   UNL A   1      43.448  28.609  29.144  1.00  0.00    -0.354 N 
ATOM     47  C   UNL A   1      42.366  24.836  27.293  1.00  0.00     0.074 A 
ATOM     48  C   UNL A   1      41.547  25.318  26.210  1.00  0.00     0.031 C 
ATOM     49  C   UNL A   1      43.215  30.798  29.510  1.00  0.00     0.029 A 
ATOM     50  C   UNL A   1      44.204  29.761  29.276  1.00  0.00     0.049 A 
ATOM     51  H   UNL A   1      43.839  27.705  29.136  1.00  0.00     0.167 HD
ATOM     52  C   UNL A   1      43.244  23.796  27.307  1.00  0.00     0.037 A 
ATOM     53  C   UNL A   1      45.538  29.873  29.094  1.00  0.00     0.037 A 
ATOM     54  C   UNL A   1      43.709  23.465  28.621  1.00  0.00     0.049 A 
ATOM     55  C   UNL A   1      46.134  28.520  29.193  1.00  0.00     0.074 A 
ATOM     56  C   UNL A   1      43.116  22.987  29.773  1.00  0.00     0.029 A 
ATOM     57  N   UNL A   1      44.966  23.860  28.998  1.00  0.00    -0.354 N 
ATOM     58  N   UNL A   1      46.207  27.822  30.292  1.00  0.00    -0.248 NA
ATOM     59  C   UNL A   1      46.311  27.767  27.961  1.00  0.00     0.031 C 
ATOM     60  C   UNL A   1      43.851  23.578  30.842  1.00  0.00     0.029 A 
ATOM     61  C   UNL A   1      44.842  24.372  30.264  1.00  0.00     0.049 A 
ATOM     62  H   UNL A   1      45.792  23.791  28.467  1.00  0.00     0.167 HD
ATOM     63  C   UNL A   1      46.044  26.505  29.887  1.00  0.00     0.074 A 
ATOM     64  C   UNL A   1      46.217  26.525  28.439  1.00  0.00     0.031 C 
ATOM     65  C   UNL A   1      45.514  25.563  30.722  1.00  0.00     0.037 A 
BRANCH  52  66
ATOM     66  C   UNL A   1      43.861  23.218  26.066  1.00  0.00     0.057 A 
ATOM     67  C   UNL A   1      43.708  21.859  25.750  1.00  0.00     0.134 A 
ATOM     68  C   UNL A   1      44.809  23.921  25.298  1.00  0.00     0.134 A 
ATOM     69  F   UNL A   1      42.867  21.080  26.448  1.00  0.00    -0.206 F 
ATOM     70  C   UNL A   1      44.457  21.240  24.740  1.00  0.00     0.040 A 
ATOM     71  C   UNL A   1      45.530  23.326  24.259  1.00  0.00     0.040 A 
ATOM     72  F   UNL A   1      45.136  25.191  25.578  1.00  0.00    -0.206 F 
ATOM     73  C   UNL A   1      45.368  21.975  23.988  1.00  0.00     0.006 A 
ENDBRANCH  52  66
BRANCH  53  74
ATOM     74  C   UNL A   1      46.249  31.019  28.490  1.00  0.00     0.057 A 
ATOM     75  C   UNL A   1      47.368  31.586  29.110  1.00  0.00     0.134 A 
ATOM     76  C   UNL A   1      45.995  31.428  27.168  1.00  0.00     0.134 A 
ATOM     77  F   UNL A   1      47.717  31.217  30.349  1.00  0.00    -0.206 F 
ATOM     78  C   UNL A   1      48.192  32.506  28.450  1.00  0.00     0.040 A 
ATOM     79  C   UNL A   1      46.800  32.355  26.502  1.00  0.00     0.040 A 
ATOM     80  F   UNL A   1      45.008  30.878  26.447  1.00  0.00    -0.206 F 
ATOM     81  C   UNL A   1      47.912  32.890  27.140  1.00  0.00     0.006 A 
ENDBRANCH  53  74
BRANCH  65  82
ATOM     82  C   UNL A   1      45.327  25.929  32.167  1.00  0.00     0.057 A 
ATOM     83  C   UNL A   1      44.169  26.553  32.656  1.00  0.00     0.134 A 
ATOM     84  C   UNL A   1      46.257  25.489  33.114  1.00  0.00     0.134 A 
ATOM     85  F   UNL A   1      43.174  26.906  31.832  1.00  0.00    -0.206 F 
ATOM     86  C   UNL A   1      43.969  26.771  34.022  1.00  0.00     0.040 A 
ATOM     87  C   UNL A   1      46.055  25.672  34.485  1.00  0.00     0.040 A 
ATOM     88  F   UNL A   1      47.356  24.822  32.725  1.00  0.00    -0.206 F 
ATOM     89  C   UNL A   1      44.912  26.325  34.942  1.00  0.00     0.006 A 
ENDBRANCH  65  82
ENDBRANCH  39  40
ENDBRANCH  31  34
ENDBRANCH  29  30
ENDBRANCH  28  29
ENDBRANCH   1  28
TORSDOF 13
ENDMDL
MODEL 2
REMARK VINA RESULT:     -13.1      1.805      5.771
REMARK SMILES Cc1ccnc(C(=O)c2[nH]c3cc(Cl)c(F)cc3c2CC(=O)NCCCNC(=O)c2ccc(-c3c4nc(c(-c5c(F)cccc5F)c5ccc([nH]5)c(-c5c(F)cccc5F)c5nc(c(-c6c(F)cccc6F)c6ccc3[nH]6)C=C5)C=C4)cc2)c1
REMARK SMILES IDX 24 1 23 2 21 3 22 4 20 6 19 7 9 8 10 9 11 10 18 12 12 13
REMARK SMILES IDX 17 14 13 15 15 16 14 17 16 18 7 19 8 20 6 21 1 22 2 23 3 24
REMARK SMILES IDX 84 25 4 26 5 27 25 28 26 29 27 30 28 31 29 33 30 34 31 35
REMARK SMILES IDX 83 36 32 37 82 38 33 39 34 40 35 41 76 42 36 43 81 44 75 45
REMARK SMILES IDX 77 46 37 47 80 48 74 49 73 50 38 52 64 53 47 54 63 55 48 56
REMARK SMILES IDX 51 57 62 58 78 59 49 60 50 61 61 63 79 64 52 65 39 66 40 67
REMARK SMILES IDX 45 68 41 69 42 70 44 71 46 72 43 73 65 74 66 75 71 76 67 77
REMARK SMILES IDX 68 78 70 79 72 80 69 81 53 82 54 83 59 84 55 85 56 86 58 87
REMARK SMILES IDX 60 88 57 89
REMARK H PARENT 23 5 10 11 27 32 77 51 51 62
REMARK Flexibility Score: inf
ROOT
ATOM      1  C   UNL A   1      31.949  27.601  26.193  1.00  0.00     0.117 C 
ENDROOT
BRANCH   1   2
ATOM      2  N   UNL A   1      31.364  26.351  26.639  1.00  0.00    -0.356 N 
ATOM      3  C   UNL A   1      31.781  25.059  26.554  1.00  0.00     0.224 C 
ATOM      4  O   UNL A   1      31.146  24.232  27.214  1.00  0.00    -0.275 OA
ATOM      5  H   UNL A   1      30.496  26.458  27.091  1.00  0.00     0.163 HD
BRANCH   3   6
ATOM      6  C   UNL A   1      32.989  24.623  25.751  1.00  0.00     0.138 C 
BRANCH   6   7
ATOM      7  C   UNL A   1      32.730  23.845  24.492  1.00  0.00    -0.002 A 
ATOM      8  C   UNL A   1      32.404  24.298  23.208  1.00  0.00     0.093 A 
ATOM      9  N   UNL A   1      32.116  23.173  22.457  1.00  0.00    -0.351 N 
ATOM     10  C   UNL A   1      32.318  22.020  23.165  1.00  0.00     0.048 A 
ATOM     11  H   UNL A   1      31.803  23.199  21.524  1.00  0.00     0.167 HD
ATOM     12  C   UNL A   1      32.636  22.401  24.464  1.00  0.00     0.007 A 
ATOM     13  C   UNL A   1      32.213  20.679  22.762  1.00  0.00     0.050 A 
ATOM     14  C   UNL A   1      32.804  21.386  25.431  1.00  0.00     0.051 A 
ATOM     15  C   UNL A   1      32.441  19.694  23.730  1.00  0.00     0.078 A 
ATOM     16  C   UNL A   1      32.720  20.047  25.044  1.00  0.00     0.142 A 
ATOM     17  Cl  UNL A   1      32.371  18.035  23.269  1.00  0.00    -0.081 Cl
ATOM     18  F   UNL A   1      32.930  19.104  25.975  1.00  0.00    -0.205 F 
BRANCH   8  19
ATOM     19  C   UNL A   1      32.201  25.609  22.588  1.00  0.00     0.227 C 
ATOM     20  O   UNL A   1      33.110  26.086  21.896  1.00  0.00    -0.285 OA
BRANCH  19  21
ATOM     21  C   UNL A   1      31.012  26.477  22.881  1.00  0.00     0.113 A 
ATOM     22  C   UNL A   1      29.617  29.937  22.135  1.00  0.00     0.044 C 
ATOM     23  C   UNL A   1      29.759  28.525  22.616  1.00  0.00    -0.047 A 
ATOM     24  C   UNL A   1      28.728  27.938  23.342  1.00  0.00     0.023 A 
ATOM     25  C   UNL A   1      30.897  27.752  22.344  1.00  0.00     0.036 A 
ATOM     26  C   UNL A   1      28.895  26.642  23.798  1.00  0.00     0.112 A 
ATOM     27  N   UNL A   1      30.007  25.904  23.591  1.00  0.00    -0.253 NA
ENDBRANCH  19  21
ENDBRANCH   8  19
ENDBRANCH   6   7
ENDBRANCH   3   6
ENDBRANCH   1   2
BRANCH   1  28
ATOM     28  C   UNL A   1      32.748  28.369  27.245  1.00  0.00     0.042 C 
BRANCH  28  29
ATOM     29  C   UNL A   1      33.845  29.298  26.747  1.00  0.00     0.118 C 
BRANCH  29  30
ATOM     30  N   UNL A   1      33.782  30.679  27.181  1.00  0.00    -0.352 N 
ATOM     31  C   UNL A   1      34.661  31.520  27.797  1.00  0.00     0.251 C 
ATOM     32  H   UNL A   1      32.916  31.103  26.988  1.00  0.00     0.163 HD
ATOM     33  O   UNL A   1      34.336  32.712  27.895  1.00  0.00    -0.269 OA
BRANCH  31  34
ATOM     34  C   UNL A   1      35.892  31.055  28.463  1.00  0.00     0.039 A 
ATOM     35  C   UNL A   1      36.973  31.875  28.779  1.00  0.00     0.014 A 
ATOM     36  C   UNL A   1      35.973  29.683  28.727  1.00  0.00     0.014 A 
ATOM     37  C   UNL A   1      38.200  31.308  29.090  1.00  0.00     0.010 A 
ATOM     38  C   UNL A   1      37.172  29.123  29.138  1.00  0.00     0.010 A 
ATOM     39  C   UNL A   1      38.315  29.923  29.203  1.00  0.00    -0.014 A 
BRANCH  39  40
ATOM     40  C   UNL A   1      39.653  29.360  29.393  1.00  0.00     0.031 A 
ATOM     41  C   UNL A   1      40.104  29.119  30.800  1.00  0.00     0.074 A 
ATOM     42  C   UNL A   1      40.412  28.957  28.353  1.00  0.00     0.049 A 
ATOM     43  N   UNL A   1      41.214  29.463  31.377  1.00  0.00    -0.248 NA
ATOM     44  C   UNL A   1      39.157  28.428  31.692  1.00  0.00     0.031 C 
ATOM     45  C   UNL A   1      40.037  28.853  26.938  1.00  0.00     0.029 A 
ATOM     46  N   UNL A   1      41.661  28.415  28.378  1.00  0.00    -0.354 N 
ATOM     47  C   UNL A   1      41.171  28.917  32.660  1.00  0.00     0.074 A 
ATOM     48  C   UNL A   1      39.854  28.356  32.825  1.00  0.00     0.031 C 
ATOM     49  C   UNL A   1      40.914  28.043  26.308  1.00  0.00     0.029 A 
ATOM     50  C   UNL A   1      41.978  27.701  27.235  1.00  0.00     0.049 A 
ATOM     51  H   UNL A   1      42.279  28.520  29.137  1.00  0.00     0.167 HD
ATOM     52  C   UNL A   1      42.252  28.826  33.483  1.00  0.00     0.037 A 
ATOM     53  C   UNL A   1      42.982  26.807  27.098  1.00  0.00     0.037 A 
ATOM     54  C   UNL A   1      43.322  29.700  33.110  1.00  0.00     0.049 A 
ATOM     55  C   UNL A   1      43.964  27.043  28.181  1.00  0.00     0.074 A 
ATOM     56  C   UNL A   1      43.484  31.070  33.040  1.00  0.00     0.029 A 
ATOM     57  N   UNL A   1      44.413  29.174  32.467  1.00  0.00    -0.354 N 
ATOM     58  N   UNL A   1      44.732  28.093  28.268  1.00  0.00    -0.248 NA
ATOM     59  C   UNL A   1      43.819  26.272  29.406  1.00  0.00     0.031 C 
ATOM     60  C   UNL A   1      44.375  31.285  31.949  1.00  0.00     0.029 A 
ATOM     61  C   UNL A   1      44.696  30.029  31.433  1.00  0.00     0.049 A 
ATOM     62  H   UNL A   1      44.897  28.350  32.702  1.00  0.00     0.167 HD
ATOM     63  C   UNL A   1      44.846  28.338  29.629  1.00  0.00     0.074 A 
ATOM     64  C   UNL A   1      44.353  27.129  30.278  1.00  0.00     0.031 C 
ATOM     65  C   UNL A   1      45.073  29.597  30.109  1.00  0.00     0.037 A 
BRANCH  52  66
ATOM     66  C   UNL A   1      42.414  27.751  34.518  1.00  0.00     0.057 A 
ATOM     67  C   UNL A   1      42.921  26.488  34.173  1.00  0.00     0.134 A 
ATOM     68  C   UNL A   1      41.855  27.853  35.806  1.00  0.00     0.134 A 
ATOM     69  F   UNL A   1      43.435  26.261  32.955  1.00  0.00    -0.206 F 
ATOM     70  C   UNL A   1      42.865  25.397  35.052  1.00  0.00     0.040 A 
ATOM     71  C   UNL A   1      41.833  26.786  36.707  1.00  0.00     0.040 A 
ATOM     72  F   UNL A   1      41.230  28.968  36.212  1.00  0.00    -0.206 F 
ATOM     73  C   UNL A   1      42.324  25.546  36.325  1.00  0.00     0.006 A 
ENDBRANCH  52  66
BRANCH  53  74
ATOM     74  C   UNL A   1      42.942  25.556  26.312  1.00  0.00     0.057 A 
ATOM     75  C   UNL A   1      43.893  25.292  25.320  1.00  0.00     0.134 A 
ATOM     76  C   UNL A   1      42.115  24.480  26.683  1.00  0.00     0.134 A 
ATOM     77  F   UNL A   1      44.759  26.242  24.941  1.00  0.00    -0.206 F 
ATOM     78  C   UNL A   1      44.018  24.027  24.733  1.00  0.00     0.040 A 
ATOM     79  C   UNL A   1      42.219  23.217  26.097  1.00  0.00     0.040 A 
ATOM     80  F   UNL A   1      41.234  24.593  27.688  1.00  0.00    -0.206 F 
ATOM     81  C   UNL A   1      43.183  22.983  25.124  1.00  0.00     0.006 A 
ENDBRANCH  53  74
BRANCH  65  82
ATOM     82  C   UNL A   1      45.429  30.674  29.124  1.00  0.00     0.057 A 
ATOM     83  C   UNL A   1      44.467  31.418  28.422  1.00  0.00     0.134 A 
ATOM     84  C   UNL A   1      46.759  31.087  29.007  1.00  0.00     0.134 A 
ATOM     85  F   UNL A   1      43.160  31.165  28.562  1.00  0.00    -0.206 F 
ATOM     86  C   UNL A   1      44.821  32.495  27.605  1.00  0.00     0.040 A 
ATOM     87  C   UNL A   1      47.123  32.182  28.219  1.00  0.00     0.040 A 
ATOM     88  F   UNL A   1      47.725  30.467  29.704  1.00  0.00    -0.206 F 
ATOM     89  C   UNL A   1      46.153  32.884  27.506  1.00  0.00     0.006 A 
ENDBRANCH  65  82
ENDBRANCH  39  40
ENDBRANCH  31  34
ENDBRANCH  29  30
ENDBRANCH  28  29
ENDBRANCH   1  28
TORSDOF 13
ENDMDL
MODEL 3
REMARK VINA RESULT:     -13.0      2.368      6.095
REMARK SMILES Cc1ccnc(C(=O)c2[nH]c3cc(Cl)c(F)cc3c2CC(=O)NCCCNC(=O)c2ccc(-c3c4nc(c(-c5c(F)cccc5F)c5ccc([nH]5)c(-c5c(F)cccc5F)c5nc(c(-c6c(F)cccc6F)c6ccc3[nH]6)C=C5)C=C4)cc2)c1
REMARK SMILES IDX 24 1 23 2 21 3 22 4 20 6 19 7 9 8 10 9 11 10 18 12 12 13
REMARK SMILES IDX 17 14 13 15 15 16 14 17 16 18 7 19 8 20 6 21 1 22 2 23 3 24
REMARK SMILES IDX 84 25 4 26 5 27 25 28 26 29 27 30 28 31 29 33 30 34 31 35
REMARK SMILES IDX 83 36 32 37 82 38 33 39 34 40 35 41 76 42 36 43 81 44 75 45
REMARK SMILES IDX 77 46 37 47 80 48 74 49 73 50 38 52 64 53 47 54 63 55 48 56
REMARK SMILES IDX 51 57 62 58 78 59 49 60 50 61 61 63 79 64 52 65 39 66 40 67
REMARK SMILES IDX 45 68 41 69 42 70 44 71 46 72 43 73 65 74 66 75 71 76 67 77
REMARK SMILES IDX 68 78 70 79 72 80 69 81 53 82 54 83 59 84 55 85 56 86 58 87
REMARK SMILES IDX 60 88 57 89
REMARK H PARENT 23 5 10 11 27 32 77 51 51 62
REMARK Flexibility Score: inf
ROOT
ATOM      1  C   UNL A   1      31.844  29.681  25.515  1.00  0.00     0.117 C 
ENDROOT
BRANCH   1   2
ATOM      2  N   UNL A   1      32.971  29.510  24.618  1.00  0.00    -0.356 N 
ATOM      3  C   UNL A   1      33.708  28.422  24.267  1.00  0.00     0.224 C 
ATOM      4  O   UNL A   1      34.483  28.566  23.316  1.00  0.00    -0.275 OA
ATOM      5  H   UNL A   1      33.258  30.343  24.178  1.00  0.00     0.163 HD
BRANCH   3   6
ATOM      6  C   UNL A   1      33.576  27.071  24.938  1.00  0.00     0.138 C 
BRANCH   6   7
ATOM      7  C   UNL A   1      33.827  25.857  24.089  1.00  0.00    -0.002 A 
ATOM      8  C   UNL A   1      33.177  25.422  22.928  1.00  0.00     0.093 A 
ATOM      9  N   UNL A   1      33.689  24.171  22.637  1.00  0.00    -0.351 N 
ATOM     10  C   UNL A   1      34.688  23.813  23.501  1.00  0.00     0.048 A 
ATOM     11  H   UNL A   1      33.372  23.605  21.897  1.00  0.00     0.167 HD
ATOM     12  C   UNL A   1      34.757  24.813  24.465  1.00  0.00     0.007 A 
ATOM     13  C   UNL A   1      35.509  22.674  23.516  1.00  0.00     0.050 A 
ATOM     14  C   UNL A   1      35.657  24.637  25.539  1.00  0.00     0.051 A 
ATOM     15  C   UNL A   1      36.431  22.556  24.561  1.00  0.00     0.078 A 
ATOM     16  C   UNL A   1      36.493  23.518  25.560  1.00  0.00     0.142 A 
ATOM     17  Cl  UNL A   1      37.492  21.199  24.592  1.00  0.00    -0.081 Cl
ATOM     18  F   UNL A   1      37.370  23.403  26.569  1.00  0.00    -0.205 F 
BRANCH   8  19
ATOM     19  C   UNL A   1      32.075  25.922  22.104  1.00  0.00     0.227 C 
ATOM     20  O   UNL A   1      32.192  25.891  20.872  1.00  0.00    -0.285 OA
BRANCH  19  21
ATOM     21  C   UNL A   1      30.877  26.623  22.678  1.00  0.00     0.113 A 
ATOM     22  C   UNL A   1      29.123  29.998  22.643  1.00  0.00     0.044 C 
ATOM     23  C   UNL A   1      29.444  28.555  22.887  1.00  0.00    -0.047 A 
ATOM     24  C   UNL A   1      28.578  27.778  23.649  1.00  0.00     0.023 A 
ATOM     25  C   UNL A   1      30.586  27.941  22.355  1.00  0.00     0.036 A 
ATOM     26  C   UNL A   1      28.910  26.455  23.883  1.00  0.00     0.112 A 
ATOM     27  N   UNL A   1      30.035  25.864  23.424  1.00  0.00    -0.253 NA
ENDBRANCH  19  21
ENDBRANCH   8  19
ENDBRANCH   6   7
ENDBRANCH   3   6
ENDBRANCH   1   2
BRANCH   1  28
ATOM     28  C   UNL A   1      32.187  30.175  26.919  1.00  0.00     0.042 C 
BRANCH  28  29
ATOM     29  C   UNL A   1      33.602  30.686  27.153  1.00  0.00     0.118 C 
BRANCH  29  30
ATOM     30  N   UNL A   1      33.850  31.386  28.396  1.00  0.00    -0.352 N 
ATOM     31  C   UNL A   1      34.973  31.683  29.110  1.00  0.00     0.251 C 
ATOM     32  H   UNL A   1      33.027  31.723  28.818  1.00  0.00     0.163 HD
ATOM     33  O   UNL A   1      34.848  32.444  30.080  1.00  0.00    -0.269 OA
BRANCH  31  34
ATOM     34  C   UNL A   1      36.277  31.039  28.866  1.00  0.00     0.039 A 
ATOM     35  C   UNL A   1      36.439  29.713  28.472  1.00  0.00     0.014 A 
ATOM     36  C   UNL A   1      37.410  31.822  29.115  1.00  0.00     0.014 A 
ATOM     37  C   UNL A   1      37.679  29.105  28.590  1.00  0.00     0.010 A 
ATOM     38  C   UNL A   1      38.668  31.240  29.133  1.00  0.00     0.010 A 
ATOM     39  C   UNL A   1      38.784  29.857  28.989  1.00  0.00    -0.014 A 
BRANCH  39  40
ATOM     40  C   UNL A   1      40.042  29.148  29.236  1.00  0.00     0.031 A 
ATOM     41  C   UNL A   1      40.434  28.922  30.663  1.00  0.00     0.074 A 
ATOM     42  C   UNL A   1      40.765  28.607  28.234  1.00  0.00     0.049 A 
ATOM     43  N   UNL A   1      41.568  29.159  31.249  1.00  0.00    -0.248 NA
ATOM     44  C   UNL A   1      39.396  28.393  31.563  1.00  0.00     0.031 C 
ATOM     45  C   UNL A   1      40.405  28.481  26.816  1.00  0.00     0.029 A 
ATOM     46  N   UNL A   1      41.938  27.921  28.313  1.00  0.00    -0.354 N 
ATOM     47  C   UNL A   1      41.436  28.684  32.555  1.00  0.00     0.074 A 
ATOM     48  C   UNL A   1      40.058  28.293  32.714  1.00  0.00     0.031 C 
ATOM     49  C   UNL A   1      41.190  27.543  26.245  1.00  0.00     0.029 A 
ATOM     50  C   UNL A   1      42.188  27.121  27.211  1.00  0.00     0.049 A 
ATOM     51  H   UNL A   1      42.551  27.988  29.081  1.00  0.00     0.167 HD
ATOM     52  C   UNL A   1      42.483  28.504  33.406  1.00  0.00     0.037 A 
ATOM     53  C   UNL A   1      43.079  26.108  27.139  1.00  0.00     0.037 A 
ATOM     54  C   UNL A   1      43.658  29.225  33.019  1.00  0.00     0.049 A 
ATOM     55  C   UNL A   1      44.063  26.276  28.233  1.00  0.00     0.074 A 
ATOM     56  C   UNL A   1      43.984  30.561  32.891  1.00  0.00     0.029 A 
ATOM     57  N   UNL A   1      44.689  28.542  32.427  1.00  0.00    -0.354 N 
ATOM     58  N   UNL A   1      44.950  27.230  28.290  1.00  0.00    -0.248 NA
ATOM     59  C   UNL A   1      43.804  25.588  29.488  1.00  0.00     0.031 C 
ATOM     60  C   UNL A   1      44.914  30.615  31.812  1.00  0.00     0.029 A 
ATOM     61  C   UNL A   1      45.091  29.307  31.362  1.00  0.00     0.049 A 
ATOM     62  H   UNL A   1      45.065  27.678  32.710  1.00  0.00     0.167 HD
ATOM     63  C   UNL A   1      45.068  27.525  29.640  1.00  0.00     0.074 A 
ATOM     64  C   UNL A   1      44.421  26.416  30.332  1.00  0.00     0.031 C 
ATOM     65  C   UNL A   1      45.436  28.769  30.069  1.00  0.00     0.037 A 
BRANCH  52  66
ATOM     66  C   UNL A   1      42.496  27.468  34.492  1.00  0.00     0.057 A 
ATOM     67  C   UNL A   1      42.912  26.153  34.231  1.00  0.00     0.134 A 
ATOM     68  C   UNL A   1      41.877  27.676  35.740  1.00  0.00     0.134 A 
ATOM     69  F   UNL A   1      43.472  25.829  33.056  1.00  0.00    -0.206 F 
ATOM     70  C   UNL A   1      42.715  25.113  35.149  1.00  0.00     0.040 A 
ATOM     71  C   UNL A   1      41.715  26.656  36.682  1.00  0.00     0.040 A 
ATOM     72  F   UNL A   1      41.327  28.856  36.062  1.00  0.00    -0.206 F 
ATOM     73  C   UNL A   1      42.119  25.364  36.381  1.00  0.00     0.006 A 
ENDBRANCH  52  66
BRANCH  53  74
ATOM     74  C   UNL A   1      42.902  24.835  26.410  1.00  0.00     0.057 A 
ATOM     75  C   UNL A   1      43.762  24.470  25.368  1.00  0.00     0.134 A 
ATOM     76  C   UNL A   1      42.035  23.831  26.880  1.00  0.00     0.134 A 
ATOM     77  F   UNL A   1      44.659  25.345  24.892  1.00  0.00    -0.206 F 
ATOM     78  C   UNL A   1      43.763  23.179  24.826  1.00  0.00     0.040 A 
ATOM     79  C   UNL A   1      42.016  22.543  26.341  1.00  0.00     0.040 A 
ATOM     80  F   UNL A   1      41.237  24.041  27.937  1.00  0.00    -0.206 F 
ATOM     81  C   UNL A   1      42.892  22.209  25.316  1.00  0.00     0.006 A 
ENDBRANCH  53  74
BRANCH  65  82
ATOM     82  C   UNL A   1      45.937  29.747  29.044  1.00  0.00     0.057 A 
ATOM     83  C   UNL A   1      47.286  29.836  28.665  1.00  0.00     0.134 A 
ATOM     84  C   UNL A   1      45.019  30.494  28.299  1.00  0.00     0.134 A 
ATOM     85  F   UNL A   1      48.219  29.073  29.248  1.00  0.00    -0.206 F 
ATOM     86  C   UNL A   1      47.706  30.668  27.624  1.00  0.00     0.040 A 
ATOM     87  C   UNL A   1      45.422  31.305  27.235  1.00  0.00     0.040 A 
ATOM     88  F   UNL A   1      43.705  30.405  28.559  1.00  0.00    -0.206 F 
ATOM     89  C   UNL A   1      46.772  31.401  26.900  1.00  0.00     0.006 A 
ENDBRANCH  65  82
ENDBRANCH  39  40
ENDBRANCH  31  34
ENDBRANCH  29  30
ENDBRANCH  28  29
ENDBRANCH   1  28
TORSDOF 13
ENDMDL
