MODEL 1
REMARK VINA RESULT:     -11.2      0.000      0.000
REMARK SMILES CC(=O)NCCNC(=O)C[N@H+]1CC[C@@H](C(=O)NCCCNC(=O)c2ccc(-c3c4nc(c(-c5c(F)cccc5F)c5ccc([nH]5)c(-c5c(F)cccc5F)c5nc(c(-c6c(F)cccc6F)c6ccc3[nH]6)C=C5)C=C4)cc2)[C@H]1C
REMARK SMILES IDX 15 1 16 2 17 3 14 5 11 6 12 7 78 8 13 10 79 11 10 12 8 13
REMARK SMILES IDX 7 14 9 16 6 17 5 18 4 19 1 20 2 21 3 22 18 24 19 25 20 26
REMARK SMILES IDX 21 27 22 28 23 30 24 31 25 32 77 33 26 34 76 35 27 36 28 37
REMARK SMILES IDX 29 38 70 39 30 40 75 41 69 42 71 43 31 44 74 45 68 46 67 47
REMARK SMILES IDX 32 49 58 50 41 51 57 52 42 53 45 54 56 55 72 56 43 57 44 58
REMARK SMILES IDX 55 60 73 61 46 62 33 63 34 64 39 65 35 66 36 67 38 68 40 69
REMARK SMILES IDX 37 70 59 71 60 72 65 73 61 74 62 75 64 76 66 77 63 78 47 79
REMARK SMILES IDX 48 80 53 81 49 82 50 83 52 84 54 85 51 86
REMARK H PARENT 17 4 11 9 7 15 4 23 21 29 71 48 45 59
REMARK Flexibility Score: inf
ROOT
ATOM      1  C   UNL A   1      33.186  27.274  22.787  1.00  0.00     0.229 C 
ATOM      2  O   UNL A   1      33.710  27.051  21.685  1.00  0.00    -0.275 OA
ATOM      3  N   UNL A   1      33.853  28.145  23.584  1.00  0.00    -0.356 N 
ATOM      4  H   UNL A   1      34.750  28.372  23.248  1.00  0.00     0.163 HD
ENDROOT
BRANCH   1   5
ATOM      5  C   UNL A   1      31.948  26.466  23.175  1.00  0.00     0.142 C 
ATOM      6  N   UNL A   1      31.372  25.135  25.081  1.00  0.00    -0.324 N 
ATOM      7  C   UNL A   1      30.434  26.239  25.083  1.00  0.00     0.263 C 
ATOM      8  C   UNL A   1      32.240  25.157  23.917  1.00  0.00     0.194 C 
ATOM      9  H   UNL A   1      30.853  24.272  24.917  1.00  0.00     0.348 HD
ATOM     10  C   UNL A   1      30.789  27.133  23.897  1.00  0.00     0.081 C 
ATOM     11  C   UNL A   1      33.703  24.858  24.164  1.00  0.00     0.076 C 
BRANCH   6  12
ATOM     12  C   UNL A   1      31.749  24.511  26.347  1.00  0.00     0.363 C 
BRANCH  12  13
ATOM     13  C   UNL A   1      30.883  23.297  26.709  1.00  0.00     0.275 C 
ATOM     14  N   UNL A   1      31.170  22.038  26.258  1.00  0.00    -0.349 N 
ATOM     15  H   UNL A   1      30.623  21.333  26.675  1.00  0.00     0.163 HD
ATOM     16  O   UNL A   1      29.887  23.408  27.435  1.00  0.00    -0.269 OA
BRANCH  14  17
ATOM     17  C   UNL A   1      32.131  21.534  25.280  1.00  0.00     0.137 C 
BRANCH  17  18
ATOM     18  C   UNL A   1      33.271  20.645  25.836  1.00  0.00     0.137 C 
BRANCH  18  19
ATOM     19  N   UNL A   1      32.877  19.293  26.187  1.00  0.00    -0.355 N 
ATOM     20  C   UNL A   1      33.230  18.348  23.927  1.00  0.00     0.114 C 
ATOM     21  C   UNL A   1      32.848  18.190  25.378  1.00  0.00     0.216 C 
ATOM     22  O   UNL A   1      32.545  17.103  25.852  1.00  0.00    -0.275 OA
ATOM     23  H   UNL A   1      32.595  19.152  27.120  1.00  0.00     0.163 HD
ENDBRANCH  18  19
ENDBRANCH  17  18
ENDBRANCH  14  17
ENDBRANCH  12  13
ENDBRANCH   6  12
ENDBRANCH   1   5
BRANCH   3  24
ATOM     24  C   UNL A   1      33.520  28.813  24.833  1.00  0.00     0.117 C 
BRANCH  24  25
ATOM     25  C   UNL A   1      33.965  28.071  26.092  1.00  0.00     0.042 C 
BRANCH  25  26
ATOM     26  C   UNL A   1      33.283  28.470  27.396  1.00  0.00     0.118 C 
BRANCH  26  27
ATOM     27  N   UNL A   1      33.414  29.889  27.679  1.00  0.00    -0.352 N 
ATOM     28  C   UNL A   1      34.464  30.616  28.186  1.00  0.00     0.251 C 
ATOM     29  H   UNL A   1      32.612  30.422  27.471  1.00  0.00     0.163 HD
ATOM     30  O   UNL A   1      34.249  31.771  28.553  1.00  0.00    -0.269 OA
BRANCH  28  31
ATOM     31  C   UNL A   1      35.844  30.074  28.309  1.00  0.00     0.039 A 
ATOM     32  C   UNL A   1      36.238  29.558  29.552  1.00  0.00     0.014 A 
ATOM     33  C   UNL A   1      36.797  30.175  27.291  1.00  0.00     0.014 A 
ATOM     34  C   UNL A   1      37.558  29.144  29.772  1.00  0.00     0.010 A 
ATOM     35  C   UNL A   1      38.103  29.703  27.491  1.00  0.00     0.010 A 
ATOM     36  C   UNL A   1      38.506  29.206  28.741  1.00  0.00    -0.014 A 
BRANCH  36  37
ATOM     37  C   UNL A   1      39.925  28.811  28.979  1.00  0.00     0.031 A 
ATOM     38  C   UNL A   1      40.880  29.764  29.654  1.00  0.00     0.074 A 
ATOM     39  C   UNL A   1      40.370  27.603  28.581  1.00  0.00     0.049 A 
ATOM     40  N   UNL A   1      42.156  29.614  29.915  1.00  0.00    -0.248 NA
ATOM     41  C   UNL A   1      40.332  31.062  30.077  1.00  0.00     0.031 C 
ATOM     42  C   UNL A   1      39.566  26.585  27.906  1.00  0.00     0.029 A 
ATOM     43  N   UNL A   1      41.615  27.028  28.685  1.00  0.00    -0.354 N 
ATOM     44  C   UNL A   1      42.564  30.801  30.515  1.00  0.00     0.074 A 
ATOM     45  C   UNL A   1      41.411  31.674  30.542  1.00  0.00     0.031 C 
ATOM     46  C   UNL A   1      40.330  25.506  27.671  1.00  0.00     0.029 A 
ATOM     47  C   UNL A   1      41.687  25.765  28.149  1.00  0.00     0.049 A 
ATOM     48  H   UNL A   1      42.383  27.478  29.105  1.00  0.00     0.167 HD
ATOM     49  C   UNL A   1      43.780  31.128  31.018  1.00  0.00     0.037 A 
ATOM     50  C   UNL A   1      42.724  24.912  28.047  1.00  0.00     0.037 A 
ATOM     51  C   UNL A   1      44.926  30.255  31.021  1.00  0.00     0.049 A 
ATOM     52  C   UNL A   1      44.068  25.304  28.600  1.00  0.00     0.074 A 
ATOM     53  C   UNL A   1      46.185  30.486  31.549  1.00  0.00     0.029 A 
ATOM     54  N   UNL A   1      44.952  28.983  30.472  1.00  0.00    -0.354 N 
ATOM     55  N   UNL A   1      44.423  26.409  29.205  1.00  0.00    -0.248 NA
ATOM     56  C   UNL A   1      45.154  24.320  28.462  1.00  0.00     0.031 C 
ATOM     57  C   UNL A   1      46.985  29.369  31.284  1.00  0.00     0.029 A 
ATOM     58  C   UNL A   1      46.210  28.425  30.632  1.00  0.00     0.049 A 
ATOM     59  H   UNL A   1      44.189  28.541  30.034  1.00  0.00     0.167 HD
ATOM     60  C   UNL A   1      45.759  26.244  29.548  1.00  0.00     0.074 A 
ATOM     61  C   UNL A   1      46.150  24.927  29.092  1.00  0.00     0.031 C 
ATOM     62  C   UNL A   1      46.587  27.108  30.186  1.00  0.00     0.037 A 
BRANCH  49  63
ATOM     63  C   UNL A   1      43.938  32.499  31.611  1.00  0.00     0.057 A 
ATOM     64  C   UNL A   1      43.707  32.748  32.970  1.00  0.00     0.134 A 
ATOM     65  C   UNL A   1      44.363  33.576  30.821  1.00  0.00     0.134 A 
ATOM     66  F   UNL A   1      43.290  31.762  33.780  1.00  0.00    -0.206 F 
ATOM     67  C   UNL A   1      43.866  34.022  33.517  1.00  0.00     0.040 A 
ATOM     68  C   UNL A   1      44.553  34.849  31.363  1.00  0.00     0.040 A 
ATOM     69  F   UNL A   1      44.614  33.406  29.515  1.00  0.00    -0.206 F 
ATOM     70  C   UNL A   1      44.297  35.076  32.714  1.00  0.00     0.006 A 
ENDBRANCH  49  63
BRANCH  50  71
ATOM     71  C   UNL A   1      42.534  23.585  27.409  1.00  0.00     0.057 A 
ATOM     72  C   UNL A   1      42.237  22.450  28.174  1.00  0.00     0.134 A 
ATOM     73  C   UNL A   1      42.657  23.415  26.025  1.00  0.00     0.134 A 
ATOM     74  F   UNL A   1      42.129  22.547  29.507  1.00  0.00    -0.206 F 
ATOM     75  C   UNL A   1      42.088  21.192  27.590  1.00  0.00     0.040 A 
ATOM     76  C   UNL A   1      42.487  22.166  25.424  1.00  0.00     0.040 A 
ATOM     77  F   UNL A   1      42.937  24.463  25.236  1.00  0.00    -0.206 F 
ATOM     78  C   UNL A   1      42.208  21.049  26.209  1.00  0.00     0.006 A 
ENDBRANCH  50  71
BRANCH  62  79
ATOM     79  C   UNL A   1      47.986  26.643  30.467  1.00  0.00     0.057 A 
ATOM     80  C   UNL A   1      48.306  25.913  31.619  1.00  0.00     0.134 A 
ATOM     81  C   UNL A   1      49.017  26.896  29.554  1.00  0.00     0.134 A 
ATOM     82  F   UNL A   1      47.368  25.648  32.540  1.00  0.00    -0.206 F 
ATOM     83  C   UNL A   1      49.608  25.471  31.863  1.00  0.00     0.040 A 
ATOM     84  C   UNL A   1      50.317  26.438  29.775  1.00  0.00     0.040 A 
ATOM     85  F   UNL A   1      48.776  27.583  28.427  1.00  0.00    -0.206 F 
ATOM     86  C   UNL A   1      50.617  25.729  30.936  1.00  0.00     0.006 A 
ENDBRANCH  62  79
ENDBRANCH  36  37
ENDBRANCH  28  31
ENDBRANCH  26  27
ENDBRANCH  25  26
ENDBRANCH  24  25
ENDBRANCH   3  24
TORSDOF 15
ENDMDL
MODEL 2
REMARK VINA RESULT:     -10.9      3.738      7.911
REMARK SMILES CC(=O)NCCNC(=O)C[N@H+]1CC[C@@H](C(=O)NCCCNC(=O)c2ccc(-c3c4nc(c(-c5c(F)cccc5F)c5ccc([nH]5)c(-c5c(F)cccc5F)c5nc(c(-c6c(F)cccc6F)c6ccc3[nH]6)C=C5)C=C4)cc2)[C@H]1C
REMARK SMILES IDX 15 1 16 2 17 3 14 5 11 6 12 7 78 8 13 10 79 11 10 12 8 13
REMARK SMILES IDX 7 14 9 16 6 17 5 18 4 19 1 20 2 21 3 22 18 24 19 25 20 26
REMARK SMILES IDX 21 27 22 28 23 30 24 31 25 32 77 33 26 34 76 35 27 36 28 37
REMARK SMILES IDX 29 38 70 39 30 40 75 41 69 42 71 43 31 44 74 45 68 46 67 47
REMARK SMILES IDX 32 49 58 50 41 51 57 52 42 53 45 54 56 55 72 56 43 57 44 58
REMARK SMILES IDX 55 60 73 61 46 62 33 63 34 64 39 65 35 66 36 67 38 68 40 69
REMARK SMILES IDX 37 70 59 71 60 72 65 73 61 74 62 75 64 76 66 77 63 78 47 79
REMARK SMILES IDX 48 80 53 81 49 82 50 83 52 84 54 85 51 86
REMARK H PARENT 17 4 11 9 7 15 4 23 21 29 71 48 45 59
REMARK Flexibility Score: inf
ROOT
ATOM      1  C   UNL A   1      32.359  28.934  24.901  1.00  0.00     0.229 C 
ATOM      2  O   UNL A   1      32.679  28.760  23.716  1.00  0.00    -0.275 OA
ATOM      3  N   UNL A   1      31.920  30.181  25.209  1.00  0.00    -0.356 N 
ATOM      4  H   UNL A   1      32.058  30.832  24.484  1.00  0.00     0.163 HD
ENDROOT
BRANCH   1   5
ATOM      5  C   UNL A   1      32.609  27.798  25.893  1.00  0.00     0.142 C 
ATOM      6  N   UNL A   1      32.093  25.460  25.895  1.00  0.00    -0.324 N 
ATOM      7  C   UNL A   1      33.540  25.536  25.890  1.00  0.00     0.263 C 
ATOM      8  C   UNL A   1      31.476  26.771  25.994  1.00  0.00     0.194 C 
ATOM      9  H   UNL A   1      31.796  25.041  26.776  1.00  0.00     0.348 HD
ATOM     10  C   UNL A   1      33.911  27.017  25.855  1.00  0.00     0.081 C 
ATOM     11  C   UNL A   1      30.283  27.022  25.097  1.00  0.00     0.076 C 
BRANCH   6  12
ATOM     12  C   UNL A   1      31.433  24.311  25.279  1.00  0.00     0.363 C 
BRANCH  12  13
ATOM     13  C   UNL A   1      30.972  23.258  26.296  1.00  0.00     0.275 C 
ATOM     14  N   UNL A   1      31.372  21.952  26.222  1.00  0.00    -0.349 N 
ATOM     15  H   UNL A   1      31.121  21.415  27.009  1.00  0.00     0.163 HD
ATOM     16  O   UNL A   1      30.222  23.551  27.234  1.00  0.00    -0.269 OA
BRANCH  14  17
ATOM     17  C   UNL A   1      32.099  21.197  25.204  1.00  0.00     0.137 C 
BRANCH  17  18
ATOM     18  C   UNL A   1      33.254  20.300  25.712  1.00  0.00     0.137 C 
BRANCH  18  19
ATOM     19  N   UNL A   1      32.862  18.959  26.105  1.00  0.00    -0.355 N 
ATOM     20  C   UNL A   1      33.108  17.971  23.848  1.00  0.00     0.114 C 
ATOM     21  C   UNL A   1      32.787  17.843  25.317  1.00  0.00     0.216 C 
ATOM     22  O   UNL A   1      32.493  16.768  25.824  1.00  0.00    -0.275 OA
ATOM     23  H   UNL A   1      32.619  18.838  27.051  1.00  0.00     0.163 HD
ENDBRANCH  18  19
ENDBRANCH  17  18
ENDBRANCH  14  17
ENDBRANCH  12  13
ENDBRANCH   6  12
ENDBRANCH   1   5
BRANCH   3  24
ATOM     24  C   UNL A   1      31.290  30.756  26.387  1.00  0.00     0.117 C 
BRANCH  24  25
ATOM     25  C   UNL A   1      31.386  32.277  26.484  1.00  0.00     0.042 C 
BRANCH  25  26
ATOM     26  C   UNL A   1      32.619  32.841  27.182  1.00  0.00     0.118 C 
BRANCH  26  27
ATOM     27  N   UNL A   1      32.449  34.230  27.572  1.00  0.00    -0.352 N 
ATOM     28  C   UNL A   1      32.998  34.953  28.602  1.00  0.00     0.251 C 
ATOM     29  H   UNL A   1      31.832  34.741  26.999  1.00  0.00     0.163 HD
ATOM     30  O   UNL A   1      32.516  36.054  28.864  1.00  0.00    -0.269 OA
BRANCH  28  31
ATOM     31  C   UNL A   1      34.148  34.467  29.413  1.00  0.00     0.039 A 
ATOM     32  C   UNL A   1      35.420  34.481  28.822  1.00  0.00     0.014 A 
ATOM     33  C   UNL A   1      33.999  33.882  30.674  1.00  0.00     0.014 A 
ATOM     34  C   UNL A   1      36.524  33.926  29.482  1.00  0.00     0.010 A 
ATOM     35  C   UNL A   1      35.115  33.384  31.362  1.00  0.00     0.010 A 
ATOM     36  C   UNL A   1      36.385  33.375  30.765  1.00  0.00    -0.014 A 
BRANCH  36  37
ATOM     37  C   UNL A   1      37.545  32.741  31.456  1.00  0.00     0.031 A 
ATOM     38  C   UNL A   1      38.229  31.539  30.854  1.00  0.00     0.074 A 
ATOM     39  C   UNL A   1      37.985  33.229  32.633  1.00  0.00     0.049 A 
ATOM     40  N   UNL A   1      39.228  30.831  31.323  1.00  0.00    -0.248 NA
ATOM     41  C   UNL A   1      37.713  31.061  29.563  1.00  0.00     0.031 C 
ATOM     42  C   UNL A   1      37.415  34.376  33.340  1.00  0.00     0.029 A 
ATOM     43  N   UNL A   1      39.015  32.817  33.446  1.00  0.00    -0.354 N 
ATOM     44  C   UNL A   1      39.446  29.819  30.395  1.00  0.00     0.074 A 
ATOM     45  C   UNL A   1      38.450  29.980  29.358  1.00  0.00     0.031 C 
ATOM     46  C   UNL A   1      38.110  34.586  34.469  1.00  0.00     0.029 A 
ATOM     47  C   UNL A   1      39.155  33.571  34.585  1.00  0.00     0.049 A 
ATOM     48  H   UNL A   1      39.597  32.053  33.231  1.00  0.00     0.167 HD
ATOM     49  C   UNL A   1      40.400  28.854  30.393  1.00  0.00     0.037 A 
ATOM     50  C   UNL A   1      40.021  33.460  35.610  1.00  0.00     0.037 A 
ATOM     51  C   UNL A   1      41.413  28.704  31.406  1.00  0.00     0.049 A 
ATOM     52  C   UNL A   1      41.062  32.373  35.592  1.00  0.00     0.074 A 
ATOM     53  C   UNL A   1      42.446  27.783  31.462  1.00  0.00     0.029 A 
ATOM     54  N   UNL A   1      41.520  29.493  32.539  1.00  0.00    -0.354 N 
ATOM     55  N   UNL A   1      41.283  31.455  34.685  1.00  0.00    -0.248 NA
ATOM     56  C   UNL A   1      41.981  32.315  36.740  1.00  0.00     0.031 C 
ATOM     57  C   UNL A   1      43.155  27.992  32.650  1.00  0.00     0.029 A 
ATOM     58  C   UNL A   1      42.591  29.070  33.310  1.00  0.00     0.049 A 
ATOM     59  H   UNL A   1      40.924  30.244  32.764  1.00  0.00     0.167 HD
ATOM     60  C   UNL A   1      42.381  30.732  35.134  1.00  0.00     0.074 A 
ATOM     61  C   UNL A   1      42.788  31.323  36.391  1.00  0.00     0.031 C 
ATOM     62  C   UNL A   1      42.997  29.672  34.554  1.00  0.00     0.037 A 
BRANCH  49  63
ATOM     63  C   UNL A   1      40.394  27.878  29.251  1.00  0.00     0.057 A 
ATOM     64  C   UNL A   1      39.578  26.739  29.256  1.00  0.00     0.134 A 
ATOM     65  C   UNL A   1      41.184  28.100  28.116  1.00  0.00     0.134 A 
ATOM     66  F   UNL A   1      38.803  26.463  30.316  1.00  0.00    -0.206 F 
ATOM     67  C   UNL A   1      39.570  25.842  28.187  1.00  0.00     0.040 A 
ATOM     68  C   UNL A   1      41.164  27.225  27.029  1.00  0.00     0.040 A 
ATOM     69  F   UNL A   1      41.980  29.178  28.039  1.00  0.00    -0.206 F 
ATOM     70  C   UNL A   1      40.360  26.087  27.066  1.00  0.00     0.006 A 
ENDBRANCH  49  63
BRANCH  50  71
ATOM     71  C   UNL A   1      39.958  34.418  36.743  1.00  0.00     0.057 A 
ATOM     72  C   UNL A   1      39.218  34.127  37.896  1.00  0.00     0.134 A 
ATOM     73  C   UNL A   1      40.621  35.650  36.697  1.00  0.00     0.134 A 
ATOM     74  F   UNL A   1      38.542  32.972  37.989  1.00  0.00    -0.206 F 
ATOM     75  C   UNL A   1      39.123  35.032  38.953  1.00  0.00     0.040 A 
ATOM     76  C   UNL A   1      40.555  36.555  37.758  1.00  0.00     0.040 A 
ATOM     77  F   UNL A   1      41.350  35.987  35.622  1.00  0.00    -0.206 F 
ATOM     78  C   UNL A   1      39.799  36.250  38.887  1.00  0.00     0.006 A 
ENDBRANCH  50  71
BRANCH  62  79
ATOM     79  C   UNL A   1      44.203  29.110  35.249  1.00  0.00     0.057 A 
ATOM     80  C   UNL A   1      45.501  29.541  34.946  1.00  0.00     0.134 A 
ATOM     81  C   UNL A   1      44.059  28.152  36.260  1.00  0.00     0.134 A 
ATOM     82  F   UNL A   1      45.709  30.446  33.978  1.00  0.00    -0.206 F 
ATOM     83  C   UNL A   1      46.615  29.022  35.610  1.00  0.00     0.040 A 
ATOM     84  C   UNL A   1      45.162  27.644  36.949  1.00  0.00     0.040 A 
ATOM     85  F   UNL A   1      42.843  27.703  36.605  1.00  0.00    -0.206 F 
ATOM     86  C   UNL A   1      46.446  28.075  36.619  1.00  0.00     0.006 A 
ENDBRANCH  62  79
ENDBRANCH  36  37
ENDBRANCH  28  31
ENDBRANCH  26  27
ENDBRANCH  25  26
ENDBRANCH  24  25
ENDBRANCH   3  24
TORSDOF 15
ENDMDL
MODEL 3
REMARK VINA RESULT:     -10.8      2.280      7.627
REMARK SMILES CC(=O)NCCNC(=O)C[N@H+]1CC[C@@H](C(=O)NCCCNC(=O)c2ccc(-c3c4nc(c(-c5c(F)cccc5F)c5ccc([nH]5)c(-c5c(F)cccc5F)c5nc(c(-c6c(F)cccc6F)c6ccc3[nH]6)C=C5)C=C4)cc2)[C@H]1C
REMARK SMILES IDX 15 1 16 2 17 3 14 5 11 6 12 7 78 8 13 10 79 11 10 12 8 13
REMARK SMILES IDX 7 14 9 16 6 17 5 18 4 19 1 20 2 21 3 22 18 24 19 25 20 26
REMARK SMILES IDX 21 27 22 28 23 30 24 31 25 32 77 33 26 34 76 35 27 36 28 37
REMARK SMILES IDX 29 38 70 39 30 40 75 41 69 42 71 43 31 44 74 45 68 46 67 47
REMARK SMILES IDX 32 49 58 50 41 51 57 52 42 53 45 54 56 55 72 56 43 57 44 58
REMARK SMILES IDX 55 60 73 61 46 62 33 63 34 64 39 65 35 66 36 67 38 68 40 69
REMARK SMILES IDX 37 70 59 71 60 72 65 73 61 74 62 75 64 76 66 77 63 78 47 79
REMARK SMILES IDX 48 80 53 81 49 82 50 83 52 84 54 85 51 86
REMARK H PARENT 17 4 11 9 7 15 4 23 21 29 71 48 45 59
REMARK Flexibility Score: inf
ROOT
ATOM      1  C   UNL A   1      34.914  21.825  25.759  1.00  0.00     0.229 C 
ATOM      2  O   UNL A   1      34.190  22.074  26.734  1.00  0.00    -0.275 OA
ATOM      3  N   UNL A   1      35.491  20.597  25.760  1.00  0.00    -0.356 N 
ATOM      4  H   UNL A   1      35.383  20.117  26.613  1.00  0.00     0.163 HD
ENDROOT
BRANCH   1   5
ATOM      5  C   UNL A   1      35.181  22.943  24.752  1.00  0.00     0.142 C 
ATOM      6  N   UNL A   1      33.769  24.294  23.367  1.00  0.00    -0.324 N 
ATOM      7  C   UNL A   1      34.402  25.215  24.289  1.00  0.00     0.263 C 
ATOM      8  C   UNL A   1      34.262  22.937  23.525  1.00  0.00     0.194 C 
ATOM      9  H   UNL A   1      34.094  24.507  22.424  1.00  0.00     0.348 HD
ATOM     10  C   UNL A   1      35.290  24.386  25.215  1.00  0.00     0.081 C 
ATOM     11  C   UNL A   1      33.223  21.837  23.491  1.00  0.00     0.076 C 
BRANCH   6  12
ATOM     12  C   UNL A   1      32.444  24.606  22.838  1.00  0.00     0.363 C 
BRANCH  12  13
ATOM     13  C   UNL A   1      32.483  25.478  21.575  1.00  0.00     0.275 C 
ATOM     14  N   UNL A   1      31.791  26.654  21.482  1.00  0.00    -0.349 N 
ATOM     15  H   UNL A   1      32.013  27.182  20.681  1.00  0.00     0.163 HD
ATOM     16  O   UNL A   1      33.153  25.155  20.588  1.00  0.00    -0.269 OA
BRANCH  14  17
ATOM     17  C   UNL A   1      30.788  27.282  22.340  1.00  0.00     0.137 C 
BRANCH  17  18
ATOM     18  C   UNL A   1      31.041  28.761  22.719  1.00  0.00     0.137 C 
BRANCH  18  19
ATOM     19  N   UNL A   1      31.716  28.961  23.989  1.00  0.00    -0.355 N 
ATOM     20  C   UNL A   1      34.008  28.773  23.072  1.00  0.00     0.114 C 
ATOM     21  C   UNL A   1      33.063  28.996  24.227  1.00  0.00     0.216 C 
ATOM     22  O   UNL A   1      33.468  29.237  25.356  1.00  0.00    -0.275 OA
ATOM     23  H   UNL A   1      31.135  29.086  24.773  1.00  0.00     0.163 HD
ENDBRANCH  18  19
ENDBRANCH  17  18
ENDBRANCH  14  17
ENDBRANCH  12  13
ENDBRANCH   6  12
ENDBRANCH   1   5
BRANCH   3  24
ATOM     24  C   UNL A   1      36.238  19.842  24.765  1.00  0.00     0.117 C 
BRANCH  24  25
ATOM     25  C   UNL A   1      37.697  20.264  24.607  1.00  0.00     0.042 C 
BRANCH  25  26
ATOM     26  C   UNL A   1      38.529  20.334  25.883  1.00  0.00     0.118 C 
BRANCH  26  27
ATOM     27  N   UNL A   1      39.661  19.423  25.858  1.00  0.00    -0.352 N 
ATOM     28  C   UNL A   1      41.006  19.649  26.014  1.00  0.00     0.251 C 
ATOM     29  H   UNL A   1      39.421  18.481  25.701  1.00  0.00     0.163 HD
ATOM     30  O   UNL A   1      41.788  18.746  25.717  1.00  0.00    -0.269 OA
BRANCH  28  31
ATOM     31  C   UNL A   1      41.561  20.932  26.525  1.00  0.00     0.039 A 
ATOM     32  C   UNL A   1      41.507  21.166  27.907  1.00  0.00     0.014 A 
ATOM     33  C   UNL A   1      42.007  21.958  25.687  1.00  0.00     0.014 A 
ATOM     34  C   UNL A   1      41.899  22.400  28.442  1.00  0.00     0.010 A 
ATOM     35  C   UNL A   1      42.459  23.171  26.228  1.00  0.00     0.010 A 
ATOM     36  C   UNL A   1      42.386  23.417  27.608  1.00  0.00    -0.014 A 
BRANCH  36  37
ATOM     37  C   UNL A   1      42.761  24.749  28.163  1.00  0.00     0.031 A 
ATOM     38  C   UNL A   1      41.711  25.810  28.381  1.00  0.00     0.074 A 
ATOM     39  C   UNL A   1      44.047  25.023  28.463  1.00  0.00     0.049 A 
ATOM     40  N   UNL A   1      41.850  27.037  28.819  1.00  0.00    -0.248 NA
ATOM     41  C   UNL A   1      40.325  25.447  28.047  1.00  0.00     0.031 C 
ATOM     42  C   UNL A   1      45.170  24.102  28.294  1.00  0.00     0.029 A 
ATOM     43  N   UNL A   1      44.625  26.162  28.972  1.00  0.00    -0.354 N 
ATOM     44  C   UNL A   1      40.576  27.596  28.798  1.00  0.00     0.074 A 
ATOM     45  C   UNL A   1      39.686  26.587  28.264  1.00  0.00     0.031 C 
ATOM     46  C   UNL A   1      46.297  24.703  28.706  1.00  0.00     0.029 A 
ATOM     47  C   UNL A   1      45.985  26.063  29.139  1.00  0.00     0.049 A 
ATOM     48  H   UNL A   1      44.113  26.972  29.197  1.00  0.00     0.167 HD
ATOM     49  C   UNL A   1      40.177  28.826  29.203  1.00  0.00     0.037 A 
ATOM     50  C   UNL A   1      46.882  26.964  29.584  1.00  0.00     0.037 A 
ATOM     51  C   UNL A   1      41.051  29.827  29.762  1.00  0.00     0.049 A 
ATOM     52  C   UNL A   1      46.417  28.329  30.016  1.00  0.00     0.074 A 
ATOM     53  C   UNL A   1      40.726  31.085  30.241  1.00  0.00     0.029 A 
ATOM     54  N   UNL A   1      42.420  29.682  29.917  1.00  0.00    -0.354 N 
ATOM     55  N   UNL A   1      45.205  28.822  30.032  1.00  0.00    -0.248 NA
ATOM     56  C   UNL A   1      47.450  29.259  30.499  1.00  0.00     0.031 C 
ATOM     57  C   UNL A   1      41.906  31.717  30.650  1.00  0.00     0.029 A 
ATOM     58  C   UNL A   1      42.958  30.835  30.467  1.00  0.00     0.049 A 
ATOM     59  H   UNL A   1      42.935  28.879  29.672  1.00  0.00     0.167 HD
ATOM     60  C   UNL A   1      45.322  30.104  30.555  1.00  0.00     0.074 A 
ATOM     61  C   UNL A   1      46.724  30.310  30.853  1.00  0.00     0.031 C 
ATOM     62  C   UNL A   1      44.352  31.027  30.771  1.00  0.00     0.037 A 
BRANCH  49  63
ATOM     63  C   UNL A   1      38.721  29.165  29.057  1.00  0.00     0.057 A 
ATOM     64  C   UNL A   1      37.837  29.113  30.143  1.00  0.00     0.134 A 
ATOM     65  C   UNL A   1      38.204  29.588  27.826  1.00  0.00     0.134 A 
ATOM     66  F   UNL A   1      38.266  28.709  31.349  1.00  0.00    -0.206 F 
ATOM     67  C   UNL A   1      36.488  29.440  30.003  1.00  0.00     0.040 A 
ATOM     68  C   UNL A   1      36.862  29.944  27.679  1.00  0.00     0.040 A 
ATOM     69  F   UNL A   1      38.998  29.673  26.747  1.00  0.00    -0.206 F 
ATOM     70  C   UNL A   1      35.998  29.863  28.769  1.00  0.00     0.006 A 
ENDBRANCH  49  63
BRANCH  50  71
ATOM     71  C   UNL A   1      48.320  26.601  29.666  1.00  0.00     0.057 A 
ATOM     72  C   UNL A   1      49.202  26.903  28.620  1.00  0.00     0.134 A 
ATOM     73  C   UNL A   1      48.844  25.934  30.778  1.00  0.00     0.134 A 
ATOM     74  F   UNL A   1      48.753  27.521  27.518  1.00  0.00    -0.206 F 
ATOM     75  C   UNL A   1      50.547  26.539  28.670  1.00  0.00     0.040 A 
ATOM     76  C   UNL A   1      50.195  25.585  30.852  1.00  0.00     0.040 A 
ATOM     77  F   UNL A   1      48.053  25.619  31.815  1.00  0.00    -0.206 F 
ATOM     78  C   UNL A   1      51.049  25.882  29.792  1.00  0.00     0.006 A 
ENDBRANCH  50  71
BRANCH  62  79
ATOM     79  C   UNL A   1      44.764  32.327  31.396  1.00  0.00     0.057 A 
ATOM     80  C   UNL A   1      44.804  32.502  32.786  1.00  0.00     0.134 A 
ATOM     81  C   UNL A   1      45.163  33.406  30.597  1.00  0.00     0.134 A 
ATOM     82  F   UNL A   1      44.423  31.513  33.607  1.00  0.00    -0.206 F 
ATOM     83  C   UNL A   1      45.205  33.712  33.357  1.00  0.00     0.040 A 
ATOM     84  C   UNL A   1      45.589  34.612  31.156  1.00  0.00     0.040 A 
ATOM     85  F   UNL A   1      45.156  33.302  29.260  1.00  0.00    -0.206 F 
ATOM     86  C   UNL A   1      45.604  34.769  32.541  1.00  0.00     0.006 A 
ENDBRANCH  62  79
ENDBRANCH  36  37
ENDBRANCH  28  31
ENDBRANCH  26  27
ENDBRANCH  25  26
ENDBRANCH  24  25
ENDBRANCH   3  24
TORSDOF 15
ENDMDL
