MODEL 1
REMARK VINA RESULT:     -10.4      0.000      0.000
REMARK SMILES C=CC[N@@H+](CC(=O)NCCCNC(=O)c1ccc(-c2c3nc(c(-c4c(F)cccc4F)c4ccc([nH]4)c(-c4c(F)cccc4F)c4nc(c(-c5c(F)cccc5F)c5ccc2[nH]5)C=C4)C=C3)cc1)C[C@H]1CCC[C@H](C)C1
REMARK SMILES IDX 9 1 8 2 6 3 7 4 5 6 4 7 3 9 2 10 1 11 69 12 70 13 71 14
REMARK SMILES IDX 76 15 72 16 74 17 73 18 75 19 10 20 11 21 12 22 13 23 14 25
REMARK SMILES IDX 15 26 16 27 68 28 17 29 67 30 18 31 19 32 20 33 61 34 21 35
REMARK SMILES IDX 66 36 60 37 62 38 22 39 65 40 59 41 58 42 23 44 49 45 32 46
REMARK SMILES IDX 48 47 33 48 36 49 47 50 63 51 34 52 35 53 46 55 64 56 37 57
REMARK SMILES IDX 24 58 25 59 30 60 26 61 27 62 29 63 31 64 28 65 50 66 51 67
REMARK SMILES IDX 56 68 52 69 53 70 55 71 57 72 54 73 38 74 39 75 44 76 40 77
REMARK SMILES IDX 41 78 43 79 45 80 42 81
REMARK H PARENT 8 5 4 8 12 24 62 43 36 54
REMARK Flexibility Score: inf
ROOT
ATOM      1  C   UNL A   1      31.043  30.394  25.629  1.00  0.00     0.118 C 
ENDROOT
BRANCH   1   2
ATOM      2  N   UNL A   1      32.244  30.015  24.918  1.00  0.00    -0.351 N 
ATOM      3  C   UNL A   1      32.585  28.895  24.238  1.00  0.00     0.275 C 
ATOM      4  O   UNL A   1      33.515  29.058  23.438  1.00  0.00    -0.269 OA
ATOM      5  H   UNL A   1      32.947  30.705  24.929  1.00  0.00     0.163 HD
BRANCH   3   6
ATOM      6  C   UNL A   1      31.849  27.549  24.341  1.00  0.00     0.363 C 
BRANCH   6   7
ATOM      7  N   UNL A   1      30.442  27.469  23.859  1.00  0.00    -0.324 N 
ATOM      8  H   UNL A   1      29.943  28.168  24.409  1.00  0.00     0.348 HD
BRANCH   7   9
ATOM      9  C   UNL A   1      29.882  26.143  24.136  1.00  0.00     0.290 C 
BRANCH   9  10
ATOM     10  C   UNL A   1      30.847  24.997  24.239  1.00  0.00     0.025 C 
ATOM     11  C   UNL A   1      30.803  23.923  23.437  1.00  0.00     0.010 C 
ENDBRANCH   9  10
ENDBRANCH   7   9
BRANCH   7  12
ATOM     12  C   UNL A   1      30.172  27.940  22.488  1.00  0.00     0.266 C 
BRANCH  12  13
ATOM     13  C   UNL A   1      29.103  29.061  22.270  1.00  0.00     0.044 C 
ATOM     14  C   UNL A   1      28.122  29.170  23.445  1.00  0.00     0.009 C 
ATOM     15  C   UNL A   1      29.836  30.406  22.047  1.00  0.00     0.012 C 
ATOM     16  C   UNL A   1      27.273  30.434  23.505  1.00  0.00     0.001 C 
ATOM     17  C   UNL A   1      28.921  31.639  22.027  1.00  0.00    -0.014 C 
ATOM     18  C   UNL A   1      28.098  31.695  23.314  1.00  0.00     0.003 C 
ATOM     19  C   UNL A   1      28.032  31.680  20.781  1.00  0.00     0.007 C 
ENDBRANCH  12  13
ENDBRANCH   7  12
ENDBRANCH   6   7
ENDBRANCH   3   6
ENDBRANCH   1   2
BRANCH   1  20
ATOM     20  C   UNL A   1      31.068  31.860  26.059  1.00  0.00     0.042 C 
BRANCH  20  21
ATOM     21  C   UNL A   1      32.270  32.240  26.914  1.00  0.00     0.118 C 
BRANCH  21  22
ATOM     22  N   UNL A   1      32.292  33.652  27.248  1.00  0.00    -0.352 N 
ATOM     23  C   UNL A   1      33.056  34.342  28.155  1.00  0.00     0.251 C 
ATOM     24  H   UNL A   1      31.654  34.205  26.742  1.00  0.00     0.163 HD
ATOM     25  O   UNL A   1      32.747  35.501  28.438  1.00  0.00    -0.269 OA
BRANCH  23  26
ATOM     26  C   UNL A   1      34.229  33.723  28.818  1.00  0.00     0.039 A 
ATOM     27  C   UNL A   1      34.026  32.595  29.619  1.00  0.00     0.014 A 
ATOM     28  C   UNL A   1      35.508  34.275  28.723  1.00  0.00     0.014 A 
ATOM     29  C   UNL A   1      35.106  31.999  30.280  1.00  0.00     0.010 A 
ATOM     30  C   UNL A   1      36.598  33.626  29.303  1.00  0.00     0.010 A 
ATOM     31  C   UNL A   1      36.408  32.494  30.106  1.00  0.00    -0.014 A 
BRANCH  31  32
ATOM     32  C   UNL A   1      37.572  31.866  30.788  1.00  0.00     0.031 A 
ATOM     33  C   UNL A   1      38.393  30.823  30.074  1.00  0.00     0.074 A 
ATOM     34  C   UNL A   1      37.860  32.189  32.064  1.00  0.00     0.049 A 
ATOM     35  N   UNL A   1      39.391  30.105  30.525  1.00  0.00    -0.248 NA
ATOM     36  C   UNL A   1      38.026  30.526  28.680  1.00  0.00     0.031 C 
ATOM     37  C   UNL A   1      37.117  33.146  32.885  1.00  0.00     0.029 A 
ATOM     38  N   UNL A   1      38.851  31.737  32.899  1.00  0.00    -0.354 N 
ATOM     39  C   UNL A   1      39.750  29.257  29.482  1.00  0.00     0.074 A 
ATOM     40  C   UNL A   1      38.835  29.517  28.393  1.00  0.00     0.031 C 
ATOM     41  C   UNL A   1      37.689  33.224  34.098  1.00  0.00     0.029 A 
ATOM     42  C   UNL A   1      38.815  32.299  34.153  1.00  0.00     0.049 A 
ATOM     43  H   UNL A   1      39.524  31.072  32.626  1.00  0.00     0.167 HD
ATOM     44  C   UNL A   1      40.764  28.362  29.427  1.00  0.00     0.037 A 
ATOM     45  C   UNL A   1      39.598  32.087  35.228  1.00  0.00     0.037 A 
ATOM     46  C   UNL A   1      41.707  28.140  30.491  1.00  0.00     0.049 A 
ATOM     47  C   UNL A   1      40.732  31.103  35.133  1.00  0.00     0.074 A 
ATOM     48  C   UNL A   1      42.815  27.310  30.500  1.00  0.00     0.029 A 
ATOM     49  N   UNL A   1      41.657  28.756  31.732  1.00  0.00    -0.354 N 
ATOM     50  N   UNL A   1      41.097  30.359  34.117  1.00  0.00    -0.248 NA
ATOM     51  C   UNL A   1      41.566  30.933  36.332  1.00  0.00     0.031 C 
ATOM     52  C   UNL A   1      43.415  27.397  31.761  1.00  0.00     0.029 A 
ATOM     53  C   UNL A   1      42.704  28.311  32.521  1.00  0.00     0.049 A 
ATOM     54  H   UNL A   1      40.977  29.411  32.009  1.00  0.00     0.167 HD
ATOM     55  C   UNL A   1      42.216  29.656  34.543  1.00  0.00     0.074 A 
ATOM     56  C   UNL A   1      42.479  30.071  35.905  1.00  0.00     0.031 C 
ATOM     57  C   UNL A   1      42.958  28.745  33.870  1.00  0.00     0.037 A 
BRANCH  44  58
ATOM     58  C   UNL A   1      40.920  27.561  28.168  1.00  0.00     0.057 A 
ATOM     59  C   UNL A   1      40.283  26.326  27.993  1.00  0.00     0.134 A 
ATOM     60  C   UNL A   1      41.675  28.056  27.096  1.00  0.00     0.134 A 
ATOM     61  F   UNL A   1      39.554  25.792  28.986  1.00  0.00    -0.206 F 
ATOM     62  C   UNL A   1      40.406  25.602  26.806  1.00  0.00     0.040 A 
ATOM     63  C   UNL A   1      41.785  27.352  25.895  1.00  0.00     0.040 A 
ATOM     64  F   UNL A   1      42.307  29.235  27.195  1.00  0.00    -0.206 F 
ATOM     65  C   UNL A   1      41.152  26.119  25.750  1.00  0.00     0.006 A 
ENDBRANCH  44  58
BRANCH  45  66
ATOM     66  C   UNL A   1      39.350  32.830  36.489  1.00  0.00     0.057 A 
ATOM     67  C   UNL A   1      40.022  34.027  36.766  1.00  0.00     0.134 A 
ATOM     68  C   UNL A   1      38.456  32.354  37.455  1.00  0.00     0.134 A 
ATOM     69  F   UNL A   1      40.905  34.523  35.887  1.00  0.00    -0.206 F 
ATOM     70  C   UNL A   1      39.831  34.713  37.967  1.00  0.00     0.040 A 
ATOM     71  C   UNL A   1      38.237  33.042  38.650  1.00  0.00     0.040 A 
ATOM     72  F   UNL A   1      37.777  31.216  37.248  1.00  0.00    -0.206 F 
ATOM     73  C   UNL A   1      38.933  34.221  38.913  1.00  0.00     0.006 A 
ENDBRANCH  45  66
BRANCH  57  74
ATOM     74  C   UNL A   1      44.143  28.162  34.580  1.00  0.00     0.057 A 
ATOM     75  C   UNL A   1      45.414  28.744  34.493  1.00  0.00     0.134 A 
ATOM     76  C   UNL A   1      44.000  27.031  35.393  1.00  0.00     0.134 A 
ATOM     77  F   UNL A   1      45.618  29.821  33.721  1.00  0.00    -0.206 F 
ATOM     78  C   UNL A   1      46.506  28.207  35.177  1.00  0.00     0.040 A 
ATOM     79  C   UNL A   1      45.079  26.500  36.100  1.00  0.00     0.040 A 
ATOM     80  F   UNL A   1      42.806  26.432  35.525  1.00  0.00    -0.206 F 
ATOM     81  C   UNL A   1      46.339  27.086  35.988  1.00  0.00     0.006 A 
ENDBRANCH  57  74
ENDBRANCH  31  32
ENDBRANCH  23  26
ENDBRANCH  21  22
ENDBRANCH  20  21
ENDBRANCH   1  20
TORSDOF 15
ENDMDL
MODEL 2
REMARK VINA RESULT:     -10.4      0.559      6.517
REMARK SMILES C=CC[N@@H+](CC(=O)NCCCNC(=O)c1ccc(-c2c3nc(c(-c4c(F)cccc4F)c4ccc([nH]4)c(-c4c(F)cccc4F)c4nc(c(-c5c(F)cccc5F)c5ccc2[nH]5)C=C4)C=C3)cc1)C[C@H]1CCC[C@H](C)C1
REMARK SMILES IDX 9 1 8 2 6 3 7 4 5 6 4 7 3 9 2 10 1 11 69 12 70 13 71 14
REMARK SMILES IDX 76 15 72 16 74 17 73 18 75 19 10 20 11 21 12 22 13 23 14 25
REMARK SMILES IDX 15 26 16 27 68 28 17 29 67 30 18 31 19 32 20 33 61 34 21 35
REMARK SMILES IDX 66 36 60 37 62 38 22 39 65 40 59 41 58 42 23 44 49 45 32 46
REMARK SMILES IDX 48 47 33 48 36 49 47 50 63 51 34 52 35 53 46 55 64 56 37 57
REMARK SMILES IDX 24 58 25 59 30 60 26 61 27 62 29 63 31 64 28 65 50 66 51 67
REMARK SMILES IDX 56 68 52 69 53 70 55 71 57 72 54 73 38 74 39 75 44 76 40 77
REMARK SMILES IDX 41 78 43 79 45 80 42 81
REMARK H PARENT 8 5 4 8 12 24 62 43 36 54
REMARK Flexibility Score: inf
ROOT
ATOM      1  C   UNL A   1      30.937  30.511  25.420  1.00  0.00     0.118 C 
ENDROOT
BRANCH   1   2
ATOM      2  N   UNL A   1      32.167  30.077  24.796  1.00  0.00    -0.351 N 
ATOM      3  C   UNL A   1      32.516  28.926  24.173  1.00  0.00     0.275 C 
ATOM      4  O   UNL A   1      33.496  29.037  23.427  1.00  0.00    -0.269 OA
ATOM      5  H   UNL A   1      32.888  30.748  24.828  1.00  0.00     0.163 HD
BRANCH   3   6
ATOM      6  C   UNL A   1      31.735  27.605  24.273  1.00  0.00     0.363 C 
BRANCH   6   7
ATOM      7  N   UNL A   1      30.312  27.584  23.837  1.00  0.00    -0.324 N 
ATOM      8  H   UNL A   1      29.866  28.322  24.382  1.00  0.00     0.348 HD
BRANCH   7   9
ATOM      9  C   UNL A   1      29.695  26.296  24.166  1.00  0.00     0.290 C 
BRANCH   9  10
ATOM     10  C   UNL A   1      30.612  25.121  24.347  1.00  0.00     0.025 C 
ATOM     11  C   UNL A   1      30.652  24.081  23.501  1.00  0.00     0.010 C 
ENDBRANCH   9  10
ENDBRANCH   7   9
BRANCH   7  12
ATOM     12  C   UNL A   1      30.023  28.033  22.462  1.00  0.00     0.266 C 
BRANCH  12  13
ATOM     13  C   UNL A   1      29.008  29.204  22.247  1.00  0.00     0.044 C 
ATOM     14  C   UNL A   1      28.075  29.399  23.449  1.00  0.00     0.009 C 
ATOM     15  C   UNL A   1      29.803  30.501  21.960  1.00  0.00     0.012 C 
ATOM     16  C   UNL A   1      27.297  30.708  23.500  1.00  0.00     0.001 C 
ATOM     17  C   UNL A   1      28.955  31.781  21.934  1.00  0.00    -0.014 C 
ATOM     18  C   UNL A   1      28.180  31.917  23.245  1.00  0.00     0.003 C 
ATOM     19  C   UNL A   1      28.027  31.836  20.717  1.00  0.00     0.007 C 
ENDBRANCH  12  13
ENDBRANCH   7  12
ENDBRANCH   6   7
ENDBRANCH   3   6
ENDBRANCH   1   2
BRANCH   1  20
ATOM     20  C   UNL A   1      31.028  31.949  25.929  1.00  0.00     0.042 C 
BRANCH  20  21
ATOM     21  C   UNL A   1      32.181  32.198  26.894  1.00  0.00     0.118 C 
BRANCH  21  22
ATOM     22  N   UNL A   1      32.315  33.599  27.251  1.00  0.00    -0.352 N 
ATOM     23  C   UNL A   1      33.167  34.217  28.132  1.00  0.00     0.251 C 
ATOM     24  H   UNL A   1      31.693  34.204  26.786  1.00  0.00     0.163 HD
ATOM     25  O   UNL A   1      32.951  35.388  28.449  1.00  0.00    -0.269 OA
BRANCH  23  26
ATOM     26  C   UNL A   1      34.324  33.506  28.726  1.00  0.00     0.039 A 
ATOM     27  C   UNL A   1      34.083  32.537  29.705  1.00  0.00     0.014 A 
ATOM     28  C   UNL A   1      35.640  33.828  28.391  1.00  0.00     0.014 A 
ATOM     29  C   UNL A   1      35.153  31.864  30.306  1.00  0.00     0.010 A 
ATOM     30  C   UNL A   1      36.701  33.091  28.918  1.00  0.00     0.010 A 
ATOM     31  C   UNL A   1      36.471  32.116  29.898  1.00  0.00    -0.014 A 
BRANCH  31  32
ATOM     32  C   UNL A   1      37.622  31.400  30.513  1.00  0.00     0.031 A 
ATOM     33  C   UNL A   1      38.008  31.679  31.942  1.00  0.00     0.074 A 
ATOM     34  C   UNL A   1      38.355  30.543  29.775  1.00  0.00     0.049 A 
ATOM     35  N   UNL A   1      39.024  31.220  32.630  1.00  0.00    -0.248 NA
ATOM     36  C   UNL A   1      37.159  32.620  32.690  1.00  0.00     0.031 C 
ATOM     37  C   UNL A   1      38.119  30.220  28.367  1.00  0.00     0.029 A 
ATOM     38  N   UNL A   1      39.457  29.794  30.105  1.00  0.00    -0.354 N 
ATOM     39  C   UNL A   1      38.949  31.835  33.875  1.00  0.00     0.074 A 
ATOM     40  C   UNL A   1      37.817  32.734  33.834  1.00  0.00     0.031 C 
ATOM     41  C   UNL A   1      39.034  29.325  27.961  1.00  0.00     0.029 A 
ATOM     42  C   UNL A   1      39.942  29.038  29.066  1.00  0.00     0.049 A 
ATOM     43  H   UNL A   1      39.862  29.799  31.003  1.00  0.00     0.167 HD
ATOM     44  C   UNL A   1      39.736  31.651  34.961  1.00  0.00     0.037 A 
ATOM     45  C   UNL A   1      41.004  28.211  29.007  1.00  0.00     0.037 A 
ATOM     46  C   UNL A   1      40.830  30.718  35.020  1.00  0.00     0.049 A 
ATOM     47  C   UNL A   1      41.848  28.007  30.236  1.00  0.00     0.074 A 
ATOM     48  C   UNL A   1      41.636  30.404  36.101  1.00  0.00     0.029 A 
ATOM     49  N   UNL A   1      41.266  29.945  33.956  1.00  0.00    -0.354 N 
ATOM     50  N   UNL A   1      41.722  28.547  31.424  1.00  0.00    -0.248 NA
ATOM     51  C   UNL A   1      42.978  27.074  30.117  1.00  0.00     0.031 C 
ATOM     52  C   UNL A   1      42.585  29.467  35.679  1.00  0.00     0.029 A 
ATOM     53  C   UNL A   1      42.342  29.168  34.348  1.00  0.00     0.049 A 
ATOM     54  H   UNL A   1      40.870  29.950  33.055  1.00  0.00     0.167 HD
ATOM     55  C   UNL A   1      42.736  28.000  32.199  1.00  0.00     0.074 A 
ATOM     56  C   UNL A   1      43.460  27.076  31.352  1.00  0.00     0.031 C 
ATOM     57  C   UNL A   1      43.043  28.244  33.496  1.00  0.00     0.037 A 
BRANCH  44  58
ATOM     58  C   UNL A   1      39.434  32.463  36.187  1.00  0.00     0.057 A 
ATOM     59  C   UNL A   1      40.085  33.676  36.448  1.00  0.00     0.134 A 
ATOM     60  C   UNL A   1      38.444  32.053  37.090  1.00  0.00     0.134 A 
ATOM     61  F   UNL A   1      41.050  34.119  35.628  1.00  0.00    -0.206 F 
ATOM     62  C   UNL A   1      39.776  34.442  37.573  1.00  0.00     0.040 A 
ATOM     63  C   UNL A   1      38.109  32.824  38.205  1.00  0.00     0.040 A 
ATOM     64  F   UNL A   1      37.779  30.904  36.896  1.00  0.00    -0.206 F 
ATOM     65  C   UNL A   1      38.780  34.021  38.450  1.00  0.00     0.006 A 
ENDBRANCH  44  58
BRANCH  45  66
ATOM     66  C   UNL A   1      41.326  27.499  27.746  1.00  0.00     0.057 A 
ATOM     67  C   UNL A   1      40.858  26.201  27.509  1.00  0.00     0.134 A 
ATOM     68  C   UNL A   1      42.125  28.086  26.757  1.00  0.00     0.134 A 
ATOM     69  F   UNL A   1      40.104  25.579  28.427  1.00  0.00    -0.206 F 
ATOM     70  C   UNL A   1      41.190  25.503  26.347  1.00  0.00     0.040 A 
ATOM     71  C   UNL A   1      42.445  27.409  25.579  1.00  0.00     0.040 A 
ATOM     72  F   UNL A   1      42.600  29.330  26.920  1.00  0.00    -0.206 F 
ATOM     73  C   UNL A   1      41.985  26.110  25.375  1.00  0.00     0.006 A 
ENDBRANCH  45  66
BRANCH  57  74
ATOM     74  C   UNL A   1      44.187  27.477  34.087  1.00  0.00     0.057 A 
ATOM     75  C   UNL A   1      44.010  26.209  34.655  1.00  0.00     0.134 A 
ATOM     76  C   UNL A   1      45.488  27.996  34.050  1.00  0.00     0.134 A 
ATOM     77  F   UNL A   1      42.787  25.664  34.732  1.00  0.00    -0.206 F 
ATOM     78  C   UNL A   1      45.085  25.493  35.183  1.00  0.00     0.040 A 
ATOM     79  C   UNL A   1      46.574  27.279  34.552  1.00  0.00     0.040 A 
ATOM     80  F   UNL A   1      45.725  29.202  33.511  1.00  0.00    -0.206 F 
ATOM     81  C   UNL A   1      46.373  26.025  35.125  1.00  0.00     0.006 A 
ENDBRANCH  57  74
ENDBRANCH  31  32
ENDBRANCH  23  26
ENDBRANCH  21  22
ENDBRANCH  20  21
ENDBRANCH   1  20
TORSDOF 15
ENDMDL
MODEL 3
REMARK VINA RESULT:     -10.4      4.277      8.354
REMARK SMILES C=CC[N@@H+](CC(=O)NCCCNC(=O)c1ccc(-c2c3nc(c(-c4c(F)cccc4F)c4ccc([nH]4)c(-c4c(F)cccc4F)c4nc(c(-c5c(F)cccc5F)c5ccc2[nH]5)C=C4)C=C3)cc1)C[C@H]1CCC[C@H](C)C1
REMARK SMILES IDX 9 1 8 2 6 3 7 4 5 6 4 7 3 9 2 10 1 11 69 12 70 13 71 14
REMARK SMILES IDX 76 15 72 16 74 17 73 18 75 19 10 20 11 21 12 22 13 23 14 25
REMARK SMILES IDX 15 26 16 27 68 28 17 29 67 30 18 31 19 32 20 33 61 34 21 35
REMARK SMILES IDX 66 36 60 37 62 38 22 39 65 40 59 41 58 42 23 44 49 45 32 46
REMARK SMILES IDX 48 47 33 48 36 49 47 50 63 51 34 52 35 53 46 55 64 56 37 57
REMARK SMILES IDX 24 58 25 59 30 60 26 61 27 62 29 63 31 64 28 65 50 66 51 67
REMARK SMILES IDX 56 68 52 69 53 70 55 71 57 72 54 73 38 74 39 75 44 76 40 77
REMARK SMILES IDX 41 78 43 79 45 80 42 81
REMARK H PARENT 8 5 4 8 12 24 62 43 36 54
REMARK Flexibility Score: inf
ROOT
ATOM      1  C   UNL A   1      33.430  26.488  25.627  1.00  0.00     0.118 C 
ENDROOT
BRANCH   1   2
ATOM      2  N   UNL A   1      32.004  26.251  25.581  1.00  0.00    -0.351 N 
ATOM      3  C   UNL A   1      31.210  25.352  26.211  1.00  0.00     0.275 C 
ATOM      4  O   UNL A   1      30.016  25.676  26.244  1.00  0.00    -0.269 OA
ATOM      5  H   UNL A   1      31.518  26.860  24.979  1.00  0.00     0.163 HD
BRANCH   3   6
ATOM      6  C   UNL A   1      31.712  24.086  26.922  1.00  0.00     0.363 C 
BRANCH   6   7
ATOM      7  N   UNL A   1      32.578  23.140  26.166  1.00  0.00    -0.324 N 
ATOM      8  H   UNL A   1      33.208  23.740  25.632  1.00  0.00     0.348 HD
BRANCH   7   9
ATOM      9  C   UNL A   1      31.772  22.338  25.241  1.00  0.00     0.290 C 
BRANCH   9  10
ATOM     10  C   UNL A   1      31.893  22.647  23.777  1.00  0.00     0.025 C 
ATOM     11  C   UNL A   1      32.260  21.739  22.860  1.00  0.00     0.010 C 
ENDBRANCH   9  10
ENDBRANCH   7   9
BRANCH   7  12
ATOM     12  C   UNL A   1      33.540  22.338  26.944  1.00  0.00     0.266 C 
BRANCH  12  13
ATOM     13  C   UNL A   1      35.016  22.225  26.436  1.00  0.00     0.044 C 
ATOM     14  C   UNL A   1      35.192  21.115  25.392  1.00  0.00     0.009 C 
ATOM     15  C   UNL A   1      35.443  23.594  25.851  1.00  0.00     0.012 C 
ATOM     16  C   UNL A   1      36.482  21.144  24.581  1.00  0.00     0.001 C 
ATOM     17  C   UNL A   1      36.794  23.586  25.122  1.00  0.00    -0.014 C 
ATOM     18  C   UNL A   1      36.784  22.523  24.022  1.00  0.00     0.003 C 
ATOM     19  C   UNL A   1      37.970  23.396  26.083  1.00  0.00     0.007 C 
ENDBRANCH  12  13
ENDBRANCH   7  12
ENDBRANCH   6   7
ENDBRANCH   3   6
ENDBRANCH   1   2
BRANCH   1  20
ATOM     20  C   UNL A   1      33.759  27.944  25.952  1.00  0.00     0.042 C 
BRANCH  20  21
ATOM     21  C   UNL A   1      33.541  28.323  27.411  1.00  0.00     0.118 C 
BRANCH  21  22
ATOM     22  N   UNL A   1      33.499  29.760  27.613  1.00  0.00    -0.352 N 
ATOM     23  C   UNL A   1      34.440  30.616  28.127  1.00  0.00     0.251 C 
ATOM     24  H   UNL A   1      32.659  30.190  27.335  1.00  0.00     0.163 HD
ATOM     25  O   UNL A   1      34.105  31.765  28.419  1.00  0.00    -0.269 OA
BRANCH  23  26
ATOM     26  C   UNL A   1      35.840  30.187  28.360  1.00  0.00     0.039 A 
ATOM     27  C   UNL A   1      36.199  29.742  29.636  1.00  0.00     0.014 A 
ATOM     28  C   UNL A   1      36.817  30.285  27.368  1.00  0.00     0.014 A 
ATOM     29  C   UNL A   1      37.518  29.353  29.899  1.00  0.00     0.010 A 
ATOM     30  C   UNL A   1      38.107  29.807  27.602  1.00  0.00     0.010 A 
ATOM     31  C   UNL A   1      38.478  29.356  28.876  1.00  0.00    -0.014 A 
BRANCH  31  32
ATOM     32  C   UNL A   1      39.882  28.932  29.131  1.00  0.00     0.031 A 
ATOM     33  C   UNL A   1      40.850  29.880  29.789  1.00  0.00     0.074 A 
ATOM     34  C   UNL A   1      40.303  27.719  28.722  1.00  0.00     0.049 A 
ATOM     35  N   UNL A   1      42.129  29.727  30.022  1.00  0.00    -0.248 NA
ATOM     36  C   UNL A   1      40.318  31.185  30.215  1.00  0.00     0.031 C 
ATOM     37  C   UNL A   1      39.482  26.724  28.029  1.00  0.00     0.029 A 
ATOM     38  N   UNL A   1      41.535  27.120  28.820  1.00  0.00    -0.354 N 
ATOM     39  C   UNL A   1      42.557  30.920  30.594  1.00  0.00     0.074 A 
ATOM     40  C   UNL A   1      41.413  31.804  30.632  1.00  0.00     0.031 C 
ATOM     41  C   UNL A   1      40.226  25.633  27.784  1.00  0.00     0.029 A 
ATOM     42  C   UNL A   1      41.583  25.863  28.267  1.00  0.00     0.049 A 
ATOM     43  H   UNL A   1      42.311  27.551  29.246  1.00  0.00     0.167 HD
ATOM     44  C   UNL A   1      43.783  31.243  31.069  1.00  0.00     0.037 A 
ATOM     45  C   UNL A   1      42.608  24.996  28.156  1.00  0.00     0.037 A 
ATOM     46  C   UNL A   1      44.909  30.346  31.080  1.00  0.00     0.049 A 
ATOM     47  C   UNL A   1      43.955  25.371  28.711  1.00  0.00     0.074 A 
ATOM     48  C   UNL A   1      46.171  30.555  31.609  1.00  0.00     0.029 A 
ATOM     49  N   UNL A   1      44.906  29.069  30.542  1.00  0.00    -0.354 N 
ATOM     50  N   UNL A   1      44.323  26.477  29.310  1.00  0.00    -0.248 NA
ATOM     51  C   UNL A   1      45.027  24.373  28.582  1.00  0.00     0.031 C 
ATOM     52  C   UNL A   1      46.942  29.416  31.359  1.00  0.00     0.029 A 
ATOM     53  C   UNL A   1      46.148  28.484  30.711  1.00  0.00     0.049 A 
ATOM     54  H   UNL A   1      44.134  28.642  30.105  1.00  0.00     0.167 HD
ATOM     55  C   UNL A   1      45.657  26.299  29.651  1.00  0.00     0.074 A 
ATOM     56  C   UNL A   1      46.030  24.973  29.206  1.00  0.00     0.031 C 
ATOM     57  C   UNL A   1      46.499  27.158  30.274  1.00  0.00     0.037 A 
BRANCH  44  58
ATOM     58  C   UNL A   1      43.974  32.620  31.632  1.00  0.00     0.057 A 
ATOM     59  C   UNL A   1      44.375  33.697  30.831  1.00  0.00     0.134 A 
ATOM     60  C   UNL A   1      43.701  32.885  32.981  1.00  0.00     0.134 A 
ATOM     61  F   UNL A   1      44.662  33.509  29.534  1.00  0.00    -0.206 F 
ATOM     62  C   UNL A   1      44.518  34.983  31.355  1.00  0.00     0.040 A 
ATOM     63  C   UNL A   1      43.817  34.171  33.510  1.00  0.00     0.040 A 
ATOM     64  F   UNL A   1      43.307  31.899  33.801  1.00  0.00    -0.206 F 
ATOM     65  C   UNL A   1      44.231  35.224  32.696  1.00  0.00     0.006 A 
ENDBRANCH  44  58
BRANCH  45  66
ATOM     66  C   UNL A   1      42.402  23.678  27.504  1.00  0.00     0.057 A 
ATOM     67  C   UNL A   1      42.468  23.543  26.111  1.00  0.00     0.134 A 
ATOM     68  C   UNL A   1      42.115  22.529  28.250  1.00  0.00     0.134 A 
ATOM     69  F   UNL A   1      42.722  24.612  25.342  1.00  0.00    -0.206 F 
ATOM     70  C   UNL A   1      42.233  22.320  25.483  1.00  0.00     0.040 A 
ATOM     71  C   UNL A   1      41.901  21.294  27.635  1.00  0.00     0.040 A 
ATOM     72  F   UNL A   1      42.044  22.590  29.588  1.00  0.00    -0.206 F 
ATOM     73  C   UNL A   1      41.952  21.188  26.247  1.00  0.00     0.006 A 
ENDBRANCH  45  66
BRANCH  57  74
ATOM     74  C   UNL A   1      47.894  26.679  30.542  1.00  0.00     0.057 A 
ATOM     75  C   UNL A   1      48.943  26.926  29.649  1.00  0.00     0.134 A 
ATOM     76  C   UNL A   1      48.198  25.999  31.729  1.00  0.00     0.134 A 
ATOM     77  F   UNL A   1      48.714  27.561  28.489  1.00  0.00    -0.206 F 
ATOM     78  C   UNL A   1      50.244  26.497  29.918  1.00  0.00     0.040 A 
ATOM     79  C   UNL A   1      49.499  25.587  32.020  1.00  0.00     0.040 A 
ATOM     80  F   UNL A   1      47.239  25.740  32.630  1.00  0.00    -0.206 F 
ATOM     81  C   UNL A   1      50.525  25.831  31.110  1.00  0.00     0.006 A 
ENDBRANCH  57  74
ENDBRANCH  31  32
ENDBRANCH  23  26
ENDBRANCH  21  22
ENDBRANCH  20  21
ENDBRANCH   1  20
TORSDOF 15
ENDMDL
