MODEL 1
REMARK VINA RESULT:     -11.7      0.000      0.000
REMARK SMILES C[C@@H](C(=O)NCCCNC(=O)c1ccc(-c2c3nc(c(-c4c(F)cccc4F)c4ccc([nH]4)c(-c4c(F)cccc4F)c4nc(c(-c5c(F)cccc5F)c5ccc2[nH]5)C=C4)C=C3)cc1)c1ccc(C(=O)c2cccs2)cc1
REMARK SMILES IDX 6 1 5 2 3 3 4 4 2 6 1 7 66 8 67 9 78 10 68 11 77 12 69 13
REMARK SMILES IDX 70 14 71 15 72 16 73 17 76 18 74 19 75 20 7 21 8 22 9 23
REMARK SMILES IDX 10 24 11 26 12 27 13 28 65 29 14 30 64 31 15 32 16 33 17 34
REMARK SMILES IDX 58 35 18 36 63 37 57 38 59 39 19 40 62 41 56 42 55 43 20 45
REMARK SMILES IDX 46 46 29 47 45 48 30 49 33 50 44 51 60 52 31 53 32 54 43 56
REMARK SMILES IDX 61 57 34 58 21 59 22 60 27 61 23 62 24 63 26 64 28 65 25 66
REMARK SMILES IDX 47 67 48 68 53 69 49 70 50 71 52 72 54 73 51 74 35 75 36 76
REMARK SMILES IDX 41 77 37 78 38 79 40 80 42 81 39 82
REMARK H PARENT 5 5 9 25 59 44 33 55
REMARK Flexibility Score: inf
ROOT
ATOM      1  C   UNL A   1      31.689  30.843  25.793  1.00  0.00     0.117 C 
ENDROOT
BRANCH   1   2
ATOM      2  N   UNL A   1      32.979  30.242  26.081  1.00  0.00    -0.356 N 
ATOM      3  C   UNL A   1      33.330  28.937  26.286  1.00  0.00     0.227 C 
ATOM      4  O   UNL A   1      34.485  28.732  26.663  1.00  0.00    -0.274 OA
ATOM      5  H   UNL A   1      33.726  30.881  26.140  1.00  0.00     0.163 HD
BRANCH   3   6
ATOM      6  C   UNL A   1      32.315  27.809  26.018  1.00  0.00     0.105 C 
ATOM      7  C   UNL A   1      31.553  27.489  27.312  1.00  0.00     0.023 C 
BRANCH   6   8
ATOM      8  C   UNL A   1      32.949  26.565  25.378  1.00  0.00    -0.036 A 
ATOM      9  C   UNL A   1      33.236  25.428  26.154  1.00  0.00     0.005 A 
ATOM     10  C   UNL A   1      33.286  26.517  24.016  1.00  0.00     0.005 A 
ATOM     11  C   UNL A   1      33.805  24.281  25.581  1.00  0.00     0.012 A 
ATOM     12  C   UNL A   1      33.850  25.377  23.442  1.00  0.00     0.012 A 
ATOM     13  C   UNL A   1      34.119  24.246  24.217  1.00  0.00     0.023 A 
BRANCH  13  14
ATOM     14  C   UNL A   1      34.682  22.990  23.618  1.00  0.00     0.202 C 
ATOM     15  O   UNL A   1      35.663  23.076  22.883  1.00  0.00    -0.288 OA
BRANCH  14  16
ATOM     16  C   UNL A   1      34.055  21.722  23.953  1.00  0.00     0.075 A 
ATOM     17  C   UNL A   1      32.816  21.232  23.588  1.00  0.00     0.024 A 
ATOM     18  S   UNL A   1      34.892  20.630  24.970  1.00  0.00    -0.140 S 
ATOM     19  C   UNL A   1      32.522  19.987  24.217  1.00  0.00     0.012 A 
ATOM     20  C   UNL A   1      33.564  19.551  25.006  1.00  0.00     0.065 A 
ENDBRANCH  14  16
ENDBRANCH  13  14
ENDBRANCH   6   8
ENDBRANCH   3   6
ENDBRANCH   1   2
BRANCH   1  21
ATOM     21  C   UNL A   1      31.373  31.984  26.762  1.00  0.00     0.042 C 
BRANCH  21  22
ATOM     22  C   UNL A   1      32.603  32.700  27.312  1.00  0.00     0.118 C 
BRANCH  22  23
ATOM     23  N   UNL A   1      32.345  34.099  27.618  1.00  0.00    -0.352 N 
ATOM     24  C   UNL A   1      32.952  34.933  28.522  1.00  0.00     0.251 C 
ATOM     25  H   UNL A   1      31.621  34.511  27.093  1.00  0.00     0.163 HD
ATOM     26  O   UNL A   1      32.449  36.028  28.769  1.00  0.00    -0.269 OA
BRANCH  24  27
ATOM     27  C   UNL A   1      34.184  34.518  29.227  1.00  0.00     0.039 A 
ATOM     28  C   UNL A   1      34.071  33.953  30.501  1.00  0.00     0.014 A 
ATOM     29  C   UNL A   1      35.446  34.689  28.649  1.00  0.00     0.014 A 
ATOM     30  C   UNL A   1      35.209  33.475  31.153  1.00  0.00     0.010 A 
ATOM     31  C   UNL A   1      36.572  34.151  29.271  1.00  0.00     0.010 A 
ATOM     32  C   UNL A   1      36.462  33.518  30.518  1.00  0.00    -0.014 A 
BRANCH  32  33
ATOM     33  C   UNL A   1      37.645  32.838  31.108  1.00  0.00     0.031 A 
ATOM     34  C   UNL A   1      38.257  31.638  30.441  1.00  0.00     0.074 A 
ATOM     35  C   UNL A   1      38.112  33.257  32.302  1.00  0.00     0.049 A 
ATOM     36  N   UNL A   1      39.225  30.865  30.865  1.00  0.00    -0.248 NA
ATOM     37  C   UNL A   1      37.700  31.242  29.137  1.00  0.00     0.031 C 
ATOM     38  C   UNL A   1      37.576  34.384  33.071  1.00  0.00     0.029 A 
ATOM     39  N   UNL A   1      39.127  32.775  33.092  1.00  0.00    -0.354 N 
ATOM     40  C   UNL A   1      39.384  29.885  29.892  1.00  0.00     0.074 A 
ATOM     41  C   UNL A   1      38.392  30.143  28.869  1.00  0.00     0.031 C 
ATOM     42  C   UNL A   1      38.269  34.509  34.214  1.00  0.00     0.029 A 
ATOM     43  C   UNL A   1      39.262  33.444  34.286  1.00  0.00     0.049 A 
ATOM     44  H   UNL A   1      39.703  32.021  32.828  1.00  0.00     0.167 HD
ATOM     45  C   UNL A   1      40.281  28.873  29.855  1.00  0.00     0.037 A 
ATOM     46  C   UNL A   1      40.074  33.208  35.336  1.00  0.00     0.037 A 
ATOM     47  C   UNL A   1      41.282  28.638  30.863  1.00  0.00     0.049 A 
ATOM     48  C   UNL A   1      41.035  32.053  35.274  1.00  0.00     0.074 A 
ATOM     49  C   UNL A   1      42.295  27.692  30.863  1.00  0.00     0.029 A 
ATOM     50  N   UNL A   1      41.390  29.338  32.053  1.00  0.00    -0.354 N 
ATOM     51  N   UNL A   1      41.240  31.199  34.302  1.00  0.00    -0.248 NA
ATOM     52  C   UNL A   1      41.875  31.825  36.460  1.00  0.00     0.031 C 
ATOM     53  C   UNL A   1      42.973  27.777  32.082  1.00  0.00     0.029 A 
ATOM     54  C   UNL A   1      42.420  28.813  32.817  1.00  0.00     0.049 A 
ATOM     55  H   UNL A   1      40.820  30.096  32.317  1.00  0.00     0.167 HD
ATOM     56  C   UNL A   1      42.243  30.349  34.750  1.00  0.00     0.074 A 
ATOM     57  C   UNL A   1      42.624  30.805  36.069  1.00  0.00     0.031 C 
ATOM     58  C   UNL A   1      42.793  29.278  34.126  1.00  0.00     0.037 A 
BRANCH  45  59
ATOM     59  C   UNL A   1      40.238  27.926  28.692  1.00  0.00     0.057 A 
ATOM     60  C   UNL A   1      40.939  28.178  27.506  1.00  0.00     0.134 A 
ATOM     61  C   UNL A   1      39.576  26.695  28.803  1.00  0.00     0.134 A 
ATOM     62  F   UNL A   1      41.589  29.339  27.334  1.00  0.00    -0.206 F 
ATOM     63  C   UNL A   1      40.980  27.242  26.470  1.00  0.00     0.040 A 
ATOM     64  C   UNL A   1      39.630  25.743  27.785  1.00  0.00     0.040 A 
ATOM     65  F   UNL A   1      38.894  26.388  29.917  1.00  0.00    -0.206 F 
ATOM     66  C   UNL A   1      40.334  26.015  26.614  1.00  0.00     0.006 A 
ENDBRANCH  45  59
BRANCH  46  67
ATOM     67  C   UNL A   1      39.997  34.057  36.554  1.00  0.00     0.057 A 
ATOM     68  C   UNL A   1      39.072  33.788  37.569  1.00  0.00     0.134 A 
ATOM     69  C   UNL A   1      40.807  35.190  36.707  1.00  0.00     0.134 A 
ATOM     70  F   UNL A   1      38.253  32.731  37.473  1.00  0.00    -0.206 F 
ATOM     71  C   UNL A   1      38.929  34.632  38.672  1.00  0.00     0.040 A 
ATOM     72  C   UNL A   1      40.698  36.025  37.820  1.00  0.00     0.040 A 
ATOM     73  F   UNL A   1      41.721  35.502  35.776  1.00  0.00    -0.206 F 
ATOM     74  C   UNL A   1      39.746  35.754  38.800  1.00  0.00     0.006 A 
ENDBRANCH  46  67
BRANCH  58  75
ATOM     75  C   UNL A   1      43.874  28.536  34.856  1.00  0.00     0.057 A 
ATOM     76  C   UNL A   1      43.589  27.434  35.672  1.00  0.00     0.134 A 
ATOM     77  C   UNL A   1      45.219  28.897  34.702  1.00  0.00     0.134 A 
ATOM     78  F   UNL A   1      42.320  27.047  35.873  1.00  0.00    -0.206 F 
ATOM     79  C   UNL A   1      44.600  26.728  36.324  1.00  0.00     0.040 A 
ATOM     80  C   UNL A   1      46.242  28.180  35.325  1.00  0.00     0.040 A 
ATOM     81  F   UNL A   1      45.562  29.937  33.929  1.00  0.00    -0.206 F 
ATOM     82  C   UNL A   1      45.933  27.095  36.142  1.00  0.00     0.006 A 
ENDBRANCH  58  75
ENDBRANCH  32  33
ENDBRANCH  24  27
ENDBRANCH  22  23
ENDBRANCH  21  22
ENDBRANCH   1  21
TORSDOF 13
ENDMDL
MODEL 2
REMARK VINA RESULT:     -11.6      1.225      1.500
REMARK SMILES C[C@@H](C(=O)NCCCNC(=O)c1ccc(-c2c3nc(c(-c4c(F)cccc4F)c4ccc([nH]4)c(-c4c(F)cccc4F)c4nc(c(-c5c(F)cccc5F)c5ccc2[nH]5)C=C4)C=C3)cc1)c1ccc(C(=O)c2cccs2)cc1
REMARK SMILES IDX 6 1 5 2 3 3 4 4 2 6 1 7 66 8 67 9 78 10 68 11 77 12 69 13
REMARK SMILES IDX 70 14 71 15 72 16 73 17 76 18 74 19 75 20 7 21 8 22 9 23
REMARK SMILES IDX 10 24 11 26 12 27 13 28 65 29 14 30 64 31 15 32 16 33 17 34
REMARK SMILES IDX 58 35 18 36 63 37 57 38 59 39 19 40 62 41 56 42 55 43 20 45
REMARK SMILES IDX 46 46 29 47 45 48 30 49 33 50 44 51 60 52 31 53 32 54 43 56
REMARK SMILES IDX 61 57 34 58 21 59 22 60 27 61 23 62 24 63 26 64 28 65 25 66
REMARK SMILES IDX 47 67 48 68 53 69 49 70 50 71 52 72 54 73 51 74 35 75 36 76
REMARK SMILES IDX 41 77 37 78 38 79 40 80 42 81 39 82
REMARK H PARENT 5 5 9 25 59 44 33 55
REMARK Flexibility Score: inf
ROOT
ATOM      1  C   UNL A   1      31.705  30.466  26.300  1.00  0.00     0.117 C 
ENDROOT
BRANCH   1   2
ATOM      2  N   UNL A   1      31.238  30.046  24.991  1.00  0.00    -0.356 N 
ATOM      3  C   UNL A   1      31.842  29.286  24.029  1.00  0.00     0.227 C 
ATOM      4  O   UNL A   1      31.264  29.214  22.943  1.00  0.00    -0.274 OA
ATOM      5  H   UNL A   1      30.335  30.362  24.756  1.00  0.00     0.163 HD
BRANCH   3   6
ATOM      6  C   UNL A   1      33.162  28.551  24.336  1.00  0.00     0.105 C 
ATOM      7  C   UNL A   1      34.033  28.516  23.073  1.00  0.00     0.023 C 
BRANCH   6   8
ATOM      8  C   UNL A   1      32.948  27.159  24.950  1.00  0.00    -0.036 A 
ATOM      9  C   UNL A   1      33.982  26.206  24.941  1.00  0.00     0.005 A 
ATOM     10  C   UNL A   1      31.723  26.776  25.518  1.00  0.00     0.005 A 
ATOM     11  C   UNL A   1      33.805  24.935  25.509  1.00  0.00     0.012 A 
ATOM     12  C   UNL A   1      31.544  25.513  26.085  1.00  0.00     0.012 A 
ATOM     13  C   UNL A   1      32.581  24.576  26.086  1.00  0.00     0.023 A 
BRANCH  13  14
ATOM     14  C   UNL A   1      32.432  23.228  26.729  1.00  0.00     0.202 C 
ATOM     15  O   UNL A   1      31.885  23.158  27.827  1.00  0.00    -0.288 OA
BRANCH  14  16
ATOM     16  C   UNL A   1      32.921  22.062  26.013  1.00  0.00     0.075 A 
ATOM     17  C   UNL A   1      34.012  21.259  26.286  1.00  0.00     0.024 A 
ATOM     18  S   UNL A   1      32.103  21.558  24.597  1.00  0.00    -0.140 S 
ATOM     19  C   UNL A   1      34.222  20.275  25.276  1.00  0.00     0.012 A 
ATOM     20  C   UNL A   1      33.260  20.335  24.292  1.00  0.00     0.065 A 
ENDBRANCH  14  16
ENDBRANCH  13  14
ENDBRANCH   6   8
ENDBRANCH   3   6
ENDBRANCH   1   2
BRANCH   1  21
ATOM     21  C   UNL A   1      31.526  31.972  26.503  1.00  0.00     0.042 C 
BRANCH  21  22
ATOM     22  C   UNL A   1      32.675  32.647  27.247  1.00  0.00     0.118 C 
BRANCH  22  23
ATOM     23  N   UNL A   1      32.388  34.034  27.577  1.00  0.00    -0.352 N 
ATOM     24  C   UNL A   1      32.963  34.859  28.511  1.00  0.00     0.251 C 
ATOM     25  H   UNL A   1      31.667  34.446  27.047  1.00  0.00     0.163 HD
ATOM     26  O   UNL A   1      32.437  35.939  28.771  1.00  0.00    -0.269 OA
BRANCH  24  27
ATOM     27  C   UNL A   1      34.189  34.449  29.230  1.00  0.00     0.039 A 
ATOM     28  C   UNL A   1      34.061  33.855  30.489  1.00  0.00     0.014 A 
ATOM     29  C   UNL A   1      35.458  34.654  28.680  1.00  0.00     0.014 A 
ATOM     30  C   UNL A   1      35.195  33.381  31.152  1.00  0.00     0.010 A 
ATOM     31  C   UNL A   1      36.581  34.121  29.312  1.00  0.00     0.010 A 
ATOM     32  C   UNL A   1      36.459  33.459  30.543  1.00  0.00    -0.014 A 
BRANCH  32  33
ATOM     33  C   UNL A   1      37.642  32.786  31.140  1.00  0.00     0.031 A 
ATOM     34  C   UNL A   1      38.280  31.604  30.465  1.00  0.00     0.074 A 
ATOM     35  C   UNL A   1      38.086  33.195  32.347  1.00  0.00     0.049 A 
ATOM     36  N   UNL A   1      39.251  30.838  30.893  1.00  0.00    -0.248 NA
ATOM     37  C   UNL A   1      37.747  31.220  29.148  1.00  0.00     0.031 C 
ATOM     38  C   UNL A   1      37.524  34.303  33.123  1.00  0.00     0.029 A 
ATOM     39  N   UNL A   1      39.095  32.714  33.144  1.00  0.00    -0.354 N 
ATOM     40  C   UNL A   1      39.437  29.874  29.909  1.00  0.00     0.074 A 
ATOM     41  C   UNL A   1      38.457  30.133  28.875  1.00  0.00     0.031 C 
ATOM     42  C   UNL A   1      38.198  34.421  34.278  1.00  0.00     0.029 A 
ATOM     43  C   UNL A   1      39.204  33.368  34.350  1.00  0.00     0.049 A 
ATOM     44  H   UNL A   1      39.685  31.972  32.878  1.00  0.00     0.167 HD
ATOM     45  C   UNL A   1      40.348  28.874  29.871  1.00  0.00     0.037 A 
ATOM     46  C   UNL A   1      40.004  33.128  35.408  1.00  0.00     0.037 A 
ATOM     47  C   UNL A   1      41.338  28.638  30.890  1.00  0.00     0.049 A 
ATOM     48  C   UNL A   1      40.981  31.986  35.345  1.00  0.00     0.074 A 
ATOM     49  C   UNL A   1      42.362  27.706  30.891  1.00  0.00     0.029 A 
ATOM     50  N   UNL A   1      41.418  29.322  32.091  1.00  0.00    -0.354 N 
ATOM     51  N   UNL A   1      41.211  31.149  34.364  1.00  0.00    -0.248 NA
ATOM     52  C   UNL A   1      41.807  31.753  36.539  1.00  0.00     0.031 C 
ATOM     53  C   UNL A   1      43.021  27.782  32.121  1.00  0.00     0.029 A 
ATOM     54  C   UNL A   1      42.444  28.800  32.863  1.00  0.00     0.049 A 
ATOM     55  H   UNL A   1      40.835  30.069  32.357  1.00  0.00     0.167 HD
ATOM     56  C   UNL A   1      42.219  30.306  34.814  1.00  0.00     0.074 A 
ATOM     57  C   UNL A   1      42.575  30.748  36.145  1.00  0.00     0.031 C 
ATOM     58  C   UNL A   1      42.792  29.251  34.184  1.00  0.00     0.037 A 
BRANCH  45  59
ATOM     59  C   UNL A   1      40.334  27.943  28.694  1.00  0.00     0.057 A 
ATOM     60  C   UNL A   1      41.072  28.207  27.534  1.00  0.00     0.134 A 
ATOM     61  C   UNL A   1      39.662  26.716  28.768  1.00  0.00     0.134 A 
ATOM     62  F   UNL A   1      41.734  29.366  27.397  1.00  0.00    -0.206 F 
ATOM     63  C   UNL A   1      41.138  27.285  26.487  1.00  0.00     0.040 A 
ATOM     64  C   UNL A   1      39.741  25.777  27.740  1.00  0.00     0.040 A 
ATOM     65  F   UNL A   1      38.946  26.397  29.857  1.00  0.00    -0.206 F 
ATOM     66  C   UNL A   1      40.481  26.060  26.594  1.00  0.00     0.006 A 
ENDBRANCH  45  59
BRANCH  46  67
ATOM     67  C   UNL A   1      39.898  33.959  36.637  1.00  0.00     0.057 A 
ATOM     68  C   UNL A   1      39.044  33.598  37.686  1.00  0.00     0.134 A 
ATOM     69  C   UNL A   1      40.605  35.161  36.769  1.00  0.00     0.134 A 
ATOM     70  F   UNL A   1      38.323  32.470  37.611  1.00  0.00    -0.206 F 
ATOM     71  C   UNL A   1      38.868  34.418  38.802  1.00  0.00     0.040 A 
ATOM     72  C   UNL A   1      40.464  35.975  37.893  1.00  0.00     0.040 A 
ATOM     73  F   UNL A   1      41.447  35.563  35.805  1.00  0.00    -0.206 F 
ATOM     74  C   UNL A   1      39.582  35.610  38.908  1.00  0.00     0.006 A 
ENDBRANCH  46  67
BRANCH  58  75
ATOM     75  C   UNL A   1      43.872  28.513  34.919  1.00  0.00     0.057 A 
ATOM     76  C   UNL A   1      43.591  27.390  35.707  1.00  0.00     0.134 A 
ATOM     77  C   UNL A   1      45.213  28.900  34.798  1.00  0.00     0.134 A 
ATOM     78  F   UNL A   1      42.325  26.977  35.876  1.00  0.00    -0.206 F 
ATOM     79  C   UNL A   1      44.602  26.688  36.363  1.00  0.00     0.040 A 
ATOM     80  C   UNL A   1      46.236  28.189  35.426  1.00  0.00     0.040 A 
ATOM     81  F   UNL A   1      45.552  29.962  34.053  1.00  0.00    -0.206 F 
ATOM     82  C   UNL A   1      45.932  27.082  36.215  1.00  0.00     0.006 A 
ENDBRANCH  58  75
ENDBRANCH  32  33
ENDBRANCH  24  27
ENDBRANCH  22  23
ENDBRANCH  21  22
ENDBRANCH   1  21
TORSDOF 13
ENDMDL
MODEL 3
REMARK VINA RESULT:     -11.5      4.463      9.895
REMARK SMILES C[C@@H](C(=O)NCCCNC(=O)c1ccc(-c2c3nc(c(-c4c(F)cccc4F)c4ccc([nH]4)c(-c4c(F)cccc4F)c4nc(c(-c5c(F)cccc5F)c5ccc2[nH]5)C=C4)C=C3)cc1)c1ccc(C(=O)c2cccs2)cc1
REMARK SMILES IDX 6 1 5 2 3 3 4 4 2 6 1 7 66 8 67 9 78 10 68 11 77 12 69 13
REMARK SMILES IDX 70 14 71 15 72 16 73 17 76 18 74 19 75 20 7 21 8 22 9 23
REMARK SMILES IDX 10 24 11 26 12 27 13 28 65 29 14 30 64 31 15 32 16 33 17 34
REMARK SMILES IDX 58 35 18 36 63 37 57 38 59 39 19 40 62 41 56 42 55 43 20 45
REMARK SMILES IDX 46 46 29 47 45 48 30 49 33 50 44 51 60 52 31 53 32 54 43 56
REMARK SMILES IDX 61 57 34 58 21 59 22 60 27 61 23 62 24 63 26 64 28 65 25 66
REMARK SMILES IDX 47 67 48 68 53 69 49 70 50 71 52 72 54 73 51 74 35 75 36 76
REMARK SMILES IDX 41 77 37 78 38 79 40 80 42 81 39 82
REMARK H PARENT 5 5 9 25 59 44 33 55
REMARK Flexibility Score: inf
ROOT
ATOM      1  C   UNL A   1      35.755  32.016  32.184  1.00  0.00     0.117 C 
ENDROOT
BRANCH   1   2
ATOM      2  N   UNL A   1      37.082  32.604  32.146  1.00  0.00    -0.356 N 
ATOM      3  C   UNL A   1      38.168  32.412  32.954  1.00  0.00     0.227 C 
ATOM      4  O   UNL A   1      39.126  33.165  32.774  1.00  0.00    -0.274 OA
ATOM      5  H   UNL A   1      37.224  33.250  31.417  1.00  0.00     0.163 HD
BRANCH   3   6
ATOM      6  C   UNL A   1      38.164  31.281  34.002  1.00  0.00     0.105 C 
ATOM      7  C   UNL A   1      38.141  31.890  35.410  1.00  0.00     0.023 C 
BRANCH   6   8
ATOM      8  C   UNL A   1      39.309  30.275  33.807  1.00  0.00    -0.036 A 
ATOM      9  C   UNL A   1      40.565  30.497  34.398  1.00  0.00     0.005 A 
ATOM     10  C   UNL A   1      39.160  29.119  33.026  1.00  0.00     0.005 A 
ATOM     11  C   UNL A   1      41.616  29.581  34.240  1.00  0.00     0.012 A 
ATOM     12  C   UNL A   1      40.202  28.205  32.867  1.00  0.00     0.012 A 
ATOM     13  C   UNL A   1      41.444  28.425  33.469  1.00  0.00     0.023 A 
BRANCH  13  14
ATOM     14  C   UNL A   1      42.568  27.437  33.354  1.00  0.00     0.202 C 
ATOM     15  O   UNL A   1      43.348  27.540  32.410  1.00  0.00    -0.288 OA
BRANCH  14  16
ATOM     16  C   UNL A   1      42.698  26.414  34.379  1.00  0.00     0.075 A 
ATOM     17  C   UNL A   1      41.776  25.989  35.315  1.00  0.00     0.024 A 
ATOM     18  S   UNL A   1      44.188  25.590  34.538  1.00  0.00    -0.140 S 
ATOM     19  C   UNL A   1      42.328  25.038  36.222  1.00  0.00     0.012 A 
ATOM     20  C   UNL A   1      43.639  24.740  35.918  1.00  0.00     0.065 A 
ENDBRANCH  14  16
ENDBRANCH  13  14
ENDBRANCH   6   8
ENDBRANCH   3   6
ENDBRANCH   1   2
BRANCH   1  21
ATOM     21  C   UNL A   1      34.775  32.785  31.295  1.00  0.00     0.042 C 
BRANCH  21  22
ATOM     22  C   UNL A   1      35.176  32.845  29.824  1.00  0.00     0.118 C 
BRANCH  22  23
ATOM     23  N   UNL A   1      34.350  31.990  28.985  1.00  0.00    -0.352 N 
ATOM     24  C   UNL A   1      34.674  30.852  28.291  1.00  0.00     0.251 C 
ATOM     25  H   UNL A   1      33.410  32.273  28.903  1.00  0.00     0.163 HD
ATOM     26  O   UNL A   1      33.876  30.391  27.478  1.00  0.00    -0.269 OA
BRANCH  24  27
ATOM     27  C   UNL A   1      35.983  30.194  28.486  1.00  0.00     0.039 A 
ATOM     28  C   UNL A   1      36.920  30.242  27.449  1.00  0.00     0.014 A 
ATOM     29  C   UNL A   1      36.291  29.523  29.674  1.00  0.00     0.014 A 
ATOM     30  C   UNL A   1      38.194  29.703  27.638  1.00  0.00     0.010 A 
ATOM     31  C   UNL A   1      37.584  29.045  29.886  1.00  0.00     0.010 A 
ATOM     32  C   UNL A   1      38.556  29.150  28.879  1.00  0.00    -0.014 A 
BRANCH  32  33
ATOM     33  C   UNL A   1      39.960  28.755  29.164  1.00  0.00     0.031 A 
ATOM     34  C   UNL A   1      40.926  29.727  29.780  1.00  0.00     0.074 A 
ATOM     35  C   UNL A   1      40.385  27.534  28.779  1.00  0.00     0.049 A 
ATOM     36  N   UNL A   1      42.207  29.583  30.004  1.00  0.00    -0.248 NA
ATOM     37  C   UNL A   1      40.389  31.038  30.181  1.00  0.00     0.031 C 
ATOM     38  C   UNL A   1      39.554  26.514  28.131  1.00  0.00     0.029 A 
ATOM     39  N   UNL A   1      41.624  26.947  28.854  1.00  0.00    -0.354 N 
ATOM     40  C   UNL A   1      42.634  30.785  30.557  1.00  0.00     0.074 A 
ATOM     41  C   UNL A   1      41.481  31.659  30.607  1.00  0.00     0.031 C 
ATOM     42  C   UNL A   1      40.303  25.431  27.874  1.00  0.00     0.029 A 
ATOM     43  C   UNL A   1      41.676  25.693  28.290  1.00  0.00     0.049 A 
ATOM     44  H   UNL A   1      42.402  27.383  29.271  1.00  0.00     0.167 HD
ATOM     45  C   UNL A   1      43.872  31.121  30.990  1.00  0.00     0.037 A 
ATOM     46  C   UNL A   1      42.718  24.859  28.101  1.00  0.00     0.037 A 
ATOM     47  C   UNL A   1      45.009  30.237  30.963  1.00  0.00     0.049 A 
ATOM     48  C   UNL A   1      44.087  25.279  28.564  1.00  0.00     0.074 A 
ATOM     49  C   UNL A   1      46.280  30.458  31.467  1.00  0.00     0.029 A 
ATOM     50  N   UNL A   1      45.021  28.977  30.390  1.00  0.00    -0.354 N 
ATOM     51  N   UNL A   1      44.451  26.379  29.176  1.00  0.00    -0.248 NA
ATOM     52  C   UNL A   1      45.191  24.343  28.305  1.00  0.00     0.031 C 
ATOM     53  C   UNL A   1      47.078  29.359  31.140  1.00  0.00     0.029 A 
ATOM     54  C   UNL A   1      46.290  28.428  30.483  1.00  0.00     0.049 A 
ATOM     55  H   UNL A   1      44.243  28.535  29.978  1.00  0.00     0.167 HD
ATOM     56  C   UNL A   1      45.817  26.257  29.393  1.00  0.00     0.074 A 
ATOM     57  C   UNL A   1      46.213  24.967  28.871  1.00  0.00     0.031 C 
ATOM     58  C   UNL A   1      46.671  27.141  29.964  1.00  0.00     0.037 A 
BRANCH  45  59
ATOM     59  C   UNL A   1      44.085  32.502  31.536  1.00  0.00     0.057 A 
ATOM     60  C   UNL A   1      44.063  32.765  32.911  1.00  0.00     0.134 A 
ATOM     61  C   UNL A   1      44.425  33.558  30.681  1.00  0.00     0.134 A 
ATOM     62  F   UNL A   1      43.740  31.799  33.784  1.00  0.00    -0.206 F 
ATOM     63  C   UNL A   1      44.367  34.031  33.416  1.00  0.00     0.040 A 
ATOM     64  C   UNL A   1      44.755  34.820  31.174  1.00  0.00     0.040 A 
ATOM     65  F   UNL A   1      44.474  33.369  29.353  1.00  0.00    -0.206 F 
ATOM     66  C   UNL A   1      44.727  35.059  32.546  1.00  0.00     0.006 A 
ENDBRANCH  45  59
BRANCH  46  67
ATOM     67  C   UNL A   1      42.526  23.556  27.412  1.00  0.00     0.057 A 
ATOM     68  C   UNL A   1      42.224  22.393  28.130  1.00  0.00     0.134 A 
ATOM     69  C   UNL A   1      42.694  23.430  26.026  1.00  0.00     0.134 A 
ATOM     70  F   UNL A   1      42.072  22.442  29.461  1.00  0.00    -0.206 F 
ATOM     71  C   UNL A   1      42.133  21.149  27.503  1.00  0.00     0.040 A 
ATOM     72  C   UNL A   1      42.574  22.199  25.382  1.00  0.00     0.040 A 
ATOM     73  F   UNL A   1      42.976  24.506  25.276  1.00  0.00    -0.206 F 
ATOM     74  C   UNL A   1      42.307  21.050  26.124  1.00  0.00     0.006 A 
ENDBRANCH  46  67
BRANCH  58  75
ATOM     75  C   UNL A   1      48.112  26.738  30.069  1.00  0.00     0.057 A 
ATOM     76  C   UNL A   1      48.582  25.955  31.131  1.00  0.00     0.134 A 
ATOM     77  C   UNL A   1      49.030  27.097  29.073  1.00  0.00     0.134 A 
ATOM     78  F   UNL A   1      47.757  25.592  32.125  1.00  0.00    -0.206 F 
ATOM     79  C   UNL A   1      49.917  25.556  31.208  1.00  0.00     0.040 A 
ATOM     80  C   UNL A   1      50.361  26.679  29.124  1.00  0.00     0.040 A 
ATOM     81  F   UNL A   1      48.645  27.839  28.026  1.00  0.00    -0.206 F 
ATOM     82  C   UNL A   1      50.809  25.911  30.196  1.00  0.00     0.006 A 
ENDBRANCH  58  75
ENDBRANCH  32  33
ENDBRANCH  24  27
ENDBRANCH  22  23
ENDBRANCH  21  22
ENDBRANCH   1  21
TORSDOF 13
ENDMDL
