MODEL 1
REMARK VINA RESULT:     -12.4      0.000      0.000
REMARK SMILES CC(C)(C)c1cc(-n2cnc(C(=O)NCCCNC(=O)c3ccc(-c4c5nc(c(-c6c(F)cccc6F)c6ccc([nH]6)c(-c6c(F)cccc6F)c6nc(c(-c7c(F)cccc7F)c7ccc4[nH]7)C=C6)C=C5)cc3)c2)nc(Cl)n1
REMARK SMILES IDX 16 1 15 2 14 3 12 4 13 5 11 7 8 8 9 9 75 10 10 11 7 12 5 13
REMARK SMILES IDX 6 14 79 15 77 16 76 17 78 18 2 19 1 20 3 21 4 22 17 23 18 24
REMARK SMILES IDX 19 25 20 27 21 28 22 29 74 30 23 31 73 32 24 33 25 34 26 35
REMARK SMILES IDX 67 36 27 37 72 38 66 39 68 40 28 41 71 42 65 43 64 44 29 46
REMARK SMILES IDX 55 47 38 48 54 49 39 50 42 51 53 52 69 53 40 54 41 55 52 57
REMARK SMILES IDX 70 58 43 59 30 60 31 61 36 62 32 63 33 64 35 65 37 66 34 67
REMARK SMILES IDX 56 68 57 69 62 70 58 71 59 72 61 73 63 74 60 75 44 76 45 77
REMARK SMILES IDX 50 78 46 79 47 80 49 81 51 82 48 83
REMARK H PARENT 14 6 18 26 68 45 42 56
REMARK Flexibility Score: inf
ROOT
ATOM      1  C   UNL A   1      33.033  28.934  27.388  1.00  0.00     0.042 C 
ENDROOT
BRANCH   1   2
ATOM      2  C   UNL A   1      33.059  27.685  26.497  1.00  0.00     0.118 C 
BRANCH   2   3
ATOM      3  N   UNL A   1      31.767  27.387  25.900  1.00  0.00    -0.351 N 
ATOM      4  C   UNL A   1      31.094  26.202  25.685  1.00  0.00     0.271 C 
ATOM      5  O   UNL A   1      29.948  26.299  25.243  1.00  0.00    -0.267 OA
ATOM      6  H   UNL A   1      31.279  28.184  25.590  1.00  0.00     0.163 HD
BRANCH   4   7
ATOM      7  C   UNL A   1      31.717  24.898  25.964  1.00  0.00     0.146 A 
ATOM      8  N   UNL A   1      32.841  22.996  25.866  1.00  0.00    -0.290 N 
ATOM      9  C   UNL A   1      32.134  23.049  27.031  1.00  0.00     0.206 A 
ATOM     10  C   UNL A   1      32.530  24.130  25.161  1.00  0.00     0.128 A 
ATOM     11  N   UNL A   1      31.500  24.198  27.149  1.00  0.00    -0.231 NA
BRANCH   8  12
ATOM     12  C   UNL A   1      33.684  21.978  25.384  1.00  0.00     0.143 A 
ATOM     13  C   UNL A   1      33.947  19.700  24.810  1.00  0.00     0.053 A 
ATOM     14  C   UNL A   1      33.102  20.741  25.137  1.00  0.00     0.072 A 
ATOM     15  N   UNL A   1      35.284  19.878  24.851  1.00  0.00    -0.222 NA
ATOM     16  C   UNL A   1      35.734  21.120  25.100  1.00  0.00     0.224 A 
ATOM     17  N   UNL A   1      35.001  22.215  25.325  1.00  0.00    -0.200 NA
ATOM     18  Cl  UNL A   1      37.423  21.291  25.272  1.00  0.00    -0.041 Cl
BRANCH  13  19
ATOM     19  C   UNL A   1      33.424  18.312  24.427  1.00  0.00     0.004 C 
ATOM     20  C   UNL A   1      34.613  17.395  24.071  1.00  0.00     0.017 C 
ATOM     21  C   UNL A   1      32.481  18.331  23.202  1.00  0.00     0.017 C 
ATOM     22  C   UNL A   1      32.661  17.714  25.621  1.00  0.00     0.017 C 
ENDBRANCH  13  19
ENDBRANCH   8  12
ENDBRANCH   4   7
ENDBRANCH   2   3
ENDBRANCH   1   2
BRANCH   1  23
ATOM     23  C   UNL A   1      34.317  29.740  27.259  1.00  0.00     0.118 C 
BRANCH  23  24
ATOM     24  N   UNL A   1      34.208  31.056  27.898  1.00  0.00    -0.352 N 
ATOM     25  C   UNL A   1      34.920  31.566  28.961  1.00  0.00     0.251 C 
ATOM     26  H   UNL A   1      33.531  31.659  27.513  1.00  0.00     0.163 HD
ATOM     27  O   UNL A   1      34.509  32.549  29.576  1.00  0.00    -0.269 OA
BRANCH  25  28
ATOM     28  C   UNL A   1      36.175  30.914  29.359  1.00  0.00     0.039 A 
ATOM     29  C   UNL A   1      36.191  29.605  29.848  1.00  0.00     0.014 A 
ATOM     30  C   UNL A   1      37.358  31.624  29.186  1.00  0.00     0.014 A 
ATOM     31  C   UNL A   1      37.419  28.990  30.074  1.00  0.00     0.010 A 
ATOM     32  C   UNL A   1      38.555  30.961  29.232  1.00  0.00     0.010 A 
ATOM     33  C   UNL A   1      38.601  29.668  29.736  1.00  0.00    -0.014 A 
BRANCH  33  34
ATOM     34  C   UNL A   1      39.894  28.998  29.796  1.00  0.00     0.031 A 
ATOM     35  C   UNL A   1      40.460  28.866  31.168  1.00  0.00     0.074 A 
ATOM     36  C   UNL A   1      40.424  28.340  28.741  1.00  0.00     0.049 A 
ATOM     37  N   UNL A   1      41.540  29.400  31.634  1.00  0.00    -0.248 NA
ATOM     38  C   UNL A   1      39.661  28.159  32.185  1.00  0.00     0.031 C 
ATOM     39  C   UNL A   1      39.832  28.102  27.418  1.00  0.00     0.029 A 
ATOM     40  N   UNL A   1      41.587  27.640  28.670  1.00  0.00    -0.354 N 
ATOM     41  C   UNL A   1      41.668  28.930  32.938  1.00  0.00     0.074 A 
ATOM     42  C   UNL A   1      40.408  28.325  33.278  1.00  0.00     0.031 C 
ATOM     43  C   UNL A   1      40.516  27.127  26.780  1.00  0.00     0.029 A 
ATOM     44  C   UNL A   1      41.694  26.807  27.561  1.00  0.00     0.049 A 
ATOM     45  H   UNL A   1      42.297  27.716  29.347  1.00  0.00     0.167 HD
ATOM     46  C   UNL A   1      42.885  28.863  33.548  1.00  0.00     0.037 A 
ATOM     47  C   UNL A   1      42.674  25.903  27.319  1.00  0.00     0.037 A 
ATOM     48  C   UNL A   1      43.857  29.677  32.864  1.00  0.00     0.049 A 
ATOM     49  C   UNL A   1      43.829  26.268  28.175  1.00  0.00     0.074 A 
ATOM     50  C   UNL A   1      43.954  31.021  32.557  1.00  0.00     0.029 A 
ATOM     51  N   UNL A   1      44.749  29.044  32.033  1.00  0.00    -0.354 N 
ATOM     52  N   UNL A   1      44.538  27.350  28.012  1.00  0.00    -0.248 NA
ATOM     53  C   UNL A   1      43.903  25.663  29.495  1.00  0.00     0.031 C 
ATOM     54  C   UNL A   1      44.500  31.057  31.240  1.00  0.00     0.029 A 
ATOM     55  C   UNL A   1      44.777  29.745  30.854  1.00  0.00     0.049 A 
ATOM     56  H   UNL A   1      45.270  28.236  32.243  1.00  0.00     0.167 HD
ATOM     57  C   UNL A   1      44.786  27.803  29.299  1.00  0.00     0.074 A 
ATOM     58  C   UNL A   1      44.448  26.678  30.171  1.00  0.00     0.031 C 
ATOM     59  C   UNL A   1      44.962  29.133  29.558  1.00  0.00     0.037 A 
BRANCH  46  60
ATOM     60  C   UNL A   1      43.283  27.786  34.526  1.00  0.00     0.057 A 
ATOM     61  C   UNL A   1      43.437  26.463  34.074  1.00  0.00     0.134 A 
ATOM     62  C   UNL A   1      43.241  27.938  35.928  1.00  0.00     0.134 A 
ATOM     63  F   UNL A   1      43.466  26.183  32.763  1.00  0.00    -0.206 F 
ATOM     64  C   UNL A   1      43.481  25.371  34.951  1.00  0.00     0.040 A 
ATOM     65  C   UNL A   1      43.337  26.861  36.812  1.00  0.00     0.040 A 
ATOM     66  F   UNL A   1      42.999  29.116  36.514  1.00  0.00    -0.206 F 
ATOM     67  C   UNL A   1      43.427  25.567  36.325  1.00  0.00     0.006 A 
ENDBRANCH  46  60
BRANCH  47  68
ATOM     68  C   UNL A   1      42.579  24.592  26.638  1.00  0.00     0.057 A 
ATOM     69  C   UNL A   1      43.232  24.360  25.420  1.00  0.00     0.134 A 
ATOM     70  C   UNL A   1      42.093  23.453  27.304  1.00  0.00     0.134 A 
ATOM     71  F   UNL A   1      43.763  25.379  24.729  1.00  0.00    -0.206 F 
ATOM     72  C   UNL A   1      43.421  23.069  24.908  1.00  0.00     0.040 A 
ATOM     73  C   UNL A   1      42.268  22.160  26.803  1.00  0.00     0.040 A 
ATOM     74  F   UNL A   1      41.512  23.552  28.509  1.00  0.00    -0.206 F 
ATOM     75  C   UNL A   1      42.950  21.962  25.608  1.00  0.00     0.006 A 
ENDBRANCH  47  68
BRANCH  59  76
ATOM     76  C   UNL A   1      45.125  30.063  28.384  1.00  0.00     0.057 A 
ATOM     77  C   UNL A   1      44.067  30.725  27.741  1.00  0.00     0.134 A 
ATOM     78  C   UNL A   1      46.418  30.415  27.983  1.00  0.00     0.134 A 
ATOM     79  F   UNL A   1      42.797  30.535  28.116  1.00  0.00    -0.206 F 
ATOM     80  C   UNL A   1      44.284  31.657  26.722  1.00  0.00     0.040 A 
ATOM     81  C   UNL A   1      46.651  31.370  26.990  1.00  0.00     0.040 A 
ATOM     82  F   UNL A   1      47.485  29.868  28.588  1.00  0.00    -0.206 F 
ATOM     83  C   UNL A   1      45.583  31.987  26.348  1.00  0.00     0.006 A 
ENDBRANCH  59  76
ENDBRANCH  33  34
ENDBRANCH  25  28
ENDBRANCH  23  24
ENDBRANCH   1  23
TORSDOF 12
ENDMDL
MODEL 2
REMARK VINA RESULT:     -12.3      3.130      7.897
REMARK SMILES CC(C)(C)c1cc(-n2cnc(C(=O)NCCCNC(=O)c3ccc(-c4c5nc(c(-c6c(F)cccc6F)c6ccc([nH]6)c(-c6c(F)cccc6F)c6nc(c(-c7c(F)cccc7F)c7ccc4[nH]7)C=C6)C=C5)cc3)c2)nc(Cl)n1
REMARK SMILES IDX 16 1 15 2 14 3 12 4 13 5 11 7 8 8 9 9 75 10 10 11 7 12 5 13
REMARK SMILES IDX 6 14 79 15 77 16 76 17 78 18 2 19 1 20 3 21 4 22 17 23 18 24
REMARK SMILES IDX 19 25 20 27 21 28 22 29 74 30 23 31 73 32 24 33 25 34 26 35
REMARK SMILES IDX 67 36 27 37 72 38 66 39 68 40 28 41 71 42 65 43 64 44 29 46
REMARK SMILES IDX 55 47 38 48 54 49 39 50 42 51 53 52 69 53 40 54 41 55 52 57
REMARK SMILES IDX 70 58 43 59 30 60 31 61 36 62 32 63 33 64 35 65 37 66 34 67
REMARK SMILES IDX 56 68 57 69 62 70 58 71 59 72 61 73 63 74 60 75 44 76 45 77
REMARK SMILES IDX 50 78 46 79 47 80 49 81 51 82 48 83
REMARK H PARENT 14 6 18 26 68 45 42 56
REMARK Flexibility Score: inf
ROOT
ATOM      1  C   UNL A   1      41.159  19.208  26.132  1.00  0.00     0.042 C 
ENDROOT
BRANCH   1   2
ATOM      2  C   UNL A   1      39.915  20.061  25.846  1.00  0.00     0.118 C 
BRANCH   2   3
ATOM      3  N   UNL A   1      40.094  21.460  26.201  1.00  0.00    -0.351 N 
ATOM      4  C   UNL A   1      39.232  22.538  26.189  1.00  0.00     0.271 C 
ATOM      5  O   UNL A   1      39.671  23.590  26.657  1.00  0.00    -0.267 OA
ATOM      6  H   UNL A   1      41.003  21.680  26.507  1.00  0.00     0.163 HD
BRANCH   4   7
ATOM      7  C   UNL A   1      37.870  22.434  25.641  1.00  0.00     0.146 A 
ATOM      8  N   UNL A   1      35.793  21.847  25.164  1.00  0.00    -0.290 N 
ATOM      9  C   UNL A   1      36.191  22.840  24.318  1.00  0.00     0.206 A 
ATOM     10  C   UNL A   1      36.869  21.543  25.957  1.00  0.00     0.128 A 
ATOM     11  N   UNL A   1      37.406  23.255  24.615  1.00  0.00    -0.231 NA
BRANCH   8  12
ATOM     12  C   UNL A   1      34.560  21.171  25.220  1.00  0.00     0.143 A 
ATOM     13  C   UNL A   1      33.273  19.295  24.579  1.00  0.00     0.053 A 
ATOM     14  C   UNL A   1      34.511  19.900  24.661  1.00  0.00     0.072 A 
ATOM     15  N   UNL A   1      32.163  19.979  24.925  1.00  0.00    -0.222 NA
ATOM     16  C   UNL A   1      32.332  21.201  25.457  1.00  0.00     0.224 A 
ATOM     17  N   UNL A   1      33.489  21.834  25.677  1.00  0.00    -0.200 NA
ATOM     18  Cl  UNL A   1      30.911  22.092  25.768  1.00  0.00    -0.041 Cl
BRANCH  13  19
ATOM     19  C   UNL A   1      33.098  17.861  24.066  1.00  0.00     0.004 C 
ATOM     20  C   UNL A   1      32.487  17.894  22.649  1.00  0.00     0.017 C 
ATOM     21  C   UNL A   1      32.157  17.009  24.948  1.00  0.00     0.017 C 
ATOM     22  C   UNL A   1      34.472  17.173  24.010  1.00  0.00     0.017 C 
ENDBRANCH  13  19
ENDBRANCH   8  12
ENDBRANCH   4   7
ENDBRANCH   2   3
ENDBRANCH   1   2
BRANCH   1  23
ATOM     23  C   UNL A   1      42.327  20.063  26.600  1.00  0.00     0.118 C 
BRANCH  23  24
ATOM     24  N   UNL A   1      43.522  19.861  25.773  1.00  0.00    -0.352 N 
ATOM     25  C   UNL A   1      44.317  20.801  25.154  1.00  0.00     0.251 C 
ATOM     26  H   UNL A   1      43.794  18.924  25.643  1.00  0.00     0.163 HD
ATOM     27  O   UNL A   1      45.087  20.472  24.253  1.00  0.00    -0.269 OA
BRANCH  25  28
ATOM     28  C   UNL A   1      44.227  22.204  25.578  1.00  0.00     0.039 A 
ATOM     29  C   UNL A   1      43.327  23.089  24.977  1.00  0.00     0.014 A 
ATOM     30  C   UNL A   1      45.033  22.616  26.632  1.00  0.00     0.014 A 
ATOM     31  C   UNL A   1      43.184  24.365  25.513  1.00  0.00     0.010 A 
ATOM     32  C   UNL A   1      44.761  23.798  27.268  1.00  0.00     0.010 A 
ATOM     33  C   UNL A   1      43.887  24.704  26.680  1.00  0.00    -0.014 A 
BRANCH  33  34
ATOM     34  C   UNL A   1      43.637  25.964  27.367  1.00  0.00     0.031 A 
ATOM     35  C   UNL A   1      44.581  27.061  27.013  1.00  0.00     0.074 A 
ATOM     36  C   UNL A   1      42.511  26.196  28.078  1.00  0.00     0.049 A 
ATOM     37  N   UNL A   1      45.430  27.656  27.784  1.00  0.00    -0.248 NA
ATOM     38  C   UNL A   1      44.685  27.458  25.597  1.00  0.00     0.031 C 
ATOM     39  C   UNL A   1      41.338  25.328  28.246  1.00  0.00     0.029 A 
ATOM     40  N   UNL A   1      42.130  27.329  28.727  1.00  0.00    -0.354 N 
ATOM     41  C   UNL A   1      46.029  28.642  27.005  1.00  0.00     0.074 A 
ATOM     42  C   UNL A   1      45.668  28.360  25.641  1.00  0.00     0.031 C 
ATOM     43  C   UNL A   1      40.302  26.048  28.729  1.00  0.00     0.029 A 
ATOM     44  C   UNL A   1      40.786  27.369  29.080  1.00  0.00     0.049 A 
ATOM     45  H   UNL A   1      42.755  28.062  28.930  1.00  0.00     0.167 HD
ATOM     46  C   UNL A   1      46.576  29.754  27.573  1.00  0.00     0.037 A 
ATOM     47  C   UNL A   1      40.116  28.425  29.603  1.00  0.00     0.037 A 
ATOM     48  C   UNL A   1      46.803  29.563  28.982  1.00  0.00     0.049 A 
ATOM     49  C   UNL A   1      41.129  29.355  30.158  1.00  0.00     0.074 A 
ATOM     50  C   UNL A   1      47.546  28.671  29.733  1.00  0.00     0.029 A 
ATOM     51  N   UNL A   1      45.901  30.118  29.856  1.00  0.00    -0.354 N 
ATOM     52  N   UNL A   1      41.874  29.083  31.193  1.00  0.00    -0.248 NA
ATOM     53  C   UNL A   1      41.638  30.395  29.278  1.00  0.00     0.031 C 
ATOM     54  C   UNL A   1      46.726  28.372  30.861  1.00  0.00     0.029 A 
ATOM     55  C   UNL A   1      45.573  29.153  30.774  1.00  0.00     0.049 A 
ATOM     56  H   UNL A   1      45.553  31.039  29.828  1.00  0.00     0.167 HD
ATOM     57  C   UNL A   1      43.125  29.584  30.867  1.00  0.00     0.074 A 
ATOM     58  C   UNL A   1      42.897  30.457  29.717  1.00  0.00     0.031 C 
ATOM     59  C   UNL A   1      44.264  29.020  31.370  1.00  0.00     0.037 A 
BRANCH  46  60
ATOM     60  C   UNL A   1      46.557  31.123  26.940  1.00  0.00     0.057 A 
ATOM     61  C   UNL A   1      47.741  31.882  26.894  1.00  0.00     0.134 A 
ATOM     62  C   UNL A   1      45.378  31.837  26.638  1.00  0.00     0.134 A 
ATOM     63  F   UNL A   1      48.925  31.326  27.186  1.00  0.00    -0.206 F 
ATOM     64  C   UNL A   1      47.741  33.257  26.629  1.00  0.00     0.040 A 
ATOM     65  C   UNL A   1      45.373  33.197  26.321  1.00  0.00     0.040 A 
ATOM     66  F   UNL A   1      44.162  31.287  26.735  1.00  0.00    -0.206 F 
ATOM     67  C   UNL A   1      46.554  33.921  26.345  1.00  0.00     0.006 A 
ENDBRANCH  46  60
BRANCH  47  68
ATOM     68  C   UNL A   1      38.707  28.827  29.392  1.00  0.00     0.057 A 
ATOM     69  C   UNL A   1      37.811  28.912  30.467  1.00  0.00     0.134 A 
ATOM     70  C   UNL A   1      38.285  29.415  28.188  1.00  0.00     0.134 A 
ATOM     71  F   UNL A   1      38.140  28.413  31.667  1.00  0.00    -0.206 F 
ATOM     72  C   UNL A   1      36.580  29.572  30.361  1.00  0.00     0.040 A 
ATOM     73  C   UNL A   1      37.056  30.072  28.065  1.00  0.00     0.040 A 
ATOM     74  F   UNL A   1      39.089  29.451  27.116  1.00  0.00    -0.206 F 
ATOM     75  C   UNL A   1      36.205  30.168  29.160  1.00  0.00     0.006 A 
ENDBRANCH  47  68
BRANCH  59  76
ATOM     76  C   UNL A   1      44.119  28.006  32.475  1.00  0.00     0.057 A 
ATOM     77  C   UNL A   1      44.017  26.620  32.274  1.00  0.00     0.134 A 
ATOM     78  C   UNL A   1      44.234  28.439  33.801  1.00  0.00     0.134 A 
ATOM     79  F   UNL A   1      44.001  26.096  31.043  1.00  0.00    -0.206 F 
ATOM     80  C   UNL A   1      43.989  25.716  33.340  1.00  0.00     0.040 A 
ATOM     81  C   UNL A   1      44.242  27.543  34.873  1.00  0.00     0.040 A 
ATOM     82  F   UNL A   1      44.392  29.744  34.073  1.00  0.00    -0.206 F 
ATOM     83  C   UNL A   1      44.108  26.178  34.646  1.00  0.00     0.006 A 
ENDBRANCH  59  76
ENDBRANCH  33  34
ENDBRANCH  25  28
ENDBRANCH  23  24
ENDBRANCH   1  23
TORSDOF 12
ENDMDL
MODEL 3
REMARK VINA RESULT:     -12.3      4.592     10.139
REMARK SMILES CC(C)(C)c1cc(-n2cnc(C(=O)NCCCNC(=O)c3ccc(-c4c5nc(c(-c6c(F)cccc6F)c6ccc([nH]6)c(-c6c(F)cccc6F)c6nc(c(-c7c(F)cccc7F)c7ccc4[nH]7)C=C6)C=C5)cc3)c2)nc(Cl)n1
REMARK SMILES IDX 16 1 15 2 14 3 12 4 13 5 11 7 8 8 9 9 75 10 10 11 7 12 5 13
REMARK SMILES IDX 6 14 79 15 77 16 76 17 78 18 2 19 1 20 3 21 4 22 17 23 18 24
REMARK SMILES IDX 19 25 20 27 21 28 22 29 74 30 23 31 73 32 24 33 25 34 26 35
REMARK SMILES IDX 67 36 27 37 72 38 66 39 68 40 28 41 71 42 65 43 64 44 29 46
REMARK SMILES IDX 55 47 38 48 54 49 39 50 42 51 53 52 69 53 40 54 41 55 52 57
REMARK SMILES IDX 70 58 43 59 30 60 31 61 36 62 32 63 33 64 35 65 37 66 34 67
REMARK SMILES IDX 56 68 57 69 62 70 58 71 59 72 61 73 63 74 60 75 44 76 45 77
REMARK SMILES IDX 50 78 46 79 47 80 49 81 51 82 48 83
REMARK H PARENT 14 6 18 26 68 45 42 56
REMARK Flexibility Score: inf
ROOT
ATOM      1  C   UNL A   1      42.452  19.420  27.295  1.00  0.00     0.042 C 
ENDROOT
BRANCH   1   2
ATOM      2  C   UNL A   1      42.346  19.058  25.807  1.00  0.00     0.118 C 
BRANCH   2   3
ATOM      3  N   UNL A   1      43.584  18.524  25.264  1.00  0.00    -0.351 N 
ATOM      4  C   UNL A   1      44.742  19.131  24.822  1.00  0.00     0.271 C 
ATOM      5  O   UNL A   1      45.667  18.379  24.512  1.00  0.00    -0.267 OA
ATOM      6  H   UNL A   1      43.599  17.542  25.199  1.00  0.00     0.163 HD
BRANCH   4   7
ATOM      7  C   UNL A   1      44.858  20.595  24.723  1.00  0.00     0.146 A 
ATOM      8  N   UNL A   1      45.169  22.750  25.107  1.00  0.00    -0.290 N 
ATOM      9  C   UNL A   1      44.670  22.579  23.849  1.00  0.00     0.206 A 
ATOM     10  C   UNL A   1      45.228  21.508  25.684  1.00  0.00     0.128 A 
ATOM     11  N   UNL A   1      44.530  21.299  23.566  1.00  0.00    -0.231 NA
BRANCH   8  12
ATOM     12  C   UNL A   1      45.509  23.943  25.772  1.00  0.00     0.143 A 
ATOM     13  C   UNL A   1      46.808  25.917  25.805  1.00  0.00     0.053 A 
ATOM     14  C   UNL A   1      46.351  24.821  25.102  1.00  0.00     0.072 A 
ATOM     15  N   UNL A   1      46.526  26.041  27.119  1.00  0.00    -0.222 NA
ATOM     16  C   UNL A   1      45.699  25.132  27.661  1.00  0.00     0.224 A 
ATOM     17  N   UNL A   1      45.120  24.097  27.045  1.00  0.00    -0.200 NA
ATOM     18  Cl  UNL A   1      45.461  25.239  29.347  1.00  0.00    -0.041 Cl
BRANCH  13  19
ATOM     19  C   UNL A   1      47.669  27.005  25.153  1.00  0.00     0.004 C 
ATOM     20  C   UNL A   1      48.329  26.441  23.877  1.00  0.00     0.017 C 
ATOM     21  C   UNL A   1      48.808  27.511  26.068  1.00  0.00     0.017 C 
ATOM     22  C   UNL A   1      46.776  28.199  24.779  1.00  0.00     0.017 C 
ENDBRANCH  13  19
ENDBRANCH   8  12
ENDBRANCH   4   7
ENDBRANCH   2   3
ENDBRANCH   1   2
BRANCH   1  23
ATOM     23  C   UNL A   1      41.500  20.547  27.666  1.00  0.00     0.118 C 
BRANCH  23  24
ATOM     24  N   UNL A   1      40.616  20.908  26.552  1.00  0.00    -0.352 N 
ATOM     25  C   UNL A   1      39.864  22.049  26.377  1.00  0.00     0.251 C 
ATOM     26  H   UNL A   1      40.551  20.242  25.830  1.00  0.00     0.163 HD
ATOM     27  O   UNL A   1      38.945  22.074  25.560  1.00  0.00    -0.269 OA
BRANCH  25  28
ATOM     28  C   UNL A   1      40.168  23.236  27.187  1.00  0.00     0.039 A 
ATOM     29  C   UNL A   1      41.436  23.435  27.739  1.00  0.00     0.014 A 
ATOM     30  C   UNL A   1      39.164  24.185  27.349  1.00  0.00     0.014 A 
ATOM     31  C   UNL A   1      41.707  24.643  28.375  1.00  0.00     0.010 A 
ATOM     32  C   UNL A   1      39.484  25.434  27.809  1.00  0.00     0.010 A 
ATOM     33  C   UNL A   1      40.731  25.651  28.382  1.00  0.00    -0.014 A 
BRANCH  33  34
ATOM     34  C   UNL A   1      41.033  26.985  28.886  1.00  0.00     0.031 A 
ATOM     35  C   UNL A   1      42.263  27.600  28.313  1.00  0.00     0.074 A 
ATOM     36  C   UNL A   1      40.156  27.702  29.623  1.00  0.00     0.049 A 
ATOM     37  N   UNL A   1      43.352  27.920  28.931  1.00  0.00    -0.248 NA
ATOM     38  C   UNL A   1      42.342  27.762  26.849  1.00  0.00     0.031 C 
ATOM     39  C   UNL A   1      38.776  27.362  29.993  1.00  0.00     0.029 A 
ATOM     40  N   UNL A   1      40.287  28.962  30.117  1.00  0.00    -0.354 N 
ATOM     41  C   UNL A   1      44.174  28.512  27.977  1.00  0.00     0.074 A 
ATOM     42  C   UNL A   1      43.583  28.229  26.696  1.00  0.00     0.031 C 
ATOM     43  C   UNL A   1      38.133  28.468  30.426  1.00  0.00     0.029 A 
ATOM     44  C   UNL A   1      39.098  29.543  30.544  1.00  0.00     0.049 A 
ATOM     45  H   UNL A   1      41.154  29.427  30.169  1.00  0.00     0.167 HD
ATOM     46  C   UNL A   1      45.147  29.397  28.335  1.00  0.00     0.037 A 
ATOM     47  C   UNL A   1      38.920  30.826  30.943  1.00  0.00     0.037 A 
ATOM     48  C   UNL A   1      45.448  29.300  29.740  1.00  0.00     0.049 A 
ATOM     49  C   UNL A   1      40.257  31.367  31.287  1.00  0.00     0.074 A 
ATOM     50  C   UNL A   1      45.898  28.289  30.569  1.00  0.00     0.029 A 
ATOM     51  N   UNL A   1      44.914  30.250  30.576  1.00  0.00    -0.354 N 
ATOM     52  N   UNL A   1      40.965  30.959  32.303  1.00  0.00    -0.248 NA
ATOM     53  C   UNL A   1      41.003  32.032  30.232  1.00  0.00     0.031 C 
ATOM     54  C   UNL A   1      45.160  28.451  31.778  1.00  0.00     0.029 A 
ATOM     55  C   UNL A   1      44.366  29.591  31.647  1.00  0.00     0.049 A 
ATOM     56  H   UNL A   1      44.922  31.224  30.433  1.00  0.00     0.167 HD
ATOM     57  C   UNL A   1      42.267  30.914  31.828  1.00  0.00     0.074 A 
ATOM     58  C   UNL A   1      42.242  31.669  30.576  1.00  0.00     0.031 C 
ATOM     59  C   UNL A   1      43.175  30.028  32.338  1.00  0.00     0.037 A 
BRANCH  46  60
ATOM     60  C   UNL A   1      45.553  30.590  27.507  1.00  0.00     0.057 A 
ATOM     61  C   UNL A   1      46.918  30.888  27.341  1.00  0.00     0.134 A 
ATOM     62  C   UNL A   1      44.666  31.613  27.109  1.00  0.00     0.134 A 
ATOM     63  F   UNL A   1      47.862  30.008  27.706  1.00  0.00    -0.206 F 
ATOM     64  C   UNL A   1      47.364  32.131  26.876  1.00  0.00     0.040 A 
ATOM     65  C   UNL A   1      45.100  32.837  26.594  1.00  0.00     0.040 A 
ATOM     66  F   UNL A   1      43.344  31.528  27.294  1.00  0.00    -0.206 F 
ATOM     67  C   UNL A   1      46.454  33.112  26.503  1.00  0.00     0.006 A 
ENDBRANCH  46  60
BRANCH  47  68
ATOM     68  C   UNL A   1      37.738  31.698  30.764  1.00  0.00     0.057 A 
ATOM     69  C   UNL A   1      37.193  32.409  31.842  1.00  0.00     0.134 A 
ATOM     70  C   UNL A   1      37.296  32.081  29.485  1.00  0.00     0.134 A 
ATOM     71  F   UNL A   1      37.580  32.141  33.098  1.00  0.00    -0.206 F 
ATOM     72  C   UNL A   1      36.287  33.463  31.659  1.00  0.00     0.040 A 
ATOM     73  C   UNL A   1      36.388  33.126  29.288  1.00  0.00     0.040 A 
ATOM     74  F   UNL A   1      37.802  31.514  28.380  1.00  0.00    -0.206 F 
ATOM     75  C   UNL A   1      35.893  33.834  30.377  1.00  0.00     0.006 A 
ENDBRANCH  47  68
BRANCH  59  76
ATOM     76  C   UNL A   1      42.799  29.277  33.589  1.00  0.00     0.057 A 
ATOM     77  C   UNL A   1      42.131  28.043  33.606  1.00  0.00     0.134 A 
ATOM     78  C   UNL A   1      43.264  29.754  34.820  1.00  0.00     0.134 A 
ATOM     79  F   UNL A   1      41.733  27.453  32.473  1.00  0.00    -0.206 F 
ATOM     80  C   UNL A   1      41.899  27.340  34.792  1.00  0.00     0.040 A 
ATOM     81  C   UNL A   1      43.069  29.045  36.008  1.00  0.00     0.040 A 
ATOM     82  F   UNL A   1      43.962  30.899  34.881  1.00  0.00    -0.206 F 
ATOM     83  C   UNL A   1      42.375  27.840  36.000  1.00  0.00     0.006 A 
ENDBRANCH  59  76
ENDBRANCH  33  34
ENDBRANCH  25  28
ENDBRANCH  23  24
ENDBRANCH   1  23
TORSDOF 12
ENDMDL
