MODEL 1
REMARK VINA RESULT:     -11.5      0.000      0.000
REMARK SMILES C[C@@H]1CN(C(=O)NC[C@@H]2CCC[C@@H]2C(=O)NCCCNC(=O)c2ccc(-c3c4nc(c(-c5c(F)cccc5F)c5ccc([nH]5)c(-c5c(F)cccc5F)c5nc(c(-c6c(F)cccc6F)c6ccc3[nH]6)C=C5)C=C4)cc2)C[C@@H]1C
REMARK SMILES IDX 17 1 16 2 14 3 15 4 13 6 9 7 10 8 11 9 12 10 8 11 7 12 5 13
REMARK SMILES IDX 6 14 4 16 1 17 2 18 3 19 78 20 77 21 79 22 18 23 19 24 20 25
REMARK SMILES IDX 21 26 22 28 23 29 24 30 76 31 25 32 75 33 26 34 27 35 28 36
REMARK SMILES IDX 69 37 29 38 74 39 68 40 70 41 30 42 73 43 67 44 66 45 31 47
REMARK SMILES IDX 57 48 40 49 56 50 41 51 44 52 55 53 71 54 42 55 43 56 54 58
REMARK SMILES IDX 72 59 45 60 32 61 33 62 38 63 34 64 35 65 37 66 39 67 36 68
REMARK SMILES IDX 58 69 59 70 64 71 60 72 61 73 63 74 65 75 62 76 46 77 47 78
REMARK SMILES IDX 52 79 48 80 49 81 51 82 53 83 50 84
REMARK H PARENT 16 5 7 15 20 27 70 46 44 57
REMARK Flexibility Score: inf
ROOT
ATOM      1  C   UNL A   1      36.883  20.873  24.633  1.00  0.00     0.117 C 
ENDROOT
BRANCH   1   2
ATOM      2  N   UNL A   1      35.799  20.381  25.469  1.00  0.00    -0.356 N 
ATOM      3  C   UNL A   1      34.654  21.063  25.743  1.00  0.00     0.223 C 
ATOM      4  O   UNL A   1      34.480  21.421  26.913  1.00  0.00    -0.275 OA
ATOM      5  H   UNL A   1      35.902  19.486  25.866  1.00  0.00     0.163 HD
BRANCH   3   6
ATOM      6  C   UNL A   1      33.573  21.323  24.693  1.00  0.00     0.083 C 
ATOM      7  C   UNL A   1      33.286  22.783  24.297  1.00  0.00     0.021 C 
ATOM      8  C   UNL A   1      32.235  23.238  25.309  1.00  0.00     0.006 C 
ATOM      9  C   UNL A   1      31.386  21.996  25.572  1.00  0.00     0.001 C 
ATOM     10  C   UNL A   1      32.172  20.803  25.012  1.00  0.00     0.014 C 
BRANCH   7  11
ATOM     11  C   UNL A   1      34.449  23.753  24.040  1.00  0.00     0.122 C 
BRANCH  11  12
ATOM     12  N   UNL A   1      34.239  24.662  22.930  1.00  0.00    -0.338 N 
ATOM     13  C   UNL A   1      33.540  25.777  22.680  1.00  0.00     0.317 C 
ATOM     14  O   UNL A   1      33.668  26.242  21.543  1.00  0.00    -0.249 OA
ATOM     15  H   UNL A   1      34.756  24.382  22.140  1.00  0.00     0.165 HD
BRANCH  13  16
ATOM     16  N   UNL A   1      32.736  26.368  23.592  1.00  0.00    -0.324 N 
ATOM     17  C   UNL A   1      31.708  28.072  26.732  1.00  0.00     0.010 C 
ATOM     18  C   UNL A   1      31.710  27.086  25.580  1.00  0.00     0.010 C 
ATOM     19  C   UNL A   1      33.049  27.012  24.854  1.00  0.00     0.125 C 
ATOM     20  C   UNL A   1      30.728  27.345  24.428  1.00  0.00     0.010 C 
ATOM     21  C   UNL A   1      31.297  26.421  23.345  1.00  0.00     0.125 C 
ATOM     22  C   UNL A   1      30.681  28.793  23.938  1.00  0.00     0.010 C 
ENDBRANCH  13  16
ENDBRANCH  11  12
ENDBRANCH   7  11
ENDBRANCH   3   6
ENDBRANCH   1   2
BRANCH   1  23
ATOM     23  C   UNL A   1      38.109  19.956  24.658  1.00  0.00     0.042 C 
BRANCH  23  24
ATOM     24  C   UNL A   1      38.932  20.061  25.940  1.00  0.00     0.118 C 
BRANCH  24  25
ATOM     25  N   UNL A   1      40.147  19.255  25.876  1.00  0.00    -0.352 N 
ATOM     26  C   UNL A   1      41.464  19.609  26.001  1.00  0.00     0.251 C 
ATOM     27  H   UNL A   1      39.994  18.295  25.718  1.00  0.00     0.163 HD
ATOM     28  O   UNL A   1      42.337  18.813  25.642  1.00  0.00    -0.269 OA
BRANCH  26  29
ATOM     29  C   UNL A   1      41.865  20.920  26.553  1.00  0.00     0.039 A 
ATOM     30  C   UNL A   1      42.228  21.945  25.672  1.00  0.00     0.014 A 
ATOM     31  C   UNL A   1      41.959  21.128  27.932  1.00  0.00     0.014 A 
ATOM     32  C   UNL A   1      42.628  23.188  26.170  1.00  0.00     0.010 A 
ATOM     33  C   UNL A   1      42.281  22.389  28.426  1.00  0.00     0.010 A 
ATOM     34  C   UNL A   1      42.628  23.431  27.553  1.00  0.00    -0.014 A 
BRANCH  34  35
ATOM     35  C   UNL A   1      42.998  24.758  28.109  1.00  0.00     0.031 A 
ATOM     36  C   UNL A   1      41.938  25.797  28.359  1.00  0.00     0.074 A 
ATOM     37  C   UNL A   1      44.296  25.055  28.318  1.00  0.00     0.049 A 
ATOM     38  N   UNL A   1      42.072  27.043  28.736  1.00  0.00    -0.248 NA
ATOM     39  C   UNL A   1      40.544  25.387  28.126  1.00  0.00     0.031 C 
ATOM     40  C   UNL A   1      45.421  24.151  28.075  1.00  0.00     0.029 A 
ATOM     41  N   UNL A   1      44.887  26.209  28.768  1.00  0.00    -0.354 N 
ATOM     42  C   UNL A   1      40.786  27.569  28.765  1.00  0.00     0.074 A 
ATOM     43  C   UNL A   1      39.892  26.523  28.320  1.00  0.00     0.031 C 
ATOM     44  C   UNL A   1      46.565  24.778  28.394  1.00  0.00     0.029 A 
ATOM     45  C   UNL A   1      46.258  26.138  28.825  1.00  0.00     0.049 A 
ATOM     46  H   UNL A   1      44.377  27.011  29.024  1.00  0.00     0.167 HD
ATOM     47  C   UNL A   1      40.385  28.805  29.148  1.00  0.00     0.037 A 
ATOM     48  C   UNL A   1      47.165  27.068  29.175  1.00  0.00     0.037 A 
ATOM     49  C   UNL A   1      41.274  29.835  29.619  1.00  0.00     0.049 A 
ATOM     50  C   UNL A   1      46.695  28.433  29.596  1.00  0.00     0.074 A 
ATOM     51  C   UNL A   1      40.960  31.102  30.080  1.00  0.00     0.029 A 
ATOM     52  N   UNL A   1      42.654  29.713  29.689  1.00  0.00    -0.354 N 
ATOM     53  N   UNL A   1      45.473  28.899  29.670  1.00  0.00    -0.248 NA
ATOM     54  C   UNL A   1      47.732  29.399  29.988  1.00  0.00     0.031 C 
ATOM     55  C   UNL A   1      42.153  31.760  30.397  1.00  0.00     0.029 A 
ATOM     56  C   UNL A   1      43.207  30.888  30.173  1.00  0.00     0.049 A 
ATOM     57  H   UNL A   1      43.164  28.912  29.432  1.00  0.00     0.167 HD
ATOM     58  C   UNL A   1      45.589  30.199  30.142  1.00  0.00     0.074 A 
ATOM     59  C   UNL A   1      47.001  30.444  30.350  1.00  0.00     0.031 C 
ATOM     60  C   UNL A   1      44.614  31.110  30.383  1.00  0.00     0.037 A 
BRANCH  47  61
ATOM     61  C   UNL A   1      38.915  29.106  29.082  1.00  0.00     0.057 A 
ATOM     62  C   UNL A   1      38.089  29.000  30.209  1.00  0.00     0.134 A 
ATOM     63  C   UNL A   1      38.324  29.536  27.887  1.00  0.00     0.134 A 
ATOM     64  F   UNL A   1      38.590  28.583  31.382  1.00  0.00    -0.206 F 
ATOM     65  C   UNL A   1      36.723  29.282  30.143  1.00  0.00     0.040 A 
ATOM     66  C   UNL A   1      36.965  29.847  27.815  1.00  0.00     0.040 A 
ATOM     67  F   UNL A   1      39.057  29.667  26.771  1.00  0.00    -0.206 F 
ATOM     68  C   UNL A   1      36.159  29.713  28.944  1.00  0.00     0.006 A 
ENDBRANCH  47  61
BRANCH  48  69
ATOM     69  C   UNL A   1      48.613  26.737  29.163  1.00  0.00     0.057 A 
ATOM     70  C   UNL A   1      49.239  26.206  30.297  1.00  0.00     0.134 A 
ATOM     71  C   UNL A   1      49.404  26.947  28.028  1.00  0.00     0.134 A 
ATOM     72  F   UNL A   1      48.536  26.000  31.420  1.00  0.00    -0.206 F 
ATOM     73  C   UNL A   1      50.603  25.913  30.310  1.00  0.00     0.040 A 
ATOM     74  C   UNL A   1      50.765  26.636  28.018  1.00  0.00     0.040 A 
ATOM     75  F   UNL A   1      48.862  27.446  26.907  1.00  0.00    -0.206 F 
ATOM     76  C   UNL A   1      51.369  26.125  29.165  1.00  0.00     0.006 A 
ENDBRANCH  48  69
BRANCH  60  77
ATOM     77  C   UNL A   1      45.039  32.439  30.932  1.00  0.00     0.057 A 
ATOM     78  C   UNL A   1      45.330  33.525  30.097  1.00  0.00     0.134 A 
ATOM     79  C   UNL A   1      45.121  32.644  32.316  1.00  0.00     0.134 A 
ATOM     80  F   UNL A   1      45.284  33.389  28.763  1.00  0.00    -0.206 F 
ATOM     81  C   UNL A   1      45.708  34.763  30.619  1.00  0.00     0.040 A 
ATOM     82  C   UNL A   1      45.474  33.883  32.849  1.00  0.00     0.040 A 
ATOM     83  F   UNL A   1      44.847  31.647  33.170  1.00  0.00    -0.206 F 
ATOM     84  C   UNL A   1      45.774  34.946  31.999  1.00  0.00     0.006 A 
ENDBRANCH  60  77
ENDBRANCH  34  35
ENDBRANCH  26  29
ENDBRANCH  24  25
ENDBRANCH  23  24
ENDBRANCH   1  23
TORSDOF 13
ENDMDL
MODEL 2
REMARK VINA RESULT:     -11.5      3.877      9.149
REMARK SMILES C[C@@H]1CN(C(=O)NC[C@@H]2CCC[C@@H]2C(=O)NCCCNC(=O)c2ccc(-c3c4nc(c(-c5c(F)cccc5F)c5ccc([nH]5)c(-c5c(F)cccc5F)c5nc(c(-c6c(F)cccc6F)c6ccc3[nH]6)C=C5)C=C4)cc2)C[C@@H]1C
REMARK SMILES IDX 17 1 16 2 14 3 15 4 13 6 9 7 10 8 11 9 12 10 8 11 7 12 5 13
REMARK SMILES IDX 6 14 4 16 1 17 2 18 3 19 78 20 77 21 79 22 18 23 19 24 20 25
REMARK SMILES IDX 21 26 22 28 23 29 24 30 76 31 25 32 75 33 26 34 27 35 28 36
REMARK SMILES IDX 69 37 29 38 74 39 68 40 70 41 30 42 73 43 67 44 66 45 31 47
REMARK SMILES IDX 57 48 40 49 56 50 41 51 44 52 55 53 71 54 42 55 43 56 54 58
REMARK SMILES IDX 72 59 45 60 32 61 33 62 38 63 34 64 35 65 37 66 39 67 36 68
REMARK SMILES IDX 58 69 59 70 64 71 60 72 61 73 63 74 65 75 62 76 46 77 47 78
REMARK SMILES IDX 52 79 48 80 49 81 51 82 53 83 50 84
REMARK H PARENT 16 5 7 15 20 27 70 46 44 57
REMARK Flexibility Score: inf
ROOT
ATOM      1  C   UNL A   1      31.588  30.503  26.445  1.00  0.00     0.117 C 
ENDROOT
BRANCH   1   2
ATOM      2  N   UNL A   1      31.714  30.359  25.003  1.00  0.00    -0.356 N 
ATOM      3  C   UNL A   1      31.902  29.180  24.350  1.00  0.00     0.223 C 
ATOM      4  O   UNL A   1      32.983  29.023  23.774  1.00  0.00    -0.275 OA
ATOM      5  H   UNL A   1      31.660  31.178  24.457  1.00  0.00     0.163 HD
BRANCH   3   6
ATOM      6  C   UNL A   1      30.815  28.109  24.247  1.00  0.00     0.083 C 
ATOM      7  C   UNL A   1      31.142  26.695  24.764  1.00  0.00     0.021 C 
ATOM      8  C   UNL A   1      31.767  25.999  23.555  1.00  0.00     0.006 C 
ATOM      9  C   UNL A   1      31.024  26.571  22.350  1.00  0.00     0.001 C 
ATOM     10  C   UNL A   1      30.277  27.815  22.847  1.00  0.00     0.014 C 
BRANCH   7  11
ATOM     11  C   UNL A   1      31.870  26.516  26.104  1.00  0.00     0.122 C 
BRANCH  11  12
ATOM     12  N   UNL A   1      31.510  25.311  26.826  1.00  0.00    -0.338 N 
ATOM     13  C   UNL A   1      31.779  24.000  26.764  1.00  0.00     0.317 C 
ATOM     14  O   UNL A   1      31.233  23.303  27.626  1.00  0.00    -0.249 OA
ATOM     15  H   UNL A   1      30.897  25.513  27.570  1.00  0.00     0.165 HD
BRANCH  13  16
ATOM     16  N   UNL A   1      32.584  23.452  25.827  1.00  0.00    -0.324 N 
ATOM     17  C   UNL A   1      35.656  22.794  23.840  1.00  0.00     0.010 C 
ATOM     18  C   UNL A   1      34.205  23.088  24.166  1.00  0.00     0.010 C 
ATOM     19  C   UNL A   1      34.003  23.629  25.577  1.00  0.00     0.125 C 
ATOM     20  C   UNL A   1      33.220  21.910  24.123  1.00  0.00     0.010 C 
ATOM     21  C   UNL A   1      32.020  22.506  24.868  1.00  0.00     0.125 C 
ATOM     22  C   UNL A   1      33.712  20.637  24.813  1.00  0.00     0.010 C 
ENDBRANCH  13  16
ENDBRANCH  11  12
ENDBRANCH   7  11
ENDBRANCH   3   6
ENDBRANCH   1   2
BRANCH   1  23
ATOM     23  C   UNL A   1      31.403  31.961  26.876  1.00  0.00     0.042 C 
BRANCH  23  24
ATOM     24  C   UNL A   1      32.706  32.752  26.955  1.00  0.00     0.118 C 
BRANCH  24  25
ATOM     25  N   UNL A   1      32.526  34.035  27.626  1.00  0.00    -0.352 N 
ATOM     26  C   UNL A   1      33.167  34.576  28.710  1.00  0.00     0.251 C 
ATOM     27  H   UNL A   1      31.829  34.609  27.234  1.00  0.00     0.163 HD
ATOM     28  O   UNL A   1      32.670  35.556  29.274  1.00  0.00    -0.269 OA
BRANCH  26  29
ATOM     29  C   UNL A   1      34.435  34.015  29.220  1.00  0.00     0.039 A 
ATOM     30  C   UNL A   1      34.402  33.159  30.327  1.00  0.00     0.014 A 
ATOM     31  C   UNL A   1      35.665  34.382  28.666  1.00  0.00     0.014 A 
ATOM     32  C   UNL A   1      35.591  32.631  30.839  1.00  0.00     0.010 A 
ATOM     33  C   UNL A   1      36.840  33.793  29.125  1.00  0.00     0.010 A 
ATOM     34  C   UNL A   1      36.818  32.919  30.222  1.00  0.00    -0.014 A 
BRANCH  34  35
ATOM     35  C   UNL A   1      38.091  32.330  30.712  1.00  0.00     0.031 A 
ATOM     36  C   UNL A   1      38.628  31.067  30.095  1.00  0.00     0.074 A 
ATOM     37  C   UNL A   1      38.724  32.889  31.762  1.00  0.00     0.049 A 
ATOM     38  N   UNL A   1      39.658  30.343  30.452  1.00  0.00    -0.248 NA
ATOM     39  C   UNL A   1      37.890  30.530  28.940  1.00  0.00     0.031 C 
ATOM     40  C   UNL A   1      38.285  34.090  32.474  1.00  0.00     0.029 A 
ATOM     41  N   UNL A   1      39.867  32.511  32.422  1.00  0.00    -0.354 N 
ATOM     42  C   UNL A   1      39.680  29.260  29.582  1.00  0.00     0.074 A 
ATOM     43  C   UNL A   1      38.531  29.394  28.713  1.00  0.00     0.031 C 
ATOM     44  C   UNL A   1      39.155  34.359  33.461  1.00  0.00     0.029 A 
ATOM     45  C   UNL A   1      40.190  33.330  33.476  1.00  0.00     0.049 A 
ATOM     46  H   UNL A   1      40.404  31.727  32.164  1.00  0.00     0.167 HD
ATOM     47  C   UNL A   1      40.585  28.255  29.501  1.00  0.00     0.037 A 
ATOM     48  C   UNL A   1      41.201  33.254  34.361  1.00  0.00     0.037 A 
ATOM     49  C   UNL A   1      41.744  28.140  30.348  1.00  0.00     0.049 A 
ATOM     50  C   UNL A   1      42.193  32.130  34.250  1.00  0.00     0.074 A 
ATOM     51  C   UNL A   1      42.749  27.189  30.310  1.00  0.00     0.029 A 
ATOM     52  N   UNL A   1      42.051  29.007  31.386  1.00  0.00    -0.354 N 
ATOM     53  N   UNL A   1      42.230  31.144  33.389  1.00  0.00    -0.248 NA
ATOM     54  C   UNL A   1      43.287  32.113  35.233  1.00  0.00     0.031 C 
ATOM     55  C   UNL A   1      43.647  27.461  31.348  1.00  0.00     0.029 A 
ATOM     56  C   UNL A   1      43.223  28.605  32.005  1.00  0.00     0.049 A 
ATOM     57  H   UNL A   1      41.514  29.791  31.645  1.00  0.00     0.167 HD
ATOM     58  C   UNL A   1      43.363  30.406  33.705  1.00  0.00     0.074 A 
ATOM     59  C   UNL A   1      43.993  31.065  34.830  1.00  0.00     0.031 C 
ATOM     60  C   UNL A   1      43.841  29.281  33.117  1.00  0.00     0.037 A 
BRANCH  47  61
ATOM     61  C   UNL A   1      40.362  27.207  28.450  1.00  0.00     0.057 A 
ATOM     62  C   UNL A   1      40.992  27.269  27.200  1.00  0.00     0.134 A 
ATOM     63  C   UNL A   1      39.531  26.106  28.700  1.00  0.00     0.134 A 
ATOM     64  F   UNL A   1      41.791  28.301  26.892  1.00  0.00    -0.206 F 
ATOM     65  C   UNL A   1      40.782  26.290  26.226  1.00  0.00     0.040 A 
ATOM     66  C   UNL A   1      39.335  25.107  27.745  1.00  0.00     0.040 A 
ATOM     67  F   UNL A   1      38.903  25.980  29.878  1.00  0.00    -0.206 F 
ATOM     68  C   UNL A   1      39.956  25.202  26.501  1.00  0.00     0.006 A 
ENDBRANCH  47  61
BRANCH  48  69
ATOM     69  C   UNL A   1      41.341  34.286  35.421  1.00  0.00     0.057 A 
ATOM     70  C   UNL A   1      40.779  34.096  36.689  1.00  0.00     0.134 A 
ATOM     71  C   UNL A   1      42.030  35.482  35.192  1.00  0.00     0.134 A 
ATOM     72  F   UNL A   1      40.092  32.978  36.961  1.00  0.00    -0.206 F 
ATOM     73  C   UNL A   1      40.881  35.067  37.686  1.00  0.00     0.040 A 
ATOM     74  C   UNL A   1      42.160  36.452  36.188  1.00  0.00     0.040 A 
ATOM     75  F   UNL A   1      42.597  35.721  34.001  1.00  0.00    -0.206 F 
ATOM     76  C   UNL A   1      41.578  36.247  37.437  1.00  0.00     0.006 A 
ENDBRANCH  48  69
BRANCH  60  77
ATOM     77  C   UNL A   1      45.122  28.717  33.655  1.00  0.00     0.057 A 
ATOM     78  C   UNL A   1      46.371  29.135  33.181  1.00  0.00     0.134 A 
ATOM     79  C   UNL A   1      45.103  27.771  34.688  1.00  0.00     0.134 A 
ATOM     80  F   UNL A   1      46.456  30.028  32.184  1.00  0.00    -0.206 F 
ATOM     81  C   UNL A   1      47.557  28.616  33.701  1.00  0.00     0.040 A 
ATOM     82  C   UNL A   1      46.282  27.263  35.232  1.00  0.00     0.040 A 
ATOM     83  F   UNL A   1      43.939  27.335  35.192  1.00  0.00    -0.206 F 
ATOM     84  C   UNL A   1      47.514  27.682  34.735  1.00  0.00     0.006 A 
ENDBRANCH  60  77
ENDBRANCH  34  35
ENDBRANCH  26  29
ENDBRANCH  24  25
ENDBRANCH  23  24
ENDBRANCH   1  23
TORSDOF 13
ENDMDL
MODEL 3
REMARK VINA RESULT:     -11.4      4.543      9.580
REMARK SMILES C[C@@H]1CN(C(=O)NC[C@@H]2CCC[C@@H]2C(=O)NCCCNC(=O)c2ccc(-c3c4nc(c(-c5c(F)cccc5F)c5ccc([nH]5)c(-c5c(F)cccc5F)c5nc(c(-c6c(F)cccc6F)c6ccc3[nH]6)C=C5)C=C4)cc2)C[C@@H]1C
REMARK SMILES IDX 17 1 16 2 14 3 15 4 13 6 9 7 10 8 11 9 12 10 8 11 7 12 5 13
REMARK SMILES IDX 6 14 4 16 1 17 2 18 3 19 78 20 77 21 79 22 18 23 19 24 20 25
REMARK SMILES IDX 21 26 22 28 23 29 24 30 76 31 25 32 75 33 26 34 27 35 28 36
REMARK SMILES IDX 69 37 29 38 74 39 68 40 70 41 30 42 73 43 67 44 66 45 31 47
REMARK SMILES IDX 57 48 40 49 56 50 41 51 44 52 55 53 71 54 42 55 43 56 54 58
REMARK SMILES IDX 72 59 45 60 32 61 33 62 38 63 34 64 35 65 37 66 39 67 36 68
REMARK SMILES IDX 58 69 59 70 64 71 60 72 61 73 63 74 65 75 62 76 46 77 47 78
REMARK SMILES IDX 52 79 48 80 49 81 51 82 53 83 50 84
REMARK H PARENT 16 5 7 15 20 27 70 46 44 57
REMARK Flexibility Score: inf
ROOT
ATOM      1  C   UNL A   1      31.559  30.499  26.463  1.00  0.00     0.117 C 
ENDROOT
BRANCH   1   2
ATOM      2  N   UNL A   1      31.723  30.339  25.026  1.00  0.00    -0.356 N 
ATOM      3  C   UNL A   1      31.970  29.159  24.396  1.00  0.00     0.223 C 
ATOM      4  O   UNL A   1      33.069  29.034  23.846  1.00  0.00    -0.275 OA
ATOM      5  H   UNL A   1      31.650  31.147  24.468  1.00  0.00     0.163 HD
BRANCH   3   6
ATOM      6  C   UNL A   1      30.927  28.045  24.285  1.00  0.00     0.083 C 
ATOM      7  C   UNL A   1      31.363  26.609  24.632  1.00  0.00     0.021 C 
ATOM      8  C   UNL A   1      31.904  26.062  23.312  1.00  0.00     0.006 C 
ATOM      9  C   UNL A   1      31.029  26.702  22.237  1.00  0.00     0.001 C 
ATOM     10  C   UNL A   1      30.275  27.854  22.917  1.00  0.00     0.014 C 
BRANCH   7  11
ATOM     11  C   UNL A   1      32.218  26.346  25.880  1.00  0.00     0.122 C 
BRANCH  11  12
ATOM     12  N   UNL A   1      31.752  25.249  26.706  1.00  0.00    -0.338 N 
ATOM     13  C   UNL A   1      31.712  23.911  26.648  1.00  0.00     0.317 C 
ATOM     14  O   UNL A   1      31.206  23.351  27.625  1.00  0.00    -0.249 OA
ATOM     15  H   UNL A   1      31.356  25.580  27.545  1.00  0.00     0.165 HD
BRANCH  13  16
ATOM     16  N   UNL A   1      32.179  23.200  25.597  1.00  0.00    -0.324 N 
ATOM     17  C   UNL A   1      32.153  21.302  22.401  1.00  0.00     0.010 C 
ATOM     18  C   UNL A   1      32.446  21.658  23.845  1.00  0.00     0.010 C 
ATOM     19  C   UNL A   1      31.503  22.716  24.407  1.00  0.00     0.125 C 
ATOM     20  C   UNL A   1      33.828  22.251  24.160  1.00  0.00     0.010 C 
ATOM     21  C   UNL A   1      33.588  22.820  25.564  1.00  0.00     0.125 C 
ATOM     22  C   UNL A   1      34.289  23.348  23.200  1.00  0.00     0.010 C 
ENDBRANCH  13  16
ENDBRANCH  11  12
ENDBRANCH   7  11
ENDBRANCH   3   6
ENDBRANCH   1   2
BRANCH   1  23
ATOM     23  C   UNL A   1      31.382  31.963  26.875  1.00  0.00     0.042 C 
BRANCH  23  24
ATOM     24  C   UNL A   1      32.687  32.754  26.924  1.00  0.00     0.118 C 
BRANCH  24  25
ATOM     25  N   UNL A   1      32.510  34.062  27.545  1.00  0.00    -0.352 N 
ATOM     26  C   UNL A   1      33.070  34.600  28.674  1.00  0.00     0.251 C 
ATOM     27  H   UNL A   1      31.885  34.659  27.074  1.00  0.00     0.163 HD
ATOM     28  O   UNL A   1      32.573  35.619  29.164  1.00  0.00    -0.269 OA
BRANCH  26  29
ATOM     29  C   UNL A   1      34.252  33.991  29.318  1.00  0.00     0.039 A 
ATOM     30  C   UNL A   1      34.061  33.021  30.310  1.00  0.00     0.014 A 
ATOM     31  C   UNL A   1      35.546  34.417  29.009  1.00  0.00     0.014 A 
ATOM     32  C   UNL A   1      35.163  32.444  30.946  1.00  0.00     0.010 A 
ATOM     33  C   UNL A   1      36.645  33.786  29.586  1.00  0.00     0.010 A 
ATOM     34  C   UNL A   1      36.466  32.799  30.568  1.00  0.00    -0.014 A 
BRANCH  34  35
ATOM     35  C   UNL A   1      37.657  32.165  31.191  1.00  0.00     0.031 A 
ATOM     36  C   UNL A   1      38.395  31.069  30.469  1.00  0.00     0.074 A 
ATOM     37  C   UNL A   1      38.028  32.520  32.436  1.00  0.00     0.049 A 
ATOM     38  N   UNL A   1      39.384  30.321  30.888  1.00  0.00    -0.248 NA
ATOM     39  C   UNL A   1      37.940  30.753  29.106  1.00  0.00     0.031 C 
ATOM     40  C   UNL A   1      37.370  33.538  33.257  1.00  0.00     0.029 A 
ATOM     41  N   UNL A   1      39.042  32.053  33.234  1.00  0.00    -0.354 N 
ATOM     42  C   UNL A   1      39.655  29.437  29.851  1.00  0.00     0.074 A 
ATOM     43  C   UNL A   1      38.694  29.707  28.804  1.00  0.00     0.031 C 
ATOM     44  C   UNL A   1      38.007  33.630  34.436  1.00  0.00     0.029 A 
ATOM     45  C   UNL A   1      39.090  32.653  34.469  1.00  0.00     0.049 A 
ATOM     46  H   UNL A   1      39.674  31.355  32.949  1.00  0.00     0.167 HD
ATOM     47  C   UNL A   1      40.629  28.498  29.770  1.00  0.00     0.037 A 
ATOM     48  C   UNL A   1      39.909  32.432  35.514  1.00  0.00     0.037 A 
ATOM     49  C   UNL A   1      41.602  28.251  30.801  1.00  0.00     0.049 A 
ATOM     50  C   UNL A   1      40.982  31.386  35.400  1.00  0.00     0.074 A 
ATOM     51  C   UNL A   1      42.661  27.360  30.793  1.00  0.00     0.029 A 
ATOM     52  N   UNL A   1      41.635  28.901  32.026  1.00  0.00    -0.354 N 
ATOM     53  N   UNL A   1      41.260  30.595  34.393  1.00  0.00    -0.248 NA
ATOM     54  C   UNL A   1      41.859  31.206  36.567  1.00  0.00     0.031 C 
ATOM     55  C   UNL A   1      43.315  27.446  32.027  1.00  0.00     0.029 A 
ATOM     56  C   UNL A   1      42.688  28.420  32.788  1.00  0.00     0.049 A 
ATOM     57  H   UNL A   1      41.003  29.599  32.313  1.00  0.00     0.167 HD
ATOM     58  C   UNL A   1      42.359  29.844  34.791  1.00  0.00     0.074 A 
ATOM     59  C   UNL A   1      42.704  30.284  36.127  1.00  0.00     0.031 C 
ATOM     60  C   UNL A   1      43.023  28.877  34.112  1.00  0.00     0.037 A 
BRANCH  47  61
ATOM     61  C   UNL A   1      40.694  27.676  28.515  1.00  0.00     0.057 A 
ATOM     62  C   UNL A   1      39.998  26.466  28.389  1.00  0.00     0.134 A 
ATOM     63  C   UNL A   1      41.436  28.112  27.410  1.00  0.00     0.134 A 
ATOM     64  F   UNL A   1      39.277  25.987  29.414  1.00  0.00    -0.206 F 
ATOM     65  C   UNL A   1      40.060  25.706  27.220  1.00  0.00     0.040 A 
ATOM     66  C   UNL A   1      41.485  27.375  26.226  1.00  0.00     0.040 A 
ATOM     67  F   UNL A   1      42.120  29.265  27.459  1.00  0.00    -0.206 F 
ATOM     68  C   UNL A   1      40.801  26.164  26.131  1.00  0.00     0.006 A 
ENDBRANCH  47  61
BRANCH  48  69
ATOM     69  C   UNL A   1      39.762  33.233  36.757  1.00  0.00     0.057 A 
ATOM     70  C   UNL A   1      38.857  32.853  37.755  1.00  0.00     0.134 A 
ATOM     71  C   UNL A   1      40.513  34.394  36.973  1.00  0.00     0.134 A 
ATOM     72  F   UNL A   1      38.097  31.761  37.596  1.00  0.00    -0.206 F 
ATOM     73  C   UNL A   1      38.690  33.609  38.916  1.00  0.00     0.040 A 
ATOM     74  C   UNL A   1      40.373  35.147  38.141  1.00  0.00     0.040 A 
ATOM     75  F   UNL A   1      41.402  34.807  36.058  1.00  0.00    -0.206 F 
ATOM     76  C   UNL A   1      39.454  34.758  39.112  1.00  0.00     0.006 A 
ENDBRANCH  48  69
BRANCH  60  77
ATOM     77  C   UNL A   1      44.210  28.257  34.787  1.00  0.00     0.057 A 
ATOM     78  C   UNL A   1      44.099  27.089  35.550  1.00  0.00     0.134 A 
ATOM     79  C   UNL A   1      45.485  28.819  34.640  1.00  0.00     0.134 A 
ATOM     80  F   UNL A   1      42.904  26.511  35.740  1.00  0.00    -0.206 F 
ATOM     81  C   UNL A   1      45.213  26.511  36.160  1.00  0.00     0.040 A 
ATOM     82  C   UNL A   1      46.609  28.236  35.225  1.00  0.00     0.040 A 
ATOM     83  F   UNL A   1      45.659  29.934  33.915  1.00  0.00    -0.206 F 
ATOM     84  C   UNL A   1      46.474  27.081  35.993  1.00  0.00     0.006 A 
ENDBRANCH  60  77
ENDBRANCH  34  35
ENDBRANCH  26  29
ENDBRANCH  24  25
ENDBRANCH  23  24
ENDBRANCH   1  23
TORSDOF 13
ENDMDL
