MODEL 1
REMARK VINA RESULT:     -11.8      0.000      0.000
REMARK SMILES COCC[C@H](NC(=O)c1ccc(Br)nc1)C(=O)NCCCNC(=O)c1ccc(-c2c3nc(c(-c4c(F)cccc4F)c4ccc([nH]4)c(-c4c(F)cccc4F)c4nc(c(-c5c(F)cccc5F)c5ccc2[nH]5)C=C4)C=C3)cc1
REMARK SMILES IDX 19 1 18 2 16 3 17 4 5 6 4 7 3 8 2 9 1 10 6 11 7 12 8 14 9 15
REMARK SMILES IDX 10 16 15 17 11 18 14 19 12 20 13 21 20 22 21 23 22 24 23 25
REMARK SMILES IDX 24 27 25 28 26 29 78 30 27 31 77 32 28 33 29 34 30 35 71 36
REMARK SMILES IDX 31 37 76 38 70 39 72 40 32 41 75 42 69 43 68 44 33 46 59 47
REMARK SMILES IDX 42 48 58 49 43 50 46 51 57 52 73 53 44 54 45 55 56 57 74 58
REMARK SMILES IDX 47 59 34 60 35 61 40 62 36 63 37 64 39 65 41 66 38 67 60 68
REMARK SMILES IDX 61 69 66 70 62 71 63 72 65 73 67 74 64 75 48 76 49 77 54 78
REMARK SMILES IDX 50 79 51 80 53 81 55 82 52 83
REMARK H PARENT 18 5 6 13 22 26 72 45 46 56
REMARK Flexibility Score: inf
ROOT
ATOM      1  C   UNL A   1      37.077  19.607  25.002  1.00  0.00     0.117 C 
ENDROOT
BRANCH   1   2
ATOM      2  N   UNL A   1      35.017  19.910  25.046  1.00  0.00    -0.354 N 
ATOM      3  C   UNL A   1      33.817  20.630  25.277  1.00  0.00     0.242 C 
ATOM      4  O   UNL A   1      32.778  20.039  24.944  1.00  0.00    -0.273 OA
ATOM      5  H   UNL A   1      34.678  19.049  24.711  1.00  0.00     0.163 HD
BRANCH   3   6
ATOM      6  C   UNL A   1      33.684  22.076  25.906  1.00  0.00     0.173 C 
BRANCH   6   7
ATOM      7  C   UNL A   1      35.014  22.698  26.370  1.00  0.00     0.063 C 
BRANCH   7   8
ATOM      8  C   UNL A   1      35.489  23.950  25.647  1.00  0.00     0.162 C 
BRANCH   8   9
ATOM      9  O   UNL A   1      36.566  23.704  24.751  1.00  0.00    -0.385 OA
ATOM     10  C   UNL A   1      36.179  23.172  23.497  1.00  0.00     0.194 C 
ENDBRANCH   8   9
ENDBRANCH   7   8
ENDBRANCH   6   7
BRANCH   6  11
ATOM     11  N   UNL A   1      32.625  22.138  26.923  1.00  0.00    -0.340 N 
ATOM     12  C   UNL A   1      31.536  22.953  26.850  1.00  0.00     0.253 C 
ATOM     13  H   UNL A   1      32.709  21.553  27.710  1.00  0.00     0.164 HD
ATOM     14  O   UNL A   1      30.598  22.952  27.626  1.00  0.00    -0.269 OA
BRANCH  12  15
ATOM     15  C   UNL A   1      31.717  24.007  25.880  1.00  0.00     0.058 A 
ATOM     16  C   UNL A   1      32.002  25.723  26.437  1.00  0.00     0.018 A 
ATOM     17  C   UNL A   1      30.809  23.730  24.356  1.00  0.00     0.126 A 
ATOM     18  C   UNL A   1      31.405  27.106  25.451  1.00  0.00     0.037 A 
ATOM     19  N   UNL A   1      30.278  25.114  23.361  1.00  0.00    -0.249 NA
ATOM     20  C   UNL A   1      30.555  26.777  23.921  1.00  0.00     0.106 A 
ATOM     21  Br  UNL A   1      30.007  28.204  22.812  1.00  0.00    -0.029 Br
ENDBRANCH  12  15
ENDBRANCH   6  11
ENDBRANCH   3   6
ENDBRANCH   1   2
BRANCH   1  22
ATOM     22  C   UNL A   1      38.359  20.639  25.008  1.00  0.00     0.042 C 
BRANCH  22  23
ATOM     23  C   UNL A   1      39.351  20.430  26.125  1.00  0.00     0.118 C 
BRANCH  23  24
ATOM     24  N   UNL A   1      40.203  19.248  25.956  1.00  0.00    -0.352 N 
ATOM     25  C   UNL A   1      41.573  19.203  25.997  1.00  0.00     0.251 C 
ATOM     26  H   UNL A   1      39.741  18.393  25.797  1.00  0.00     0.163 HD
ATOM     27  O   UNL A   1      42.210  18.190  25.754  1.00  0.00    -0.269 OA
BRANCH  25  28
ATOM     28  C   UNL A   1      42.222  20.469  26.343  1.00  0.00     0.039 A 
ATOM     29  C   UNL A   1      42.441  21.409  25.340  1.00  0.00     0.014 A 
ATOM     30  C   UNL A   1      42.279  20.791  27.702  1.00  0.00     0.014 A 
ATOM     31  C   UNL A   1      42.682  22.723  25.718  1.00  0.00     0.010 A 
ATOM     32  C   UNL A   1      42.345  22.121  28.058  1.00  0.00     0.010 A 
ATOM     33  C   UNL A   1      42.603  23.086  27.074  1.00  0.00    -0.014 A 
BRANCH  33  34
ATOM     34  C   UNL A   1      42.928  24.455  27.510  1.00  0.00     0.031 A 
ATOM     35  C   UNL A   1      44.372  24.871  27.477  1.00  0.00     0.074 A 
ATOM     36  C   UNL A   1      41.954  25.288  27.922  1.00  0.00     0.049 A 
ATOM     37  N   UNL A   1      44.914  25.999  27.846  1.00  0.00    -0.248 NA
ATOM     38  C   UNL A   1      45.349  23.870  27.003  1.00  0.00     0.031 C 
ATOM     39  C   UNL A   1      40.530  24.953  28.028  1.00  0.00     0.029 A 
ATOM     40  N   UNL A   1      42.015  26.597  28.314  1.00  0.00    -0.354 N 
ATOM     41  C   UNL A   1      46.278  25.831  27.651  1.00  0.00     0.074 A 
ATOM     42  C   UNL A   1      46.501  24.469  27.245  1.00  0.00     0.031 C 
ATOM     43  C   UNL A   1      39.849  26.047  28.408  1.00  0.00     0.029 A 
ATOM     44  C   UNL A   1      40.790  27.142  28.613  1.00  0.00     0.049 A 
ATOM     45  H   UNL A   1      42.858  27.101  28.375  1.00  0.00     0.167 HD
ATOM     46  C   UNL A   1      47.258  26.756  27.736  1.00  0.00     0.037 A 
ATOM     47  C   UNL A   1      40.480  28.392  29.006  1.00  0.00     0.037 A 
ATOM     48  C   UNL A   1      47.014  28.121  28.097  1.00  0.00     0.049 A 
ATOM     49  C   UNL A   1      41.602  29.392  29.133  1.00  0.00     0.074 A 
ATOM     50  C   UNL A   1      47.919  29.157  28.210  1.00  0.00     0.029 A 
ATOM     51  N   UNL A   1      45.760  28.637  28.391  1.00  0.00    -0.354 N 
ATOM     52  N   UNL A   1      42.884  29.236  28.896  1.00  0.00    -0.248 NA
ATOM     53  C   UNL A   1      41.235  30.743  29.574  1.00  0.00     0.031 C 
ATOM     54  C   UNL A   1      47.218  30.295  28.615  1.00  0.00     0.029 A 
ATOM     55  C   UNL A   1      45.869  29.979  28.694  1.00  0.00     0.049 A 
ATOM     56  H   UNL A   1      44.920  28.123  28.384  1.00  0.00     0.167 HD
ATOM     57  C   UNL A   1      43.466  30.476  29.115  1.00  0.00     0.074 A 
ATOM     58  C   UNL A   1      42.395  31.378  29.489  1.00  0.00     0.031 C 
ATOM     59  C   UNL A   1      44.767  30.846  29.023  1.00  0.00     0.037 A 
BRANCH  46  60
ATOM     60  C   UNL A   1      48.652  26.321  27.403  1.00  0.00     0.057 A 
ATOM     61  C   UNL A   1      49.519  25.813  28.381  1.00  0.00     0.134 A 
ATOM     62  C   UNL A   1      49.130  26.393  26.090  1.00  0.00     0.134 A 
ATOM     63  F   UNL A   1      49.132  25.745  29.665  1.00  0.00    -0.206 F 
ATOM     64  C   UNL A   1      50.816  25.407  28.069  1.00  0.00     0.040 A 
ATOM     65  C   UNL A   1      50.415  25.962  25.760  1.00  0.00     0.040 A 
ATOM     66  F   UNL A   1      48.357  26.880  25.109  1.00  0.00    -0.206 F 
ATOM     67  C   UNL A   1      51.263  25.471  26.751  1.00  0.00     0.006 A 
ENDBRANCH  46  60
BRANCH  47  68
ATOM     68  C   UNL A   1      39.075  28.782  29.296  1.00  0.00     0.057 A 
ATOM     69  C   UNL A   1      38.281  29.421  28.335  1.00  0.00     0.134 A 
ATOM     70  C   UNL A   1      38.511  28.588  30.564  1.00  0.00     0.134 A 
ATOM     71  F   UNL A   1      38.762  29.645  27.103  1.00  0.00    -0.206 F 
ATOM     72  C   UNL A   1      37.003  29.899  28.636  1.00  0.00     0.040 A 
ATOM     73  C   UNL A   1      37.221  29.030  30.869  1.00  0.00     0.040 A 
ATOM     74  F   UNL A   1      39.207  27.971  31.529  1.00  0.00    -0.206 F 
ATOM     75  C   UNL A   1      36.471  29.705  29.908  1.00  0.00     0.006 A 
ENDBRANCH  47  68
BRANCH  59  76
ATOM     76  C   UNL A   1      45.089  32.291  29.259  1.00  0.00     0.057 A 
ATOM     77  C   UNL A   1      45.479  32.770  30.514  1.00  0.00     0.134 A 
ATOM     78  C   UNL A   1      45.070  33.199  28.191  1.00  0.00     0.134 A 
ATOM     79  F   UNL A   1      45.510  31.950  31.576  1.00  0.00    -0.206 F 
ATOM     80  C   UNL A   1      45.816  34.109  30.706  1.00  0.00     0.040 A 
ATOM     81  C   UNL A   1      45.438  34.532  28.364  1.00  0.00     0.040 A 
ATOM     82  F   UNL A   1      44.721  32.797  26.960  1.00  0.00    -0.206 F 
ATOM     83  C   UNL A   1      45.805  34.991  29.626  1.00  0.00     0.006 A 
ENDBRANCH  59  76
ENDBRANCH  33  34
ENDBRANCH  25  28
ENDBRANCH  23  24
ENDBRANCH  22  23
ENDBRANCH   1  22
TORSDOF 15
ENDMDL
MODEL 2
REMARK VINA RESULT:     -11.7      5.193     10.263
REMARK SMILES COCC[C@H](NC(=O)c1ccc(Br)nc1)C(=O)NCCCNC(=O)c1ccc(-c2c3nc(c(-c4c(F)cccc4F)c4ccc([nH]4)c(-c4c(F)cccc4F)c4nc(c(-c5c(F)cccc5F)c5ccc2[nH]5)C=C4)C=C3)cc1
REMARK SMILES IDX 19 1 18 2 16 3 17 4 5 6 4 7 3 8 2 9 1 10 6 11 7 12 8 14 9 15
REMARK SMILES IDX 10 16 15 17 11 18 14 19 12 20 13 21 20 22 21 23 22 24 23 25
REMARK SMILES IDX 24 27 25 28 26 29 78 30 27 31 77 32 28 33 29 34 30 35 71 36
REMARK SMILES IDX 31 37 76 38 70 39 72 40 32 41 75 42 69 43 68 44 33 46 59 47
REMARK SMILES IDX 42 48 58 49 43 50 46 51 57 52 73 53 44 54 45 55 56 57 74 58
REMARK SMILES IDX 47 59 34 60 35 61 40 62 36 63 37 64 39 65 41 66 38 67 60 68
REMARK SMILES IDX 61 69 66 70 62 71 63 72 65 73 67 74 64 75 48 76 49 77 54 78
REMARK SMILES IDX 50 79 51 80 53 81 55 82 52 83
REMARK H PARENT 18 5 6 13 22 26 72 45 46 56
REMARK Flexibility Score: inf
ROOT
ATOM      1  C   UNL A   1      32.497  30.429  26.727  1.00  0.00     0.117 C 
ENDROOT
BRANCH   1   2
ATOM      2  N   UNL A   1      32.922  29.663  24.838  1.00  0.00    -0.354 N 
ATOM      3  C   UNL A   1      32.742  28.826  23.707  1.00  0.00     0.242 C 
ATOM      4  O   UNL A   1      33.521  29.041  22.766  1.00  0.00    -0.273 OA
ATOM      5  H   UNL A   1      33.710  30.191  24.578  1.00  0.00     0.163 HD
BRANCH   3   6
ATOM      6  C   UNL A   1      31.672  27.672  23.542  1.00  0.00     0.173 C 
BRANCH   6   7
ATOM      7  C   UNL A   1      30.742  27.828  22.325  1.00  0.00     0.063 C 
BRANCH   7   8
ATOM      8  C   UNL A   1      29.618  28.848  22.430  1.00  0.00     0.162 C 
BRANCH   8   9
ATOM      9  O   UNL A   1      29.579  29.754  21.334  1.00  0.00    -0.385 OA
ATOM     10  C   UNL A   1      28.801  30.916  21.558  1.00  0.00     0.194 C 
ENDBRANCH   8   9
ENDBRANCH   7   8
ENDBRANCH   6   7
BRANCH   6  11
ATOM     11  N   UNL A   1      30.951  27.406  24.795  1.00  0.00    -0.340 N 
ATOM     12  C   UNL A   1      31.251  26.393  25.655  1.00  0.00     0.253 C 
ATOM     13  H   UNL A   1      30.200  27.999  25.029  1.00  0.00     0.164 HD
ATOM     14  O   UNL A   1      30.737  26.212  26.743  1.00  0.00    -0.269 OA
BRANCH  12  15
ATOM     15  C   UNL A   1      32.087  25.392  25.035  1.00  0.00     0.058 A 
ATOM     16  C   UNL A   1      31.355  23.824  24.451  1.00  0.00     0.018 A 
ATOM     17  C   UNL A   1      33.767  25.381  25.670  1.00  0.00     0.126 A 
ATOM     18  C   UNL A   1      32.321  22.305  24.485  1.00  0.00     0.037 A 
ATOM     19  N   UNL A   1      34.729  23.878  25.640  1.00  0.00    -0.249 NA
ATOM     20  C   UNL A   1      34.000  22.359  25.076  1.00  0.00     0.106 A 
ATOM     21  Br  UNL A   1      35.074  20.806  25.031  1.00  0.00    -0.029 Br
ENDBRANCH  12  15
ENDBRANCH   6  11
ENDBRANCH   3   6
ENDBRANCH   1   2
BRANCH   1  22
ATOM     22  C   UNL A   1      31.973  31.901  27.245  1.00  0.00     0.042 C 
BRANCH  22  23
ATOM     23  C   UNL A   1      33.056  32.924  27.483  1.00  0.00     0.118 C 
BRANCH  23  24
ATOM     24  N   UNL A   1      32.554  34.275  27.754  1.00  0.00    -0.352 N 
ATOM     25  C   UNL A   1      33.023  35.160  28.691  1.00  0.00     0.251 C 
ATOM     26  H   UNL A   1      31.798  34.581  27.202  1.00  0.00     0.163 HD
ATOM     27  O   UNL A   1      32.487  36.234  28.914  1.00  0.00    -0.269 OA
BRANCH  25  28
ATOM     28  C   UNL A   1      34.214  34.716  29.417  1.00  0.00     0.039 A 
ATOM     29  C   UNL A   1      34.060  33.862  30.505  1.00  0.00     0.014 A 
ATOM     30  C   UNL A   1      35.443  34.905  28.778  1.00  0.00     0.014 A 
ATOM     31  C   UNL A   1      35.167  33.145  30.935  1.00  0.00     0.010 A 
ATOM     32  C   UNL A   1      36.485  34.064  29.100  1.00  0.00     0.010 A 
ATOM     33  C   UNL A   1      36.371  33.220  30.215  1.00  0.00    -0.014 A 
BRANCH  33  34
ATOM     34  C   UNL A   1      37.583  32.529  30.691  1.00  0.00     0.031 A 
ATOM     35  C   UNL A   1      38.214  33.028  31.961  1.00  0.00     0.074 A 
ATOM     36  C   UNL A   1      38.091  31.493  30.000  1.00  0.00     0.049 A 
ATOM     37  N   UNL A   1      39.298  32.618  32.560  1.00  0.00    -0.248 NA
ATOM     38  C   UNL A   1      37.561  34.172  32.631  1.00  0.00     0.031 C 
ATOM     39  C   UNL A   1      37.569  30.970  28.734  1.00  0.00     0.029 A 
ATOM     40  N   UNL A   1      39.157  30.681  30.277  1.00  0.00    -0.354 N 
ATOM     41  C   UNL A   1      39.448  33.453  33.658  1.00  0.00     0.074 A 
ATOM     42  C   UNL A   1      38.423  34.461  33.589  1.00  0.00     0.031 C 
ATOM     43  C   UNL A   1      38.288  29.893  28.373  1.00  0.00     0.029 A 
ATOM     44  C   UNL A   1      39.343  29.679  29.357  1.00  0.00     0.049 A 
ATOM     45  H   UNL A   1      39.737  30.804  31.063  1.00  0.00     0.167 HD
ATOM     46  C   UNL A   1      40.326  33.348  34.679  1.00  0.00     0.037 A 
ATOM     47  C   UNL A   1      40.268  28.701  29.328  1.00  0.00     0.037 A 
ATOM     48  C   UNL A   1      41.311  32.311  34.757  1.00  0.00     0.049 A 
ATOM     49  C   UNL A   1      41.262  28.634  30.460  1.00  0.00     0.074 A 
ATOM     50  C   UNL A   1      42.251  32.089  35.742  1.00  0.00     0.029 A 
ATOM     51  N   UNL A   1      41.467  31.312  33.807  1.00  0.00    -0.354 N 
ATOM     52  N   UNL A   1      41.363  29.399  31.523  1.00  0.00    -0.248 NA
ATOM     53  C   UNL A   1      42.266  27.565  30.396  1.00  0.00     0.031 C 
ATOM     54  C   UNL A   1      43.009  30.977  35.368  1.00  0.00     0.029 A 
ATOM     55  C   UNL A   1      42.498  30.473  34.180  1.00  0.00     0.049 A 
ATOM     56  H   UNL A   1      40.925  31.216  32.991  1.00  0.00     0.167 HD
ATOM     57  C   UNL A   1      42.408  28.877  32.272  1.00  0.00     0.074 A 
ATOM     58  C   UNL A   1      42.899  27.721  31.550  1.00  0.00     0.031 C 
ATOM     59  C   UNL A   1      42.926  29.309  33.448  1.00  0.00     0.037 A 
BRANCH  46  60
ATOM     60  C   UNL A   1      40.225  34.353  35.785  1.00  0.00     0.057 A 
ATOM     61  C   UNL A   1      40.896  35.583  35.725  1.00  0.00     0.134 A 
ATOM     62  C   UNL A   1      39.440  34.099  36.914  1.00  0.00     0.134 A 
ATOM     63  F   UNL A   1      41.690  35.877  34.684  1.00  0.00    -0.206 F 
ATOM     64  C   UNL A   1      40.801  36.518  36.756  1.00  0.00     0.040 A 
ATOM     65  C   UNL A   1      39.312  35.039  37.937  1.00  0.00     0.040 A 
ATOM     66  F   UNL A   1      38.782  32.937  37.039  1.00  0.00    -0.206 F 
ATOM     67  C   UNL A   1      39.996  36.251  37.861  1.00  0.00     0.006 A 
ENDBRANCH  46  60
BRANCH  47  68
ATOM     68  C   UNL A   1      40.306  27.709  28.221  1.00  0.00     0.057 A 
ATOM     69  C   UNL A   1      39.709  26.448  28.349  1.00  0.00     0.134 A 
ATOM     70  C   UNL A   1      41.000  27.968  27.032  1.00  0.00     0.134 A 
ATOM     71  F   UNL A   1      39.035  26.131  29.465  1.00  0.00    -0.206 F 
ATOM     72  C   UNL A   1      39.842  25.467  27.364  1.00  0.00     0.040 A 
ATOM     73  C   UNL A   1      41.113  27.008  26.023  1.00  0.00     0.040 A 
ATOM     74  F   UNL A   1      41.584  29.158  26.833  1.00  0.00    -0.206 F 
ATOM     75  C   UNL A   1      40.548  25.746  26.197  1.00  0.00     0.006 A 
ENDBRANCH  47  68
BRANCH  59  76
ATOM     76  C   UNL A   1      44.025  28.492  34.056  1.00  0.00     0.057 A 
ATOM     77  C   UNL A   1      43.763  27.386  34.872  1.00  0.00     0.134 A 
ATOM     78  C   UNL A   1      45.364  28.784  33.762  1.00  0.00     0.134 A 
ATOM     79  F   UNL A   1      42.503  27.061  35.196  1.00  0.00    -0.206 F 
ATOM     80  C   UNL A   1      44.798  26.611  35.395  1.00  0.00     0.040 A 
ATOM     81  C   UNL A   1      46.404  27.996  34.250  1.00  0.00     0.040 A 
ATOM     82  F   UNL A   1      45.677  29.822  32.971  1.00  0.00    -0.206 F 
ATOM     83  C   UNL A   1      46.122  26.911  35.076  1.00  0.00     0.006 A 
ENDBRANCH  59  76
ENDBRANCH  33  34
ENDBRANCH  25  28
ENDBRANCH  23  24
ENDBRANCH  22  23
ENDBRANCH   1  22
TORSDOF 15
ENDMDL
MODEL 3
REMARK VINA RESULT:     -11.6      5.019     10.143
REMARK SMILES COCC[C@H](NC(=O)c1ccc(Br)nc1)C(=O)NCCCNC(=O)c1ccc(-c2c3nc(c(-c4c(F)cccc4F)c4ccc([nH]4)c(-c4c(F)cccc4F)c4nc(c(-c5c(F)cccc5F)c5ccc2[nH]5)C=C4)C=C3)cc1
REMARK SMILES IDX 19 1 18 2 16 3 17 4 5 6 4 7 3 8 2 9 1 10 6 11 7 12 8 14 9 15
REMARK SMILES IDX 10 16 15 17 11 18 14 19 12 20 13 21 20 22 21 23 22 24 23 25
REMARK SMILES IDX 24 27 25 28 26 29 78 30 27 31 77 32 28 33 29 34 30 35 71 36
REMARK SMILES IDX 31 37 76 38 70 39 72 40 32 41 75 42 69 43 68 44 33 46 59 47
REMARK SMILES IDX 42 48 58 49 43 50 46 51 57 52 73 53 44 54 45 55 56 57 74 58
REMARK SMILES IDX 47 59 34 60 35 61 40 62 36 63 37 64 39 65 41 66 38 67 60 68
REMARK SMILES IDX 61 69 66 70 62 71 63 72 65 73 67 74 64 75 48 76 49 77 54 78
REMARK SMILES IDX 50 79 51 80 53 81 55 82 52 83
REMARK H PARENT 18 5 6 13 22 26 72 45 46 56
REMARK Flexibility Score: inf
ROOT
ATOM      1  C   UNL A   1      30.327  31.520  25.134  1.00  0.00     0.117 C 
ENDROOT
BRANCH   1   2
ATOM      2  N   UNL A   1      30.330  30.067  23.644  1.00  0.00    -0.354 N 
ATOM      3  C   UNL A   1      30.814  28.938  22.934  1.00  0.00     0.242 C 
ATOM      4  O   UNL A   1      30.094  28.559  21.997  1.00  0.00    -0.273 OA
ATOM      5  H   UNL A   1      29.522  30.299  23.131  1.00  0.00     0.163 HD
BRANCH   3   6
ATOM      6  C   UNL A   1      32.152  28.142  23.216  1.00  0.00     0.173 C 
BRANCH   6   7
ATOM      7  C   UNL A   1      33.194  28.913  24.046  1.00  0.00     0.063 C 
BRANCH   7   8
ATOM      8  C   UNL A   1      33.480  28.410  25.453  1.00  0.00     0.162 C 
BRANCH   8   9
ATOM      9  O   UNL A   1      32.302  28.137  26.200  1.00  0.00    -0.385 OA
ATOM     10  C   UNL A   1      32.118  26.772  26.533  1.00  0.00     0.194 C 
ENDBRANCH   8   9
ENDBRANCH   7   8
ENDBRANCH   6   7
BRANCH   6  11
ATOM     11  N   UNL A   1      32.706  27.545  21.994  1.00  0.00    -0.340 N 
ATOM     12  C   UNL A   1      32.896  26.209  21.808  1.00  0.00     0.253 C 
ATOM     13  H   UNL A   1      32.958  28.151  21.259  1.00  0.00     0.164 HD
ATOM     14  O   UNL A   1      33.258  25.682  20.772  1.00  0.00    -0.269 OA
BRANCH  12  15
ATOM     15  C   UNL A   1      32.858  25.482  23.055  1.00  0.00     0.058 A 
ATOM     16  C   UNL A   1      34.402  25.165  23.976  1.00  0.00     0.018 A 
ATOM     17  C   UNL A   1      31.542  24.261  23.122  1.00  0.00     0.126 A 
ATOM     18  C   UNL A   1      34.580  23.667  24.958  1.00  0.00     0.037 A 
ATOM     19  N   UNL A   1      31.714  22.810  24.148  1.00  0.00    -0.249 NA
ATOM     20  C   UNL A   1      33.226  22.513  25.032  1.00  0.00     0.106 A 
ATOM     21  Br  UNL A   1      33.340  20.982  26.132  1.00  0.00    -0.029 Br
ENDBRANCH  12  15
ENDBRANCH   6  11
ENDBRANCH   3   6
ENDBRANCH   1   2
BRANCH   1  22
ATOM     22  C   UNL A   1      31.150  31.670  26.552  1.00  0.00     0.042 C 
BRANCH  22  23
ATOM     23  C   UNL A   1      32.336  32.600  26.514  1.00  0.00     0.118 C 
BRANCH  23  24
ATOM     24  N   UNL A   1      32.155  33.834  27.287  1.00  0.00    -0.352 N 
ATOM     25  C   UNL A   1      32.968  34.315  28.281  1.00  0.00     0.251 C 
ATOM     26  H   UNL A   1      31.362  34.376  27.068  1.00  0.00     0.163 HD
ATOM     27  O   UNL A   1      32.693  35.306  28.939  1.00  0.00    -0.269 OA
BRANCH  25  28
ATOM     28  C   UNL A   1      34.191  33.543  28.505  1.00  0.00     0.039 A 
ATOM     29  C   UNL A   1      35.422  34.178  28.369  1.00  0.00     0.014 A 
ATOM     30  C   UNL A   1      34.045  32.319  29.163  1.00  0.00     0.014 A 
ATOM     31  C   UNL A   1      36.533  33.581  28.949  1.00  0.00     0.010 A 
ATOM     32  C   UNL A   1      35.115  31.827  29.879  1.00  0.00     0.010 A 
ATOM     33  C   UNL A   1      36.376  32.423  29.731  1.00  0.00    -0.014 A 
BRANCH  33  34
ATOM     34  C   UNL A   1      37.545  31.727  30.295  1.00  0.00     0.031 A 
ATOM     35  C   UNL A   1      37.921  32.038  31.716  1.00  0.00     0.074 A 
ATOM     36  C   UNL A   1      38.240  30.849  29.548  1.00  0.00     0.049 A 
ATOM     37  N   UNL A   1      38.924  31.590  32.422  1.00  0.00    -0.248 NA
ATOM     38  C   UNL A   1      37.080  33.017  32.435  1.00  0.00     0.031 C 
ATOM     39  C   UNL A   1      37.972  30.519  28.145  1.00  0.00     0.029 A 
ATOM     40  N   UNL A   1      39.308  30.058  29.874  1.00  0.00    -0.354 N 
ATOM     41  C   UNL A   1      38.827  32.236  33.647  1.00  0.00     0.074 A 
ATOM     42  C   UNL A   1      37.750  33.186  33.560  1.00  0.00     0.031 C 
ATOM     43  C   UNL A   1      38.823  29.557  27.749  1.00  0.00     0.029 A 
ATOM     44  C   UNL A   1      39.719  29.236  28.854  1.00  0.00     0.049 A 
ATOM     45  H   UNL A   1      39.742  30.078  30.758  1.00  0.00     0.167 HD
ATOM     46  C   UNL A   1      39.535  32.006  34.774  1.00  0.00     0.037 A 
ATOM     47  C   UNL A   1      40.711  28.326  28.832  1.00  0.00     0.037 A 
ATOM     48  C   UNL A   1      40.573  31.024  34.857  1.00  0.00     0.049 A 
ATOM     49  C   UNL A   1      41.512  28.122  30.094  1.00  0.00     0.074 A 
ATOM     50  C   UNL A   1      41.357  30.689  35.942  1.00  0.00     0.029 A 
ATOM     51  N   UNL A   1      40.960  30.208  33.804  1.00  0.00    -0.354 N 
ATOM     52  N   UNL A   1      41.379  28.703  31.265  1.00  0.00    -0.248 NA
ATOM     53  C   UNL A   1      42.594  27.133  30.038  1.00  0.00     0.031 C 
ATOM     54  C   UNL A   1      42.251  29.696  35.535  1.00  0.00     0.029 A 
ATOM     55  C   UNL A   1      41.980  29.372  34.213  1.00  0.00     0.049 A 
ATOM     56  H   UNL A   1      40.566  30.222  32.902  1.00  0.00     0.167 HD
ATOM     57  C   UNL A   1      42.327  28.117  32.092  1.00  0.00     0.074 A 
ATOM     58  C   UNL A   1      43.018  27.126  31.293  1.00  0.00     0.031 C 
ATOM     59  C   UNL A   1      42.612  28.372  33.392  1.00  0.00     0.037 A 
BRANCH  46  60
ATOM     60  C   UNL A   1      39.177  32.805  35.990  1.00  0.00     0.057 A 
ATOM     61  C   UNL A   1      38.293  32.312  36.960  1.00  0.00     0.134 A 
ATOM     62  C   UNL A   1      39.733  34.071  36.204  1.00  0.00     0.134 A 
ATOM     63  F   UNL A   1      37.702  31.118  36.800  1.00  0.00    -0.206 F 
ATOM     64  C   UNL A   1      37.962  33.057  38.092  1.00  0.00     0.040 A 
ATOM     65  C   UNL A   1      39.433  34.811  37.347  1.00  0.00     0.040 A 
ATOM     66  F   UNL A   1      40.576  34.605  35.309  1.00  0.00    -0.206 F 
ATOM     67  C   UNL A   1      38.543  34.306  38.293  1.00  0.00     0.006 A 
ENDBRANCH  46  60
BRANCH  47  68
ATOM     68  C   UNL A   1      41.007  27.538  27.607  1.00  0.00     0.057 A 
ATOM     69  C   UNL A   1      40.467  26.259  27.414  1.00  0.00     0.134 A 
ATOM     70  C   UNL A   1      41.890  28.011  26.629  1.00  0.00     0.134 A 
ATOM     71  F   UNL A   1      39.620  25.741  28.316  1.00  0.00    -0.206 F 
ATOM     72  C   UNL A   1      40.833  25.462  26.327  1.00  0.00     0.040 A 
ATOM     73  C   UNL A   1      42.239  27.239  25.518  1.00  0.00     0.040 A 
ATOM     74  F   UNL A   1      42.434  29.231  26.740  1.00  0.00    -0.206 F 
ATOM     75  C   UNL A   1      41.724  25.952  25.375  1.00  0.00     0.006 A 
ENDBRANCH  47  68
BRANCH  59  76
ATOM     76  C   UNL A   1      43.660  27.523  34.045  1.00  0.00     0.057 A 
ATOM     77  C   UNL A   1      45.009  27.891  34.063  1.00  0.00     0.134 A 
ATOM     78  C   UNL A   1      43.294  26.351  34.721  1.00  0.00     0.134 A 
ATOM     79  F   UNL A   1      45.422  28.998  33.427  1.00  0.00    -0.206 F 
ATOM     80  C   UNL A   1      45.965  27.109  34.712  1.00  0.00     0.040 A 
ATOM     81  C   UNL A   1      44.234  25.581  35.402  1.00  0.00     0.040 A 
ATOM     82  F   UNL A   1      42.013  25.954  34.754  1.00  0.00    -0.206 F 
ATOM     83  C   UNL A   1      45.576  25.956  35.392  1.00  0.00     0.006 A 
ENDBRANCH  59  76
ENDBRANCH  33  34
ENDBRANCH  25  28
ENDBRANCH  23  24
ENDBRANCH  22  23
ENDBRANCH   1  22
TORSDOF 15
ENDMDL
