MODEL 1
REMARK VINA RESULT:     -11.4      0.000      0.000
REMARK SMILES [NH3+]C[C@H]1C[C@]1(C(=O)NCCCNC(=O)c1ccc(-c2c3nc(c(-c4c(F)cccc4F)c4ccc([nH]4)c(-c4c(F)cccc4F)c4nc(c(-c5c(F)cccc5F)c5ccc2[nH]5)C=C4)C=C3)cc1)c1ccccc1
REMARK SMILES IDX 10 1 9 2 8 3 6 4 7 5 5 7 3 8 4 9 2 10 1 11 69 15 70 16 74 17
REMARK SMILES IDX 71 18 73 19 72 20 11 21 12 22 13 23 14 25 15 26 16 27 68 28
REMARK SMILES IDX 17 29 67 30 18 31 19 32 20 33 61 34 21 35 66 36 60 37 62 38
REMARK SMILES IDX 22 39 65 40 59 41 58 42 23 44 49 45 32 46 48 47 33 48 36 49
REMARK SMILES IDX 47 50 63 51 34 52 35 53 46 55 64 56 37 57 24 58 25 59 30 60
REMARK SMILES IDX 26 61 27 62 29 63 31 64 28 65 50 66 51 67 56 68 52 69 53 70
REMARK SMILES IDX 55 71 57 72 54 73 38 74 39 75 44 76 40 77 41 78 43 79 45 80
REMARK SMILES IDX 42 81
REMARK H PARENT 8 6 1 12 1 13 1 14 12 24 62 43 36 54
REMARK Flexibility Score: inf
ROOT
ATOM      1  C   UNL A   1      33.315  28.682  26.694  1.00  0.00     0.042 C 
ENDROOT
BRANCH   1   2
ATOM      2  C   UNL A   1      32.775  29.688  25.679  1.00  0.00     0.117 C 
BRANCH   2   3
ATOM      3  N   UNL A   1      33.246  29.408  24.335  1.00  0.00    -0.355 N 
ATOM      4  C   UNL A   1      32.902  28.649  23.255  1.00  0.00     0.231 C 
ATOM      5  O   UNL A   1      33.697  28.791  22.319  1.00  0.00    -0.274 OA
ATOM      6  H   UNL A   1      34.063  29.924  24.145  1.00  0.00     0.163 HD
BRANCH   4   7
ATOM      7  C   UNL A   1      31.682  27.745  23.064  1.00  0.00     0.083 C 
ATOM      8  C   UNL A   1      31.622  26.381  22.344  1.00  0.00     0.065 C 
ATOM      9  C   UNL A   1      31.676  26.421  23.843  1.00  0.00     0.033 C 
BRANCH   8  10
ATOM     10  C   UNL A   1      32.666  25.837  21.451  1.00  0.00     0.263 C 
BRANCH  10  11
ATOM     11  N   UNL A   1      32.120  25.716  20.109  1.00  0.00    -0.357 N 
ATOM     12  H   UNL A   1      31.704  24.791  19.993  1.00  0.00     0.344 HD
ATOM     13  H   UNL A   1      32.868  25.840  19.426  1.00  0.00     0.344 HD
ATOM     14  H   UNL A   1      31.407  26.431  19.966  1.00  0.00     0.344 HD
ENDBRANCH  10  11
ENDBRANCH   8  10
BRANCH   7  15
ATOM     15  C   UNL A   1      30.337  28.517  22.802  1.00  0.00    -0.032 A 
ATOM     16  C   UNL A   1      30.326  29.694  22.020  1.00  0.00     0.005 A 
ATOM     17  C   UNL A   1      29.085  28.069  23.261  1.00  0.00     0.005 A 
ATOM     18  C   UNL A   1      29.153  30.404  21.752  1.00  0.00     0.000 A 
ATOM     19  C   UNL A   1      27.900  28.754  22.966  1.00  0.00     0.000 A 
ATOM     20  C   UNL A   1      27.935  29.929  22.223  1.00  0.00     0.000 A 
ENDBRANCH   7  15
ENDBRANCH   4   7
ENDBRANCH   2   3
ENDBRANCH   1   2
BRANCH   1  21
ATOM     21  C   UNL A   1      34.715  28.981  27.217  1.00  0.00     0.118 C 
BRANCH  21  22
ATOM     22  N   UNL A   1      34.726  29.984  28.270  1.00  0.00    -0.352 N 
ATOM     23  C   UNL A   1      35.734  30.382  29.108  1.00  0.00     0.251 C 
ATOM     24  H   UNL A   1      33.870  30.452  28.402  1.00  0.00     0.163 HD
ATOM     25  O   UNL A   1      35.467  31.123  30.057  1.00  0.00    -0.269 OA
BRANCH  23  26
ATOM     26  C   UNL A   1      37.128  29.928  28.910  1.00  0.00     0.039 A 
ATOM     27  C   UNL A   1      37.822  29.400  30.003  1.00  0.00     0.014 A 
ATOM     28  C   UNL A   1      37.778  30.066  27.681  1.00  0.00     0.014 A 
ATOM     29  C   UNL A   1      39.145  28.978  29.852  1.00  0.00     0.010 A 
ATOM     30  C   UNL A   1      39.061  29.553  27.506  1.00  0.00     0.010 A 
ATOM     31  C   UNL A   1      39.771  29.031  28.597  1.00  0.00    -0.014 A 
BRANCH  31  32
ATOM     32  C   UNL A   1      41.181  28.596  28.427  1.00  0.00     0.031 A 
ATOM     33  C   UNL A   1      41.495  27.166  28.070  1.00  0.00     0.074 A 
ATOM     34  C   UNL A   1      42.183  29.476  28.623  1.00  0.00     0.049 A 
ATOM     35  N   UNL A   1      42.659  26.597  27.877  1.00  0.00    -0.248 NA
ATOM     36  C   UNL A   1      40.353  26.246  27.942  1.00  0.00     0.031 C 
ATOM     37  C   UNL A   1      42.016  30.873  29.028  1.00  0.00     0.029 A 
ATOM     38  N   UNL A   1      43.541  29.325  28.501  1.00  0.00    -0.354 N 
ATOM     39  C   UNL A   1      42.388  25.256  27.631  1.00  0.00     0.074 A 
ATOM     40  C   UNL A   1      40.959  25.084  27.756  1.00  0.00     0.031 C 
ATOM     41  C   UNL A   1      43.223  31.461  29.079  1.00  0.00     0.029 A 
ATOM     42  C   UNL A   1      44.246  30.479  28.739  1.00  0.00     0.049 A 
ATOM     43  H   UNL A   1      43.970  28.470  28.266  1.00  0.00     0.167 HD
ATOM     44  C   UNL A   1      43.247  24.262  27.302  1.00  0.00     0.037 A 
ATOM     45  C   UNL A   1      45.569  30.720  28.675  1.00  0.00     0.037 A 
ATOM     46  C   UNL A   1      44.665  24.444  27.135  1.00  0.00     0.049 A 
ATOM     47  C   UNL A   1      46.500  29.609  28.273  1.00  0.00     0.074 A 
ATOM     48  C   UNL A   1      45.612  23.519  26.732  1.00  0.00     0.029 A 
ATOM     49  N   UNL A   1      45.338  25.636  27.358  1.00  0.00    -0.354 N 
ATOM     50  N   UNL A   1      46.222  28.365  27.966  1.00  0.00    -0.248 NA
ATOM     51  C   UNL A   1      47.930  29.942  28.197  1.00  0.00     0.031 C 
ATOM     52  C   UNL A   1      46.866  24.143  26.747  1.00  0.00     0.029 A 
ATOM     53  C   UNL A   1      46.691  25.467  27.114  1.00  0.00     0.049 A 
ATOM     54  H   UNL A   1      44.916  26.477  27.646  1.00  0.00     0.167 HD
ATOM     55  C   UNL A   1      47.432  27.778  27.623  1.00  0.00     0.074 A 
ATOM     56  C   UNL A   1      48.445  28.805  27.751  1.00  0.00     0.031 C 
ATOM     57  C   UNL A   1      47.684  26.504  27.233  1.00  0.00     0.037 A 
BRANCH  44  58
ATOM     58  C   UNL A   1      42.672  22.891  27.097  1.00  0.00     0.057 A 
ATOM     59  C   UNL A   1      42.489  22.347  25.818  1.00  0.00     0.134 A 
ATOM     60  C   UNL A   1      42.310  22.095  28.192  1.00  0.00     0.134 A 
ATOM     61  F   UNL A   1      42.802  23.061  24.725  1.00  0.00    -0.206 F 
ATOM     62  C   UNL A   1      41.938  21.078  25.634  1.00  0.00     0.040 A 
ATOM     63  C   UNL A   1      41.786  20.813  28.021  1.00  0.00     0.040 A 
ATOM     64  F   UNL A   1      42.465  22.550  29.444  1.00  0.00    -0.206 F 
ATOM     65  C   UNL A   1      41.590  20.304  26.739  1.00  0.00     0.006 A 
ENDBRANCH  44  58
BRANCH  45  66
ATOM     66  C   UNL A   1      46.092  32.083  28.940  1.00  0.00     0.057 A 
ATOM     67  C   UNL A   1      46.486  32.463  30.229  1.00  0.00     0.134 A 
ATOM     68  C   UNL A   1      46.201  33.039  27.924  1.00  0.00     0.134 A 
ATOM     69  F   UNL A   1      46.388  31.596  31.247  1.00  0.00    -0.206 F 
ATOM     70  C   UNL A   1      46.949  33.751  30.503  1.00  0.00     0.040 A 
ATOM     71  C   UNL A   1      46.685  34.324  28.179  1.00  0.00     0.040 A 
ATOM     72  F   UNL A   1      45.848  32.736  26.667  1.00  0.00    -0.206 F 
ATOM     73  C   UNL A   1      47.053  34.685  29.475  1.00  0.00     0.006 A 
ENDBRANCH  45  66
BRANCH  57  74
ATOM     74  C   UNL A   1      49.100  26.167  26.870  1.00  0.00     0.057 A 
ATOM     75  C   UNL A   1      49.614  26.397  25.588  1.00  0.00     0.134 A 
ATOM     76  C   UNL A   1      49.966  25.622  27.827  1.00  0.00     0.134 A 
ATOM     77  F   UNL A   1      48.831  26.906  24.624  1.00  0.00    -0.206 F 
ATOM     78  C   UNL A   1      50.931  26.068  25.261  1.00  0.00     0.040 A 
ATOM     79  C   UNL A   1      51.292  25.315  27.519  1.00  0.00     0.040 A 
ATOM     80  F   UNL A   1      49.540  25.386  29.077  1.00  0.00    -0.206 F 
ATOM     81  C   UNL A   1      51.774  25.531  26.230  1.00  0.00     0.006 A 
ENDBRANCH  57  74
ENDBRANCH  31  32
ENDBRANCH  23  26
ENDBRANCH  21  22
ENDBRANCH   1  21
TORSDOF 13
ENDMDL
MODEL 2
REMARK VINA RESULT:     -11.3      2.672      7.435
REMARK SMILES [NH3+]C[C@H]1C[C@]1(C(=O)NCCCNC(=O)c1ccc(-c2c3nc(c(-c4c(F)cccc4F)c4ccc([nH]4)c(-c4c(F)cccc4F)c4nc(c(-c5c(F)cccc5F)c5ccc2[nH]5)C=C4)C=C3)cc1)c1ccccc1
REMARK SMILES IDX 10 1 9 2 8 3 6 4 7 5 5 7 3 8 4 9 2 10 1 11 69 15 70 16 74 17
REMARK SMILES IDX 71 18 73 19 72 20 11 21 12 22 13 23 14 25 15 26 16 27 68 28
REMARK SMILES IDX 17 29 67 30 18 31 19 32 20 33 61 34 21 35 66 36 60 37 62 38
REMARK SMILES IDX 22 39 65 40 59 41 58 42 23 44 49 45 32 46 48 47 33 48 36 49
REMARK SMILES IDX 47 50 63 51 34 52 35 53 46 55 64 56 37 57 24 58 25 59 30 60
REMARK SMILES IDX 26 61 27 62 29 63 31 64 28 65 50 66 51 67 56 68 52 69 53 70
REMARK SMILES IDX 55 71 57 72 54 73 38 74 39 75 44 76 40 77 41 78 43 79 45 80
REMARK SMILES IDX 42 81
REMARK H PARENT 8 6 1 12 1 13 1 14 12 24 62 43 36 54
REMARK Flexibility Score: inf
ROOT
ATOM      1  C   UNL A   1      33.895  28.015  25.613  1.00  0.00     0.042 C 
ENDROOT
BRANCH   1   2
ATOM      2  C   UNL A   1      32.956  26.965  25.019  1.00  0.00     0.117 C 
BRANCH   2   3
ATOM      3  N   UNL A   1      33.275  26.675  23.634  1.00  0.00    -0.355 N 
ATOM      4  C   UNL A   1      33.601  25.608  22.848  1.00  0.00     0.231 C 
ATOM      5  O   UNL A   1      33.785  25.940  21.672  1.00  0.00    -0.274 OA
ATOM      6  H   UNL A   1      33.246  27.499  23.096  1.00  0.00     0.163 HD
BRANCH   4   7
ATOM      7  C   UNL A   1      33.699  24.128  23.228  1.00  0.00     0.083 C 
ATOM      8  C   UNL A   1      32.570  23.210  23.739  1.00  0.00     0.065 C 
ATOM      9  C   UNL A   1      32.989  23.131  22.301  1.00  0.00     0.033 C 
BRANCH   8  10
ATOM     10  C   UNL A   1      31.255  23.663  24.237  1.00  0.00     0.263 C 
BRANCH  10  11
ATOM     11  N   UNL A   1      30.359  23.841  23.104  1.00  0.00    -0.357 N 
ATOM     12  H   UNL A   1      29.967  22.938  22.837  1.00  0.00     0.344 HD
ATOM     13  H   UNL A   1      30.879  24.232  22.318  1.00  0.00     0.344 HD
ATOM     14  H   UNL A   1      29.604  24.476  23.364  1.00  0.00     0.344 HD
ENDBRANCH  10  11
ENDBRANCH   8  10
BRANCH   7  15
ATOM     15  C   UNL A   1      35.042  23.729  23.944  1.00  0.00    -0.032 A 
ATOM     16  C   UNL A   1      35.334  24.211  25.240  1.00  0.00     0.005 A 
ATOM     17  C   UNL A   1      35.983  22.846  23.385  1.00  0.00     0.005 A 
ATOM     18  C   UNL A   1      36.509  23.871  25.917  1.00  0.00     0.000 A 
ATOM     19  C   UNL A   1      37.145  22.472  24.072  1.00  0.00     0.000 A 
ATOM     20  C   UNL A   1      37.414  22.995  25.333  1.00  0.00     0.000 A 
ENDBRANCH   7  15
ENDBRANCH   4   7
ENDBRANCH   2   3
ENDBRANCH   1   2
BRANCH   1  21
ATOM     21  C   UNL A   1      33.771  28.215  27.118  1.00  0.00     0.118 C 
BRANCH  21  22
ATOM     22  N   UNL A   1      33.638  29.612  27.498  1.00  0.00    -0.352 N 
ATOM     23  C   UNL A   1      34.518  30.449  28.130  1.00  0.00     0.251 C 
ATOM     24  H   UNL A   1      32.774  30.021  27.263  1.00  0.00     0.163 HD
ATOM     25  O   UNL A   1      34.123  31.550  28.522  1.00  0.00    -0.269 OA
BRANCH  23  26
ATOM     26  C   UNL A   1      35.924  30.055  28.368  1.00  0.00     0.039 A 
ATOM     27  C   UNL A   1      36.841  30.176  27.320  1.00  0.00     0.014 A 
ATOM     28  C   UNL A   1      36.339  29.516  29.589  1.00  0.00     0.014 A 
ATOM     29  C   UNL A   1      38.172  29.797  27.509  1.00  0.00     0.010 A 
ATOM     30  C   UNL A   1      37.685  29.234  29.809  1.00  0.00     0.010 A 
ATOM     31  C   UNL A   1      38.612  29.342  28.762  1.00  0.00    -0.014 A 
BRANCH  31  32
ATOM     32  C   UNL A   1      40.022  28.925  28.972  1.00  0.00     0.031 A 
ATOM     33  C   UNL A   1      40.991  29.850  29.661  1.00  0.00     0.074 A 
ATOM     34  C   UNL A   1      40.442  27.728  28.518  1.00  0.00     0.049 A 
ATOM     35  N   UNL A   1      42.258  29.666  29.937  1.00  0.00    -0.248 NA
ATOM     36  C   UNL A   1      40.479  31.169  30.066  1.00  0.00     0.031 C 
ATOM     37  C   UNL A   1      39.620  26.764  27.784  1.00  0.00     0.029 A 
ATOM     38  N   UNL A   1      41.667  27.116  28.612  1.00  0.00    -0.354 N 
ATOM     39  C   UNL A   1      42.694  30.849  30.523  1.00  0.00     0.074 A 
ATOM     40  C   UNL A   1      41.575  31.764  30.509  1.00  0.00     0.031 C 
ATOM     41  C   UNL A   1      40.351  25.665  27.533  1.00  0.00     0.029 A 
ATOM     42  C   UNL A   1      41.697  25.858  28.062  1.00  0.00     0.049 A 
ATOM     43  H   UNL A   1      42.450  27.539  29.034  1.00  0.00     0.167 HD
ATOM     44  C   UNL A   1      43.906  31.139  31.051  1.00  0.00     0.037 A 
ATOM     45  C   UNL A   1      42.696  24.957  28.004  1.00  0.00     0.037 A 
ATOM     46  C   UNL A   1      45.006  30.213  31.104  1.00  0.00     0.049 A 
ATOM     47  C   UNL A   1      44.023  25.290  28.628  1.00  0.00     0.074 A 
ATOM     48  C   UNL A   1      46.251  30.383  31.683  1.00  0.00     0.029 A 
ATOM     49  N   UNL A   1      44.988  28.938  30.560  1.00  0.00    -0.354 N 
ATOM     50  N   UNL A   1      44.396  26.382  29.249  1.00  0.00    -0.248 NA
ATOM     51  C   UNL A   1      45.064  24.254  28.555  1.00  0.00     0.031 C 
ATOM     52  C   UNL A   1      47.001  29.223  31.456  1.00  0.00     0.029 A 
ATOM     53  C   UNL A   1      46.206  28.315  30.777  1.00  0.00     0.049 A 
ATOM     54  H   UNL A   1      44.223  28.535  30.090  1.00  0.00     0.167 HD
ATOM     55  C   UNL A   1      45.698  26.153  29.674  1.00  0.00     0.074 A 
ATOM     56  C   UNL A   1      46.046  24.813  29.247  1.00  0.00     0.031 C 
ATOM     57  C   UNL A   1      46.531  26.975  30.358  1.00  0.00     0.037 A 
BRANCH  44  58
ATOM     58  C   UNL A   1      44.101  32.516  31.618  1.00  0.00     0.057 A 
ATOM     59  C   UNL A   1      44.574  33.580  30.836  1.00  0.00     0.134 A 
ATOM     60  C   UNL A   1      43.799  32.788  32.958  1.00  0.00     0.134 A 
ATOM     61  F   UNL A   1      44.896  33.385  29.548  1.00  0.00    -0.206 F 
ATOM     62  C   UNL A   1      44.770  34.853  31.373  1.00  0.00     0.040 A 
ATOM     63  C   UNL A   1      43.962  34.065  33.499  1.00  0.00     0.040 A 
ATOM     64  F   UNL A   1      43.336  31.819  33.761  1.00  0.00    -0.206 F 
ATOM     65  C   UNL A   1      44.457  35.099  32.708  1.00  0.00     0.006 A 
ENDBRANCH  44  58
BRANCH  45  66
ATOM     66  C   UNL A   1      42.465  23.629  27.383  1.00  0.00     0.057 A 
ATOM     67  C   UNL A   1      42.085  22.528  28.161  1.00  0.00     0.134 A 
ATOM     68  C   UNL A   1      42.628  23.422  26.008  1.00  0.00     0.134 A 
ATOM     69  F   UNL A   1      41.931  22.661  29.486  1.00  0.00    -0.206 F 
ATOM     70  C   UNL A   1      41.897  21.265  27.599  1.00  0.00     0.040 A 
ATOM     71  C   UNL A   1      42.419  22.169  25.429  1.00  0.00     0.040 A 
ATOM     72  F   UNL A   1      42.982  24.437  25.207  1.00  0.00    -0.206 F 
ATOM     73  C   UNL A   1      42.060  21.084  26.228  1.00  0.00     0.006 A 
ENDBRANCH  45  66
BRANCH  57  74
ATOM     74  C   UNL A   1      47.878  26.429  30.730  1.00  0.00     0.057 A 
ATOM     75  C   UNL A   1      48.116  25.818  31.967  1.00  0.00     0.134 A 
ATOM     76  C   UNL A   1      48.944  26.498  29.825  1.00  0.00     0.134 A 
ATOM     77  F   UNL A   1      47.139  25.731  32.882  1.00  0.00    -0.206 F 
ATOM     78  C   UNL A   1      49.378  25.324  32.304  1.00  0.00     0.040 A 
ATOM     79  C   UNL A   1      50.203  25.984  30.140  1.00  0.00     0.040 A 
ATOM     80  F   UNL A   1      48.780  27.061  28.619  1.00  0.00    -0.206 F 
ATOM     81  C   UNL A   1      50.424  25.402  31.387  1.00  0.00     0.006 A 
ENDBRANCH  57  74
ENDBRANCH  31  32
ENDBRANCH  23  26
ENDBRANCH  21  22
ENDBRANCH   1  21
TORSDOF 13
ENDMDL
MODEL 3
REMARK VINA RESULT:     -11.3      4.804      9.422
REMARK SMILES [NH3+]C[C@H]1C[C@]1(C(=O)NCCCNC(=O)c1ccc(-c2c3nc(c(-c4c(F)cccc4F)c4ccc([nH]4)c(-c4c(F)cccc4F)c4nc(c(-c5c(F)cccc5F)c5ccc2[nH]5)C=C4)C=C3)cc1)c1ccccc1
REMARK SMILES IDX 10 1 9 2 8 3 6 4 7 5 5 7 3 8 4 9 2 10 1 11 69 15 70 16 74 17
REMARK SMILES IDX 71 18 73 19 72 20 11 21 12 22 13 23 14 25 15 26 16 27 68 28
REMARK SMILES IDX 17 29 67 30 18 31 19 32 20 33 61 34 21 35 66 36 60 37 62 38
REMARK SMILES IDX 22 39 65 40 59 41 58 42 23 44 49 45 32 46 48 47 33 48 36 49
REMARK SMILES IDX 47 50 63 51 34 52 35 53 46 55 64 56 37 57 24 58 25 59 30 60
REMARK SMILES IDX 26 61 27 62 29 63 31 64 28 65 50 66 51 67 56 68 52 69 53 70
REMARK SMILES IDX 55 71 57 72 54 73 38 74 39 75 44 76 40 77 41 78 43 79 45 80
REMARK SMILES IDX 42 81
REMARK H PARENT 8 6 1 12 1 13 1 14 12 24 62 43 36 54
REMARK Flexibility Score: inf
ROOT
ATOM      1  C   UNL A   1      33.908  34.469  28.298  1.00  0.00     0.042 C 
ENDROOT
BRANCH   1   2
ATOM      2  C   UNL A   1      33.791  34.860  29.771  1.00  0.00     0.117 C 
BRANCH   2   3
ATOM      3  N   UNL A   1      34.026  33.732  30.652  1.00  0.00    -0.355 N 
ATOM      4  C   UNL A   1      34.691  33.441  31.807  1.00  0.00     0.231 C 
ATOM      5  O   UNL A   1      34.556  32.256  32.133  1.00  0.00    -0.274 OA
ATOM      6  H   UNL A   1      33.565  32.931  30.312  1.00  0.00     0.163 HD
BRANCH   4   7
ATOM      7  C   UNL A   1      35.485  34.378  32.721  1.00  0.00     0.083 C 
ATOM      8  C   UNL A   1      35.060  35.763  33.251  1.00  0.00     0.065 C 
ATOM      9  C   UNL A   1      34.950  34.566  34.148  1.00  0.00     0.033 C 
BRANCH   8  10
ATOM     10  C   UNL A   1      33.934  36.569  32.735  1.00  0.00     0.263 C 
BRANCH  10  11
ATOM     11  N   UNL A   1      34.399  37.925  32.489  1.00  0.00    -0.357 N 
ATOM     12  H   UNL A   1      33.596  38.542  32.364  1.00  0.00     0.344 HD
ATOM     13  H   UNL A   1      34.974  37.939  31.646  1.00  0.00     0.344 HD
ATOM     14  H   UNL A   1      34.953  38.244  33.284  1.00  0.00     0.344 HD
ENDBRANCH  10  11
ENDBRANCH   8  10
BRANCH   7  15
ATOM     15  C   UNL A   1      37.034  34.393  32.447  1.00  0.00    -0.032 A 
ATOM     16  C   UNL A   1      37.953  34.421  33.521  1.00  0.00     0.005 A 
ATOM     17  C   UNL A   1      37.592  34.319  31.157  1.00  0.00     0.005 A 
ATOM     18  C   UNL A   1      39.336  34.422  33.322  1.00  0.00     0.000 A 
ATOM     19  C   UNL A   1      38.977  34.283  30.952  1.00  0.00     0.000 A 
ATOM     20  C   UNL A   1      39.849  34.347  32.034  1.00  0.00     0.000 A 
ENDBRANCH   7  15
ENDBRANCH   4   7
ENDBRANCH   2   3
ENDBRANCH   1   2
BRANCH   1  21
ATOM     21  C   UNL A   1      34.743  33.224  28.025  1.00  0.00     0.118 C 
BRANCH  21  22
ATOM     22  N   UNL A   1      33.941  32.079  27.627  1.00  0.00    -0.352 N 
ATOM     23  C   UNL A   1      34.272  30.754  27.526  1.00  0.00     0.251 C 
ATOM     24  H   UNL A   1      33.009  32.290  27.390  1.00  0.00     0.163 HD
ATOM     25  O   UNL A   1      33.481  29.977  26.985  1.00  0.00    -0.269 OA
BRANCH  23  26
ATOM     26  C   UNL A   1      35.563  30.239  28.033  1.00  0.00     0.039 A 
ATOM     27  C   UNL A   1      35.628  29.773  29.349  1.00  0.00     0.014 A 
ATOM     28  C   UNL A   1      36.721  30.261  27.251  1.00  0.00     0.014 A 
ATOM     29  C   UNL A   1      36.836  29.296  29.863  1.00  0.00     0.010 A 
ATOM     30  C   UNL A   1      37.900  29.693  27.729  1.00  0.00     0.010 A 
ATOM     31  C   UNL A   1      37.979  29.231  29.050  1.00  0.00    -0.014 A 
BRANCH  31  32
ATOM     32  C   UNL A   1      39.273  28.737  29.589  1.00  0.00     0.031 A 
ATOM     33  C   UNL A   1      39.866  29.360  30.825  1.00  0.00     0.074 A 
ATOM     34  C   UNL A   1      39.931  27.749  28.951  1.00  0.00     0.049 A 
ATOM     35  N   UNL A   1      40.981  29.066  31.447  1.00  0.00    -0.248 NA
ATOM     36  C   UNL A   1      39.125  30.481  31.426  1.00  0.00     0.031 C 
ATOM     37  C   UNL A   1      39.494  27.100  27.713  1.00  0.00     0.029 A 
ATOM     38  N   UNL A   1      41.107  27.113  29.262  1.00  0.00    -0.354 N 
ATOM     39  C   UNL A   1      41.083  29.979  32.491  1.00  0.00     0.074 A 
ATOM     40  C   UNL A   1      39.951  30.871  32.385  1.00  0.00     0.031 C 
ATOM     41  C   UNL A   1      40.367  26.130  27.394  1.00  0.00     0.029 A 
ATOM     42  C   UNL A   1      41.437  26.108  28.387  1.00  0.00     0.049 A 
ATOM     43  H   UNL A   1      41.661  27.355  30.039  1.00  0.00     0.167 HD
ATOM     44  C   UNL A   1      42.018  30.051  33.468  1.00  0.00     0.037 A 
ATOM     45  C   UNL A   1      42.478  25.255  28.393  1.00  0.00     0.037 A 
ATOM     46  C   UNL A   1      43.120  29.135  33.599  1.00  0.00     0.049 A 
ATOM     47  C   UNL A   1      43.485  25.332  29.507  1.00  0.00     0.074 A 
ATOM     48  C   UNL A   1      44.080  29.077  34.593  1.00  0.00     0.029 A 
ATOM     49  N   UNL A   1      43.405  28.113  32.706  1.00  0.00    -0.354 N 
ATOM     50  N   UNL A   1      43.526  26.149  30.532  1.00  0.00    -0.248 NA
ATOM     51  C   UNL A   1      44.584  24.357  29.472  1.00  0.00     0.031 C 
ATOM     52  C   UNL A   1      44.969  28.041  34.282  1.00  0.00     0.029 A 
ATOM     53  C   UNL A   1      44.534  27.426  33.120  1.00  0.00     0.049 A 
ATOM     54  H   UNL A   1      42.881  27.906  31.900  1.00  0.00     0.167 HD
ATOM     55  C   UNL A   1      44.628  25.763  31.282  1.00  0.00     0.074 A 
ATOM     56  C   UNL A   1      45.223  24.633  30.600  1.00  0.00     0.031 C 
ATOM     57  C   UNL A   1      45.105  26.293  32.435  1.00  0.00     0.037 A 
BRANCH  44  58
ATOM     58  C   UNL A   1      41.883  31.158  34.474  1.00  0.00     0.057 A 
ATOM     59  C   UNL A   1      42.492  32.407  34.288  1.00  0.00     0.134 A 
ATOM     60  C   UNL A   1      41.122  30.980  35.636  1.00  0.00     0.134 A 
ATOM     61  F   UNL A   1      43.247  32.640  33.203  1.00  0.00    -0.206 F 
ATOM     62  C   UNL A   1      42.377  33.425  35.235  1.00  0.00     0.040 A 
ATOM     63  C   UNL A   1      40.974  32.001  36.576  1.00  0.00     0.040 A 
ATOM     64  F   UNL A   1      40.506  29.812  35.874  1.00  0.00    -0.206 F 
ATOM     65  C   UNL A   1      41.610  33.226  36.381  1.00  0.00     0.006 A 
ENDBRANCH  44  58
BRANCH  45  66
ATOM     66  C   UNL A   1      42.594  24.213  27.342  1.00  0.00     0.057 A 
ATOM     67  C   UNL A   1      42.103  22.919  27.557  1.00  0.00     0.134 A 
ATOM     68  C   UNL A   1      43.203  24.476  26.110  1.00  0.00     0.134 A 
ATOM     69  F   UNL A   1      41.525  22.602  28.725  1.00  0.00    -0.206 F 
ATOM     70  C   UNL A   1      42.232  21.918  26.593  1.00  0.00     0.040 A 
ATOM     71  C   UNL A   1      43.318  23.490  25.127  1.00  0.00     0.040 A 
ATOM     72  F   UNL A   1      43.686  25.696  25.839  1.00  0.00    -0.206 F 
ATOM     73  C   UNL A   1      42.838  22.204  25.372  1.00  0.00     0.006 A 
ENDBRANCH  45  66
BRANCH  57  74
ATOM     74  C   UNL A   1      46.297  25.625  33.054  1.00  0.00     0.057 A 
ATOM     75  C   UNL A   1      46.167  24.596  33.994  1.00  0.00     0.134 A 
ATOM     76  C   UNL A   1      47.593  26.007  32.686  1.00  0.00     0.134 A 
ATOM     77  F   UNL A   1      44.953  24.193  34.397  1.00  0.00    -0.206 F 
ATOM     78  C   UNL A   1      47.286  23.990  34.570  1.00  0.00     0.040 A 
ATOM     79  C   UNL A   1      48.719  25.391  33.235  1.00  0.00     0.040 A 
ATOM     80  F   UNL A   1      47.787  26.980  31.783  1.00  0.00    -0.206 F 
ATOM     81  C   UNL A   1      48.565  24.384  34.186  1.00  0.00     0.006 A 
ENDBRANCH  57  74
ENDBRANCH  31  32
ENDBRANCH  23  26
ENDBRANCH  21  22
ENDBRANCH   1  21
TORSDOF 13
ENDMDL
