MODEL 1
REMARK VINA RESULT:     -12.0      0.000      0.000
REMARK SMILES COc1cc(/C=N/NC(=O)c2cc(Cl)ccc2O)ccc1OCC(=O)NCCCNC(=O)c1ccc(-c2c3nc(c(-c4c(F)cccc4F)c4ccc([nH]4)c(-c4c(F)cccc4F)c4nc(c(-c5c(F)cccc5F)c5ccc2[nH]5)C=C4)C=C3)cc1
REMARK SMILES IDX 24 1 25 2 26 3 23 5 22 6 21 7 3 8 4 9 5 10 20 11 19 12 2 13
REMARK SMILES IDX 1 14 6 15 7 16 8 17 9 18 10 20 11 21 12 22 17 23 13 24 16 25
REMARK SMILES IDX 14 26 15 27 18 28 27 30 28 31 29 32 30 33 31 34 32 36 33 37
REMARK SMILES IDX 34 38 86 39 35 40 85 41 36 42 37 43 38 44 79 45 39 46 84 47
REMARK SMILES IDX 78 48 80 49 40 50 83 51 77 52 76 53 41 55 67 56 50 57 66 58
REMARK SMILES IDX 51 59 54 60 65 61 81 62 52 63 53 64 64 66 82 67 55 68 42 69
REMARK SMILES IDX 43 70 48 71 44 72 45 73 47 74 49 75 46 76 68 77 69 78 74 79
REMARK SMILES IDX 70 80 71 81 73 82 75 83 72 84 56 85 57 86 62 87 58 88 59 89
REMARK SMILES IDX 61 90 63 91 60 92
REMARK H PARENT 26 4 8 19 18 29 30 35 80 54 54 65
REMARK Flexibility Score: inf
ROOT
ATOM      1  C   UNL A   1      38.302  22.285  25.762  1.00  0.00     0.257 C 
ATOM      2  O   UNL A   1      38.097  23.500  25.787  1.00  0.00    -0.271 OA
ATOM      3  N   UNL A   1      39.599  21.866  25.840  1.00  0.00    -0.353 N 
ATOM      4  H   UNL A   1      40.280  22.563  25.703  1.00  0.00     0.163 HD
ENDROOT
BRANCH   1   5
ATOM      5  C   UNL A   1      37.160  21.262  25.722  1.00  0.00     0.329 C 
BRANCH   5   6
ATOM      6  O   UNL A   1      36.367  21.217  24.548  1.00  0.00    -0.480 OA
BRANCH   6   7
ATOM      7  C   UNL A   1      35.056  21.603  24.580  1.00  0.00     0.161 A 
ATOM      8  C   UNL A   1      33.907  20.809  24.688  1.00  0.00     0.161 A 
ATOM      9  C   UNL A   1      32.636  21.405  24.661  1.00  0.00     0.060 A 
ATOM     10  C   UNL A   1      32.515  22.793  24.568  1.00  0.00    -0.002 A 
ATOM     11  C   UNL A   1      34.909  22.994  24.459  1.00  0.00     0.051 A 
ATOM     12  C   UNL A   1      33.649  23.595  24.474  1.00  0.00     0.014 A 
BRANCH   8  13
ATOM     13  O   UNL A   1      34.008  19.444  24.683  1.00  0.00    -0.493 OA
ATOM     14  C   UNL A   1      32.898  18.798  25.307  1.00  0.00     0.278 C 
ENDBRANCH   8  13
BRANCH  10  15
ATOM     15  C   UNL A   1      31.196  23.446  24.471  1.00  0.00     0.141 C 
ATOM     16  N   UNL A   1      30.923  24.262  23.499  1.00  0.00    -0.180 NA
BRANCH  16  17
ATOM     17  N   UNL A   1      29.740  24.942  23.552  1.00  0.00    -0.243 N 
ATOM     18  C   UNL A   1      29.498  26.283  23.803  1.00  0.00     0.275 C 
ATOM     19  H   UNL A   1      28.937  24.397  23.386  1.00  0.00     0.194 HD
ATOM     20  O   UNL A   1      28.342  26.699  23.878  1.00  0.00    -0.267 OA
BRANCH  18  21
ATOM     21  C   UNL A   1      30.613  27.242  23.983  1.00  0.00     0.084 A 
ATOM     22  C   UNL A   1      31.066  27.444  25.294  1.00  0.00     0.038 A 
ATOM     23  C   UNL A   1      31.216  27.942  22.931  1.00  0.00     0.128 A 
ATOM     24  C   UNL A   1      32.153  28.282  25.531  1.00  0.00     0.042 A 
ATOM     25  C   UNL A   1      32.303  28.780  23.174  1.00  0.00     0.048 A 
ATOM     26  Cl  UNL A   1      32.737  28.493  27.135  1.00  0.00    -0.084 Cl
ATOM     27  C   UNL A   1      32.783  28.939  24.475  1.00  0.00     0.024 A 
BRANCH  23  28
ATOM     28  O   UNL A   1      30.815  27.847  21.627  1.00  0.00    -0.507 OA
ATOM     29  H   UNL A   1      30.269  28.512  21.256  1.00  0.00     0.293 HD
ENDBRANCH  23  28
ENDBRANCH  18  21
ENDBRANCH  16  17
ENDBRANCH  10  15
ENDBRANCH   6   7
ENDBRANCH   5   6
ENDBRANCH   1   5
BRANCH   3  30
ATOM     30  C   UNL A   1      40.109  20.534  26.097  1.00  0.00     0.117 C 
BRANCH  30  31
ATOM     31  C   UNL A   1      41.630  20.467  26.128  1.00  0.00     0.042 C 
BRANCH  31  32
ATOM     32  C   UNL A   1      42.319  21.710  26.683  1.00  0.00     0.118 C 
BRANCH  32  33
ATOM     33  N   UNL A   1      43.169  22.381  25.709  1.00  0.00    -0.352 N 
ATOM     34  C   UNL A   1      43.422  23.714  25.503  1.00  0.00     0.251 C 
ATOM     35  H   UNL A   1      43.643  21.776  25.095  1.00  0.00     0.163 HD
ATOM     36  O   UNL A   1      44.050  24.062  24.504  1.00  0.00    -0.269 OA
BRANCH  34  37
ATOM     37  C   UNL A   1      42.925  24.737  26.446  1.00  0.00     0.039 A 
ATOM     38  C   UNL A   1      41.783  24.457  27.202  1.00  0.00     0.014 A 
ATOM     39  C   UNL A   1      43.561  25.973  26.576  1.00  0.00     0.014 A 
ATOM     40  C   UNL A   1      41.334  25.379  28.149  1.00  0.00     0.010 A 
ATOM     41  C   UNL A   1      43.163  26.856  27.578  1.00  0.00     0.010 A 
ATOM     42  C   UNL A   1      42.050  26.565  28.380  1.00  0.00    -0.014 A 
BRANCH  42  43
ATOM     43  C   UNL A   1      41.667  27.498  29.472  1.00  0.00     0.031 A 
ATOM     44  C   UNL A   1      42.377  27.452  30.796  1.00  0.00     0.074 A 
ATOM     45  C   UNL A   1      40.625  28.334  29.294  1.00  0.00     0.049 A 
ATOM     46  N   UNL A   1      42.128  28.125  31.891  1.00  0.00    -0.248 NA
ATOM     47  C   UNL A   1      43.498  26.506  30.917  1.00  0.00     0.031 C 
ATOM     48  C   UNL A   1      39.825  28.441  28.072  1.00  0.00     0.029 A 
ATOM     49  N   UNL A   1      40.053  29.245  30.145  1.00  0.00    -0.354 N 
ATOM     50  C   UNL A   1      43.049  27.678  32.830  1.00  0.00     0.074 A 
ATOM     51  C   UNL A   1      43.826  26.635  32.193  1.00  0.00     0.031 C 
ATOM     52  C   UNL A   1      38.881  29.380  28.245  1.00  0.00     0.029 A 
ATOM     53  C   UNL A   1      38.979  29.909  29.601  1.00  0.00     0.049 A 
ATOM     54  H   UNL A   1      40.379  29.409  31.060  1.00  0.00     0.167 HD
ATOM     55  C   UNL A   1      43.244  28.109  34.099  1.00  0.00     0.037 A 
ATOM     56  C   UNL A   1      38.157  30.830  30.137  1.00  0.00     0.037 A 
ATOM     57  C   UNL A   1      42.480  29.158  34.723  1.00  0.00     0.049 A 
ATOM     58  C   UNL A   1      38.382  31.277  31.555  1.00  0.00     0.074 A 
ATOM     59  C   UNL A   1      42.640  29.708  35.983  1.00  0.00     0.029 A 
ATOM     60  N   UNL A   1      41.406  29.811  34.136  1.00  0.00    -0.354 N 
ATOM     61  N   UNL A   1      39.301  30.894  32.407  1.00  0.00    -0.248 NA
ATOM     62  C   UNL A   1      37.456  32.288  32.085  1.00  0.00     0.031 C 
ATOM     63  C   UNL A   1      41.631  30.657  36.178  1.00  0.00     0.029 A 
ATOM     64  C   UNL A   1      40.877  30.739  35.019  1.00  0.00     0.049 A 
ATOM     65  H   UNL A   1      41.070  29.642  33.226  1.00  0.00     0.167 HD
ATOM     66  C   UNL A   1      39.083  31.634  33.562  1.00  0.00     0.074 A 
ATOM     67  C   UNL A   1      37.954  32.502  33.294  1.00  0.00     0.031 C 
ATOM     68  C   UNL A   1      39.755  31.598  34.739  1.00  0.00     0.037 A 
BRANCH  55  69
ATOM     69  C   UNL A   1      44.328  27.445  34.899  1.00  0.00     0.057 A 
ATOM     70  C   UNL A   1      45.625  27.970  34.966  1.00  0.00     0.134 A 
ATOM     71  C   UNL A   1      44.062  26.287  35.642  1.00  0.00     0.134 A 
ATOM     72  F   UNL A   1      45.951  29.070  34.270  1.00  0.00    -0.206 F 
ATOM     73  C   UNL A   1      46.627  27.353  35.720  1.00  0.00     0.040 A 
ATOM     74  C   UNL A   1      45.047  25.678  36.423  1.00  0.00     0.040 A 
ATOM     75  F   UNL A   1      42.841  25.734  35.631  1.00  0.00    -0.206 F 
ATOM     76  C   UNL A   1      46.336  26.208  36.457  1.00  0.00     0.006 A 
ENDBRANCH  55  69
BRANCH  56  77
ATOM     77  C   UNL A   1      37.051  31.403  29.329  1.00  0.00     0.057 A 
ATOM     78  C   UNL A   1      35.878  30.677  29.090  1.00  0.00     0.134 A 
ATOM     79  C   UNL A   1      37.139  32.683  28.768  1.00  0.00     0.134 A 
ATOM     80  F   UNL A   1      35.740  29.438  29.586  1.00  0.00    -0.206 F 
ATOM     81  C   UNL A   1      34.844  31.191  28.307  1.00  0.00     0.040 A 
ATOM     82  C   UNL A   1      36.103  33.221  28.005  1.00  0.00     0.040 A 
ATOM     83  F   UNL A   1      38.232  33.436  28.967  1.00  0.00    -0.206 F 
ATOM     84  C   UNL A   1      34.954  32.470  27.765  1.00  0.00     0.006 A 
ENDBRANCH  56  77
BRANCH  68  85
ATOM     85  C   UNL A   1      39.307  32.545  35.814  1.00  0.00     0.057 A 
ATOM     86  C   UNL A   1      38.356  32.179  36.776  1.00  0.00     0.134 A 
ATOM     87  C   UNL A   1      39.860  33.829  35.909  1.00  0.00     0.134 A 
ATOM     88  F   UNL A   1      37.778  30.969  36.733  1.00  0.00    -0.206 F 
ATOM     89  C   UNL A   1      37.953  33.064  37.777  1.00  0.00     0.040 A 
ATOM     90  C   UNL A   1      39.487  34.712  36.924  1.00  0.00     0.040 A 
ATOM     91  F   UNL A   1      40.782  34.240  35.026  1.00  0.00    -0.206 F 
ATOM     92  C   UNL A   1      38.525  34.332  37.856  1.00  0.00     0.006 A 
ENDBRANCH  68  85
ENDBRANCH  42  43
ENDBRANCH  34  37
ENDBRANCH  32  33
ENDBRANCH  31  32
ENDBRANCH  30  31
ENDBRANCH   3  30
TORSDOF 17
ENDMDL
MODEL 2
REMARK VINA RESULT:     -11.8      2.822      8.540
REMARK SMILES COc1cc(/C=N/NC(=O)c2cc(Cl)ccc2O)ccc1OCC(=O)NCCCNC(=O)c1ccc(-c2c3nc(c(-c4c(F)cccc4F)c4ccc([nH]4)c(-c4c(F)cccc4F)c4nc(c(-c5c(F)cccc5F)c5ccc2[nH]5)C=C4)C=C3)cc1
REMARK SMILES IDX 24 1 25 2 26 3 23 5 22 6 21 7 3 8 4 9 5 10 20 11 19 12 2 13
REMARK SMILES IDX 1 14 6 15 7 16 8 17 9 18 10 20 11 21 12 22 17 23 13 24 16 25
REMARK SMILES IDX 14 26 15 27 18 28 27 30 28 31 29 32 30 33 31 34 32 36 33 37
REMARK SMILES IDX 34 38 86 39 35 40 85 41 36 42 37 43 38 44 79 45 39 46 84 47
REMARK SMILES IDX 78 48 80 49 40 50 83 51 77 52 76 53 41 55 67 56 50 57 66 58
REMARK SMILES IDX 51 59 54 60 65 61 81 62 52 63 53 64 64 66 82 67 55 68 42 69
REMARK SMILES IDX 43 70 48 71 44 72 45 73 47 74 49 75 46 76 68 77 69 78 74 79
REMARK SMILES IDX 70 80 71 81 73 82 75 83 72 84 56 85 57 86 62 87 58 88 59 89
REMARK SMILES IDX 61 90 63 91 60 92
REMARK H PARENT 26 4 8 19 18 29 30 35 80 54 54 65
REMARK Flexibility Score: inf
ROOT
ATOM      1  C   UNL A   1      30.538  29.536  23.396  1.00  0.00     0.257 C 
ATOM      2  O   UNL A   1      29.513  29.691  22.729  1.00  0.00    -0.271 OA
ATOM      3  N   UNL A   1      30.729  30.375  24.456  1.00  0.00    -0.353 N 
ATOM      4  H   UNL A   1      30.143  31.165  24.484  1.00  0.00     0.163 HD
ENDROOT
BRANCH   1   5
ATOM      5  C   UNL A   1      31.537  28.407  23.114  1.00  0.00     0.329 C 
BRANCH   5   6
ATOM      6  O   UNL A   1      31.154  27.417  22.175  1.00  0.00    -0.480 OA
BRANCH   6   7
ATOM      7  C   UNL A   1      31.388  26.094  22.425  1.00  0.00     0.161 A 
ATOM      8  C   UNL A   1      30.673  25.214  23.249  1.00  0.00     0.161 A 
ATOM      9  C   UNL A   1      31.106  23.887  23.403  1.00  0.00     0.060 A 
ATOM     10  C   UNL A   1      32.224  23.429  22.704  1.00  0.00    -0.002 A 
ATOM     11  C   UNL A   1      32.526  25.618  21.754  1.00  0.00     0.051 A 
ATOM     12  C   UNL A   1      32.936  24.290  21.871  1.00  0.00     0.014 A 
BRANCH   8  13
ATOM     13  O   UNL A   1      29.634  25.674  24.011  1.00  0.00    -0.493 OA
ATOM     14  C   UNL A   1      29.996  25.902  25.374  1.00  0.00     0.278 C 
ENDBRANCH   8  13
BRANCH  10  15
ATOM     15  C   UNL A   1      32.745  22.063  22.893  1.00  0.00     0.141 C 
ATOM     16  N   UNL A   1      32.037  21.154  23.491  1.00  0.00    -0.180 NA
BRANCH  16  17
ATOM     17  N   UNL A   1      32.637  19.956  23.762  1.00  0.00    -0.243 N 
ATOM     18  C   UNL A   1      33.739  19.675  24.552  1.00  0.00     0.275 C 
ATOM     19  H   UNL A   1      32.222  19.174  23.329  1.00  0.00     0.194 HD
ATOM     20  O   UNL A   1      34.176  18.526  24.618  1.00  0.00    -0.267 OA
BRANCH  18  21
ATOM     21  C   UNL A   1      34.412  20.739  25.333  1.00  0.00     0.084 A 
ATOM     22  C   UNL A   1      35.789  20.901  25.125  1.00  0.00     0.038 A 
ATOM     23  C   UNL A   1      33.753  21.565  26.253  1.00  0.00     0.128 A 
ATOM     24  C   UNL A   1      36.474  21.923  25.778  1.00  0.00     0.042 A 
ATOM     25  C   UNL A   1      34.445  22.586  26.903  1.00  0.00     0.048 A 
ATOM     26  Cl  UNL A   1      38.153  22.149  25.485  1.00  0.00    -0.084 Cl
ATOM     27  C   UNL A   1      35.804  22.776  26.654  1.00  0.00     0.024 A 
BRANCH  23  28
ATOM     28  O   UNL A   1      32.425  21.454  26.559  1.00  0.00    -0.507 OA
ATOM     29  H   UNL A   1      32.162  21.046  27.360  1.00  0.00     0.293 HD
ENDBRANCH  23  28
ENDBRANCH  18  21
ENDBRANCH  16  17
ENDBRANCH  10  15
ENDBRANCH   6   7
ENDBRANCH   5   6
ENDBRANCH   1   5
BRANCH   3  30
ATOM     30  C   UNL A   1      31.678  30.259  25.545  1.00  0.00     0.117 C 
BRANCH  30  31
ATOM     31  C   UNL A   1      31.495  31.325  26.618  1.00  0.00     0.042 C 
BRANCH  31  32
ATOM     32  C   UNL A   1      32.775  32.034  27.048  1.00  0.00     0.118 C 
BRANCH  32  33
ATOM     33  N   UNL A   1      32.566  33.426  27.424  1.00  0.00    -0.352 N 
ATOM     34  C   UNL A   1      33.199  34.213  28.352  1.00  0.00     0.251 C 
ATOM     35  H   UNL A   1      31.846  33.879  26.928  1.00  0.00     0.163 HD
ATOM     36  O   UNL A   1      32.738  35.322  28.620  1.00  0.00    -0.269 OA
BRANCH  34  37
ATOM     37  C   UNL A   1      34.408  33.736  29.055  1.00  0.00     0.039 A 
ATOM     38  C   UNL A   1      34.254  32.898  30.164  1.00  0.00     0.014 A 
ATOM     39  C   UNL A   1      35.685  34.123  28.647  1.00  0.00     0.014 A 
ATOM     40  C   UNL A   1      35.381  32.378  30.803  1.00  0.00     0.010 A 
ATOM     41  C   UNL A   1      36.807  33.540  29.232  1.00  0.00     0.010 A 
ATOM     42  C   UNL A   1      36.667  32.656  30.312  1.00  0.00    -0.014 A 
BRANCH  42  43
ATOM     43  C   UNL A   1      37.872  32.009  30.894  1.00  0.00     0.031 A 
ATOM     44  C   UNL A   1      38.557  30.883  30.171  1.00  0.00     0.074 A 
ATOM     45  C   UNL A   1      38.302  32.388  32.114  1.00  0.00     0.049 A 
ATOM     46  N   UNL A   1      39.565  30.144  30.559  1.00  0.00    -0.248 NA
ATOM     47  C   UNL A   1      38.022  30.521  28.848  1.00  0.00     0.031 C 
ATOM     48  C   UNL A   1      37.696  33.437  32.937  1.00  0.00     0.029 A 
ATOM     49  N   UNL A   1      39.344  31.927  32.879  1.00  0.00    -0.354 N 
ATOM     50  C   UNL A   1      39.777  29.225  29.539  1.00  0.00     0.074 A 
ATOM     51  C   UNL A   1      38.758  29.464  28.540  1.00  0.00     0.031 C 
ATOM     52  C   UNL A   1      38.388  33.553  34.081  1.00  0.00     0.029 A 
ATOM     53  C   UNL A   1      39.458  32.561  34.093  1.00  0.00     0.049 A 
ATOM     54  H   UNL A   1      39.952  31.210  32.587  1.00  0.00     0.167 HD
ATOM     55  C   UNL A   1      40.744  28.283  29.434  1.00  0.00     0.037 A 
ATOM     56  C   UNL A   1      40.318  32.356  35.109  1.00  0.00     0.037 A 
ATOM     57  C   UNL A   1      41.767  28.060  30.423  1.00  0.00     0.049 A 
ATOM     58  C   UNL A   1      41.370  31.290  34.976  1.00  0.00     0.074 A 
ATOM     59  C   UNL A   1      42.827  27.171  30.381  1.00  0.00     0.029 A 
ATOM     60  N   UNL A   1      41.854  28.728  31.636  1.00  0.00    -0.354 N 
ATOM     61  N   UNL A   1      41.600  30.476  33.975  1.00  0.00    -0.248 NA
ATOM     62  C   UNL A   1      42.283  31.117  36.114  1.00  0.00     0.031 C 
ATOM     63  C   UNL A   1      43.524  27.264  31.591  1.00  0.00     0.029 A 
ATOM     64  C   UNL A   1      42.933  28.250  32.363  1.00  0.00     0.049 A 
ATOM     65  H   UNL A   1      41.240  29.437  31.936  1.00  0.00     0.167 HD
ATOM     66  C   UNL A   1      42.699  29.715  34.349  1.00  0.00     0.074 A 
ATOM     67  C   UNL A   1      43.100  30.176  35.663  1.00  0.00     0.031 C 
ATOM     68  C   UNL A   1      43.321  28.720  33.668  1.00  0.00     0.037 A 
BRANCH  55  69
ATOM     69  C   UNL A   1      40.743  27.420  28.205  1.00  0.00     0.057 A 
ATOM     70  C   UNL A   1      41.456  27.773  27.052  1.00  0.00     0.134 A 
ATOM     71  C   UNL A   1      40.050  26.202  28.186  1.00  0.00     0.134 A 
ATOM     72  F   UNL A   1      42.131  28.931  26.997  1.00  0.00    -0.206 F 
ATOM     73  C   UNL A   1      41.458  26.961  25.915  1.00  0.00     0.040 A 
ATOM     74  C   UNL A   1      40.069  25.368  27.067  1.00  0.00     0.040 A 
ATOM     75  F   UNL A   1      39.352  25.797  29.258  1.00  0.00    -0.206 F 
ATOM     76  C   UNL A   1      40.769  25.751  25.924  1.00  0.00     0.006 A 
ENDBRANCH  55  69
BRANCH  56  77
ATOM     77  C   UNL A   1      40.231  33.187  36.337  1.00  0.00     0.057 A 
ATOM     78  C   UNL A   1      39.376  32.837  37.388  1.00  0.00     0.134 A 
ATOM     79  C   UNL A   1      40.993  34.353  36.489  1.00  0.00     0.134 A 
ATOM     80  F   UNL A   1      38.608  31.741  37.295  1.00  0.00    -0.206 F 
ATOM     81  C   UNL A   1      39.263  33.624  38.534  1.00  0.00     0.040 A 
ATOM     82  C   UNL A   1      40.909  35.136  37.641  1.00  0.00     0.040 A 
ATOM     83  F   UNL A   1      41.840  34.740  35.523  1.00  0.00    -0.206 F 
ATOM     84  C   UNL A   1      40.035  34.776  38.664  1.00  0.00     0.006 A 
ENDBRANCH  56  77
BRANCH  68  85
ATOM     85  C   UNL A   1      44.517  28.087  34.318  1.00  0.00     0.057 A 
ATOM     86  C   UNL A   1      44.404  26.962  35.145  1.00  0.00     0.134 A 
ATOM     87  C   UNL A   1      45.805  28.589  34.084  1.00  0.00     0.134 A 
ATOM     88  F   UNL A   1      43.198  26.441  35.421  1.00  0.00    -0.206 F 
ATOM     89  C   UNL A   1      45.523  26.376  35.737  1.00  0.00     0.040 A 
ATOM     90  C   UNL A   1      46.934  27.993  34.645  1.00  0.00     0.040 A 
ATOM     91  F   UNL A   1      45.986  29.657  33.293  1.00  0.00    -0.206 F 
ATOM     92  C   UNL A   1      46.794  26.888  35.481  1.00  0.00     0.006 A 
ENDBRANCH  68  85
ENDBRANCH  42  43
ENDBRANCH  34  37
ENDBRANCH  32  33
ENDBRANCH  31  32
ENDBRANCH  30  31
ENDBRANCH   3  30
TORSDOF 17
ENDMDL
MODEL 3
REMARK VINA RESULT:     -11.8      1.282      2.186
REMARK SMILES COc1cc(/C=N/NC(=O)c2cc(Cl)ccc2O)ccc1OCC(=O)NCCCNC(=O)c1ccc(-c2c3nc(c(-c4c(F)cccc4F)c4ccc([nH]4)c(-c4c(F)cccc4F)c4nc(c(-c5c(F)cccc5F)c5ccc2[nH]5)C=C4)C=C3)cc1
REMARK SMILES IDX 24 1 25 2 26 3 23 5 22 6 21 7 3 8 4 9 5 10 20 11 19 12 2 13
REMARK SMILES IDX 1 14 6 15 7 16 8 17 9 18 10 20 11 21 12 22 17 23 13 24 16 25
REMARK SMILES IDX 14 26 15 27 18 28 27 30 28 31 29 32 30 33 31 34 32 36 33 37
REMARK SMILES IDX 34 38 86 39 35 40 85 41 36 42 37 43 38 44 79 45 39 46 84 47
REMARK SMILES IDX 78 48 80 49 40 50 83 51 77 52 76 53 41 55 67 56 50 57 66 58
REMARK SMILES IDX 51 59 54 60 65 61 81 62 52 63 53 64 64 66 82 67 55 68 42 69
REMARK SMILES IDX 43 70 48 71 44 72 45 73 47 74 49 75 46 76 68 77 69 78 74 79
REMARK SMILES IDX 70 80 71 81 73 82 75 83 72 84 56 85 57 86 62 87 58 88 59 89
REMARK SMILES IDX 61 90 63 91 60 92
REMARK H PARENT 26 4 8 19 18 29 30 35 80 54 54 65
REMARK Flexibility Score: inf
ROOT
ATOM      1  C   UNL A   1      39.771  19.862  25.965  1.00  0.00     0.257 C 
ATOM      2  O   UNL A   1      39.521  18.807  25.378  1.00  0.00    -0.271 OA
ATOM      3  N   UNL A   1      40.878  19.889  26.762  1.00  0.00    -0.353 N 
ATOM      4  H   UNL A   1      41.274  19.012  26.970  1.00  0.00     0.163 HD
ENDROOT
BRANCH   1   5
ATOM      5  C   UNL A   1      38.932  21.130  25.765  1.00  0.00     0.329 C 
BRANCH   5   6
ATOM      6  O   UNL A   1      37.569  21.078  26.151  1.00  0.00    -0.480 OA
BRANCH   6   7
ATOM      7  C   UNL A   1      36.638  21.858  25.525  1.00  0.00     0.161 A 
ATOM      8  C   UNL A   1      35.350  22.207  25.953  1.00  0.00     0.161 A 
ATOM      9  C   UNL A   1      34.527  22.995  25.134  1.00  0.00     0.060 A 
ATOM     10  C   UNL A   1      35.003  23.468  23.909  1.00  0.00    -0.002 A 
ATOM     11  C   UNL A   1      37.085  22.321  24.277  1.00  0.00     0.051 A 
ATOM     12  C   UNL A   1      36.286  23.139  23.477  1.00  0.00     0.014 A 
BRANCH   8  13
ATOM     13  O   UNL A   1      34.838  21.674  27.105  1.00  0.00    -0.493 OA
ATOM     14  C   UNL A   1      33.546  22.186  27.433  1.00  0.00     0.278 C 
ENDBRANCH   8  13
BRANCH  10  15
ATOM     15  C   UNL A   1      34.144  24.241  22.994  1.00  0.00     0.141 C 
ATOM     16  N   UNL A   1      32.854  24.092  23.000  1.00  0.00    -0.180 NA
BRANCH  16  17
ATOM     17  N   UNL A   1      32.135  24.729  22.029  1.00  0.00    -0.243 N 
ATOM     18  C   UNL A   1      31.818  26.071  21.897  1.00  0.00     0.275 C 
ATOM     19  H   UNL A   1      31.789  24.146  21.315  1.00  0.00     0.194 HD
ATOM     20  O   UNL A   1      31.092  26.447  20.977  1.00  0.00    -0.267 OA
BRANCH  18  21
ATOM     21  C   UNL A   1      32.342  27.079  22.848  1.00  0.00     0.084 A 
ATOM     22  C   UNL A   1      31.754  27.113  24.120  1.00  0.00     0.038 A 
ATOM     23  C   UNL A   1      33.369  27.981  22.540  1.00  0.00     0.128 A 
ATOM     24  C   UNL A   1      32.240  27.991  25.086  1.00  0.00     0.042 A 
ATOM     25  C   UNL A   1      33.850  28.858  23.511  1.00  0.00     0.048 A 
ATOM     26  Cl  UNL A   1      31.548  28.000  26.660  1.00  0.00    -0.084 Cl
ATOM     27  C   UNL A   1      33.296  28.853  24.791  1.00  0.00     0.024 A 
BRANCH  23  28
ATOM     28  O   UNL A   1      33.972  28.056  21.315  1.00  0.00    -0.507 OA
ATOM     29  H   UNL A   1      34.453  28.823  21.076  1.00  0.00     0.293 HD
ENDBRANCH  23  28
ENDBRANCH  18  21
ENDBRANCH  16  17
ENDBRANCH  10  15
ENDBRANCH   6   7
ENDBRANCH   5   6
ENDBRANCH   1   5
BRANCH   3  30
ATOM     30  C   UNL A   1      41.551  21.033  27.344  1.00  0.00     0.117 C 
BRANCH  30  31
ATOM     31  C   UNL A   1      42.776  21.476  26.556  1.00  0.00     0.042 C 
BRANCH  31  32
ATOM     32  C   UNL A   1      42.504  22.508  25.466  1.00  0.00     0.118 C 
BRANCH  32  33
ATOM     33  N   UNL A   1      43.711  23.159  24.972  1.00  0.00    -0.352 N 
ATOM     34  C   UNL A   1      44.207  24.418  25.192  1.00  0.00     0.251 C 
ATOM     35  H   UNL A   1      44.263  22.599  24.381  1.00  0.00     0.163 HD
ATOM     36  O   UNL A   1      45.168  24.813  24.530  1.00  0.00    -0.269 OA
BRANCH  34  37
ATOM     37  C   UNL A   1      43.588  25.317  26.187  1.00  0.00     0.039 A 
ATOM     38  C   UNL A   1      42.566  24.818  27.000  1.00  0.00     0.014 A 
ATOM     39  C   UNL A   1      43.990  26.649  26.311  1.00  0.00     0.014 A 
ATOM     40  C   UNL A   1      42.013  25.627  27.995  1.00  0.00     0.010 A 
ATOM     41  C   UNL A   1      43.497  27.428  27.356  1.00  0.00     0.010 A 
ATOM     42  C   UNL A   1      42.508  26.922  28.213  1.00  0.00    -0.014 A 
BRANCH  42  43
ATOM     43  C   UNL A   1      42.027  27.752  29.349  1.00  0.00     0.031 A 
ATOM     44  C   UNL A   1      42.700  27.670  30.691  1.00  0.00     0.074 A 
ATOM     45  C   UNL A   1      40.932  28.522  29.189  1.00  0.00     0.049 A 
ATOM     46  N   UNL A   1      42.370  28.250  31.817  1.00  0.00    -0.248 NA
ATOM     47  C   UNL A   1      43.883  26.800  30.788  1.00  0.00     0.031 C 
ATOM     48  C   UNL A   1      40.162  28.651  27.950  1.00  0.00     0.029 A 
ATOM     49  N   UNL A   1      40.270  29.332  30.077  1.00  0.00    -0.354 N 
ATOM     50  C   UNL A   1      43.294  27.809  32.756  1.00  0.00     0.074 A 
ATOM     51  C   UNL A   1      44.163  26.869  32.081  1.00  0.00     0.031 C 
ATOM     52  C   UNL A   1      39.147  29.507  28.150  1.00  0.00     0.029 A 
ATOM     53  C   UNL A   1      39.167  29.952  29.540  1.00  0.00     0.049 A 
ATOM     54  H   UNL A   1      40.557  29.458  31.010  1.00  0.00     0.167 HD
ATOM     55  C   UNL A   1      43.420  28.169  34.055  1.00  0.00     0.037 A 
ATOM     56  C   UNL A   1      38.264  30.774  30.105  1.00  0.00     0.037 A 
ATOM     57  C   UNL A   1      42.564  29.118  34.719  1.00  0.00     0.049 A 
ATOM     58  C   UNL A   1      38.415  31.143  31.556  1.00  0.00     0.074 A 
ATOM     59  C   UNL A   1      42.647  29.594  36.016  1.00  0.00     0.029 A 
ATOM     60  N   UNL A   1      41.462  29.730  34.139  1.00  0.00    -0.354 N 
ATOM     61  N   UNL A   1      39.334  30.771  32.412  1.00  0.00    -0.248 NA
ATOM     62  C   UNL A   1      37.402  32.048  32.117  1.00  0.00     0.031 C 
ATOM     63  C   UNL A   1      41.566  30.454  36.236  1.00  0.00     0.029 A 
ATOM     64  C   UNL A   1      40.841  30.558  35.061  1.00  0.00     0.049 A 
ATOM     65  H   UNL A   1      41.166  29.597  33.209  1.00  0.00     0.167 HD
ATOM     66  C   UNL A   1      39.029  31.416  33.603  1.00  0.00     0.074 A 
ATOM     67  C   UNL A   1      37.848  32.217  33.353  1.00  0.00     0.031 C 
ATOM     68  C   UNL A   1      39.667  31.351  34.798  1.00  0.00     0.037 A 
BRANCH  55  69
ATOM     69  C   UNL A   1      44.527  27.533  34.848  1.00  0.00     0.057 A 
ATOM     70  C   UNL A   1      44.369  26.290  35.473  1.00  0.00     0.134 A 
ATOM     71  C   UNL A   1      45.777  28.156  34.958  1.00  0.00     0.134 A 
ATOM     72  F   UNL A   1      43.194  25.645  35.418  1.00  0.00    -0.206 F 
ATOM     73  C   UNL A   1      45.405  25.700  36.201  1.00  0.00     0.040 A 
ATOM     74  C   UNL A   1      46.830  27.562  35.657  1.00  0.00     0.040 A 
ATOM     75  F   UNL A   1      46.001  29.344  34.378  1.00  0.00    -0.206 F 
ATOM     76  C   UNL A   1      46.642  26.333  36.288  1.00  0.00     0.006 A 
ENDBRANCH  55  69
BRANCH  56  77
ATOM     77  C   UNL A   1      37.143  31.319  29.298  1.00  0.00     0.057 A 
ATOM     78  C   UNL A   1      37.189  32.619  28.783  1.00  0.00     0.134 A 
ATOM     79  C   UNL A   1      35.997  30.560  29.027  1.00  0.00     0.134 A 
ATOM     80  F   UNL A   1      38.251  33.402  29.022  1.00  0.00    -0.206 F 
ATOM     81  C   UNL A   1      36.129  33.155  28.048  1.00  0.00     0.040 A 
ATOM     82  C   UNL A   1      34.942  31.073  28.272  1.00  0.00     0.040 A 
ATOM     83  F   UNL A   1      35.895  29.302  29.482  1.00  0.00    -0.206 F 
ATOM     84  C   UNL A   1      35.003  32.378  27.787  1.00  0.00     0.006 A 
ENDBRANCH  56  77
BRANCH  68  85
ATOM     85  C   UNL A   1      39.120  32.191  35.915  1.00  0.00     0.057 A 
ATOM     86  C   UNL A   1      39.492  33.532  36.085  1.00  0.00     0.134 A 
ATOM     87  C   UNL A   1      38.182  31.662  36.812  1.00  0.00     0.134 A 
ATOM     88  F   UNL A   1      40.396  34.095  35.269  1.00  0.00    -0.206 F 
ATOM     89  C   UNL A   1      38.970  34.307  37.122  1.00  0.00     0.040 A 
ATOM     90  C   UNL A   1      37.631  32.436  37.833  1.00  0.00     0.040 A 
ATOM     91  F   UNL A   1      37.776  30.389  36.699  1.00  0.00    -0.206 F 
ATOM     92  C   UNL A   1      38.031  33.760  37.995  1.00  0.00     0.006 A 
ENDBRANCH  68  85
ENDBRANCH  42  43
ENDBRANCH  34  37
ENDBRANCH  32  33
ENDBRANCH  31  32
ENDBRANCH  30  31
ENDBRANCH   3  30
TORSDOF 17
ENDMDL
