MODEL 1
REMARK VINA RESULT:     -11.5      0.000      0.000
REMARK SMILES C[C@]([NH2+]Cc1noc(C2CC2)n1)(C(=O)NCCCNC(=O)c1ccc(-c2c3nc(c(-c4c(F)cccc4F)c4ccc([nH]4)c(-c4c(F)cccc4F)c4nc(c(-c5c(F)cccc5F)c5ccc2[nH]5)C=C4)C=C3)cc1)C(F)(F)F
REMARK SMILES IDX 16 1 15 2 13 3 14 4 2 6 1 7 76 8 77 9 78 10 79 11 3 12 4 15
REMARK SMILES IDX 5 16 6 17 12 18 7 19 8 20 9 21 10 22 11 23 17 24 18 25 19 26
REMARK SMILES IDX 20 27 21 29 22 30 23 31 75 32 24 33 74 34 25 35 26 36 27 37
REMARK SMILES IDX 68 38 28 39 73 40 67 41 69 42 29 43 72 44 66 45 65 46 30 48
REMARK SMILES IDX 56 49 39 50 55 51 40 52 43 53 54 54 70 55 41 56 42 57 53 59
REMARK SMILES IDX 71 60 44 61 31 62 32 63 37 64 33 65 34 66 36 67 38 68 35 69
REMARK SMILES IDX 57 70 58 71 63 72 59 73 60 74 62 75 64 76 61 77 45 78 46 79
REMARK SMILES IDX 51 80 47 81 48 82 50 83 52 84 49 85
REMARK H PARENT 15 5 3 13 3 14 19 28 69 47 43 58
REMARK Flexibility Score: inf
ROOT
ATOM      1  C   UNL A   1      36.720  20.933  24.861  1.00  0.00     0.118 C 
ENDROOT
BRANCH   1   2
ATOM      2  N   UNL A   1      35.918  21.081  26.064  1.00  0.00    -0.350 N 
ATOM      3  C   UNL A   1      34.870  21.905  26.375  1.00  0.00     0.290 C 
ATOM      4  O   UNL A   1      34.409  21.767  27.509  1.00  0.00    -0.267 OA
ATOM      5  H   UNL A   1      36.179  20.473  26.793  1.00  0.00     0.163 HD
BRANCH   3   6
ATOM      6  C   UNL A   1      34.298  22.899  25.339  1.00  0.00     0.268 C 
ATOM      7  C   UNL A   1      33.000  23.503  25.927  1.00  0.00     0.101 C 
BRANCH   6   8
ATOM      8  C   UNL A   1      35.324  24.069  25.242  1.00  0.00     0.453 C 
ATOM      9  F   UNL A   1      34.753  25.290  25.342  1.00  0.00    -0.164 F 
ATOM     10  F   UNL A   1      36.225  23.976  26.259  1.00  0.00    -0.164 F 
ATOM     11  F   UNL A   1      36.051  24.034  24.099  1.00  0.00    -0.164 F 
ENDBRANCH   6   8
BRANCH   6  12
ATOM     12  N   UNL A   1      34.157  22.199  24.013  1.00  0.00    -0.320 N 
ATOM     13  H   UNL A   1      34.914  21.520  23.935  1.00  0.00     0.347 HD
ATOM     14  H   UNL A   1      34.182  22.937  23.308  1.00  0.00     0.347 HD
BRANCH  12  15
ATOM     15  C   UNL A   1      32.898  21.490  23.791  1.00  0.00     0.344 C 
BRANCH  15  16
ATOM     16  C   UNL A   1      32.888  20.097  24.348  1.00  0.00     0.226 A 
ATOM     17  N   UNL A   1      32.035  19.778  25.332  1.00  0.00    -0.056 NA
ATOM     18  N   UNL A   1      33.636  19.041  23.876  1.00  0.00    -0.190 NA
ATOM     19  O   UNL A   1      32.165  18.398  25.435  1.00  0.00    -0.339 OA
ATOM     20  C   UNL A   1      33.113  18.020  24.525  1.00  0.00     0.229 A 
BRANCH  20  21
ATOM     21  C   UNL A   1      33.436  16.553  24.277  1.00  0.00     0.079 C 
ATOM     22  C   UNL A   1      34.600  15.937  25.030  1.00  0.00     0.014 C 
ATOM     23  C   UNL A   1      33.205  15.524  25.358  1.00  0.00     0.014 C 
ENDBRANCH  20  21
ENDBRANCH  15  16
ENDBRANCH  12  15
ENDBRANCH   6  12
ENDBRANCH   3   6
ENDBRANCH   1   2
BRANCH   1  24
ATOM     24  C   UNL A   1      37.751  19.821  25.001  1.00  0.00     0.042 C 
BRANCH  24  25
ATOM     25  C   UNL A   1      39.006  20.251  25.751  1.00  0.00     0.118 C 
BRANCH  25  26
ATOM     26  N   UNL A   1      40.000  19.187  25.826  1.00  0.00    -0.352 N 
ATOM     27  C   UNL A   1      41.359  19.255  25.995  1.00  0.00     0.251 C 
ATOM     28  H   UNL A   1      39.637  18.276  25.743  1.00  0.00     0.163 HD
ATOM     29  O   UNL A   1      42.046  18.251  25.806  1.00  0.00    -0.269 OA
BRANCH  27  30
ATOM     30  C   UNL A   1      42.004  20.526  26.379  1.00  0.00     0.039 A 
ATOM     31  C   UNL A   1      42.476  21.377  25.376  1.00  0.00     0.014 A 
ATOM     32  C   UNL A   1      42.154  20.876  27.723  1.00  0.00     0.014 A 
ATOM     33  C   UNL A   1      43.021  22.615  25.720  1.00  0.00     0.010 A 
ATOM     34  C   UNL A   1      42.617  22.144  28.060  1.00  0.00     0.010 A 
ATOM     35  C   UNL A   1      43.049  23.029  27.062  1.00  0.00    -0.014 A 
BRANCH  35  36
ATOM     36  C   UNL A   1      43.499  24.392  27.442  1.00  0.00     0.031 A 
ATOM     37  C   UNL A   1      42.501  25.431  27.865  1.00  0.00     0.074 A 
ATOM     38  C   UNL A   1      44.802  24.713  27.324  1.00  0.00     0.049 A 
ATOM     39  N   UNL A   1      42.692  26.696  28.142  1.00  0.00    -0.248 NA
ATOM     40  C   UNL A   1      41.097  24.999  27.967  1.00  0.00     0.031 C 
ATOM     41  C   UNL A   1      45.863  23.804  26.882  1.00  0.00     0.029 A 
ATOM     42  N   UNL A   1      45.456  25.897  27.552  1.00  0.00    -0.354 N 
ATOM     43  C   UNL A   1      41.437  27.211  28.439  1.00  0.00     0.074 A 
ATOM     44  C   UNL A   1      40.485  26.138  28.257  1.00  0.00     0.031 C 
ATOM     45  C   UNL A   1      47.034  24.457  26.890  1.00  0.00     0.029 A 
ATOM     46  C   UNL A   1      46.805  25.841  27.290  1.00  0.00     0.049 A 
ATOM     47  H   UNL A   1      45.004  26.710  27.872  1.00  0.00     0.167 HD
ATOM     48  C   UNL A   1      41.112  28.462  28.846  1.00  0.00     0.037 A 
ATOM     49  C   UNL A   1      47.746  26.801  27.347  1.00  0.00     0.037 A 
ATOM     50  C   UNL A   1      42.064  29.524  29.035  1.00  0.00     0.049 A 
ATOM     51  C   UNL A   1      47.353  28.190  27.768  1.00  0.00     0.074 A 
ATOM     52  C   UNL A   1      41.842  30.808  29.501  1.00  0.00     0.029 A 
ATOM     53  N   UNL A   1      43.421  29.428  28.761  1.00  0.00    -0.354 N 
ATOM     54  N   UNL A   1      46.173  28.646  28.114  1.00  0.00    -0.248 NA
ATOM     55  C   UNL A   1      48.421  29.197  27.806  1.00  0.00     0.031 C 
ATOM     56  C   UNL A   1      43.053  31.507  29.452  1.00  0.00     0.029 A 
ATOM     57  C   UNL A   1      44.042  30.642  29.014  1.00  0.00     0.049 A 
ATOM     58  H   UNL A   1      43.876  28.618  28.434  1.00  0.00     0.167 HD
ATOM     59  C   UNL A   1      46.361  29.984  28.434  1.00  0.00     0.074 A 
ATOM     60  C   UNL A   1      47.772  30.260  28.260  1.00  0.00     0.031 C 
ATOM     61  C   UNL A   1      45.448  30.903  28.833  1.00  0.00     0.037 A 
BRANCH  48  62
ATOM     62  C   UNL A   1      39.661  28.750  29.109  1.00  0.00     0.057 A 
ATOM     63  C   UNL A   1      39.099  28.619  30.387  1.00  0.00     0.134 A 
ATOM     64  C   UNL A   1      38.823  29.201  28.082  1.00  0.00     0.134 A 
ATOM     65  F   UNL A   1      39.842  28.181  31.414  1.00  0.00    -0.206 F 
ATOM     66  C   UNL A   1      37.753  28.900  30.626  1.00  0.00     0.040 A 
ATOM     67  C   UNL A   1      37.482  29.515  28.315  1.00  0.00     0.040 A 
ATOM     68  F   UNL A   1      39.296  29.356  26.836  1.00  0.00    -0.206 F 
ATOM     69  C   UNL A   1      36.943  29.357  29.590  1.00  0.00     0.006 A 
ENDBRANCH  48  62
BRANCH  49  70
ATOM     70  C   UNL A   1      49.155  26.484  27.000  1.00  0.00     0.057 A 
ATOM     71  C   UNL A   1      49.610  26.565  25.678  1.00  0.00     0.134 A 
ATOM     72  C   UNL A   1      50.077  26.078  27.974  1.00  0.00     0.134 A 
ATOM     73  F   UNL A   1      48.769  26.928  24.699  1.00  0.00    -0.206 F 
ATOM     74  C   UNL A   1      50.921  26.237  25.334  1.00  0.00     0.040 A 
ATOM     75  C   UNL A   1      51.400  25.776  27.648  1.00  0.00     0.040 A 
ATOM     76  F   UNL A   1      49.709  25.988  29.260  1.00  0.00    -0.206 F 
ATOM     77  C   UNL A   1      51.823  25.846  26.322  1.00  0.00     0.006 A 
ENDBRANCH  49  70
BRANCH  61  78
ATOM     78  C   UNL A   1      45.951  32.286  29.132  1.00  0.00     0.057 A 
ATOM     79  C   UNL A   1      46.436  32.639  30.398  1.00  0.00     0.134 A 
ATOM     80  C   UNL A   1      45.983  33.266  28.133  1.00  0.00     0.134 A 
ATOM     81  F   UNL A   1      46.419  31.751  31.404  1.00  0.00    -0.206 F 
ATOM     82  C   UNL A   1      46.911  33.924  30.666  1.00  0.00     0.040 A 
ATOM     83  C   UNL A   1      46.484  34.545  28.379  1.00  0.00     0.040 A 
ATOM     84  F   UNL A   1      45.542  32.993  26.895  1.00  0.00    -0.206 F 
ATOM     85  C   UNL A   1      46.943  34.878  29.651  1.00  0.00     0.006 A 
ENDBRANCH  61  78
ENDBRANCH  35  36
ENDBRANCH  27  30
ENDBRANCH  25  26
ENDBRANCH  24  25
ENDBRANCH   1  24
TORSDOF 15
ENDMDL
MODEL 2
REMARK VINA RESULT:     -11.4      0.476      6.346
REMARK SMILES C[C@]([NH2+]Cc1noc(C2CC2)n1)(C(=O)NCCCNC(=O)c1ccc(-c2c3nc(c(-c4c(F)cccc4F)c4ccc([nH]4)c(-c4c(F)cccc4F)c4nc(c(-c5c(F)cccc5F)c5ccc2[nH]5)C=C4)C=C3)cc1)C(F)(F)F
REMARK SMILES IDX 16 1 15 2 13 3 14 4 2 6 1 7 76 8 77 9 78 10 79 11 3 12 4 15
REMARK SMILES IDX 5 16 6 17 12 18 7 19 8 20 9 21 10 22 11 23 17 24 18 25 19 26
REMARK SMILES IDX 20 27 21 29 22 30 23 31 75 32 24 33 74 34 25 35 26 36 27 37
REMARK SMILES IDX 68 38 28 39 73 40 67 41 69 42 29 43 72 44 66 45 65 46 30 48
REMARK SMILES IDX 56 49 39 50 55 51 40 52 43 53 54 54 70 55 41 56 42 57 53 59
REMARK SMILES IDX 71 60 44 61 31 62 32 63 37 64 33 65 34 66 36 67 38 68 35 69
REMARK SMILES IDX 57 70 58 71 63 72 59 73 60 74 62 75 64 76 61 77 45 78 46 79
REMARK SMILES IDX 51 80 47 81 48 82 50 83 52 84 49 85
REMARK H PARENT 15 5 3 13 3 14 19 28 69 47 43 58
REMARK Flexibility Score: inf
ROOT
ATOM      1  C   UNL A   1      36.653  20.708  24.774  1.00  0.00     0.118 C 
ENDROOT
BRANCH   1   2
ATOM      2  N   UNL A   1      35.901  20.979  25.987  1.00  0.00    -0.350 N 
ATOM      3  C   UNL A   1      34.920  21.890  26.277  1.00  0.00     0.290 C 
ATOM      4  O   UNL A   1      34.486  21.847  27.429  1.00  0.00    -0.267 OA
ATOM      5  H   UNL A   1      36.142  20.397  26.744  1.00  0.00     0.163 HD
BRANCH   3   6
ATOM      6  C   UNL A   1      34.384  22.860  25.200  1.00  0.00     0.268 C 
ATOM      7  C   UNL A   1      33.141  23.575  25.783  1.00  0.00     0.101 C 
BRANCH   6   8
ATOM      8  C   UNL A   1      35.477  23.956  25.016  1.00  0.00     0.453 C 
ATOM      9  F   UNL A   1      36.249  23.763  23.924  1.00  0.00    -0.164 F 
ATOM     10  F   UNL A   1      34.886  25.174  24.864  1.00  0.00    -0.164 F 
ATOM     11  F   UNL A   1      36.289  24.071  26.093  1.00  0.00    -0.164 F 
ENDBRANCH   6   8
BRANCH   6  12
ATOM     12  N   UNL A   1      34.166  22.099  23.919  1.00  0.00    -0.320 N 
ATOM     13  H   UNL A   1      34.898  21.393  23.846  1.00  0.00     0.347 HD
ATOM     14  H   UNL A   1      34.186  22.800  23.177  1.00  0.00     0.347 HD
BRANCH  12  15
ATOM     15  C   UNL A   1      32.878  21.422  23.784  1.00  0.00     0.344 C 
BRANCH  15  16
ATOM     16  C   UNL A   1      32.866  20.036  24.357  1.00  0.00     0.226 A 
ATOM     17  N   UNL A   1      32.041  19.740  25.372  1.00  0.00    -0.056 NA
ATOM     18  N   UNL A   1      33.583  18.963  23.873  1.00  0.00    -0.190 NA
ATOM     19  O   UNL A   1      32.154  18.360  25.486  1.00  0.00    -0.339 OA
ATOM     20  C   UNL A   1      33.067  17.957  24.550  1.00  0.00     0.229 A 
BRANCH  20  21
ATOM     21  C   UNL A   1      33.361  16.484  24.309  1.00  0.00     0.079 C 
ATOM     22  C   UNL A   1      34.472  15.833  25.110  1.00  0.00     0.014 C 
ATOM     23  C   UNL A   1      33.053  15.456  25.373  1.00  0.00     0.014 C 
ENDBRANCH  20  21
ENDBRANCH  15  16
ENDBRANCH  12  15
ENDBRANCH   6  12
ENDBRANCH   3   6
ENDBRANCH   1   2
BRANCH   1  24
ATOM     24  C   UNL A   1      37.737  19.664  25.001  1.00  0.00     0.042 C 
BRANCH  24  25
ATOM     25  C   UNL A   1      38.951  20.203  25.749  1.00  0.00     0.118 C 
BRANCH  25  26
ATOM     26  N   UNL A   1      39.997  19.201  25.905  1.00  0.00    -0.352 N 
ATOM     27  C   UNL A   1      41.347  19.353  26.097  1.00  0.00     0.251 C 
ATOM     28  H   UNL A   1      39.686  18.268  25.867  1.00  0.00     0.163 HD
ATOM     29  O   UNL A   1      42.090  18.379  25.980  1.00  0.00    -0.269 OA
BRANCH  27  30
ATOM     30  C   UNL A   1      41.913  20.677  26.420  1.00  0.00     0.039 A 
ATOM     31  C   UNL A   1      42.280  21.531  25.376  1.00  0.00     0.014 A 
ATOM     32  C   UNL A   1      42.096  21.074  27.747  1.00  0.00     0.014 A 
ATOM     33  C   UNL A   1      42.747  22.814  25.664  1.00  0.00     0.010 A 
ATOM     34  C   UNL A   1      42.479  22.381  28.031  1.00  0.00     0.010 A 
ATOM     35  C   UNL A   1      42.804  23.266  26.993  1.00  0.00    -0.014 A 
BRANCH  35  36
ATOM     36  C   UNL A   1      43.169  24.668  27.318  1.00  0.00     0.031 A 
ATOM     37  C   UNL A   1      44.605  25.107  27.281  1.00  0.00     0.074 A 
ATOM     38  C   UNL A   1      42.211  25.521  27.726  1.00  0.00     0.049 A 
ATOM     39  N   UNL A   1      45.127  26.258  27.621  1.00  0.00    -0.248 NA
ATOM     40  C   UNL A   1      45.590  24.112  26.825  1.00  0.00     0.031 C 
ATOM     41  C   UNL A   1      40.786  25.202  27.845  1.00  0.00     0.029 A 
ATOM     42  N   UNL A   1      42.291  26.830  28.131  1.00  0.00    -0.354 N 
ATOM     43  C   UNL A   1      46.496  26.124  27.431  1.00  0.00     0.074 A 
ATOM     44  C   UNL A   1      46.731  24.764  26.997  1.00  0.00     0.031 C 
ATOM     45  C   UNL A   1      40.126  26.289  28.274  1.00  0.00     0.029 A 
ATOM     46  C   UNL A   1      41.082  27.366  28.506  1.00  0.00     0.049 A 
ATOM     47  H   UNL A   1      43.134  27.338  28.152  1.00  0.00     0.167 HD
ATOM     48  C   UNL A   1      47.466  27.056  27.585  1.00  0.00     0.037 A 
ATOM     49  C   UNL A   1      40.780  28.582  28.998  1.00  0.00     0.037 A 
ATOM     50  C   UNL A   1      47.225  28.411  28.007  1.00  0.00     0.049 A 
ATOM     51  C   UNL A   1      41.881  29.588  29.193  1.00  0.00     0.074 A 
ATOM     52  C   UNL A   1      48.133  29.448  28.137  1.00  0.00     0.029 A 
ATOM     53  N   UNL A   1      45.987  28.916  28.376  1.00  0.00    -0.354 N 
ATOM     54  N   UNL A   1      43.162  29.470  28.942  1.00  0.00    -0.248 NA
ATOM     55  C   UNL A   1      41.493  30.895  29.739  1.00  0.00     0.031 C 
ATOM     56  C   UNL A   1      47.455  30.562  28.641  1.00  0.00     0.029 A 
ATOM     57  C   UNL A   1      46.114  30.240  28.767  1.00  0.00     0.049 A 
ATOM     58  H   UNL A   1      45.143  28.410  28.362  1.00  0.00     0.167 HD
ATOM     59  C   UNL A   1      43.730  30.693  29.276  1.00  0.00     0.074 A 
ATOM     60  C   UNL A   1      42.648  31.544  29.728  1.00  0.00     0.031 C 
ATOM     61  C   UNL A   1      45.029  31.075  29.218  1.00  0.00     0.037 A 
BRANCH  48  62
ATOM     62  C   UNL A   1      48.881  26.640  27.300  1.00  0.00     0.057 A 
ATOM     63  C   UNL A   1      49.717  26.124  28.300  1.00  0.00     0.134 A 
ATOM     64  C   UNL A   1      49.403  26.719  26.003  1.00  0.00     0.134 A 
ATOM     65  F   UNL A   1      49.285  26.032  29.566  1.00  0.00    -0.206 F 
ATOM     66  C   UNL A   1      51.027  25.729  28.025  1.00  0.00     0.040 A 
ATOM     67  C   UNL A   1      50.702  26.298  25.709  1.00  0.00     0.040 A 
ATOM     68  F   UNL A   1      48.656  27.196  24.995  1.00  0.00    -0.206 F 
ATOM     69  C   UNL A   1      51.520  25.808  26.725  1.00  0.00     0.006 A 
ENDBRANCH  48  62
BRANCH  49  70
ATOM     70  C   UNL A   1      39.374  28.919  29.339  1.00  0.00     0.057 A 
ATOM     71  C   UNL A   1      38.870  28.697  30.626  1.00  0.00     0.134 A 
ATOM     72  C   UNL A   1      38.498  29.457  28.388  1.00  0.00     0.134 A 
ATOM     73  F   UNL A   1      39.655  28.165  31.574  1.00  0.00    -0.206 F 
ATOM     74  C   UNL A   1      37.542  28.977  30.950  1.00  0.00     0.040 A 
ATOM     75  C   UNL A   1      37.176  29.770  28.707  1.00  0.00     0.040 A 
ATOM     76  F   UNL A   1      38.920  29.703  27.139  1.00  0.00    -0.206 F 
ATOM     77  C   UNL A   1      36.692  29.521  29.990  1.00  0.00     0.006 A 
ENDBRANCH  49  70
BRANCH  61  78
ATOM     78  C   UNL A   1      45.348  32.484  29.629  1.00  0.00     0.057 A 
ATOM     79  C   UNL A   1      45.289  33.550  28.723  1.00  0.00     0.134 A 
ATOM     80  C   UNL A   1      45.686  32.782  30.955  1.00  0.00     0.134 A 
ATOM     81  F   UNL A   1      44.986  33.332  27.434  1.00  0.00    -0.206 F 
ATOM     82  C   UNL A   1      45.578  34.859  29.115  1.00  0.00     0.040 A 
ATOM     83  C   UNL A   1      45.947  34.089  31.367  1.00  0.00     0.040 A 
ATOM     84  F   UNL A   1      45.752  31.809  31.877  1.00  0.00    -0.206 F 
ATOM     85  C   UNL A   1      45.900  35.131  30.443  1.00  0.00     0.006 A 
ENDBRANCH  61  78
ENDBRANCH  35  36
ENDBRANCH  27  30
ENDBRANCH  25  26
ENDBRANCH  24  25
ENDBRANCH   1  24
TORSDOF 15
ENDMDL
MODEL 3
REMARK VINA RESULT:     -11.3      6.113     10.696
REMARK SMILES C[C@]([NH2+]Cc1noc(C2CC2)n1)(C(=O)NCCCNC(=O)c1ccc(-c2c3nc(c(-c4c(F)cccc4F)c4ccc([nH]4)c(-c4c(F)cccc4F)c4nc(c(-c5c(F)cccc5F)c5ccc2[nH]5)C=C4)C=C3)cc1)C(F)(F)F
REMARK SMILES IDX 16 1 15 2 13 3 14 4 2 6 1 7 76 8 77 9 78 10 79 11 3 12 4 15
REMARK SMILES IDX 5 16 6 17 12 18 7 19 8 20 9 21 10 22 11 23 17 24 18 25 19 26
REMARK SMILES IDX 20 27 21 29 22 30 23 31 75 32 24 33 74 34 25 35 26 36 27 37
REMARK SMILES IDX 68 38 28 39 73 40 67 41 69 42 29 43 72 44 66 45 65 46 30 48
REMARK SMILES IDX 56 49 39 50 55 51 40 52 43 53 54 54 70 55 41 56 42 57 53 59
REMARK SMILES IDX 71 60 44 61 31 62 32 63 37 64 33 65 34 66 36 67 38 68 35 69
REMARK SMILES IDX 57 70 58 71 63 72 59 73 60 74 62 75 64 76 61 77 45 78 46 79
REMARK SMILES IDX 51 80 47 81 48 82 50 83 52 84 49 85
REMARK H PARENT 15 5 3 13 3 14 19 28 69 47 43 58
REMARK Flexibility Score: inf
ROOT
ATOM      1  C   UNL A   1      31.721  29.954  25.897  1.00  0.00     0.118 C 
ENDROOT
BRANCH   1   2
ATOM      2  N   UNL A   1      32.601  29.855  24.746  1.00  0.00    -0.350 N 
ATOM      3  C   UNL A   1      33.170  28.782  24.113  1.00  0.00     0.290 C 
ATOM      4  O   UNL A   1      33.879  29.057  23.144  1.00  0.00    -0.267 OA
ATOM      5  H   UNL A   1      32.832  30.724  24.344  1.00  0.00     0.163 HD
BRANCH   3   6
ATOM      6  C   UNL A   1      32.889  27.336  24.579  1.00  0.00     0.268 C 
ATOM      7  C   UNL A   1      33.491  26.373  23.527  1.00  0.00     0.101 C 
BRANCH   6   8
ATOM      8  C   UNL A   1      33.711  27.129  25.887  1.00  0.00     0.453 C 
ATOM      9  F   UNL A   1      34.485  26.021  25.863  1.00  0.00    -0.164 F 
ATOM     10  F   UNL A   1      34.551  28.186  26.074  1.00  0.00    -0.164 F 
ATOM     11  F   UNL A   1      32.931  27.077  26.992  1.00  0.00    -0.164 F 
ENDBRANCH   6   8
BRANCH   6  12
ATOM     12  N   UNL A   1      31.414  27.183  24.843  1.00  0.00    -0.320 N 
ATOM     13  H   UNL A   1      31.038  28.107  25.056  1.00  0.00     0.347 HD
ATOM     14  H   UNL A   1      31.340  26.515  25.610  1.00  0.00     0.347 HD
BRANCH  12  15
ATOM     15  C   UNL A   1      30.621  26.618  23.754  1.00  0.00     0.344 C 
BRANCH  15  16
ATOM     16  C   UNL A   1      29.454  27.472  23.356  1.00  0.00     0.226 A 
ATOM     17  N   UNL A   1      28.205  27.062  23.622  1.00  0.00    -0.056 NA
ATOM     18  N   UNL A   1      29.535  28.729  22.797  1.00  0.00    -0.190 NA
ATOM     19  O   UNL A   1      27.429  28.173  23.311  1.00  0.00    -0.339 OA
ATOM     20  C   UNL A   1      28.283  29.137  22.850  1.00  0.00     0.229 A 
BRANCH  20  21
ATOM     21  C   UNL A   1      27.793  30.539  22.519  1.00  0.00     0.079 C 
ATOM     22  C   UNL A   1      27.662  31.540  23.650  1.00  0.00     0.014 C 
ATOM     23  C   UNL A   1      28.726  31.722  22.622  1.00  0.00     0.014 C 
ENDBRANCH  20  21
ENDBRANCH  15  16
ENDBRANCH  12  15
ENDBRANCH   6  12
ENDBRANCH   3   6
ENDBRANCH   1   2
BRANCH   1  24
ATOM     24  C   UNL A   1      31.497  31.401  26.317  1.00  0.00     0.042 C 
BRANCH  24  25
ATOM     25  C   UNL A   1      32.677  32.001  27.072  1.00  0.00     0.118 C 
BRANCH  25  26
ATOM     26  N   UNL A   1      32.494  33.421  27.348  1.00  0.00    -0.352 N 
ATOM     27  C   UNL A   1      33.106  34.228  28.273  1.00  0.00     0.251 C 
ATOM     28  H   UNL A   1      31.827  33.870  26.782  1.00  0.00     0.163 HD
ATOM     29  O   UNL A   1      32.649  35.348  28.498  1.00  0.00    -0.269 OA
BRANCH  27  30
ATOM     30  C   UNL A   1      34.292  33.755  29.014  1.00  0.00     0.039 A 
ATOM     31  C   UNL A   1      34.120  32.841  30.057  1.00  0.00     0.014 A 
ATOM     32  C   UNL A   1      35.570  34.217  28.691  1.00  0.00     0.014 A 
ATOM     33  C   UNL A   1      35.237  32.327  30.717  1.00  0.00     0.010 A 
ATOM     34  C   UNL A   1      36.686  33.641  29.290  1.00  0.00     0.010 A 
ATOM     35  C   UNL A   1      36.531  32.686  30.305  1.00  0.00    -0.014 A 
BRANCH  35  36
ATOM     36  C   UNL A   1      37.735  32.054  30.901  1.00  0.00     0.031 A 
ATOM     37  C   UNL A   1      38.451  30.950  30.177  1.00  0.00     0.074 A 
ATOM     38  C   UNL A   1      38.131  32.423  32.135  1.00  0.00     0.049 A 
ATOM     39  N   UNL A   1      39.459  30.217  30.576  1.00  0.00    -0.248 NA
ATOM     40  C   UNL A   1      37.954  30.607  28.834  1.00  0.00     0.031 C 
ATOM     41  C   UNL A   1      37.493  33.453  32.958  1.00  0.00     0.029 A 
ATOM     42  N   UNL A   1      39.159  31.964  32.919  1.00  0.00    -0.354 N 
ATOM     43  C   UNL A   1      39.709  29.323  29.544  1.00  0.00     0.074 A 
ATOM     44  C   UNL A   1      38.714  29.568  28.522  1.00  0.00     0.031 C 
ATOM     45  C   UNL A   1      38.153  33.559  34.120  1.00  0.00     0.029 A 
ATOM     46  C   UNL A   1      39.231  32.576  34.148  1.00  0.00     0.049 A 
ATOM     47  H   UNL A   1      39.786  31.262  32.631  1.00  0.00     0.167 HD
ATOM     48  C   UNL A   1      40.690  28.394  29.448  1.00  0.00     0.037 A 
ATOM     49  C   UNL A   1      40.059  32.358  35.186  1.00  0.00     0.037 A 
ATOM     50  C   UNL A   1      41.684  28.161  30.464  1.00  0.00     0.049 A 
ATOM     51  C   UNL A   1      41.118  31.297  35.068  1.00  0.00     0.074 A 
ATOM     52  C   UNL A   1      42.755  27.285  30.437  1.00  0.00     0.029 A 
ATOM     53  N   UNL A   1      41.724  28.802  31.693  1.00  0.00    -0.354 N 
ATOM     54  N   UNL A   1      41.388  30.506  34.058  1.00  0.00    -0.248 NA
ATOM     55  C   UNL A   1      41.989  31.099  36.235  1.00  0.00     0.031 C 
ATOM     56  C   UNL A   1      43.407  27.353  31.672  1.00  0.00     0.029 A 
ATOM     57  C   UNL A   1      42.781  28.315  32.447  1.00  0.00     0.049 A 
ATOM     58  H   UNL A   1      41.095  29.500  31.988  1.00  0.00     0.167 HD
ATOM     59  C   UNL A   1      42.471  29.734  34.456  1.00  0.00     0.074 A 
ATOM     60  C   UNL A   1      42.822  30.168  35.793  1.00  0.00     0.031 C 
ATOM     61  C   UNL A   1      43.116  28.754  33.778  1.00  0.00     0.037 A 
BRANCH  48  62
ATOM     62  C   UNL A   1      40.735  27.556  28.202  1.00  0.00     0.057 A 
ATOM     63  C   UNL A   1      41.467  27.946  27.072  1.00  0.00     0.134 A 
ATOM     64  C   UNL A   1      40.069  26.325  28.144  1.00  0.00     0.134 A 
ATOM     65  F   UNL A   1      42.119  29.118  27.056  1.00  0.00    -0.206 F 
ATOM     66  C   UNL A   1      41.512  27.157  25.923  1.00  0.00     0.040 A 
ATOM     67  C   UNL A   1      40.132  25.512  27.010  1.00  0.00     0.040 A 
ATOM     68  F   UNL A   1      39.355  25.886  29.192  1.00  0.00    -0.206 F 
ATOM     69  C   UNL A   1      40.850  25.932  25.892  1.00  0.00     0.006 A 
ENDBRANCH  48  62
BRANCH  49  70
ATOM     70  C   UNL A   1      39.924  33.161  36.428  1.00  0.00     0.057 A 
ATOM     71  C   UNL A   1      39.042  32.775  37.445  1.00  0.00     0.134 A 
ATOM     72  C   UNL A   1      40.658  34.337  36.625  1.00  0.00     0.134 A 
ATOM     73  F   UNL A   1      38.296  31.670  37.306  1.00  0.00    -0.206 F 
ATOM     74  C   UNL A   1      38.880  33.539  38.601  1.00  0.00     0.040 A 
ATOM     75  C   UNL A   1      40.528  35.094  37.790  1.00  0.00     0.040 A 
ATOM     76  F   UNL A   1      41.527  34.758  35.693  1.00  0.00    -0.206 F 
ATOM     77  C   UNL A   1      39.629  34.700  38.779  1.00  0.00     0.006 A 
ENDBRANCH  49  70
BRANCH  61  78
ATOM     78  C   UNL A   1      44.282  28.100  34.462  1.00  0.00     0.057 A 
ATOM     79  C   UNL A   1      44.139  26.920  35.202  1.00  0.00     0.134 A 
ATOM     80  C   UNL A   1      45.571  28.638  34.348  1.00  0.00     0.134 A 
ATOM     81  F   UNL A   1      42.930  26.360  35.363  1.00  0.00    -0.206 F 
ATOM     82  C   UNL A   1      45.230  26.313  35.827  1.00  0.00     0.040 A 
ATOM     83  C   UNL A   1      46.674  28.024  34.941  1.00  0.00     0.040 A 
ATOM     84  F   UNL A   1      45.781  29.761  33.645  1.00  0.00    -0.206 F 
ATOM     85  C   UNL A   1      46.504  26.861  35.689  1.00  0.00     0.006 A 
ENDBRANCH  61  78
ENDBRANCH  35  36
ENDBRANCH  27  30
ENDBRANCH  25  26
ENDBRANCH  24  25
ENDBRANCH   1  24
TORSDOF 15
ENDMDL
