MODEL 1
REMARK VINA RESULT:     -12.4      0.000      0.000
REMARK SMILES O=C(NCCCNC(=O)c1ccc2c(c1)[C@@H](C1CCOCC1)C(=O)N2)c1ccc(-c2c3nc(c(-c4c(F)cccc4F)c4ccc([nH]4)c(-c4c(F)cccc4F)c4nc(c(-c5c(F)cccc5F)c5ccc2[nH]5)C=C4)C=C3)cc1
REMARK SMILES IDX 4 1 3 2 1 3 2 4 26 6 27 7 79 8 28 9 78 10 29 11 30 12 31 13
REMARK SMILES IDX 72 14 32 15 77 16 71 17 73 18 33 19 76 20 70 21 69 22 34 24
REMARK SMILES IDX 60 25 43 26 59 27 44 28 47 29 58 30 74 31 45 32 46 33 57 35
REMARK SMILES IDX 75 36 48 37 35 38 36 39 41 40 37 41 38 42 40 43 42 44 39 45
REMARK SMILES IDX 61 46 62 47 67 48 63 49 64 50 66 51 68 52 65 53 49 54 50 55
REMARK SMILES IDX 55 56 51 57 52 58 54 59 56 60 53 61 5 62 6 63 7 64 8 65 9 67
REMARK SMILES IDX 10 68 11 69 15 70 12 71 14 72 13 73 16 74 25 75 23 76 24 78
REMARK SMILES IDX 17 79 18 80 22 81 19 82 21 83 20 84
REMARK H PARENT 3 5 73 23 47 34 7 66 25 77
REMARK Flexibility Score: inf
ROOT
ATOM      1  C   UNL A   1      32.636  32.817  26.854  1.00  0.00     0.118 C 
ENDROOT
BRANCH   1   2
ATOM      2  N   UNL A   1      32.446  34.056  27.600  1.00  0.00    -0.352 N 
ATOM      3  O   UNL A   1      32.679  35.540  29.279  1.00  0.00    -0.269 OA
ATOM      4  C   UNL A   1      33.114  34.552  28.695  1.00  0.00     0.251 C 
ATOM      5  H   UNL A   1      31.723  34.632  27.263  1.00  0.00     0.163 HD
BRANCH   4   6
ATOM      6  C   UNL A   1      34.338  33.884  29.185  1.00  0.00     0.039 A 
ATOM      7  C   UNL A   1      34.250  32.731  29.964  1.00  0.00     0.014 A 
ATOM      8  C   UNL A   1      35.593  34.408  28.856  1.00  0.00     0.014 A 
ATOM      9  C   UNL A   1      35.385  32.229  30.581  1.00  0.00     0.010 A 
ATOM     10  C   UNL A   1      36.750  33.815  29.371  1.00  0.00     0.010 A 
ATOM     11  C   UNL A   1      36.655  32.742  30.269  1.00  0.00    -0.014 A 
BRANCH  11  12
ATOM     12  C   UNL A   1      37.849  32.073  30.845  1.00  0.00     0.031 A 
ATOM     13  C   UNL A   1      38.347  32.400  32.225  1.00  0.00     0.074 A 
ATOM     14  C   UNL A   1      38.450  31.109  30.118  1.00  0.00     0.049 A 
ATOM     15  N   UNL A   1      39.345  31.865  32.885  1.00  0.00    -0.248 NA
ATOM     16  C   UNL A   1      37.646  33.463  32.960  1.00  0.00     0.031 C 
ATOM     17  C   UNL A   1      38.065  30.716  28.760  1.00  0.00     0.029 A 
ATOM     18  N   UNL A   1      39.486  30.265  30.423  1.00  0.00    -0.354 N 
ATOM     19  C   UNL A   1      39.393  32.525  34.107  1.00  0.00     0.074 A 
ATOM     20  C   UNL A   1      38.352  33.531  34.081  1.00  0.00     0.031 C 
ATOM     21  C   UNL A   1      38.811  29.674  28.372  1.00  0.00     0.029 A 
ATOM     22  C   UNL A   1      39.780  29.376  29.417  1.00  0.00     0.049 A 
ATOM     23  H   UNL A   1      39.972  30.293  31.278  1.00  0.00     0.167 HD
ATOM     24  C   UNL A   1      40.222  32.302  35.156  1.00  0.00     0.037 A 
ATOM     25  C   UNL A   1      40.740  28.438  29.331  1.00  0.00     0.037 A 
ATOM     26  C   UNL A   1      41.261  31.302  35.172  1.00  0.00     0.049 A 
ATOM     27  C   UNL A   1      41.671  28.248  30.492  1.00  0.00     0.074 A 
ATOM     28  C   UNL A   1      42.151  30.997  36.188  1.00  0.00     0.029 A 
ATOM     29  N   UNL A   1      41.553  30.446  34.120  1.00  0.00    -0.354 N 
ATOM     30  N   UNL A   1      41.686  28.863  31.649  1.00  0.00    -0.248 NA
ATOM     31  C   UNL A   1      42.719  27.232  30.336  1.00  0.00     0.031 C 
ATOM     32  C   UNL A   1      43.010  29.992  35.734  1.00  0.00     0.029 A 
ATOM     33  C   UNL A   1      42.619  29.626  34.457  1.00  0.00     0.049 A 
ATOM     34  H   UNL A   1      41.073  30.423  33.261  1.00  0.00     0.167 HD
ATOM     35  C   UNL A   1      42.729  28.296  32.366  1.00  0.00     0.074 A 
ATOM     36  C   UNL A   1      43.304  27.267  31.524  1.00  0.00     0.031 C 
ATOM     37  C   UNL A   1      43.178  28.604  33.609  1.00  0.00     0.037 A 
BRANCH  24  38
ATOM     38  C   UNL A   1      40.045  33.158  36.379  1.00  0.00     0.057 A 
ATOM     39  C   UNL A   1      40.781  34.335  36.570  1.00  0.00     0.134 A 
ATOM     40  C   UNL A   1      39.086  32.835  37.349  1.00  0.00     0.134 A 
ATOM     41  F   UNL A   1      41.723  34.698  35.687  1.00  0.00    -0.206 F 
ATOM     42  C   UNL A   1      40.585  35.148  37.688  1.00  0.00     0.040 A 
ATOM     43  C   UNL A   1      38.862  33.655  38.458  1.00  0.00     0.040 A 
ATOM     44  F   UNL A   1      38.338  31.729  37.226  1.00  0.00    -0.206 F 
ATOM     45  C   UNL A   1      39.617  34.813  38.632  1.00  0.00     0.006 A 
ENDBRANCH  24  38
BRANCH  25  46
ATOM     46  C   UNL A   1      40.888  27.636  28.091  1.00  0.00     0.057 A 
ATOM     47  C   UNL A   1      41.644  28.095  27.007  1.00  0.00     0.134 A 
ATOM     48  C   UNL A   1      40.257  26.392  27.954  1.00  0.00     0.134 A 
ATOM     49  F   UNL A   1      42.261  29.284  27.070  1.00  0.00    -0.206 F 
ATOM     50  C   UNL A   1      41.742  27.363  25.823  1.00  0.00     0.040 A 
ATOM     51  C   UNL A   1      40.378  25.633  26.790  1.00  0.00     0.040 A 
ATOM     52  F   UNL A   1      39.528  25.886  28.961  1.00  0.00    -0.206 F 
ATOM     53  C   UNL A   1      41.112  26.126  25.715  1.00  0.00     0.006 A 
ENDBRANCH  25  46
BRANCH  37  54
ATOM     54  C   UNL A   1      44.321  27.787  34.138  1.00  0.00     0.057 A 
ATOM     55  C   UNL A   1      44.119  26.570  34.804  1.00  0.00     0.134 A 
ATOM     56  C   UNL A   1      45.642  28.223  33.974  1.00  0.00     0.134 A 
ATOM     57  F   UNL A   1      42.878  26.104  35.008  1.00  0.00    -0.206 F 
ATOM     58  C   UNL A   1      45.188  25.836  35.319  1.00  0.00     0.040 A 
ATOM     59  C   UNL A   1      46.721  27.481  34.458  1.00  0.00     0.040 A 
ATOM     60  F   UNL A   1      45.906  29.375  33.339  1.00  0.00    -0.206 F 
ATOM     61  C   UNL A   1      46.494  26.289  35.142  1.00  0.00     0.006 A 
ENDBRANCH  37  54
ENDBRANCH  11  12
ENDBRANCH   4   6
ENDBRANCH   1   2
BRANCH   1  62
ATOM     62  C   UNL A   1      31.405  31.928  26.861  1.00  0.00     0.042 C 
BRANCH  62  63
ATOM     63  C   UNL A   1      31.731  30.444  26.878  1.00  0.00     0.118 C 
BRANCH  63  64
ATOM     64  N   UNL A   1      33.025  30.172  27.487  1.00  0.00    -0.352 N 
ATOM     65  C   UNL A   1      33.996  29.274  27.119  1.00  0.00     0.251 C 
ATOM     66  H   UNL A   1      33.235  30.712  28.283  1.00  0.00     0.163 HD
ATOM     67  O   UNL A   1      34.929  29.026  27.875  1.00  0.00    -0.269 OA
BRANCH  65  68
ATOM     68  C   UNL A   1      33.900  28.584  25.817  1.00  0.00     0.040 A 
ATOM     69  C   UNL A   1      33.694  29.326  24.633  1.00  0.00     0.016 A 
ATOM     70  C   UNL A   1      34.017  27.188  25.788  1.00  0.00     0.020 A 
ATOM     71  C   UNL A   1      33.491  28.677  23.418  1.00  0.00     0.027 A 
ATOM     72  C   UNL A   1      33.829  26.555  24.573  1.00  0.00    -0.011 A 
ATOM     73  C   UNL A   1      33.555  27.302  23.424  1.00  0.00     0.045 A 
ATOM     74  C   UNL A   1      33.851  25.085  24.219  1.00  0.00     0.114 C 
ATOM     75  N   UNL A   1      33.365  26.458  22.346  1.00  0.00    -0.325 N 
ATOM     76  C   UNL A   1      33.522  25.129  22.705  1.00  0.00     0.232 C 
ATOM     77  H   UNL A   1      33.145  26.764  21.437  1.00  0.00     0.169 HD
ATOM     78  O   UNL A   1      33.439  24.187  21.932  1.00  0.00    -0.274 OA
BRANCH  74  79
ATOM     79  C   UNL A   1      32.901  24.216  25.068  1.00  0.00     0.010 C 
ATOM     80  C   UNL A   1      31.558  24.918  25.337  1.00  0.00     0.033 C 
ATOM     81  C   UNL A   1      33.511  23.738  26.399  1.00  0.00     0.033 C 
ATOM     82  C   UNL A   1      30.655  24.068  26.222  1.00  0.00     0.160 C 
ATOM     83  C   UNL A   1      32.489  22.947  27.208  1.00  0.00     0.160 C 
ATOM     84  O   UNL A   1      31.317  23.723  27.437  1.00  0.00    -0.381 OA
ENDBRANCH  74  79
ENDBRANCH  65  68
ENDBRANCH  63  64
ENDBRANCH  62  63
ENDBRANCH   1  62
TORSDOF 11
ENDMDL
MODEL 2
REMARK VINA RESULT:     -12.3      4.998      9.942
REMARK SMILES O=C(NCCCNC(=O)c1ccc2c(c1)[C@@H](C1CCOCC1)C(=O)N2)c1ccc(-c2c3nc(c(-c4c(F)cccc4F)c4ccc([nH]4)c(-c4c(F)cccc4F)c4nc(c(-c5c(F)cccc5F)c5ccc2[nH]5)C=C4)C=C3)cc1
REMARK SMILES IDX 4 1 3 2 1 3 2 4 26 6 27 7 79 8 28 9 78 10 29 11 30 12 31 13
REMARK SMILES IDX 72 14 32 15 77 16 71 17 73 18 33 19 76 20 70 21 69 22 34 24
REMARK SMILES IDX 60 25 43 26 59 27 44 28 47 29 58 30 74 31 45 32 46 33 57 35
REMARK SMILES IDX 75 36 48 37 35 38 36 39 41 40 37 41 38 42 40 43 42 44 39 45
REMARK SMILES IDX 61 46 62 47 67 48 63 49 64 50 66 51 68 52 65 53 49 54 50 55
REMARK SMILES IDX 55 56 51 57 52 58 54 59 56 60 53 61 5 62 6 63 7 64 8 65 9 67
REMARK SMILES IDX 10 68 11 69 15 70 12 71 14 72 13 73 16 74 25 75 23 76 24 78
REMARK SMILES IDX 17 79 18 80 22 81 19 82 21 83 20 84
REMARK H PARENT 3 5 73 23 47 34 7 66 25 77
REMARK Flexibility Score: inf
ROOT
ATOM      1  C   UNL A   1      39.047  19.874  26.082  1.00  0.00     0.118 C 
ENDROOT
BRANCH   1   2
ATOM      2  N   UNL A   1      40.180  18.961  25.984  1.00  0.00    -0.352 N 
ATOM      3  O   UNL A   1      42.325  18.311  25.751  1.00  0.00    -0.269 OA
ATOM      4  C   UNL A   1      41.533  19.207  26.028  1.00  0.00     0.251 C 
ATOM      5  H   UNL A   1      39.938  18.014  25.869  1.00  0.00     0.163 HD
BRANCH   4   6
ATOM      6  C   UNL A   1      42.032  20.551  26.384  1.00  0.00     0.039 A 
ATOM      7  C   UNL A   1      42.270  20.887  27.716  1.00  0.00     0.014 A 
ATOM      8  C   UNL A   1      42.275  21.490  25.376  1.00  0.00     0.014 A 
ATOM      9  C   UNL A   1      42.545  22.202  28.057  1.00  0.00     0.010 A 
ATOM     10  C   UNL A   1      42.686  22.784  25.715  1.00  0.00     0.010 A 
ATOM     11  C   UNL A   1      42.788  23.162  27.061  1.00  0.00    -0.014 A 
BRANCH  11  12
ATOM     12  C   UNL A   1      43.221  24.520  27.479  1.00  0.00     0.031 A 
ATOM     13  C   UNL A   1      44.661  24.946  27.408  1.00  0.00     0.074 A 
ATOM     14  C   UNL A   1      42.273  25.397  27.870  1.00  0.00     0.049 A 
ATOM     15  N   UNL A   1      45.186  26.114  27.689  1.00  0.00    -0.248 NA
ATOM     16  C   UNL A   1      45.641  23.939  26.975  1.00  0.00     0.031 C 
ATOM     17  C   UNL A   1      40.845  25.093  27.993  1.00  0.00     0.029 A 
ATOM     18  N   UNL A   1      42.356  26.723  28.206  1.00  0.00    -0.354 N 
ATOM     19  C   UNL A   1      46.551  25.982  27.470  1.00  0.00     0.074 A 
ATOM     20  C   UNL A   1      46.782  24.609  27.075  1.00  0.00     0.031 C 
ATOM     21  C   UNL A   1      40.180  26.209  28.318  1.00  0.00     0.029 A 
ATOM     22  C   UNL A   1      41.140  27.288  28.506  1.00  0.00     0.049 A 
ATOM     23  H   UNL A   1      43.205  27.222  28.230  1.00  0.00     0.167 HD
ATOM     24  C   UNL A   1      47.519  26.925  27.576  1.00  0.00     0.037 A 
ATOM     25  C   UNL A   1      40.829  28.531  28.914  1.00  0.00     0.037 A 
ATOM     26  C   UNL A   1      47.283  28.290  27.975  1.00  0.00     0.049 A 
ATOM     27  C   UNL A   1      41.930  29.538  29.066  1.00  0.00     0.074 A 
ATOM     28  C   UNL A   1      48.197  29.322  28.111  1.00  0.00     0.029 A 
ATOM     29  N   UNL A   1      46.042  28.815  28.308  1.00  0.00    -0.354 N 
ATOM     30  N   UNL A   1      43.212  29.404  28.830  1.00  0.00    -0.248 NA
ATOM     31  C   UNL A   1      41.542  30.872  29.541  1.00  0.00     0.031 C 
ATOM     32  C   UNL A   1      47.518  30.454  28.570  1.00  0.00     0.029 A 
ATOM     33  C   UNL A   1      46.171  30.149  28.664  1.00  0.00     0.049 A 
ATOM     34  H   UNL A   1      45.195  28.314  28.292  1.00  0.00     0.167 HD
ATOM     35  C   UNL A   1      43.780  30.638  29.108  1.00  0.00     0.074 A 
ATOM     36  C   UNL A   1      42.698  31.517  29.501  1.00  0.00     0.031 C 
ATOM     37  C   UNL A   1      45.083  31.011  29.050  1.00  0.00     0.037 A 
BRANCH  24  38
ATOM     38  C   UNL A   1      48.931  26.515  27.259  1.00  0.00     0.057 A 
ATOM     39  C   UNL A   1      49.786  25.996  28.240  1.00  0.00     0.134 A 
ATOM     40  C   UNL A   1      49.422  26.584  25.948  1.00  0.00     0.134 A 
ATOM     41  F   UNL A   1      49.385  25.911  29.517  1.00  0.00    -0.206 F 
ATOM     42  C   UNL A   1      51.083  25.578  27.933  1.00  0.00     0.040 A 
ATOM     43  C   UNL A   1      50.707  26.144  25.624  1.00  0.00     0.040 A 
ATOM     44  F   UNL A   1      48.654  27.061  24.957  1.00  0.00    -0.206 F 
ATOM     45  C   UNL A   1      51.544  25.644  26.620  1.00  0.00     0.006 A 
ENDBRANCH  24  38
BRANCH  25  46
ATOM     46  C   UNL A   1      39.422  28.878  29.237  1.00  0.00     0.057 A 
ATOM     47  C   UNL A   1      38.893  28.673  30.515  1.00  0.00     0.134 A 
ATOM     48  C   UNL A   1      38.566  29.410  28.263  1.00  0.00     0.134 A 
ATOM     49  F   UNL A   1      39.656  28.153  31.487  1.00  0.00    -0.206 F 
ATOM     50  C   UNL A   1      37.556  28.953  30.805  1.00  0.00     0.040 A 
ATOM     51  C   UNL A   1      37.239  29.730  28.549  1.00  0.00     0.040 A 
ATOM     52  F   UNL A   1      39.015  29.645  27.020  1.00  0.00    -0.206 F 
ATOM     53  C   UNL A   1      36.728  29.488  29.822  1.00  0.00     0.006 A 
ENDBRANCH  25  46
BRANCH  37  54
ATOM     54  C   UNL A   1      45.393  32.442  29.385  1.00  0.00     0.057 A 
ATOM     55  C   UNL A   1      45.730  32.845  30.685  1.00  0.00     0.134 A 
ATOM     56  C   UNL A   1      45.358  33.428  28.391  1.00  0.00     0.134 A 
ATOM     57  F   UNL A   1      45.765  31.952  31.686  1.00  0.00    -0.206 F 
ATOM     58  C   UNL A   1      45.984  34.182  30.990  1.00  0.00     0.040 A 
ATOM     59  C   UNL A   1      45.642  34.764  28.679  1.00  0.00     0.040 A 
ATOM     60  F   UNL A   1      45.051  33.110  27.125  1.00  0.00    -0.206 F 
ATOM     61  C   UNL A   1      45.946  35.146  29.984  1.00  0.00     0.006 A 
ENDBRANCH  37  54
ENDBRANCH  11  12
ENDBRANCH   4   6
ENDBRANCH   1   2
BRANCH   1  62
ATOM     62  C   UNL A   1      38.044  19.695  24.955  1.00  0.00     0.042 C 
BRANCH  62  63
ATOM     63  C   UNL A   1      37.273  20.961  24.626  1.00  0.00     0.118 C 
BRANCH  63  64
ATOM     64  N   UNL A   1      37.922  22.154  25.152  1.00  0.00    -0.352 N 
ATOM     65  C   UNL A   1      37.371  23.266  25.738  1.00  0.00     0.251 C 
ATOM     66  H   UNL A   1      38.904  22.165  25.074  1.00  0.00     0.163 HD
ATOM     67  O   UNL A   1      38.051  24.270  25.924  1.00  0.00    -0.269 OA
BRANCH  65  68
ATOM     68  C   UNL A   1      35.946  23.261  26.123  1.00  0.00     0.040 A 
ATOM     69  C   UNL A   1      35.404  22.165  26.830  1.00  0.00     0.016 A 
ATOM     70  C   UNL A   1      35.152  24.362  25.770  1.00  0.00     0.020 A 
ATOM     71  C   UNL A   1      34.039  22.101  27.099  1.00  0.00     0.027 A 
ATOM     72  C   UNL A   1      33.801  24.294  26.057  1.00  0.00    -0.011 A 
ATOM     73  C   UNL A   1      33.271  23.169  26.693  1.00  0.00     0.045 A 
ATOM     74  C   UNL A   1      32.689  25.280  25.776  1.00  0.00     0.114 C 
ATOM     75  N   UNL A   1      31.903  23.307  26.835  1.00  0.00    -0.325 N 
ATOM     76  C   UNL A   1      31.458  24.519  26.332  1.00  0.00     0.232 C 
ATOM     77  H   UNL A   1      31.318  22.629  27.243  1.00  0.00     0.169 HD
ATOM     78  O   UNL A   1      30.298  24.900  26.364  1.00  0.00    -0.274 OA
BRANCH  74  79
ATOM     79  C   UNL A   1      32.580  25.707  24.298  1.00  0.00     0.010 C 
ATOM     80  C   UNL A   1      32.731  24.515  23.338  1.00  0.00     0.033 C 
ATOM     81  C   UNL A   1      33.560  26.824  23.896  1.00  0.00     0.033 C 
ATOM     82  C   UNL A   1      32.675  24.964  21.883  1.00  0.00     0.160 C 
ATOM     83  C   UNL A   1      33.439  27.140  22.409  1.00  0.00     0.160 C 
ATOM     84  O   UNL A   1      33.653  25.970  21.626  1.00  0.00    -0.381 OA
ENDBRANCH  74  79
ENDBRANCH  65  68
ENDBRANCH  63  64
ENDBRANCH  62  63
ENDBRANCH   1  62
TORSDOF 11
ENDMDL
MODEL 3
REMARK VINA RESULT:     -12.3      4.186      9.229
REMARK SMILES O=C(NCCCNC(=O)c1ccc2c(c1)[C@@H](C1CCOCC1)C(=O)N2)c1ccc(-c2c3nc(c(-c4c(F)cccc4F)c4ccc([nH]4)c(-c4c(F)cccc4F)c4nc(c(-c5c(F)cccc5F)c5ccc2[nH]5)C=C4)C=C3)cc1
REMARK SMILES IDX 4 1 3 2 1 3 2 4 26 6 27 7 79 8 28 9 78 10 29 11 30 12 31 13
REMARK SMILES IDX 72 14 32 15 77 16 71 17 73 18 33 19 76 20 70 21 69 22 34 24
REMARK SMILES IDX 60 25 43 26 59 27 44 28 47 29 58 30 74 31 45 32 46 33 57 35
REMARK SMILES IDX 75 36 48 37 35 38 36 39 41 40 37 41 38 42 40 43 42 44 39 45
REMARK SMILES IDX 61 46 62 47 67 48 63 49 64 50 66 51 68 52 65 53 49 54 50 55
REMARK SMILES IDX 55 56 51 57 52 58 54 59 56 60 53 61 5 62 6 63 7 64 8 65 9 67
REMARK SMILES IDX 10 68 11 69 15 70 12 71 14 72 13 73 16 74 25 75 23 76 24 78
REMARK SMILES IDX 17 79 18 80 22 81 19 82 21 83 20 84
REMARK H PARENT 3 5 73 23 47 34 7 66 25 77
REMARK Flexibility Score: inf
ROOT
ATOM      1  C   UNL A   1      38.978  20.165  25.901  1.00  0.00     0.118 C 
ENDROOT
BRANCH   1   2
ATOM      2  N   UNL A   1      40.154  19.305  25.828  1.00  0.00    -0.352 N 
ATOM      3  O   UNL A   1      42.337  18.754  25.758  1.00  0.00    -0.269 OA
ATOM      4  C   UNL A   1      41.483  19.587  26.043  1.00  0.00     0.251 C 
ATOM      5  H   UNL A   1      39.966  18.370  25.586  1.00  0.00     0.163 HD
BRANCH   4   6
ATOM      6  C   UNL A   1      41.884  20.899  26.593  1.00  0.00     0.039 A 
ATOM      7  C   UNL A   1      41.901  21.112  27.971  1.00  0.00     0.014 A 
ATOM      8  C   UNL A   1      42.258  21.930  25.725  1.00  0.00     0.014 A 
ATOM      9  C   UNL A   1      42.084  22.392  28.468  1.00  0.00     0.010 A 
ATOM     10  C   UNL A   1      42.576  23.191  26.240  1.00  0.00     0.010 A 
ATOM     11  C   UNL A   1      42.455  23.444  27.614  1.00  0.00    -0.014 A 
BRANCH  11  12
ATOM     12  C   UNL A   1      42.781  24.762  28.216  1.00  0.00     0.031 A 
ATOM     13  C   UNL A   1      44.191  25.140  28.571  1.00  0.00     0.074 A 
ATOM     14  C   UNL A   1      41.779  25.650  28.381  1.00  0.00     0.049 A 
ATOM     15  N   UNL A   1      44.640  26.273  29.056  1.00  0.00    -0.248 NA
ATOM     16  C   UNL A   1      45.234  24.124  28.367  1.00  0.00     0.031 C 
ATOM     17  C   UNL A   1      40.367  25.390  28.085  1.00  0.00     0.029 A 
ATOM     18  N   UNL A   1      41.791  26.953  28.805  1.00  0.00    -0.354 N 
ATOM     19  C   UNL A   1      46.010  26.105  29.216  1.00  0.00     0.074 A 
ATOM     20  C   UNL A   1      46.314  24.746  28.818  1.00  0.00     0.031 C 
ATOM     21  C   UNL A   1      39.660  26.510  28.280  1.00  0.00     0.029 A 
ATOM     22  C   UNL A   1      40.550  27.544  28.791  1.00  0.00     0.049 A 
ATOM     23  H   UNL A   1      42.608  27.420  29.093  1.00  0.00     0.167 HD
ATOM     24  C   UNL A   1      46.928  27.006  29.641  1.00  0.00     0.037 A 
ATOM     25  C   UNL A   1      40.162  28.774  29.171  1.00  0.00     0.037 A 
ATOM     26  C   UNL A   1      46.616  28.356  30.041  1.00  0.00     0.049 A 
ATOM     27  C   UNL A   1      41.196  29.732  29.682  1.00  0.00     0.074 A 
ATOM     28  C   UNL A   1      47.476  29.346  30.486  1.00  0.00     0.029 A 
ATOM     29  N   UNL A   1      45.342  28.906  30.048  1.00  0.00    -0.354 N 
ATOM     30  N   UNL A   1      42.491  29.566  29.802  1.00  0.00    -0.248 NA
ATOM     31  C   UNL A   1      40.716  31.053  30.110  1.00  0.00     0.031 C 
ATOM     32  C   UNL A   1      46.718  30.477  30.806  1.00  0.00     0.029 A 
ATOM     33  C   UNL A   1      45.392  30.214  30.506  1.00  0.00     0.049 A 
ATOM     34  H   UNL A   1      44.523  28.437  29.769  1.00  0.00     0.167 HD
ATOM     35  C   UNL A   1      42.983  30.763  30.299  1.00  0.00     0.074 A 
ATOM     36  C   UNL A   1      41.851  31.658  30.430  1.00  0.00     0.031 C 
ATOM     37  C   UNL A   1      44.257  31.093  30.627  1.00  0.00     0.037 A 
BRANCH  24  38
ATOM     38  C   UNL A   1      48.364  26.564  29.704  1.00  0.00     0.057 A 
ATOM     39  C   UNL A   1      49.263  26.826  28.662  1.00  0.00     0.134 A 
ATOM     40  C   UNL A   1      48.868  25.921  30.842  1.00  0.00     0.134 A 
ATOM     41  F   UNL A   1      48.845  27.428  27.538  1.00  0.00    -0.206 F 
ATOM     42  C   UNL A   1      50.605  26.449  28.741  1.00  0.00     0.040 A 
ATOM     43  C   UNL A   1      50.214  25.563  30.945  1.00  0.00     0.040 A 
ATOM     44  F   UNL A   1      48.066  25.647  31.882  1.00  0.00    -0.206 F 
ATOM     45  C   UNL A   1      51.086  25.823  29.889  1.00  0.00     0.006 A 
ENDBRANCH  24  38
BRANCH  25  46
ATOM     46  C   UNL A   1      38.727  29.153  29.112  1.00  0.00     0.057 A 
ATOM     47  C   UNL A   1      38.131  29.576  27.919  1.00  0.00     0.134 A 
ATOM     48  C   UNL A   1      37.921  29.117  30.257  1.00  0.00     0.134 A 
ATOM     49  F   UNL A   1      38.853  29.647  26.791  1.00  0.00    -0.206 F 
ATOM     50  C   UNL A   1      36.796  29.980  27.874  1.00  0.00     0.040 A 
ATOM     51  C   UNL A   1      36.576  29.482  30.218  1.00  0.00     0.040 A 
ATOM     52  F   UNL A   1      38.428  28.707  31.431  1.00  0.00    -0.206 F 
ATOM     53  C   UNL A   1      36.013  29.928  29.025  1.00  0.00     0.006 A 
ENDBRANCH  25  46
BRANCH  37  54
ATOM     54  C   UNL A   1      44.489  32.492  31.119  1.00  0.00     0.057 A 
ATOM     55  C   UNL A   1      44.768  33.551  30.244  1.00  0.00     0.134 A 
ATOM     56  C   UNL A   1      44.429  32.783  32.488  1.00  0.00     0.134 A 
ATOM     57  F   UNL A   1      44.857  33.337  28.923  1.00  0.00    -0.206 F 
ATOM     58  C   UNL A   1      45.015  34.841  30.717  1.00  0.00     0.040 A 
ATOM     59  C   UNL A   1      44.642  34.076  32.969  1.00  0.00     0.040 A 
ATOM     60  F   UNL A   1      44.159  31.818  33.380  1.00  0.00    -0.206 F 
ATOM     61  C   UNL A   1      44.946  35.107  32.083  1.00  0.00     0.006 A 
ENDBRANCH  37  54
ENDBRANCH  11  12
ENDBRANCH   4   6
ENDBRANCH   1   2
BRANCH   1  62
ATOM     62  C   UNL A   1      37.801  19.627  25.106  1.00  0.00     0.042 C 
BRANCH  62  63
ATOM     63  C   UNL A   1      36.697  20.649  24.895  1.00  0.00     0.118 C 
BRANCH  63  64
ATOM     64  N   UNL A   1      37.087  21.695  23.959  1.00  0.00    -0.352 N 
ATOM     65  C   UNL A   1      36.343  22.719  23.429  1.00  0.00     0.251 C 
ATOM     66  H   UNL A   1      38.025  21.662  23.662  1.00  0.00     0.163 HD
ATOM     67  O   UNL A   1      36.776  23.376  22.488  1.00  0.00    -0.269 OA
BRANCH  65  68
ATOM     68  C   UNL A   1      35.004  23.011  23.977  1.00  0.00     0.040 A 
ATOM     69  C   UNL A   1      33.906  22.185  23.651  1.00  0.00     0.016 A 
ATOM     70  C   UNL A   1      34.852  24.121  24.819  1.00  0.00     0.020 A 
ATOM     71  C   UNL A   1      32.620  22.516  24.072  1.00  0.00     0.027 A 
ATOM     72  C   UNL A   1      33.573  24.431  25.245  1.00  0.00    -0.011 A 
ATOM     73  C   UNL A   1      32.489  23.642  24.853  1.00  0.00     0.045 A 
ATOM     74  C   UNL A   1      33.077  25.566  26.113  1.00  0.00     0.114 C 
ATOM     75  N   UNL A   1      31.315  24.166  25.360  1.00  0.00    -0.325 N 
ATOM     76  C   UNL A   1      31.550  25.299  26.122  1.00  0.00     0.232 C 
ATOM     77  H   UNL A   1      30.423  23.782  25.199  1.00  0.00     0.169 HD
ATOM     78  O   UNL A   1      30.686  25.933  26.708  1.00  0.00    -0.274 OA
BRANCH  74  79
ATOM     79  C   UNL A   1      33.491  26.967  25.621  1.00  0.00     0.010 C 
ATOM     80  C   UNL A   1      33.266  28.048  26.692  1.00  0.00     0.033 C 
ATOM     81  C   UNL A   1      32.816  27.393  24.305  1.00  0.00     0.033 C 
ATOM     82  C   UNL A   1      33.629  29.432  26.169  1.00  0.00     0.160 C 
ATOM     83  C   UNL A   1      33.222  28.813  23.923  1.00  0.00     0.160 C 
ATOM     84  O   UNL A   1      32.912  29.725  24.971  1.00  0.00    -0.381 OA
ENDBRANCH  74  79
ENDBRANCH  65  68
ENDBRANCH  63  64
ENDBRANCH  62  63
ENDBRANCH   1  62
TORSDOF 11
ENDMDL
