MODEL 1
REMARK VINA RESULT:     -10.8      0.000      0.000
REMARK SMILES CC(C)C[C@@H](CNC(=O)[C@@H]1CCOC1)C(=O)NCCCNC(=O)c1ccc(-c2c3nc(c(-c4c(F)cccc4F)c4ccc([nH]4)c(-c4c(F)cccc4F)c4nc(c(-c5c(F)cccc5F)c5ccc2[nH]5)C=C4)C=C3)cc1
REMARK SMILES IDX 18 1 17 2 15 3 16 4 5 6 4 7 2 8 1 9 3 10 6 11 7 12 8 13 9 15
REMARK SMILES IDX 10 16 11 17 14 18 12 19 13 20 19 21 20 22 21 23 22 24 23 26
REMARK SMILES IDX 24 27 25 28 77 29 26 30 76 31 27 32 28 33 29 34 70 35 30 36
REMARK SMILES IDX 75 37 69 38 71 39 31 40 74 41 68 42 67 43 32 45 58 46 41 47
REMARK SMILES IDX 57 48 42 49 45 50 56 51 72 52 43 53 44 54 55 56 73 57 46 58
REMARK SMILES IDX 33 59 34 60 39 61 35 62 36 63 38 64 40 65 37 66 59 67 60 68
REMARK SMILES IDX 65 69 61 70 62 71 64 72 66 73 63 74 47 75 48 76 53 77 49 78
REMARK SMILES IDX 50 79 52 80 54 81 51 82
REMARK H PARENT 17 5 7 14 21 25 71 44 45 55
REMARK Flexibility Score: inf
ROOT
ATOM      1  C   UNL A   1      32.169  29.341  25.977  1.00  0.00     0.117 C 
ENDROOT
BRANCH   1   2
ATOM      2  N   UNL A   1      32.762  29.222  24.656  1.00  0.00    -0.356 N 
ATOM      3  C   UNL A   1      32.218  28.959  23.440  1.00  0.00     0.224 C 
ATOM      4  O   UNL A   1      32.967  29.061  22.463  1.00  0.00    -0.275 OA
ATOM      5  H   UNL A   1      33.737  29.358  24.639  1.00  0.00     0.163 HD
BRANCH   3   6
ATOM      6  C   UNL A   1      30.753  28.583  23.233  1.00  0.00     0.098 C 
BRANCH   6   7
ATOM      7  C   UNL A   1      29.920  29.728  22.626  1.00  0.00     0.018 C 
BRANCH   7   8
ATOM      8  C   UNL A   1      28.651  30.134  23.398  1.00  0.00    -0.017 C 
ATOM      9  C   UNL A   1      28.384  31.637  23.345  1.00  0.00     0.007 C 
ATOM     10  C   UNL A   1      27.445  29.378  22.828  1.00  0.00     0.007 C 
ENDBRANCH   7   8
ENDBRANCH   6   7
BRANCH   6  11
ATOM     11  C   UNL A   1      30.594  27.167  22.650  1.00  0.00     0.129 C 
BRANCH  11  12
ATOM     12  N   UNL A   1      31.530  26.808  21.601  1.00  0.00    -0.355 N 
ATOM     13  C   UNL A   1      32.408  25.760  21.541  1.00  0.00     0.225 C 
ATOM     14  H   UNL A   1      31.534  27.405  20.818  1.00  0.00     0.163 HD
ATOM     15  O   UNL A   1      33.239  25.762  20.633  1.00  0.00    -0.275 OA
BRANCH  13  16
ATOM     16  C   UNL A   1      32.342  24.668  22.596  1.00  0.00     0.106 C 
ATOM     17  C   UNL A   1      33.156  24.983  23.835  1.00  0.00     0.044 C 
ATOM     18  C   UNL A   1      33.021  23.418  22.069  1.00  0.00     0.173 C 
ATOM     19  C   UNL A   1      34.542  24.515  23.454  1.00  0.00     0.161 C 
ATOM     20  O   UNL A   1      34.359  23.385  22.592  1.00  0.00    -0.381 OA
ENDBRANCH  13  16
ENDBRANCH  11  12
ENDBRANCH   6  11
ENDBRANCH   3   6
ENDBRANCH   1   2
BRANCH   1  21
ATOM     21  C   UNL A   1      31.773  30.763  26.324  1.00  0.00     0.042 C 
BRANCH  21  22
ATOM     22  C   UNL A   1      32.822  31.485  27.154  1.00  0.00     0.118 C 
BRANCH  22  23
ATOM     23  N   UNL A   1      32.465  32.873  27.439  1.00  0.00    -0.352 N 
ATOM     24  C   UNL A   1      33.093  33.807  28.226  1.00  0.00     0.251 C 
ATOM     25  H   UNL A   1      31.643  33.187  26.997  1.00  0.00     0.163 HD
ATOM     26  O   UNL A   1      32.546  34.878  28.473  1.00  0.00    -0.269 OA
BRANCH  24  27
ATOM     27  C   UNL A   1      34.421  33.511  28.795  1.00  0.00     0.039 A 
ATOM     28  C   UNL A   1      34.516  32.722  29.944  1.00  0.00     0.014 A 
ATOM     29  C   UNL A   1      35.572  33.989  28.171  1.00  0.00     0.014 A 
ATOM     30  C   UNL A   1      35.774  32.334  30.410  1.00  0.00     0.010 A 
ATOM     31  C   UNL A   1      36.813  33.519  28.571  1.00  0.00     0.010 A 
ATOM     32  C   UNL A   1      36.929  32.686  29.695  1.00  0.00    -0.014 A 
BRANCH  32  33
ATOM     33  C   UNL A   1      38.282  32.223  30.088  1.00  0.00     0.031 A 
ATOM     34  C   UNL A   1      38.802  30.924  29.538  1.00  0.00     0.074 A 
ATOM     35  C   UNL A   1      38.981  32.891  31.026  1.00  0.00     0.049 A 
ATOM     36  N   UNL A   1      39.838  30.220  29.912  1.00  0.00    -0.248 NA
ATOM     37  C   UNL A   1      38.016  30.310  28.453  1.00  0.00     0.031 C 
ATOM     38  C   UNL A   1      38.566  34.141  31.669  1.00  0.00     0.029 A 
ATOM     39  N   UNL A   1      40.179  32.595  31.623  1.00  0.00    -0.354 N 
ATOM     40  C   UNL A   1      39.800  29.063  29.144  1.00  0.00     0.074 A 
ATOM     41  C   UNL A   1      38.619  29.139  28.315  1.00  0.00     0.031 C 
ATOM     42  C   UNL A   1      39.502  34.509  32.558  1.00  0.00     0.029 A 
ATOM     43  C   UNL A   1      40.556  33.501  32.585  1.00  0.00     0.049 A 
ATOM     44  H   UNL A   1      40.720  31.807  31.385  1.00  0.00     0.167 HD
ATOM     45  C   UNL A   1      40.684  28.037  29.120  1.00  0.00     0.037 A 
ATOM     46  C   UNL A   1      41.622  33.507  33.406  1.00  0.00     0.037 A 
ATOM     47  C   UNL A   1      41.889  27.996  29.902  1.00  0.00     0.049 A 
ATOM     48  C   UNL A   1      42.610  32.377  33.333  1.00  0.00     0.074 A 
ATOM     49  C   UNL A   1      42.886  27.037  29.903  1.00  0.00     0.029 A 
ATOM     50  N   UNL A   1      42.267  28.970  30.814  1.00  0.00    -0.354 N 
ATOM     51  N   UNL A   1      42.584  31.305  32.578  1.00  0.00    -0.248 NA
ATOM     52  C   UNL A   1      43.777  32.456  34.223  1.00  0.00     0.031 C 
ATOM     53  C   UNL A   1      43.857  27.419  30.834  1.00  0.00     0.029 A 
ATOM     54  C   UNL A   1      43.482  28.634  31.385  1.00  0.00     0.049 A 
ATOM     55  H   UNL A   1      41.748  29.781  31.024  1.00  0.00     0.167 HD
ATOM     56  C   UNL A   1      43.742  30.602  32.876  1.00  0.00     0.074 A 
ATOM     57  C   UNL A   1      44.452  31.368  33.880  1.00  0.00     0.031 C 
ATOM     58  C   UNL A   1      44.181  29.427  32.361  1.00  0.00     0.037 A 
BRANCH  45  59
ATOM     59  C   UNL A   1      40.379  26.884  28.210  1.00  0.00     0.057 A 
ATOM     60  C   UNL A   1      39.513  25.851  28.591  1.00  0.00     0.134 A 
ATOM     61  C   UNL A   1      40.944  26.815  26.930  1.00  0.00     0.134 A 
ATOM     62  F   UNL A   1      38.950  25.849  29.809  1.00  0.00    -0.206 F 
ATOM     63  C   UNL A   1      39.244  24.775  27.744  1.00  0.00     0.040 A 
ATOM     64  C   UNL A   1      40.661  25.758  26.065  1.00  0.00     0.040 A 
ATOM     65  F   UNL A   1      41.779  27.773  26.501  1.00  0.00    -0.206 F 
ATOM     66  C   UNL A   1      39.815  24.730  26.473  1.00  0.00     0.006 A 
ENDBRANCH  45  59
BRANCH  46  67
ATOM     67  C   UNL A   1      41.825  34.633  34.351  1.00  0.00     0.057 A 
ATOM     68  C   UNL A   1      41.355  34.559  35.667  1.00  0.00     0.134 A 
ATOM     69  C   UNL A   1      42.491  35.804  33.969  1.00  0.00     0.134 A 
ATOM     70  F   UNL A   1      40.694  33.469  36.086  1.00  0.00    -0.206 F 
ATOM     71  C   UNL A   1      41.522  35.613  36.565  1.00  0.00     0.040 A 
ATOM     72  C   UNL A   1      42.684  36.859  34.863  1.00  0.00     0.040 A 
ATOM     73  F   UNL A   1      42.974  35.934  32.724  1.00  0.00    -0.206 F 
ATOM     74  C   UNL A   1      42.193  36.767  36.164  1.00  0.00     0.006 A 
ENDBRANCH  46  67
BRANCH  58  75
ATOM     75  C   UNL A   1      45.514  28.927  32.829  1.00  0.00     0.057 A 
ATOM     76  C   UNL A   1      45.636  28.055  33.916  1.00  0.00     0.134 A 
ATOM     77  C   UNL A   1      46.681  29.273  32.136  1.00  0.00     0.134 A 
ATOM     78  F   UNL A   1      44.555  27.697  34.626  1.00  0.00    -0.206 F 
ATOM     79  C   UNL A   1      46.878  27.551  34.306  1.00  0.00     0.040 A 
ATOM     80  C   UNL A   1      47.924  28.760  32.504  1.00  0.00     0.040 A 
ATOM     81  F   UNL A   1      46.628  30.099  31.080  1.00  0.00    -0.206 F 
ATOM     82  C   UNL A   1      48.025  27.897  33.593  1.00  0.00     0.006 A 
ENDBRANCH  58  75
ENDBRANCH  32  33
ENDBRANCH  24  27
ENDBRANCH  22  23
ENDBRANCH  21  22
ENDBRANCH   1  21
TORSDOF 15
ENDMDL
MODEL 2
REMARK VINA RESULT:     -10.8      4.825      9.280
REMARK SMILES CC(C)C[C@@H](CNC(=O)[C@@H]1CCOC1)C(=O)NCCCNC(=O)c1ccc(-c2c3nc(c(-c4c(F)cccc4F)c4ccc([nH]4)c(-c4c(F)cccc4F)c4nc(c(-c5c(F)cccc5F)c5ccc2[nH]5)C=C4)C=C3)cc1
REMARK SMILES IDX 18 1 17 2 15 3 16 4 5 6 4 7 2 8 1 9 3 10 6 11 7 12 8 13 9 15
REMARK SMILES IDX 10 16 11 17 14 18 12 19 13 20 19 21 20 22 21 23 22 24 23 26
REMARK SMILES IDX 24 27 25 28 77 29 26 30 76 31 27 32 28 33 29 34 70 35 30 36
REMARK SMILES IDX 75 37 69 38 71 39 31 40 74 41 68 42 67 43 32 45 58 46 41 47
REMARK SMILES IDX 57 48 42 49 45 50 56 51 72 52 43 53 44 54 55 56 73 57 46 58
REMARK SMILES IDX 33 59 34 60 39 61 35 62 36 63 38 64 40 65 37 66 59 67 60 68
REMARK SMILES IDX 65 69 61 70 62 71 64 72 66 73 63 74 47 75 48 76 53 77 49 78
REMARK SMILES IDX 50 79 52 80 54 81 51 82
REMARK H PARENT 17 5 7 14 21 25 71 44 45 55
REMARK Flexibility Score: inf
ROOT
ATOM      1  C   UNL A   1      36.665  21.461  25.049  1.00  0.00     0.117 C 
ENDROOT
BRANCH   1   2
ATOM      2  N   UNL A   1      35.933  21.422  26.304  1.00  0.00    -0.356 N 
ATOM      3  C   UNL A   1      34.662  21.776  26.622  1.00  0.00     0.224 C 
ATOM      4  O   UNL A   1      34.275  21.494  27.761  1.00  0.00    -0.275 OA
ATOM      5  H   UNL A   1      36.455  21.075  27.063  1.00  0.00     0.163 HD
BRANCH   3   6
ATOM      6  C   UNL A   1      33.707  22.462  25.647  1.00  0.00     0.098 C 
BRANCH   6   7
ATOM      7  C   UNL A   1      34.334  23.691  24.961  1.00  0.00     0.018 C 
BRANCH   7   8
ATOM      8  C   UNL A   1      33.841  25.068  25.442  1.00  0.00    -0.017 C 
ATOM      9  C   UNL A   1      33.772  26.097  24.316  1.00  0.00     0.007 C 
ATOM     10  C   UNL A   1      32.457  24.917  26.084  1.00  0.00     0.007 C 
ENDBRANCH   7   8
ENDBRANCH   6   7
BRANCH   6  11
ATOM     11  C   UNL A   1      32.934  21.450  24.782  1.00  0.00     0.129 C 
BRANCH  11  12
ATOM     12  N   UNL A   1      32.508  20.238  25.458  1.00  0.00    -0.355 N 
ATOM     13  C   UNL A   1      32.720  18.931  25.116  1.00  0.00     0.225 C 
ATOM     14  H   UNL A   1      31.991  20.377  26.285  1.00  0.00     0.163 HD
ATOM     15  O   UNL A   1      32.103  18.068  25.740  1.00  0.00    -0.275 OA
BRANCH  13  16
ATOM     16  C   UNL A   1      33.674  18.602  23.978  1.00  0.00     0.106 C 
ATOM     17  C   UNL A   1      33.154  17.516  23.058  1.00  0.00     0.044 C 
ATOM     18  C   UNL A   1      34.934  17.976  24.544  1.00  0.00     0.173 C 
ATOM     19  C   UNL A   1      33.577  16.248  23.763  1.00  0.00     0.161 C 
ATOM     20  O   UNL A   1      34.816  16.549  24.417  1.00  0.00    -0.381 OA
ENDBRANCH  13  16
ENDBRANCH  11  12
ENDBRANCH   6  11
ENDBRANCH   3   6
ENDBRANCH   1   2
BRANCH   1  21
ATOM     21  C   UNL A   1      37.729  20.384  24.950  1.00  0.00     0.042 C 
BRANCH  21  22
ATOM     22  C   UNL A   1      38.964  20.692  25.781  1.00  0.00     0.118 C 
BRANCH  22  23
ATOM     23  N   UNL A   1      39.911  19.580  25.823  1.00  0.00    -0.352 N 
ATOM     24  C   UNL A   1      41.260  19.573  26.081  1.00  0.00     0.251 C 
ATOM     25  H   UNL A   1      39.520  18.696  25.636  1.00  0.00     0.163 HD
ATOM     26  O   UNL A   1      41.920  18.552  25.907  1.00  0.00    -0.269 OA
BRANCH  24  27
ATOM     27  C   UNL A   1      41.922  20.806  26.547  1.00  0.00     0.039 A 
ATOM     28  C   UNL A   1      42.372  21.740  25.610  1.00  0.00     0.014 A 
ATOM     29  C   UNL A   1      42.069  21.049  27.912  1.00  0.00     0.014 A 
ATOM     30  C   UNL A   1      42.881  22.964  26.049  1.00  0.00     0.010 A 
ATOM     31  C   UNL A   1      42.476  22.302  28.344  1.00  0.00     0.010 A 
ATOM     32  C   UNL A   1      42.888  23.274  27.418  1.00  0.00    -0.014 A 
BRANCH  32  33
ATOM     33  C   UNL A   1      43.327  24.592  27.936  1.00  0.00     0.031 A 
ATOM     34  C   UNL A   1      42.293  25.627  28.281  1.00  0.00     0.074 A 
ATOM     35  C   UNL A   1      44.637  24.903  27.971  1.00  0.00     0.049 A 
ATOM     36  N   UNL A   1      42.444  26.902  28.526  1.00  0.00    -0.248 NA
ATOM     37  C   UNL A   1      40.892  25.172  28.302  1.00  0.00     0.031 C 
ATOM     38  C   UNL A   1      45.737  24.001  27.620  1.00  0.00     0.029 A 
ATOM     39  N   UNL A   1      45.265  26.079  28.295  1.00  0.00    -0.354 N 
ATOM     40  C   UNL A   1      41.160  27.408  28.682  1.00  0.00     0.074 A 
ATOM     41  C   UNL A   1      40.241  26.315  28.463  1.00  0.00     0.031 C 
ATOM     42  C   UNL A   1      46.902  24.653  27.762  1.00  0.00     0.029 A 
ATOM     43  C   UNL A   1      46.632  26.028  28.165  1.00  0.00     0.049 A 
ATOM     44  H   UNL A   1      44.782  26.883  28.593  1.00  0.00     0.167 HD
ATOM     45  C   UNL A   1      40.783  28.669  28.999  1.00  0.00     0.037 A 
ATOM     46  C   UNL A   1      47.559  26.989  28.335  1.00  0.00     0.037 A 
ATOM     47  C   UNL A   1      41.704  29.738  29.276  1.00  0.00     0.049 A 
ATOM     48  C   UNL A   1      47.118  28.372  28.726  1.00  0.00     0.074 A 
ATOM     49  C   UNL A   1      41.428  31.034  29.672  1.00  0.00     0.029 A 
ATOM     50  N   UNL A   1      43.084  29.625  29.200  1.00  0.00    -0.354 N 
ATOM     51  N   UNL A   1      45.903  28.831  28.906  1.00  0.00    -0.248 NA
ATOM     52  C   UNL A   1      48.175  29.371  28.939  1.00  0.00     0.031 C 
ATOM     53  C   UNL A   1      42.642  31.714  29.814  1.00  0.00     0.029 A 
ATOM     54  C   UNL A   1      43.674  30.829  29.541  1.00  0.00     0.049 A 
ATOM     55  H   UNL A   1      43.572  28.809  28.943  1.00  0.00     0.167 HD
ATOM     56  C   UNL A   1      46.050  30.158  29.285  1.00  0.00     0.074 A 
ATOM     57  C   UNL A   1      47.473  30.432  29.312  1.00  0.00     0.031 C 
ATOM     58  C   UNL A   1      45.093  31.068  29.588  1.00  0.00     0.037 A 
BRANCH  45  59
ATOM     59  C   UNL A   1      39.312  28.953  29.071  1.00  0.00     0.057 A 
ATOM     60  C   UNL A   1      38.589  28.808  30.262  1.00  0.00     0.134 A 
ATOM     61  C   UNL A   1      38.613  29.393  27.940  1.00  0.00     0.134 A 
ATOM     62  F   UNL A   1      39.196  28.375  31.378  1.00  0.00    -0.206 F 
ATOM     63  C   UNL A   1      37.217  29.061  30.318  1.00  0.00     0.040 A 
ATOM     64  C   UNL A   1      37.247  29.675  27.991  1.00  0.00     0.040 A 
ATOM     65  F   UNL A   1      39.245  29.556  26.768  1.00  0.00    -0.206 F 
ATOM     66  C   UNL A   1      36.544  29.503  29.181  1.00  0.00     0.006 A 
ENDBRANCH  45  59
BRANCH  46  67
ATOM     67  C   UNL A   1      48.998  26.671  28.164  1.00  0.00     0.057 A 
ATOM     68  C   UNL A   1      49.618  26.806  26.916  1.00  0.00     0.134 A 
ATOM     69  C   UNL A   1      49.788  26.229  29.233  1.00  0.00     0.134 A 
ATOM     70  F   UNL A   1      48.909  27.210  25.852  1.00  0.00    -0.206 F 
ATOM     71  C   UNL A   1      50.966  26.497  26.731  1.00  0.00     0.040 A 
ATOM     72  C   UNL A   1      51.143  25.936  29.067  1.00  0.00     0.040 A 
ATOM     73  F   UNL A   1      49.255  26.088  30.456  1.00  0.00    -0.206 F 
ATOM     74  C   UNL A   1      51.733  26.064  27.811  1.00  0.00     0.006 A 
ENDBRANCH  46  67
BRANCH  58  75
ATOM     75  C   UNL A   1      45.549  32.425  30.030  1.00  0.00     0.057 A 
ATOM     76  C   UNL A   1      45.854  32.705  31.365  1.00  0.00     0.134 A 
ATOM     77  C   UNL A   1      45.747  33.443  29.088  1.00  0.00     0.134 A 
ATOM     78  F   UNL A   1      45.672  31.774  32.314  1.00  0.00    -0.206 F 
ATOM     79  C   UNL A   1      46.332  33.958  31.754  1.00  0.00     0.040 A 
ATOM     80  C   UNL A   1      46.244  34.692  29.461  1.00  0.00     0.040 A 
ATOM     81  F   UNL A   1      45.480  33.234  27.790  1.00  0.00    -0.206 F 
ATOM     82  C   UNL A   1      46.536  34.952  30.798  1.00  0.00     0.006 A 
ENDBRANCH  58  75
ENDBRANCH  32  33
ENDBRANCH  24  27
ENDBRANCH  22  23
ENDBRANCH  21  22
ENDBRANCH   1  21
TORSDOF 15
ENDMDL
MODEL 3
REMARK VINA RESULT:     -10.8      4.043      9.172
REMARK SMILES CC(C)C[C@@H](CNC(=O)[C@@H]1CCOC1)C(=O)NCCCNC(=O)c1ccc(-c2c3nc(c(-c4c(F)cccc4F)c4ccc([nH]4)c(-c4c(F)cccc4F)c4nc(c(-c5c(F)cccc5F)c5ccc2[nH]5)C=C4)C=C3)cc1
REMARK SMILES IDX 18 1 17 2 15 3 16 4 5 6 4 7 2 8 1 9 3 10 6 11 7 12 8 13 9 15
REMARK SMILES IDX 10 16 11 17 14 18 12 19 13 20 19 21 20 22 21 23 22 24 23 26
REMARK SMILES IDX 24 27 25 28 77 29 26 30 76 31 27 32 28 33 29 34 70 35 30 36
REMARK SMILES IDX 75 37 69 38 71 39 31 40 74 41 68 42 67 43 32 45 58 46 41 47
REMARK SMILES IDX 57 48 42 49 45 50 56 51 72 52 43 53 44 54 55 56 73 57 46 58
REMARK SMILES IDX 33 59 34 60 39 61 35 62 36 63 38 64 40 65 37 66 59 67 60 68
REMARK SMILES IDX 65 69 61 70 62 71 64 72 66 73 63 74 47 75 48 76 53 77 49 78
REMARK SMILES IDX 50 79 52 80 54 81 51 82
REMARK H PARENT 17 5 7 14 21 25 71 44 45 55
REMARK Flexibility Score: inf
ROOT
ATOM      1  C   UNL A   1      36.188  21.765  24.854  1.00  0.00     0.117 C 
ENDROOT
BRANCH   1   2
ATOM      2  N   UNL A   1      35.323  21.518  25.996  1.00  0.00    -0.356 N 
ATOM      3  C   UNL A   1      34.069  21.006  26.088  1.00  0.00     0.224 C 
ATOM      4  O   UNL A   1      33.641  20.786  27.225  1.00  0.00    -0.275 OA
ATOM      5  H   UNL A   1      35.720  21.768  26.862  1.00  0.00     0.163 HD
BRANCH   3   6
ATOM      6  C   UNL A   1      33.202  20.674  24.876  1.00  0.00     0.098 C 
BRANCH   6   7
ATOM      7  C   UNL A   1      32.908  19.167  24.745  1.00  0.00     0.018 C 
BRANCH   7   8
ATOM      8  C   UNL A   1      33.885  18.353  23.875  1.00  0.00    -0.017 C 
ATOM      9  C   UNL A   1      34.933  17.611  24.702  1.00  0.00     0.007 C 
ATOM     10  C   UNL A   1      33.095  17.349  23.028  1.00  0.00     0.007 C 
ENDBRANCH   7   8
ENDBRANCH   6   7
BRANCH   6  11
ATOM     11  C   UNL A   1      32.039  21.668  24.703  1.00  0.00     0.129 C 
BRANCH  11  12
ATOM     12  N   UNL A   1      31.339  22.038  25.919  1.00  0.00    -0.355 N 
ATOM     13  C   UNL A   1      30.891  23.265  26.326  1.00  0.00     0.225 C 
ATOM     14  H   UNL A   1      31.158  21.297  26.543  1.00  0.00     0.163 HD
ATOM     15  O   UNL A   1      30.489  23.372  27.484  1.00  0.00    -0.275 OA
BRANCH  13  16
ATOM     16  C   UNL A   1      30.934  24.435  25.356  1.00  0.00     0.106 C 
ATOM     17  C   UNL A   1      32.254  25.178  25.374  1.00  0.00     0.044 C 
ATOM     18  C   UNL A   1      29.953  25.500  25.811  1.00  0.00     0.173 C 
ATOM     19  C   UNL A   1      32.078  26.149  26.519  1.00  0.00     0.161 C 
ATOM     20  O   UNL A   1      30.689  26.500  26.534  1.00  0.00    -0.381 OA
ENDBRANCH  13  16
ENDBRANCH  11  12
ENDBRANCH   6  11
ENDBRANCH   3   6
ENDBRANCH   1   2
BRANCH   1  21
ATOM     21  C   UNL A   1      37.281  20.724  24.702  1.00  0.00     0.042 C 
BRANCH  21  22
ATOM     22  C   UNL A   1      38.489  21.000  25.582  1.00  0.00     0.118 C 
BRANCH  22  23
ATOM     23  N   UNL A   1      39.429  19.881  25.623  1.00  0.00    -0.352 N 
ATOM     24  C   UNL A   1      40.755  19.849  25.977  1.00  0.00     0.251 C 
ATOM     25  H   UNL A   1      39.050  19.013  25.353  1.00  0.00     0.163 HD
ATOM     26  O   UNL A   1      41.423  18.837  25.788  1.00  0.00    -0.269 OA
BRANCH  24  27
ATOM     27  C   UNL A   1      41.383  21.046  26.567  1.00  0.00     0.039 A 
ATOM     28  C   UNL A   1      41.915  22.028  25.727  1.00  0.00     0.014 A 
ATOM     29  C   UNL A   1      41.417  21.209  27.952  1.00  0.00     0.014 A 
ATOM     30  C   UNL A   1      42.394  23.219  26.277  1.00  0.00     0.010 A 
ATOM     31  C   UNL A   1      41.795  22.431  28.488  1.00  0.00     0.010 A 
ATOM     32  C   UNL A   1      42.288  23.449  27.657  1.00  0.00    -0.014 A 
BRANCH  32  33
ATOM     33  C   UNL A   1      42.691  24.731  28.285  1.00  0.00     0.031 A 
ATOM     34  C   UNL A   1      41.652  25.792  28.521  1.00  0.00     0.074 A 
ATOM     35  C   UNL A   1      43.992  24.991  28.519  1.00  0.00     0.049 A 
ATOM     36  N   UNL A   1      41.808  27.051  28.837  1.00  0.00    -0.248 NA
ATOM     37  C   UNL A   1      40.248  25.390  28.325  1.00  0.00     0.031 C 
ATOM     38  C   UNL A   1      45.101  24.061  28.291  1.00  0.00     0.029 A 
ATOM     39  N   UNL A   1      44.604  26.130  28.976  1.00  0.00    -0.354 N 
ATOM     40  C   UNL A   1      40.532  27.599  28.829  1.00  0.00     0.074 A 
ATOM     41  C   UNL A   1      39.618  26.549  28.437  1.00  0.00     0.031 C 
ATOM     42  C   UNL A   1      46.254  24.663  28.624  1.00  0.00     0.029 A 
ATOM     43  C   UNL A   1      45.974  26.033  29.039  1.00  0.00     0.049 A 
ATOM     44  H   UNL A   1      44.110  26.941  29.234  1.00  0.00     0.167 HD
ATOM     45  C   UNL A   1      40.154  28.861  29.139  1.00  0.00     0.037 A 
ATOM     46  C   UNL A   1      46.897  26.951  29.378  1.00  0.00     0.037 A 
ATOM     47  C   UNL A   1      41.060  29.884  29.588  1.00  0.00     0.049 A 
ATOM     48  C   UNL A   1      46.450  28.335  29.758  1.00  0.00     0.074 A 
ATOM     49  C   UNL A   1      40.772  31.175  29.993  1.00  0.00     0.029 A 
ATOM     50  N   UNL A   1      42.432  29.722  29.704  1.00  0.00    -0.354 N 
ATOM     51  N   UNL A   1      45.237  28.833  29.781  1.00  0.00    -0.248 NA
ATOM     52  C   UNL A   1      47.497  29.286  30.159  1.00  0.00     0.031 C 
ATOM     53  C   UNL A   1      41.974  31.803  30.333  1.00  0.00     0.029 A 
ATOM     54  C   UNL A   1      43.006  30.890  30.174  1.00  0.00     0.049 A 
ATOM     55  H   UNL A   1      42.925  28.897  29.486  1.00  0.00     0.167 HD
ATOM     56  C   UNL A   1      45.371  30.139  30.231  1.00  0.00     0.074 A 
ATOM     57  C   UNL A   1      46.783  30.358  30.471  1.00  0.00     0.031 C 
ATOM     58  C   UNL A   1      44.410  31.073  30.432  1.00  0.00     0.037 A 
BRANCH  45  59
ATOM     59  C   UNL A   1      38.697  29.197  29.013  1.00  0.00     0.057 A 
ATOM     60  C   UNL A   1      38.136  29.600  27.794  1.00  0.00     0.134 A 
ATOM     61  C   UNL A   1      37.843  29.100  30.118  1.00  0.00     0.134 A 
ATOM     62  F   UNL A   1      38.902  29.728  26.700  1.00  0.00    -0.206 F 
ATOM     63  C   UNL A   1      36.782  29.924  27.687  1.00  0.00     0.040 A 
ATOM     64  C   UNL A   1      36.483  29.395  30.016  1.00  0.00     0.040 A 
ATOM     65  F   UNL A   1      38.315  28.717  31.314  1.00  0.00    -0.206 F 
ATOM     66  C   UNL A   1      35.950  29.815  28.799  1.00  0.00     0.006 A 
ENDBRANCH  45  59
BRANCH  46  67
ATOM     67  C   UNL A   1      48.335  26.586  29.400  1.00  0.00     0.057 A 
ATOM     68  C   UNL A   1      49.150  26.817  28.286  1.00  0.00     0.134 A 
ATOM     69  C   UNL A   1      48.930  26.002  30.526  1.00  0.00     0.134 A 
ATOM     70  F   UNL A   1      48.633  27.358  27.173  1.00  0.00    -0.206 F 
ATOM     71  C   UNL A   1      50.501  26.465  28.282  1.00  0.00     0.040 A 
ATOM     72  C   UNL A   1      50.284  25.664  30.543  1.00  0.00     0.040 A 
ATOM     73  F   UNL A   1      48.204  25.764  31.629  1.00  0.00    -0.206 F 
ATOM     74  C   UNL A   1      51.072  25.891  29.416  1.00  0.00     0.006 A 
ENDBRANCH  46  67
BRANCH  58  75
ATOM     75  C   UNL A   1      44.841  32.396  30.988  1.00  0.00     0.057 A 
ATOM     76  C   UNL A   1      45.173  33.474  30.161  1.00  0.00     0.134 A 
ATOM     77  C   UNL A   1      44.859  32.607  32.373  1.00  0.00     0.134 A 
ATOM     78  F   UNL A   1      45.186  33.329  28.827  1.00  0.00    -0.206 F 
ATOM     79  C   UNL A   1      45.518  34.718  30.692  1.00  0.00     0.040 A 
ATOM     80  C   UNL A   1      45.182  33.850  32.915  1.00  0.00     0.040 A 
ATOM     81  F   UNL A   1      44.543  31.615  33.218  1.00  0.00    -0.206 F 
ATOM     82  C   UNL A   1      45.515  34.910  32.073  1.00  0.00     0.006 A 
ENDBRANCH  58  75
ENDBRANCH  32  33
ENDBRANCH  24  27
ENDBRANCH  22  23
ENDBRANCH  21  22
ENDBRANCH   1  21
TORSDOF 15
ENDMDL
