MODEL 1
REMARK VINA RESULT:     -12.7      0.000      0.000
REMARK SMILES Cc1c(Cl)cc2c(c1C)O[C@@H](C(F)(F)F)C(C(=O)NCCCNC(=O)c1ccc(-c3c4nc(c(-c5c(F)cccc5F)c5ccc([nH]5)c(-c5c(F)cccc5F)c5nc(c(-c6c(F)cccc6F)c6ccc3[nH]6)C=C5)C=C4)cc1)=C2
REMARK SMILES IDX 21 1 20 2 19 3 17 4 18 5 16 7 1 8 2 9 3 10 8 11 4 12 5 13
REMARK SMILES IDX 7 14 9 15 6 16 10 17 80 18 11 19 12 20 13 21 14 22 15 23
REMARK SMILES IDX 22 24 23 25 24 26 25 28 26 29 27 30 79 31 28 32 78 33 29 34
REMARK SMILES IDX 30 35 31 36 72 37 32 38 77 39 71 40 73 41 33 42 76 43 70 44
REMARK SMILES IDX 69 45 34 47 60 48 43 49 59 50 44 51 47 52 58 53 74 54 45 55
REMARK SMILES IDX 46 56 57 58 75 59 48 60 35 61 36 62 41 63 37 64 38 65 40 66
REMARK SMILES IDX 42 67 39 68 61 69 62 70 67 71 63 72 64 73 66 74 68 75 65 76
REMARK SMILES IDX 49 77 50 78 55 79 51 80 52 81 54 82 56 83 53 84
REMARK H PARENT 19 6 23 27 73 46 47 57
REMARK Flexibility Score: inf
ROOT
ATOM      1  C   UNL A   1      31.348  32.341  26.508  1.00  0.00     0.042 C 
ENDROOT
BRANCH   1   2
ATOM      2  C   UNL A   1      31.403  30.831  26.301  1.00  0.00     0.118 C 
BRANCH   2   3
ATOM      3  N   UNL A   1      31.026  30.466  24.944  1.00  0.00    -0.352 N 
ATOM      4  C   UNL A   1      31.075  29.363  24.165  1.00  0.00     0.251 C 
ATOM      5  O   UNL A   1      30.568  29.489  23.046  1.00  0.00    -0.270 OA
ATOM      6  H   UNL A   1      30.628  31.229  24.465  1.00  0.00     0.163 HD
BRANCH   4   7
ATOM      7  C   UNL A   1      31.675  28.057  24.558  1.00  0.00     0.067 C 
ATOM      8  C   UNL A   1      32.903  22.086  26.938  1.00  0.00     0.046 C 
ATOM      9  C   UNL A   1      32.348  23.402  26.455  1.00  0.00    -0.026 A 
ATOM     10  C   UNL A   1      30.973  23.700  26.532  1.00  0.00     0.045 A 
ATOM     11  C   UNL A   1      33.222  24.374  25.905  1.00  0.00    -0.004 A 
ATOM     12  Cl  UNL A   1      29.812  22.578  27.154  1.00  0.00    -0.084 Cl
ATOM     13  C   UNL A   1      30.477  24.939  26.109  1.00  0.00     0.032 A 
ATOM     14  C   UNL A   1      32.699  25.612  25.480  1.00  0.00     0.131 A 
ATOM     15  C   UNL A   1      34.706  24.146  25.752  1.00  0.00     0.049 C 
ATOM     16  C   UNL A   1      31.340  25.903  25.594  1.00  0.00     0.019 A 
ATOM     17  O   UNL A   1      33.593  26.534  25.003  1.00  0.00    -0.475 OA
ATOM     18  C   UNL A   1      30.850  27.222  25.216  1.00  0.00     0.025 C 
ATOM     19  C   UNL A   1      33.059  27.607  24.185  1.00  0.00     0.314 C 
BRANCH  19  20
ATOM     20  C   UNL A   1      33.218  27.267  22.695  1.00  0.00     0.429 C 
ATOM     21  F   UNL A   1      33.750  28.326  22.030  1.00  0.00    -0.167 F 
ATOM     22  F   UNL A   1      34.029  26.209  22.479  1.00  0.00    -0.167 F 
ATOM     23  F   UNL A   1      32.036  26.992  22.095  1.00  0.00    -0.167 F 
ENDBRANCH  19  20
ENDBRANCH   4   7
ENDBRANCH   2   3
ENDBRANCH   1   2
BRANCH   1  24
ATOM     24  C   UNL A   1      32.700  32.920  26.915  1.00  0.00     0.118 C 
BRANCH  24  25
ATOM     25  N   UNL A   1      32.547  34.184  27.623  1.00  0.00    -0.352 N 
ATOM     26  C   UNL A   1      33.125  34.612  28.790  1.00  0.00     0.251 C 
ATOM     27  H   UNL A   1      31.935  34.829  27.199  1.00  0.00     0.163 HD
ATOM     28  O   UNL A   1      32.647  35.580  29.385  1.00  0.00    -0.269 OA
BRANCH  26  29
ATOM     29  C   UNL A   1      34.310  33.924  29.342  1.00  0.00     0.039 A 
ATOM     30  C   UNL A   1      35.585  34.350  28.960  1.00  0.00     0.014 A 
ATOM     31  C   UNL A   1      34.166  32.820  30.187  1.00  0.00     0.014 A 
ATOM     32  C   UNL A   1      36.712  33.693  29.457  1.00  0.00     0.010 A 
ATOM     33  C   UNL A   1      35.288  32.228  30.756  1.00  0.00     0.010 A 
ATOM     34  C   UNL A   1      36.572  32.639  30.375  1.00  0.00    -0.014 A 
BRANCH  34  35
ATOM     35  C   UNL A   1      37.759  31.919  30.899  1.00  0.00     0.031 A 
ATOM     36  C   UNL A   1      38.264  32.213  32.283  1.00  0.00     0.074 A 
ATOM     37  C   UNL A   1      38.394  31.022  30.122  1.00  0.00     0.049 A 
ATOM     38  N   UNL A   1      39.278  31.685  32.923  1.00  0.00    -0.248 NA
ATOM     39  C   UNL A   1      37.553  33.254  33.044  1.00  0.00     0.031 C 
ATOM     40  C   UNL A   1      38.021  30.680  28.750  1.00  0.00     0.029 A 
ATOM     41  N   UNL A   1      39.479  30.224  30.383  1.00  0.00    -0.354 N 
ATOM     42  C   UNL A   1      39.321  32.327  34.153  1.00  0.00     0.074 A 
ATOM     43  C   UNL A   1      38.288  33.339  34.142  1.00  0.00     0.031 C 
ATOM     44  C   UNL A   1      38.829  29.705  28.307  1.00  0.00     0.029 A 
ATOM     45  C   UNL A   1      39.797  29.376  29.351  1.00  0.00     0.049 A 
ATOM     46  H   UNL A   1      39.982  30.257  31.229  1.00  0.00     0.167 HD
ATOM     47  C   UNL A   1      40.119  32.070  35.216  1.00  0.00     0.037 A 
ATOM     48  C   UNL A   1      40.753  28.431  29.262  1.00  0.00     0.037 A 
ATOM     49  C   UNL A   1      41.135  31.053  35.231  1.00  0.00     0.049 A 
ATOM     50  C   UNL A   1      41.664  28.196  30.432  1.00  0.00     0.074 A 
ATOM     51  C   UNL A   1      41.968  30.682  36.269  1.00  0.00     0.029 A 
ATOM     52  N   UNL A   1      41.457  30.249  34.147  1.00  0.00    -0.354 N 
ATOM     53  N   UNL A   1      41.654  28.765  31.613  1.00  0.00    -0.248 NA
ATOM     54  C   UNL A   1      42.724  27.194  30.257  1.00  0.00     0.031 C 
ATOM     55  C   UNL A   1      42.826  29.682  35.800  1.00  0.00     0.029 A 
ATOM     56  C   UNL A   1      42.501  29.403  34.482  1.00  0.00     0.049 A 
ATOM     57  H   UNL A   1      41.012  30.276  33.269  1.00  0.00     0.167 HD
ATOM     58  C   UNL A   1      42.694  28.184  32.326  1.00  0.00     0.074 A 
ATOM     59  C   UNL A   1      43.305  27.207  31.450  1.00  0.00     0.031 C 
ATOM     60  C   UNL A   1      43.105  28.442  33.593  1.00  0.00     0.037 A 
BRANCH  47  61
ATOM     61  C   UNL A   1      39.903  32.897  36.450  1.00  0.00     0.057 A 
ATOM     62  C   UNL A   1      38.907  32.574  37.385  1.00  0.00     0.134 A 
ATOM     63  C   UNL A   1      40.693  34.022  36.713  1.00  0.00     0.134 A 
ATOM     64  F   UNL A   1      38.106  31.516  37.185  1.00  0.00    -0.206 F 
ATOM     65  C   UNL A   1      38.681  33.361  38.513  1.00  0.00     0.040 A 
ATOM     66  C   UNL A   1      40.495  34.800  37.856  1.00  0.00     0.040 A 
ATOM     67  F   UNL A   1      41.667  34.384  35.867  1.00  0.00    -0.206 F 
ATOM     68  C   UNL A   1      39.479  34.477  38.754  1.00  0.00     0.006 A 
ENDBRANCH  47  61
BRANCH  48  69
ATOM     69  C   UNL A   1      40.841  27.602  28.037  1.00  0.00     0.057 A 
ATOM     70  C   UNL A   1      41.629  28.010  26.955  1.00  0.00     0.134 A 
ATOM     71  C   UNL A   1      40.201  26.360  27.937  1.00  0.00     0.134 A 
ATOM     72  F   UNL A   1      42.256  29.196  26.987  1.00  0.00    -0.206 F 
ATOM     73  C   UNL A   1      41.781  27.214  25.819  1.00  0.00     0.040 A 
ATOM     74  C   UNL A   1      40.359  25.545  26.814  1.00  0.00     0.040 A 
ATOM     75  F   UNL A   1      39.438  25.910  28.944  1.00  0.00    -0.206 F 
ATOM     76  C   UNL A   1      41.153  25.971  25.751  1.00  0.00     0.006 A 
ENDBRANCH  48  69
BRANCH  60  77
ATOM     77  C   UNL A   1      44.279  27.669  34.113  1.00  0.00     0.057 A 
ATOM     78  C   UNL A   1      45.575  28.195  34.068  1.00  0.00     0.134 A 
ATOM     79  C   UNL A   1      44.099  26.439  34.758  1.00  0.00     0.134 A 
ATOM     80  F   UNL A   1      45.812  29.365  33.456  1.00  0.00    -0.206 F 
ATOM     81  C   UNL A   1      46.654  27.524  34.646  1.00  0.00     0.040 A 
ATOM     82  C   UNL A   1      45.165  25.770  35.360  1.00  0.00     0.040 A 
ATOM     83  F   UNL A   1      42.880  25.885  34.845  1.00  0.00    -0.206 F 
ATOM     84  C   UNL A   1      46.447  26.313  35.305  1.00  0.00     0.006 A 
ENDBRANCH  60  77
ENDBRANCH  34  35
ENDBRANCH  26  29
ENDBRANCH  24  25
ENDBRANCH   1  24
TORSDOF 11
ENDMDL
MODEL 2
REMARK VINA RESULT:     -12.7      0.088      1.020
REMARK SMILES Cc1c(Cl)cc2c(c1C)O[C@@H](C(F)(F)F)C(C(=O)NCCCNC(=O)c1ccc(-c3c4nc(c(-c5c(F)cccc5F)c5ccc([nH]5)c(-c5c(F)cccc5F)c5nc(c(-c6c(F)cccc6F)c6ccc3[nH]6)C=C5)C=C4)cc1)=C2
REMARK SMILES IDX 21 1 20 2 19 3 17 4 18 5 16 7 1 8 2 9 3 10 8 11 4 12 5 13
REMARK SMILES IDX 7 14 9 15 6 16 10 17 80 18 11 19 12 20 13 21 14 22 15 23
REMARK SMILES IDX 22 24 23 25 24 26 25 28 26 29 27 30 79 31 28 32 78 33 29 34
REMARK SMILES IDX 30 35 31 36 72 37 32 38 77 39 71 40 73 41 33 42 76 43 70 44
REMARK SMILES IDX 69 45 34 47 60 48 43 49 59 50 44 51 47 52 58 53 74 54 45 55
REMARK SMILES IDX 46 56 57 58 75 59 48 60 35 61 36 62 41 63 37 64 38 65 40 66
REMARK SMILES IDX 42 67 39 68 61 69 62 70 67 71 63 72 64 73 66 74 68 75 65 76
REMARK SMILES IDX 49 77 50 78 55 79 51 80 52 81 54 82 56 83 53 84
REMARK H PARENT 19 6 23 27 73 46 47 57
REMARK Flexibility Score: inf
ROOT
ATOM      1  C   UNL A   1      31.358  32.328  26.503  1.00  0.00     0.042 C 
ENDROOT
BRANCH   1   2
ATOM      2  C   UNL A   1      31.403  30.818  26.299  1.00  0.00     0.118 C 
BRANCH   2   3
ATOM      3  N   UNL A   1      31.030  30.453  24.942  1.00  0.00    -0.352 N 
ATOM      4  C   UNL A   1      31.081  29.350  24.163  1.00  0.00     0.251 C 
ATOM      5  O   UNL A   1      30.577  29.475  23.042  1.00  0.00    -0.270 OA
ATOM      6  H   UNL A   1      30.632  31.215  24.461  1.00  0.00     0.163 HD
BRANCH   4   7
ATOM      7  C   UNL A   1      31.681  28.044  24.558  1.00  0.00     0.067 C 
ATOM      8  C   UNL A   1      32.911  22.080  26.951  1.00  0.00     0.046 C 
ATOM      9  C   UNL A   1      32.355  23.394  26.467  1.00  0.00    -0.026 A 
ATOM     10  C   UNL A   1      30.981  23.696  26.550  1.00  0.00     0.045 A 
ATOM     11  C   UNL A   1      33.228  24.362  25.909  1.00  0.00    -0.004 A 
ATOM     12  Cl  UNL A   1      29.822  22.578  27.183  1.00  0.00    -0.084 Cl
ATOM     13  C   UNL A   1      30.485  24.934  26.126  1.00  0.00     0.032 A 
ATOM     14  C   UNL A   1      32.705  25.600  25.482  1.00  0.00     0.131 A 
ATOM     15  C   UNL A   1      34.711  24.131  25.748  1.00  0.00     0.049 C 
ATOM     16  C   UNL A   1      31.347  25.895  25.603  1.00  0.00     0.019 A 
ATOM     17  O   UNL A   1      33.598  26.519  24.997  1.00  0.00    -0.475 OA
ATOM     18  C   UNL A   1      30.858  27.213  25.223  1.00  0.00     0.025 C 
ATOM     19  C   UNL A   1      33.062  27.590  24.178  1.00  0.00     0.314 C 
BRANCH  19  20
ATOM     20  C   UNL A   1      33.212  27.244  22.688  1.00  0.00     0.429 C 
ATOM     21  F   UNL A   1      34.027  26.168  22.541  1.00  0.00    -0.167 F 
ATOM     22  F   UNL A   1      32.036  26.941  22.097  1.00  0.00    -0.167 F 
ATOM     23  F   UNL A   1      33.769  28.249  21.974  1.00  0.00    -0.167 F 
ENDBRANCH  19  20
ENDBRANCH   4   7
ENDBRANCH   2   3
ENDBRANCH   1   2
BRANCH   1  24
ATOM     24  C   UNL A   1      32.710  32.897  26.923  1.00  0.00     0.118 C 
BRANCH  24  25
ATOM     25  N   UNL A   1      32.560  34.164  27.626  1.00  0.00    -0.352 N 
ATOM     26  C   UNL A   1      33.143  34.597  28.789  1.00  0.00     0.251 C 
ATOM     27  H   UNL A   1      31.948  34.808  27.201  1.00  0.00     0.163 HD
ATOM     28  O   UNL A   1      32.668  35.568  29.381  1.00  0.00    -0.269 OA
BRANCH  26  29
ATOM     29  C   UNL A   1      34.329  33.910  29.340  1.00  0.00     0.039 A 
ATOM     30  C   UNL A   1      35.604  34.350  28.972  1.00  0.00     0.014 A 
ATOM     31  C   UNL A   1      34.188  32.793  30.169  1.00  0.00     0.014 A 
ATOM     32  C   UNL A   1      36.732  33.695  29.469  1.00  0.00     0.010 A 
ATOM     33  C   UNL A   1      35.310  32.202  30.737  1.00  0.00     0.010 A 
ATOM     34  C   UNL A   1      36.594  32.627  30.371  1.00  0.00    -0.014 A 
BRANCH  34  35
ATOM     35  C   UNL A   1      37.782  31.909  30.893  1.00  0.00     0.031 A 
ATOM     36  C   UNL A   1      38.291  32.206  32.276  1.00  0.00     0.074 A 
ATOM     37  C   UNL A   1      38.416  31.011  30.117  1.00  0.00     0.049 A 
ATOM     38  N   UNL A   1      39.307  31.680  32.914  1.00  0.00    -0.248 NA
ATOM     39  C   UNL A   1      37.582  33.248  33.036  1.00  0.00     0.031 C 
ATOM     40  C   UNL A   1      38.039  30.665  28.746  1.00  0.00     0.029 A 
ATOM     41  N   UNL A   1      39.502  30.214  30.377  1.00  0.00    -0.354 N 
ATOM     42  C   UNL A   1      39.352  32.325  34.143  1.00  0.00     0.074 A 
ATOM     43  C   UNL A   1      38.319  33.336  34.132  1.00  0.00     0.031 C 
ATOM     44  C   UNL A   1      38.847  29.690  28.304  1.00  0.00     0.029 A 
ATOM     45  C   UNL A   1      39.818  29.364  29.345  1.00  0.00     0.049 A 
ATOM     46  H   UNL A   1      40.007  30.248  31.221  1.00  0.00     0.167 HD
ATOM     47  C   UNL A   1      40.153  32.070  35.204  1.00  0.00     0.037 A 
ATOM     48  C   UNL A   1      40.773  28.419  29.256  1.00  0.00     0.037 A 
ATOM     49  C   UNL A   1      41.170  31.054  35.218  1.00  0.00     0.049 A 
ATOM     50  C   UNL A   1      41.688  28.187  30.425  1.00  0.00     0.074 A 
ATOM     51  C   UNL A   1      42.006  30.685  36.255  1.00  0.00     0.029 A 
ATOM     52  N   UNL A   1      41.490  30.247  34.135  1.00  0.00    -0.354 N 
ATOM     53  N   UNL A   1      41.680  28.759  31.605  1.00  0.00    -0.248 NA
ATOM     54  C   UNL A   1      42.748  27.185  30.249  1.00  0.00     0.031 C 
ATOM     55  C   UNL A   1      42.864  29.685  35.787  1.00  0.00     0.029 A 
ATOM     56  C   UNL A   1      42.534  29.403  34.470  1.00  0.00     0.049 A 
ATOM     57  H   UNL A   1      41.042  30.273  33.259  1.00  0.00     0.167 HD
ATOM     58  C   UNL A   1      42.723  28.180  32.316  1.00  0.00     0.074 A 
ATOM     59  C   UNL A   1      43.332  27.200  31.440  1.00  0.00     0.031 C 
ATOM     60  C   UNL A   1      43.136  28.440  33.581  1.00  0.00     0.037 A 
BRANCH  47  61
ATOM     61  C   UNL A   1      39.940  32.900  36.438  1.00  0.00     0.057 A 
ATOM     62  C   UNL A   1      38.947  32.579  37.375  1.00  0.00     0.134 A 
ATOM     63  C   UNL A   1      40.730  34.026  36.696  1.00  0.00     0.134 A 
ATOM     64  F   UNL A   1      38.146  31.519  37.180  1.00  0.00    -0.206 F 
ATOM     65  C   UNL A   1      38.723  33.368  38.503  1.00  0.00     0.040 A 
ATOM     66  C   UNL A   1      40.535  34.807  37.837  1.00  0.00     0.040 A 
ATOM     67  F   UNL A   1      41.702  34.386  35.846  1.00  0.00    -0.206 F 
ATOM     68  C   UNL A   1      39.522  34.484  38.739  1.00  0.00     0.006 A 
ENDBRANCH  47  61
BRANCH  48  69
ATOM     69  C   UNL A   1      40.859  27.587  28.033  1.00  0.00     0.057 A 
ATOM     70  C   UNL A   1      41.654  27.987  26.953  1.00  0.00     0.134 A 
ATOM     71  C   UNL A   1      40.208  26.351  27.932  1.00  0.00     0.134 A 
ATOM     72  F   UNL A   1      42.291  29.167  26.986  1.00  0.00    -0.206 F 
ATOM     73  C   UNL A   1      41.804  27.188  25.818  1.00  0.00     0.040 A 
ATOM     74  C   UNL A   1      40.364  25.532  26.812  1.00  0.00     0.040 A 
ATOM     75  F   UNL A   1      39.438  25.909  28.937  1.00  0.00    -0.206 F 
ATOM     76  C   UNL A   1      41.165  25.951  25.751  1.00  0.00     0.006 A 
ENDBRANCH  48  69
BRANCH  60  77
ATOM     77  C   UNL A   1      44.312  27.669  34.100  1.00  0.00     0.057 A 
ATOM     78  C   UNL A   1      44.159  26.394  34.656  1.00  0.00     0.134 A 
ATOM     79  C   UNL A   1      45.616  28.158  33.947  1.00  0.00     0.134 A 
ATOM     80  F   UNL A   1      42.935  25.875  34.838  1.00  0.00    -0.206 F 
ATOM     81  C   UNL A   1      45.261  25.630  35.044  1.00  0.00     0.040 A 
ATOM     82  C   UNL A   1      46.726  27.394  34.308  1.00  0.00     0.040 A 
ATOM     83  F   UNL A   1      45.832  29.368  33.410  1.00  0.00    -0.206 F 
ATOM     84  C   UNL A   1      46.550  26.126  34.857  1.00  0.00     0.006 A 
ENDBRANCH  60  77
ENDBRANCH  34  35
ENDBRANCH  26  29
ENDBRANCH  24  25
ENDBRANCH   1  24
TORSDOF 11
ENDMDL
MODEL 3
REMARK VINA RESULT:     -12.6      4.946      9.622
REMARK SMILES Cc1c(Cl)cc2c(c1C)O[C@@H](C(F)(F)F)C(C(=O)NCCCNC(=O)c1ccc(-c3c4nc(c(-c5c(F)cccc5F)c5ccc([nH]5)c(-c5c(F)cccc5F)c5nc(c(-c6c(F)cccc6F)c6ccc3[nH]6)C=C5)C=C4)cc1)=C2
REMARK SMILES IDX 21 1 20 2 19 3 17 4 18 5 16 7 1 8 2 9 3 10 8 11 4 12 5 13
REMARK SMILES IDX 7 14 9 15 6 16 10 17 80 18 11 19 12 20 13 21 14 22 15 23
REMARK SMILES IDX 22 24 23 25 24 26 25 28 26 29 27 30 79 31 28 32 78 33 29 34
REMARK SMILES IDX 30 35 31 36 72 37 32 38 77 39 71 40 73 41 33 42 76 43 70 44
REMARK SMILES IDX 69 45 34 47 60 48 43 49 59 50 44 51 47 52 58 53 74 54 45 55
REMARK SMILES IDX 46 56 57 58 75 59 48 60 35 61 36 62 41 63 37 64 38 65 40 66
REMARK SMILES IDX 42 67 39 68 61 69 62 70 67 71 63 72 64 73 66 74 68 75 65 76
REMARK SMILES IDX 49 77 50 78 55 79 51 80 52 81 54 82 56 83 53 84
REMARK H PARENT 19 6 23 27 73 46 47 57
REMARK Flexibility Score: inf
ROOT
ATOM      1  C   UNL A   1      38.162  19.455  24.958  1.00  0.00     0.042 C 
ENDROOT
BRANCH   1   2
ATOM      2  C   UNL A   1      37.113  20.540  24.739  1.00  0.00     0.118 C 
BRANCH   2   3
ATOM      3  N   UNL A   1      35.791  20.092  25.149  1.00  0.00    -0.352 N 
ATOM      4  C   UNL A   1      34.561  20.633  25.286  1.00  0.00     0.251 C 
ATOM      5  O   UNL A   1      33.674  19.840  25.620  1.00  0.00    -0.270 OA
ATOM      6  H   UNL A   1      35.795  19.138  25.390  1.00  0.00     0.163 HD
BRANCH   4   7
ATOM      7  C   UNL A   1      34.221  22.067  25.066  1.00  0.00     0.067 C 
ATOM      8  C   UNL A   1      32.714  27.933  22.588  1.00  0.00     0.046 C 
ATOM      9  C   UNL A   1      33.004  26.486  22.895  1.00  0.00    -0.026 A 
ATOM     10  C   UNL A   1      32.890  25.482  21.913  1.00  0.00     0.045 A 
ATOM     11  C   UNL A   1      33.402  26.112  24.203  1.00  0.00    -0.004 A 
ATOM     12  Cl  UNL A   1      32.381  25.819  20.294  1.00  0.00    -0.084 Cl
ATOM     13  C   UNL A   1      33.194  24.147  22.205  1.00  0.00     0.032 A 
ATOM     14  C   UNL A   1      33.697  24.760  24.476  1.00  0.00     0.131 A 
ATOM     15  C   UNL A   1      33.530  27.102  25.335  1.00  0.00     0.049 C 
ATOM     16  C   UNL A   1      33.611  23.784  23.484  1.00  0.00     0.019 A 
ATOM     17  O   UNL A   1      34.125  24.461  25.742  1.00  0.00    -0.475 OA
ATOM     18  C   UNL A   1      33.999  22.413  23.784  1.00  0.00     0.025 C 
ATOM     19  C   UNL A   1      34.022  23.075  26.162  1.00  0.00     0.314 C 
BRANCH  19  20
ATOM     20  C   UNL A   1      32.734  22.862  26.972  1.00  0.00     0.429 C 
ATOM     21  F   UNL A   1      32.191  24.061  27.308  1.00  0.00    -0.167 F 
ATOM     22  F   UNL A   1      31.792  22.171  26.293  1.00  0.00    -0.167 F 
ATOM     23  F   UNL A   1      32.952  22.201  28.133  1.00  0.00    -0.167 F 
ENDBRANCH  19  20
ENDBRANCH   4   7
ENDBRANCH   2   3
ENDBRANCH   1   2
BRANCH   1  24
ATOM     24  C   UNL A   1      39.124  19.799  26.091  1.00  0.00     0.118 C 
BRANCH  24  25
ATOM     25  N   UNL A   1      40.368  19.050  25.980  1.00  0.00    -0.352 N 
ATOM     26  C   UNL A   1      41.665  19.494  26.006  1.00  0.00     0.251 C 
ATOM     27  H   UNL A   1      40.263  18.077  25.870  1.00  0.00     0.163 HD
ATOM     28  O   UNL A   1      42.567  18.760  25.598  1.00  0.00    -0.269 OA
BRANCH  26  29
ATOM     29  C   UNL A   1      41.991  20.843  26.513  1.00  0.00     0.039 A 
ATOM     30  C   UNL A   1      42.024  21.064  27.892  1.00  0.00     0.014 A 
ATOM     31  C   UNL A   1      42.202  21.907  25.630  1.00  0.00     0.014 A 
ATOM     32  C   UNL A   1      42.309  22.339  28.383  1.00  0.00     0.010 A 
ATOM     33  C   UNL A   1      42.579  23.153  26.119  1.00  0.00     0.010 A 
ATOM     34  C   UNL A   1      42.608  23.390  27.499  1.00  0.00    -0.014 A 
BRANCH  34  35
ATOM     35  C   UNL A   1      42.894  24.754  28.004  1.00  0.00     0.031 A 
ATOM     36  C   UNL A   1      44.316  25.189  28.228  1.00  0.00     0.074 A 
ATOM     37  C   UNL A   1      41.879  25.592  28.283  1.00  0.00     0.049 A 
ATOM     38  N   UNL A   1      44.771  26.341  28.655  1.00  0.00    -0.248 NA
ATOM     39  C   UNL A   1      45.366  24.192  27.961  1.00  0.00     0.031 C 
ATOM     40  C   UNL A   1      40.458  25.272  28.142  1.00  0.00     0.029 A 
ATOM     41  N   UNL A   1      41.887  26.889  28.729  1.00  0.00    -0.354 N 
ATOM     42  C   UNL A   1      46.152  26.203  28.703  1.00  0.00     0.074 A 
ATOM     43  C   UNL A   1      46.457  24.836  28.344  1.00  0.00     0.031 C 
ATOM     44  C   UNL A   1      39.733  26.360  28.444  1.00  0.00     0.029 A 
ATOM     45  C   UNL A   1      40.634  27.442  28.831  1.00  0.00     0.049 A 
ATOM     46  H   UNL A   1      42.712  27.377  28.956  1.00  0.00     0.167 HD
ATOM     47  C   UNL A   1      47.088  27.141  28.979  1.00  0.00     0.037 A 
ATOM     48  C   UNL A   1      40.257  28.686  29.184  1.00  0.00     0.037 A 
ATOM     49  C   UNL A   1      46.783  28.505  29.321  1.00  0.00     0.049 A 
ATOM     50  C   UNL A   1      41.307  29.700  29.538  1.00  0.00     0.074 A 
ATOM     51  C   UNL A   1      47.656  29.545  29.576  1.00  0.00     0.029 A 
ATOM     52  N   UNL A   1      45.498  29.011  29.461  1.00  0.00    -0.354 N 
ATOM     53  N   UNL A   1      42.612  29.577  29.518  1.00  0.00    -0.248 NA
ATOM     54  C   UNL A   1      40.833  31.022  29.971  1.00  0.00     0.031 C 
ATOM     55  C   UNL A   1      46.900  30.672  29.914  1.00  0.00     0.029 A 
ATOM     56  C   UNL A   1      45.556  30.343  29.830  1.00  0.00     0.049 A 
ATOM     57  H   UNL A   1      44.670  28.499  29.319  1.00  0.00     0.167 HD
ATOM     58  C   UNL A   1      43.117  30.805  29.923  1.00  0.00     0.074 A 
ATOM     59  C   UNL A   1      41.977  31.665  30.167  1.00  0.00     0.031 C 
ATOM     60  C   UNL A   1      44.410  31.183  30.079  1.00  0.00     0.037 A 
BRANCH  47  61
ATOM     61  C   UNL A   1      48.526  26.718  28.902  1.00  0.00     0.057 A 
ATOM     62  C   UNL A   1      49.271  26.862  27.722  1.00  0.00     0.134 A 
ATOM     63  C   UNL A   1      49.176  26.164  30.011  1.00  0.00     0.134 A 
ATOM     64  F   UNL A   1      48.703  27.374  26.619  1.00  0.00    -0.206 F 
ATOM     65  C   UNL A   1      50.596  26.436  27.637  1.00  0.00     0.040 A 
ATOM     66  C   UNL A   1      50.512  25.761  29.946  1.00  0.00     0.040 A 
ATOM     67  F   UNL A   1      48.526  26.004  31.173  1.00  0.00    -0.206 F 
ATOM     68  C   UNL A   1      51.223  25.887  28.754  1.00  0.00     0.006 A 
ENDBRANCH  47  61
BRANCH  48  69
ATOM     69  C   UNL A   1      38.819  29.044  29.151  1.00  0.00     0.057 A 
ATOM     70  C   UNL A   1      38.031  28.938  30.303  1.00  0.00     0.134 A 
ATOM     71  C   UNL A   1      38.211  29.559  27.999  1.00  0.00     0.134 A 
ATOM     72  F   UNL A   1      38.554  28.440  31.433  1.00  0.00    -0.206 F 
ATOM     73  C   UNL A   1      36.693  29.333  30.313  1.00  0.00     0.040 A 
ATOM     74  C   UNL A   1      36.879  29.976  28.000  1.00  0.00     0.040 A 
ATOM     75  F   UNL A   1      38.916  29.692  26.865  1.00  0.00    -0.206 F 
ATOM     76  C   UNL A   1      36.116  29.865  29.161  1.00  0.00     0.006 A 
ENDBRANCH  48  69
BRANCH  60  77
ATOM     77  C   UNL A   1      44.673  32.582  30.548  1.00  0.00     0.057 A 
ATOM     78  C   UNL A   1      44.888  32.869  31.901  1.00  0.00     0.134 A 
ATOM     79  C   UNL A   1      44.818  33.631  29.631  1.00  0.00     0.134 A 
ATOM     80  F   UNL A   1      44.755  31.908  32.828  1.00  0.00    -0.206 F 
ATOM     81  C   UNL A   1      45.237  34.151  32.327  1.00  0.00     0.040 A 
ATOM     82  C   UNL A   1      45.189  34.911  30.043  1.00  0.00     0.040 A 
ATOM     83  F   UNL A   1      44.636  33.420  28.319  1.00  0.00    -0.206 F 
ATOM     84  C   UNL A   1      45.401  35.174  31.394  1.00  0.00     0.006 A 
ENDBRANCH  60  77
ENDBRANCH  34  35
ENDBRANCH  26  29
ENDBRANCH  24  25
ENDBRANCH   1  24
TORSDOF 11
ENDMDL
