MODEL 1
REMARK VINA RESULT:     -12.5      0.000      0.000
REMARK SMILES O=C(NCCCNC(=O)[C@H]1CC=CC[C@H]1C(=O)Nc1ccc(S(=O)(=O)N2CCCC2)cc1)c1ccc(-c2c3nc(c(-c4c(F)cccc4F)c4ccc([nH]4)c(-c4c(F)cccc4F)c4nc(c(-c5c(F)cccc5F)c5ccc2[nH]5)C=C4)C=C3)cc1
REMARK SMILES IDX 6 1 5 2 4 3 3 4 1 5 2 6 33 8 34 9 86 10 35 11 85 12 36 13
REMARK SMILES IDX 37 14 38 15 79 16 39 17 84 18 78 19 80 20 40 21 83 22 77 23
REMARK SMILES IDX 76 24 41 26 67 27 50 28 66 29 51 30 54 31 65 32 81 33 52 34
REMARK SMILES IDX 53 35 64 37 82 38 55 39 42 40 43 41 48 42 44 43 45 44 47 45
REMARK SMILES IDX 49 46 46 47 68 48 69 49 74 50 70 51 71 52 73 53 75 54 72 55
REMARK SMILES IDX 56 56 57 57 62 58 58 59 59 60 61 61 63 62 60 63 7 64 8 65
REMARK SMILES IDX 9 67 10 68 11 69 15 70 12 71 14 72 13 73 16 74 17 75 18 76
REMARK SMILES IDX 19 78 20 79 32 80 21 81 31 82 22 83 23 84 24 85 25 86 26 87
REMARK SMILES IDX 27 88 30 89 28 90 29 91
REMARK H PARENT 3 7 80 25 54 36 7 66 18 77
REMARK Flexibility Score: inf
ROOT
ATOM      1  C   UNL A   1      32.501  29.488  26.196  1.00  0.00     0.117 C 
ENDROOT
BRANCH   1   2
ATOM      2  C   UNL A   1      33.351  28.534  27.019  1.00  0.00     0.042 C 
BRANCH   2   3
ATOM      3  C   UNL A   1      34.765  29.039  27.269  1.00  0.00     0.118 C 
BRANCH   3   4
ATOM      4  N   UNL A   1      34.844  29.988  28.376  1.00  0.00    -0.352 N 
ATOM      5  O   UNL A   1      35.700  30.965  30.218  1.00  0.00    -0.269 OA
ATOM      6  C   UNL A   1      35.891  30.275  29.222  1.00  0.00     0.251 C 
ATOM      7  H   UNL A   1      34.020  30.502  28.543  1.00  0.00     0.163 HD
BRANCH   6   8
ATOM      8  C   UNL A   1      37.236  29.726  28.945  1.00  0.00     0.039 A 
ATOM      9  C   UNL A   1      37.983  29.134  29.963  1.00  0.00     0.014 A 
ATOM     10  C   UNL A   1      37.760  29.804  27.651  1.00  0.00     0.014 A 
ATOM     11  C   UNL A   1      39.312  28.804  29.742  1.00  0.00     0.010 A 
ATOM     12  C   UNL A   1      39.065  29.366  27.403  1.00  0.00     0.010 A 
ATOM     13  C   UNL A   1      39.866  28.902  28.457  1.00  0.00    -0.014 A 
BRANCH  13  14
ATOM     14  C   UNL A   1      41.265  28.455  28.239  1.00  0.00     0.031 A 
ATOM     15  C   UNL A   1      41.585  27.029  27.891  1.00  0.00     0.074 A 
ATOM     16  C   UNL A   1      42.250  29.371  28.317  1.00  0.00     0.049 A 
ATOM     17  N   UNL A   1      42.752  26.480  27.662  1.00  0.00    -0.248 NA
ATOM     18  C   UNL A   1      40.454  26.092  27.796  1.00  0.00     0.031 C 
ATOM     19  C   UNL A   1      42.059  30.786  28.649  1.00  0.00     0.029 A 
ATOM     20  N   UNL A   1      43.599  29.261  28.102  1.00  0.00    -0.354 N 
ATOM     21  C   UNL A   1      42.501  25.136  27.416  1.00  0.00     0.074 A 
ATOM     22  C   UNL A   1      41.072  24.945  27.545  1.00  0.00     0.031 C 
ATOM     23  C   UNL A   1      43.236  31.420  28.563  1.00  0.00     0.029 A 
ATOM     24  C   UNL A   1      44.273  30.449  28.243  1.00  0.00     0.049 A 
ATOM     25  H   UNL A   1      44.041  28.413  27.870  1.00  0.00     0.167 HD
ATOM     26  C   UNL A   1      43.384  24.156  27.104  1.00  0.00     0.037 A 
ATOM     27  C   UNL A   1      45.586  30.726  28.146  1.00  0.00     0.037 A 
ATOM     28  C   UNL A   1      44.802  24.359  26.956  1.00  0.00     0.049 A 
ATOM     29  C   UNL A   1      46.541  29.615  27.828  1.00  0.00     0.074 A 
ATOM     30  C   UNL A   1      45.774  23.435  26.609  1.00  0.00     0.029 A 
ATOM     31  N   UNL A   1      45.452  25.570  27.146  1.00  0.00    -0.354 N 
ATOM     32  N   UNL A   1      46.286  28.354  27.582  1.00  0.00    -0.248 NA
ATOM     33  C   UNL A   1      47.967  29.964  27.783  1.00  0.00     0.031 C 
ATOM     34  C   UNL A   1      47.017  24.078  26.632  1.00  0.00     0.029 A 
ATOM     35  C   UNL A   1      46.814  25.411  26.949  1.00  0.00     0.049 A 
ATOM     36  H   UNL A   1      45.011  26.416  27.386  1.00  0.00     0.167 HD
ATOM     37  C   UNL A   1      47.516  27.758  27.345  1.00  0.00     0.074 A 
ATOM     38  C   UNL A   1      48.514  28.802  27.453  1.00  0.00     0.031 C 
ATOM     39  C   UNL A   1      47.794  26.462  27.066  1.00  0.00     0.037 A 
BRANCH  26  40
ATOM     40  C   UNL A   1      42.845  22.766  26.920  1.00  0.00     0.057 A 
ATOM     41  C   UNL A   1      42.446  21.976  28.005  1.00  0.00     0.134 A 
ATOM     42  C   UNL A   1      42.674  22.233  25.636  1.00  0.00     0.134 A 
ATOM     43  F   UNL A   1      42.593  22.421  29.262  1.00  0.00    -0.206 F 
ATOM     44  C   UNL A   1      41.913  20.697  27.820  1.00  0.00     0.040 A 
ATOM     45  C   UNL A   1      42.121  20.966  25.438  1.00  0.00     0.040 A 
ATOM     46  F   UNL A   1      43.029  22.939  24.553  1.00  0.00    -0.206 F 
ATOM     47  C   UNL A   1      41.743  20.193  26.533  1.00  0.00     0.006 A 
ENDBRANCH  26  40
BRANCH  27  48
ATOM     48  C   UNL A   1      46.062  32.112  28.372  1.00  0.00     0.057 A 
ATOM     49  C   UNL A   1      46.092  33.046  27.332  1.00  0.00     0.134 A 
ATOM     50  C   UNL A   1      46.473  32.541  29.641  1.00  0.00     0.134 A 
ATOM     51  F   UNL A   1      45.724  32.690  26.093  1.00  0.00    -0.206 F 
ATOM     52  C   UNL A   1      46.521  34.357  27.543  1.00  0.00     0.040 A 
ATOM     53  C   UNL A   1      46.880  33.855  29.871  1.00  0.00     0.040 A 
ATOM     54  F   UNL A   1      46.459  31.694  30.680  1.00  0.00    -0.206 F 
ATOM     55  C   UNL A   1      46.910  34.767  28.818  1.00  0.00     0.006 A 
ENDBRANCH  27  48
BRANCH  39  56
ATOM     56  C   UNL A   1      49.233  26.111  26.845  1.00  0.00     0.057 A 
ATOM     57  C   UNL A   1      49.823  26.192  25.578  1.00  0.00     0.134 A 
ATOM     58  C   UNL A   1      50.043  25.708  27.915  1.00  0.00     0.134 A 
ATOM     59  F   UNL A   1      49.096  26.555  24.511  1.00  0.00    -0.206 F 
ATOM     60  C   UNL A   1      51.165  25.865  25.378  1.00  0.00     0.040 A 
ATOM     61  C   UNL A   1      51.392  25.401  27.731  1.00  0.00     0.040 A 
ATOM     62  F   UNL A   1      49.539  25.616  29.154  1.00  0.00    -0.206 F 
ATOM     63  C   UNL A   1      51.954  25.474  26.458  1.00  0.00     0.006 A 
ENDBRANCH  39  56
ENDBRANCH  13  14
ENDBRANCH   6   8
ENDBRANCH   3   4
ENDBRANCH   2   3
ENDBRANCH   1   2
BRANCH   1  64
ATOM     64  N   UNL A   1      31.445  28.826  25.448  1.00  0.00    -0.356 N 
ATOM     65  C   UNL A   1      30.990  29.317  24.257  1.00  0.00     0.224 C 
ATOM     66  H   UNL A   1      31.047  28.001  25.810  1.00  0.00     0.163 HD
ATOM     67  O   UNL A   1      30.062  30.122  24.251  1.00  0.00    -0.275 OA
BRANCH  65  68
ATOM     68  C   UNL A   1      31.525  28.674  22.974  1.00  0.00     0.095 C 
ATOM     69  C   UNL A   1      33.066  28.691  22.856  1.00  0.00     0.041 C 
ATOM     70  C   UNL A   1      30.793  27.341  22.618  1.00  0.00     0.095 C 
ATOM     71  C   UNL A   1      33.712  27.536  22.163  1.00  0.00    -0.030 C 
ATOM     72  C   UNL A   1      31.609  26.181  22.013  1.00  0.00     0.041 C 
ATOM     73  C   UNL A   1      33.070  26.423  21.799  1.00  0.00    -0.030 C 
BRANCH  70  74
ATOM     74  C   UNL A   1      29.694  26.830  23.574  1.00  0.00     0.228 C 
ATOM     75  O   UNL A   1      28.569  27.348  23.501  1.00  0.00    -0.274 OA
ATOM     76  N   UNL A   1      29.800  25.809  24.473  1.00  0.00    -0.326 N 
ATOM     77  H   UNL A   1      28.945  25.612  24.921  1.00  0.00     0.169 HD
BRANCH  76  78
ATOM     78  C   UNL A   1      30.837  24.973  24.912  1.00  0.00     0.041 A 
ATOM     79  C   UNL A   1      30.967  23.685  24.376  1.00  0.00     0.027 A 
ATOM     80  C   UNL A   1      31.737  25.348  25.885  1.00  0.00     0.027 A 
ATOM     81  C   UNL A   1      31.981  22.815  24.828  1.00  0.00     0.024 A 
ATOM     82  C   UNL A   1      32.744  24.511  26.335  1.00  0.00     0.024 A 
ATOM     83  C   UNL A   1      32.876  23.238  25.817  1.00  0.00     0.082 A 
BRANCH  83  84
ATOM     84  S   UNL A   1      34.174  22.160  26.390  1.00  0.00     0.243 S 
ATOM     85  O   UNL A   1      34.403  22.501  27.773  1.00  0.00    -0.207 OA
ATOM     86  O   UNL A   1      33.782  20.822  25.987  1.00  0.00    -0.207 OA
BRANCH  84  87
ATOM     87  N   UNL A   1      35.568  22.566  25.534  1.00  0.00    -0.198 NA
ATOM     88  C   UNL A   1      36.570  21.553  25.179  1.00  0.00     0.102 C 
ATOM     89  C   UNL A   1      36.207  23.888  25.657  1.00  0.00     0.102 C 
ATOM     90  C   UNL A   1      37.864  22.100  25.751  1.00  0.00     0.018 C 
ATOM     91  C   UNL A   1      37.714  23.613  25.689  1.00  0.00     0.018 C 
ENDBRANCH  84  87
ENDBRANCH  83  84
ENDBRANCH  76  78
ENDBRANCH  70  74
ENDBRANCH  65  68
ENDBRANCH   1  64
TORSDOF 14
ENDMDL
MODEL 2
REMARK VINA RESULT:     -12.4      2.770      8.109
REMARK SMILES O=C(NCCCNC(=O)[C@H]1CC=CC[C@H]1C(=O)Nc1ccc(S(=O)(=O)N2CCCC2)cc1)c1ccc(-c2c3nc(c(-c4c(F)cccc4F)c4ccc([nH]4)c(-c4c(F)cccc4F)c4nc(c(-c5c(F)cccc5F)c5ccc2[nH]5)C=C4)C=C3)cc1
REMARK SMILES IDX 6 1 5 2 4 3 3 4 1 5 2 6 33 8 34 9 86 10 35 11 85 12 36 13
REMARK SMILES IDX 37 14 38 15 79 16 39 17 84 18 78 19 80 20 40 21 83 22 77 23
REMARK SMILES IDX 76 24 41 26 67 27 50 28 66 29 51 30 54 31 65 32 81 33 52 34
REMARK SMILES IDX 53 35 64 37 82 38 55 39 42 40 43 41 48 42 44 43 45 44 47 45
REMARK SMILES IDX 49 46 46 47 68 48 69 49 74 50 70 51 71 52 73 53 75 54 72 55
REMARK SMILES IDX 56 56 57 57 62 58 58 59 59 60 61 61 63 62 60 63 7 64 8 65
REMARK SMILES IDX 9 67 10 68 11 69 15 70 12 71 14 72 13 73 16 74 17 75 18 76
REMARK SMILES IDX 19 78 20 79 32 80 21 81 31 82 22 83 23 84 24 85 25 86 26 87
REMARK SMILES IDX 27 88 30 89 28 90 29 91
REMARK H PARENT 3 7 80 25 54 36 7 66 18 77
REMARK Flexibility Score: inf
ROOT
ATOM      1  C   UNL A   1      36.804  21.516  24.862  1.00  0.00     0.117 C 
ENDROOT
BRANCH   1   2
ATOM      2  C   UNL A   1      37.774  20.344  24.839  1.00  0.00     0.042 C 
BRANCH   2   3
ATOM      3  C   UNL A   1      38.710  20.305  26.039  1.00  0.00     0.118 C 
BRANCH   3   4
ATOM      4  N   UNL A   1      39.859  19.428  25.836  1.00  0.00    -0.352 N 
ATOM      5  O   UNL A   1      42.025  18.876  25.545  1.00  0.00    -0.269 OA
ATOM      6  C   UNL A   1      41.204  19.694  25.949  1.00  0.00     0.251 C 
ATOM      7  H   UNL A   1      39.637  18.503  25.580  1.00  0.00     0.163 HD
BRANCH   6   8
ATOM      8  C   UNL A   1      41.658  20.978  26.525  1.00  0.00     0.039 A 
ATOM      9  C   UNL A   1      41.697  21.161  27.907  1.00  0.00     0.014 A 
ATOM     10  C   UNL A   1      42.051  22.016  25.673  1.00  0.00     0.014 A 
ATOM     11  C   UNL A   1      41.931  22.425  28.430  1.00  0.00     0.010 A 
ATOM     12  C   UNL A   1      42.397  23.261  26.208  1.00  0.00     0.010 A 
ATOM     13  C   UNL A   1      42.299  23.487  27.589  1.00  0.00    -0.014 A 
BRANCH  13  14
ATOM     14  C   UNL A   1      42.630  24.801  28.193  1.00  0.00     0.031 A 
ATOM     15  C   UNL A   1      44.041  25.158  28.565  1.00  0.00     0.074 A 
ATOM     16  C   UNL A   1      41.638  25.698  28.363  1.00  0.00     0.049 A 
ATOM     17  N   UNL A   1      44.498  26.266  29.093  1.00  0.00    -0.248 NA
ATOM     18  C   UNL A   1      45.075  24.140  28.324  1.00  0.00     0.031 C 
ATOM     19  C   UNL A   1      40.228  25.463  28.039  1.00  0.00     0.029 A 
ATOM     20  N   UNL A   1      41.660  26.987  28.825  1.00  0.00    -0.354 N 
ATOM     21  C   UNL A   1      45.863  26.074  29.266  1.00  0.00     0.074 A 
ATOM     22  C   UNL A   1      46.159  24.733  28.806  1.00  0.00     0.031 C 
ATOM     23  C   UNL A   1      39.533  26.586  28.262  1.00  0.00     0.029 A 
ATOM     24  C   UNL A   1      40.429  27.595  28.810  1.00  0.00     0.049 A 
ATOM     25  H   UNL A   1      42.480  27.435  29.138  1.00  0.00     0.167 HD
ATOM     26  C   UNL A   1      46.782  26.941  29.756  1.00  0.00     0.037 A 
ATOM     27  C   UNL A   1      40.054  28.822  29.214  1.00  0.00     0.037 A 
ATOM     28  C   UNL A   1      46.483  28.281  30.190  1.00  0.00     0.049 A 
ATOM     29  C   UNL A   1      41.089  29.749  29.778  1.00  0.00     0.074 A 
ATOM     30  C   UNL A   1      47.352  29.246  30.671  1.00  0.00     0.029 A 
ATOM     31  N   UNL A   1      45.215  28.845  30.198  1.00  0.00    -0.354 N 
ATOM     32  N   UNL A   1      42.377  29.557  29.919  1.00  0.00    -0.248 NA
ATOM     33  C   UNL A   1      40.617  31.057  30.247  1.00  0.00     0.031 C 
ATOM     34  C   UNL A   1      46.603  30.380  31.009  1.00  0.00     0.029 A 
ATOM     35  C   UNL A   1      45.276  30.136  30.698  1.00  0.00     0.049 A 
ATOM     36  H   UNL A   1      44.395  28.395  29.893  1.00  0.00     0.167 HD
ATOM     37  C   UNL A   1      42.873  30.722  30.485  1.00  0.00     0.074 A 
ATOM     38  C   UNL A   1      41.750  31.623  30.640  1.00  0.00     0.031 C 
ATOM     39  C   UNL A   1      44.145  31.017  30.849  1.00  0.00     0.037 A 
BRANCH  26  40
ATOM     40  C   UNL A   1      48.201  26.462  29.869  1.00  0.00     0.057 A 
ATOM     41  C   UNL A   1      49.136  26.665  28.845  1.00  0.00     0.134 A 
ATOM     42  C   UNL A   1      48.651  25.837  31.039  1.00  0.00     0.134 A 
ATOM     43  F   UNL A   1      48.768  27.247  27.694  1.00  0.00    -0.206 F 
ATOM     44  C   UNL A   1      50.463  26.247  28.975  1.00  0.00     0.040 A 
ATOM     45  C   UNL A   1      49.981  25.435  31.189  1.00  0.00     0.040 A 
ATOM     46  F   UNL A   1      47.811  25.618  32.060  1.00  0.00    -0.206 F 
ATOM     47  C   UNL A   1      50.889  25.637  30.153  1.00  0.00     0.006 A 
ENDBRANCH  26  40
BRANCH  27  48
ATOM     48  C   UNL A   1      38.631  29.226  29.109  1.00  0.00     0.057 A 
ATOM     49  C   UNL A   1      37.784  29.189  30.222  1.00  0.00     0.134 A 
ATOM     50  C   UNL A   1      38.093  29.685  27.900  1.00  0.00     0.134 A 
ATOM     51  F   UNL A   1      38.239  28.745  31.403  1.00  0.00    -0.206 F 
ATOM     52  C   UNL A   1      36.450  29.586  30.135  1.00  0.00     0.040 A 
ATOM     53  C   UNL A   1      36.768  30.109  27.805  1.00  0.00     0.040 A 
ATOM     54  F   UNL A   1      38.857  29.751  26.801  1.00  0.00    -0.206 F 
ATOM     55  C   UNL A   1      35.940  30.055  28.925  1.00  0.00     0.006 A 
ENDBRANCH  27  48
BRANCH  39  56
ATOM     56  C   UNL A   1      44.383  32.376  31.433  1.00  0.00     0.057 A 
ATOM     57  C   UNL A   1      44.677  33.481  30.626  1.00  0.00     0.134 A 
ATOM     58  C   UNL A   1      44.297  32.584  32.816  1.00  0.00     0.134 A 
ATOM     59  F   UNL A   1      44.790  33.342  29.297  1.00  0.00    -0.206 F 
ATOM     60  C   UNL A   1      44.897  34.745  31.175  1.00  0.00     0.040 A 
ATOM     61  C   UNL A   1      44.492  33.848  33.374  1.00  0.00     0.040 A 
ATOM     62  F   UNL A   1      44.014  31.566  33.642  1.00  0.00    -0.206 F 
ATOM     63  C   UNL A   1      44.799  34.931  32.553  1.00  0.00     0.006 A 
ENDBRANCH  39  56
ENDBRANCH  13  14
ENDBRANCH   6   8
ENDBRANCH   3   4
ENDBRANCH   2   3
ENDBRANCH   1   2
BRANCH   1  64
ATOM     64  N   UNL A   1      35.476  21.178  24.377  1.00  0.00    -0.356 N 
ATOM     65  C   UNL A   1      34.716  20.212  24.977  1.00  0.00     0.224 C 
ATOM     66  H   UNL A   1      35.115  21.657  23.596  1.00  0.00     0.163 HD
ATOM     67  O   UNL A   1      34.812  19.048  24.598  1.00  0.00    -0.275 OA
BRANCH  65  68
ATOM     68  C   UNL A   1      33.626  20.671  25.950  1.00  0.00     0.095 C 
ATOM     69  C   UNL A   1      34.150  21.539  27.117  1.00  0.00     0.041 C 
ATOM     70  C   UNL A   1      32.332  21.153  25.222  1.00  0.00     0.095 C 
ATOM     71  C   UNL A   1      33.245  22.611  27.631  1.00  0.00    -0.030 C 
ATOM     72  C   UNL A   1      31.555  22.354  25.799  1.00  0.00     0.041 C 
ATOM     73  C   UNL A   1      32.104  22.978  27.043  1.00  0.00    -0.030 C 
BRANCH  70  74
ATOM     74  C   UNL A   1      32.314  21.149  23.678  1.00  0.00     0.228 C 
ATOM     75  O   UNL A   1      32.194  20.058  23.099  1.00  0.00    -0.274 OA
ATOM     76  N   UNL A   1      32.358  22.236  22.855  1.00  0.00    -0.326 N 
ATOM     77  H   UNL A   1      32.258  21.993  21.906  1.00  0.00     0.169 HD
BRANCH  76  78
ATOM     78  C   UNL A   1      32.511  23.618  23.039  1.00  0.00     0.041 A 
ATOM     79  C   UNL A   1      33.762  24.137  23.398  1.00  0.00     0.027 A 
ATOM     80  C   UNL A   1      31.469  24.509  22.911  1.00  0.00     0.027 A 
ATOM     81  C   UNL A   1      33.931  25.519  23.623  1.00  0.00     0.024 A 
ATOM     82  C   UNL A   1      31.618  25.869  23.120  1.00  0.00     0.024 A 
ATOM     83  C   UNL A   1      32.845  26.389  23.480  1.00  0.00     0.082 A 
BRANCH  83  84
ATOM     84  S   UNL A   1      33.042  28.141  23.743  1.00  0.00     0.243 S 
ATOM     85  O   UNL A   1      34.317  28.496  23.167  1.00  0.00    -0.207 OA
ATOM     86  O   UNL A   1      31.804  28.750  23.294  1.00  0.00    -0.207 OA
BRANCH  84  87
ATOM     87  N   UNL A   1      33.158  28.380  25.407  1.00  0.00    -0.198 NA
ATOM     88  C   UNL A   1      32.589  27.419  26.360  1.00  0.00     0.102 C 
ATOM     89  C   UNL A   1      33.190  29.727  26.005  1.00  0.00     0.102 C 
ATOM     90  C   UNL A   1      31.669  28.260  27.226  1.00  0.00     0.018 C 
ATOM     91  C   UNL A   1      32.310  29.640  27.257  1.00  0.00     0.018 C 
ENDBRANCH  84  87
ENDBRANCH  83  84
ENDBRANCH  76  78
ENDBRANCH  70  74
ENDBRANCH  65  68
ENDBRANCH   1  64
TORSDOF 14
ENDMDL
MODEL 3
REMARK VINA RESULT:     -12.4      2.752      7.885
REMARK SMILES O=C(NCCCNC(=O)[C@H]1CC=CC[C@H]1C(=O)Nc1ccc(S(=O)(=O)N2CCCC2)cc1)c1ccc(-c2c3nc(c(-c4c(F)cccc4F)c4ccc([nH]4)c(-c4c(F)cccc4F)c4nc(c(-c5c(F)cccc5F)c5ccc2[nH]5)C=C4)C=C3)cc1
REMARK SMILES IDX 6 1 5 2 4 3 3 4 1 5 2 6 33 8 34 9 86 10 35 11 85 12 36 13
REMARK SMILES IDX 37 14 38 15 79 16 39 17 84 18 78 19 80 20 40 21 83 22 77 23
REMARK SMILES IDX 76 24 41 26 67 27 50 28 66 29 51 30 54 31 65 32 81 33 52 34
REMARK SMILES IDX 53 35 64 37 82 38 55 39 42 40 43 41 48 42 44 43 45 44 47 45
REMARK SMILES IDX 49 46 46 47 68 48 69 49 74 50 70 51 71 52 73 53 75 54 72 55
REMARK SMILES IDX 56 56 57 57 62 58 58 59 59 60 61 61 63 62 60 63 7 64 8 65
REMARK SMILES IDX 9 67 10 68 11 69 15 70 12 71 14 72 13 73 16 74 17 75 18 76
REMARK SMILES IDX 19 78 20 79 32 80 21 81 31 82 22 83 23 84 24 85 25 86 26 87
REMARK SMILES IDX 27 88 30 89 28 90 29 91
REMARK H PARENT 3 7 80 25 54 36 7 66 18 77
REMARK Flexibility Score: inf
ROOT
ATOM      1  C   UNL A   1      36.819  21.534  24.814  1.00  0.00     0.117 C 
ENDROOT
BRANCH   1   2
ATOM      2  C   UNL A   1      37.777  20.352  24.823  1.00  0.00     0.042 C 
BRANCH   2   3
ATOM      3  C   UNL A   1      38.697  20.325  26.036  1.00  0.00     0.118 C 
BRANCH   3   4
ATOM      4  N   UNL A   1      39.841  19.434  25.862  1.00  0.00    -0.352 N 
ATOM      5  O   UNL A   1      42.004  18.858  25.598  1.00  0.00    -0.269 OA
ATOM      6  C   UNL A   1      41.188  19.693  25.976  1.00  0.00     0.251 C 
ATOM      7  H   UNL A   1      39.614  18.505  25.627  1.00  0.00     0.163 HD
BRANCH   6   8
ATOM      8  C   UNL A   1      41.648  20.987  26.523  1.00  0.00     0.039 A 
ATOM      9  C   UNL A   1      41.653  21.215  27.899  1.00  0.00     0.014 A 
ATOM     10  C   UNL A   1      42.081  21.990  25.649  1.00  0.00     0.014 A 
ATOM     11  C   UNL A   1      41.895  22.490  28.387  1.00  0.00     0.010 A 
ATOM     12  C   UNL A   1      42.434  23.246  26.153  1.00  0.00     0.010 A 
ATOM     13  C   UNL A   1      42.303  23.518  27.523  1.00  0.00    -0.014 A 
BRANCH  13  14
ATOM     14  C   UNL A   1      42.641  24.846  28.093  1.00  0.00     0.031 A 
ATOM     15  C   UNL A   1      41.582  25.883  28.341  1.00  0.00     0.074 A 
ATOM     16  C   UNL A   1      43.922  25.093  28.430  1.00  0.00     0.049 A 
ATOM     17  N   UNL A   1      41.710  27.087  28.840  1.00  0.00    -0.248 NA
ATOM     18  C   UNL A   1      40.201  25.531  27.974  1.00  0.00     0.031 C 
ATOM     19  C   UNL A   1      45.037  24.162  28.236  1.00  0.00     0.029 A 
ATOM     20  N   UNL A   1      44.501  26.183  29.025  1.00  0.00    -0.354 N 
ATOM     21  C   UNL A   1      40.437  27.643  28.829  1.00  0.00     0.074 A 
ATOM     22  C   UNL A   1      39.551  26.653  28.254  1.00  0.00     0.031 C 
ATOM     23  C   UNL A   1      46.152  24.698  28.750  1.00  0.00     0.029 A 
ATOM     24  C   UNL A   1      45.849  26.035  29.243  1.00  0.00     0.049 A 
ATOM     25  H   UNL A   1      44.000  26.994  29.272  1.00  0.00     0.167 HD
ATOM     26  C   UNL A   1      40.046  28.865  29.267  1.00  0.00     0.037 A 
ATOM     27  C   UNL A   1      46.749  26.888  29.764  1.00  0.00     0.037 A 
ATOM     28  C   UNL A   1      40.930  29.836  29.859  1.00  0.00     0.049 A 
ATOM     29  C   UNL A   1      46.292  28.243  30.213  1.00  0.00     0.074 A 
ATOM     30  C   UNL A   1      40.622  31.088  30.363  1.00  0.00     0.029 A 
ATOM     31  N   UNL A   1      42.296  29.663  30.025  1.00  0.00    -0.354 N 
ATOM     32  N   UNL A   1      45.082  28.746  30.211  1.00  0.00    -0.248 NA
ATOM     33  C   UNL A   1      47.325  29.151  30.728  1.00  0.00     0.031 C 
ATOM     34  C   UNL A   1      41.809  31.690  30.796  1.00  0.00     0.029 A 
ATOM     35  C   UNL A   1      42.849  30.796  30.601  1.00  0.00     0.049 A 
ATOM     36  H   UNL A   1      42.798  28.856  29.771  1.00  0.00     0.167 HD
ATOM     37  C   UNL A   1      45.204  30.026  30.731  1.00  0.00     0.074 A 
ATOM     38  C   UNL A   1      46.603  30.213  31.059  1.00  0.00     0.031 C 
ATOM     39  C   UNL A   1      44.245  30.965  30.916  1.00  0.00     0.037 A 
BRANCH  26  40
ATOM     40  C   UNL A   1      38.598  29.232  29.105  1.00  0.00     0.057 A 
ATOM     41  C   UNL A   1      37.702  29.205  30.181  1.00  0.00     0.134 A 
ATOM     42  C   UNL A   1      38.109  29.671  27.868  1.00  0.00     0.134 A 
ATOM     43  F   UNL A   1      38.103  28.785  31.390  1.00  0.00    -0.206 F 
ATOM     44  C   UNL A   1      36.365  29.584  30.027  1.00  0.00     0.040 A 
ATOM     45  C   UNL A   1      36.781  30.073  27.708  1.00  0.00     0.040 A 
ATOM     46  F   UNL A   1      38.915  29.728  26.799  1.00  0.00    -0.206 F 
ATOM     47  C   UNL A   1      35.905  30.026  28.789  1.00  0.00     0.006 A 
ENDBRANCH  26  40
BRANCH  27  48
ATOM     48  C   UNL A   1      48.172  26.481  29.866  1.00  0.00     0.057 A 
ATOM     49  C   UNL A   1      48.652  25.801  30.991  1.00  0.00     0.134 A 
ATOM     50  C   UNL A   1      49.078  26.739  28.830  1.00  0.00     0.134 A 
ATOM     51  F   UNL A   1      47.835  25.539  32.021  1.00  0.00    -0.206 F 
ATOM     52  C   UNL A   1      49.984  25.399  31.085  1.00  0.00     0.040 A 
ATOM     53  C   UNL A   1      50.406  26.320  28.899  1.00  0.00     0.040 A 
ATOM     54  F   UNL A   1      48.676  27.379  27.723  1.00  0.00    -0.206 F 
ATOM     55  C   UNL A   1      50.864  25.652  30.033  1.00  0.00     0.006 A 
ENDBRANCH  27  48
BRANCH  39  56
ATOM     56  C   UNL A   1      44.680  32.268  31.514  1.00  0.00     0.057 A 
ATOM     57  C   UNL A   1      45.072  33.349  30.715  1.00  0.00     0.134 A 
ATOM     58  C   UNL A   1      44.685  32.450  32.903  1.00  0.00     0.134 A 
ATOM     59  F   UNL A   1      45.104  33.231  29.379  1.00  0.00    -0.206 F 
ATOM     60  C   UNL A   1      45.474  34.561  31.277  1.00  0.00     0.040 A 
ATOM     61  C   UNL A   1      45.063  33.665  33.476  1.00  0.00     0.040 A 
ATOM     62  F   UNL A   1      44.315  31.455  33.722  1.00  0.00    -0.206 F 
ATOM     63  C   UNL A   1      45.465  34.722  32.662  1.00  0.00     0.006 A 
ENDBRANCH  39  56
ENDBRANCH  13  14
ENDBRANCH   6   8
ENDBRANCH   3   4
ENDBRANCH   2   3
ENDBRANCH   1   2
BRANCH   1  64
ATOM     64  N   UNL A   1      35.484  21.193  24.351  1.00  0.00    -0.356 N 
ATOM     65  C   UNL A   1      34.738  20.222  24.960  1.00  0.00     0.224 C 
ATOM     66  H   UNL A   1      35.108  21.674  23.579  1.00  0.00     0.163 HD
ATOM     67  O   UNL A   1      34.831  19.060  24.576  1.00  0.00    -0.275 OA
BRANCH  65  68
ATOM     68  C   UNL A   1      33.663  20.674  25.954  1.00  0.00     0.095 C 
ATOM     69  C   UNL A   1      34.202  21.548  27.109  1.00  0.00     0.041 C 
ATOM     70  C   UNL A   1      32.351  21.143  25.251  1.00  0.00     0.095 C 
ATOM     71  C   UNL A   1      33.299  22.614  27.638  1.00  0.00    -0.030 C 
ATOM     72  C   UNL A   1      31.575  22.339  25.840  1.00  0.00     0.041 C 
ATOM     73  C   UNL A   1      32.143  22.970  27.072  1.00  0.00    -0.030 C 
BRANCH  70  74
ATOM     74  C   UNL A   1      32.302  21.136  23.708  1.00  0.00     0.228 C 
ATOM     75  O   UNL A   1      32.169  20.044  23.133  1.00  0.00    -0.274 OA
ATOM     76  N   UNL A   1      32.332  22.222  22.881  1.00  0.00    -0.326 N 
ATOM     77  H   UNL A   1      32.214  21.976  21.935  1.00  0.00     0.169 HD
BRANCH  76  78
ATOM     78  C   UNL A   1      32.491  23.603  23.059  1.00  0.00     0.041 A 
ATOM     79  C   UNL A   1      33.749  24.121  23.397  1.00  0.00     0.027 A 
ATOM     80  C   UNL A   1      31.449  24.496  22.946  1.00  0.00     0.027 A 
ATOM     81  C   UNL A   1      33.925  25.503  23.616  1.00  0.00     0.024 A 
ATOM     82  C   UNL A   1      31.604  25.856  23.149  1.00  0.00     0.024 A 
ATOM     83  C   UNL A   1      32.838  26.375  23.487  1.00  0.00     0.082 A 
BRANCH  83  84
ATOM     84  S   UNL A   1      33.043  28.127  23.743  1.00  0.00     0.243 S 
ATOM     85  O   UNL A   1      34.312  28.476  23.150  1.00  0.00    -0.207 OA
ATOM     86  O   UNL A   1      31.801  28.737  23.307  1.00  0.00    -0.207 OA
BRANCH  84  87
ATOM     87  N   UNL A   1      33.179  28.371  25.405  1.00  0.00    -0.198 NA
ATOM     88  C   UNL A   1      32.629  27.409  26.368  1.00  0.00     0.102 C 
ATOM     89  C   UNL A   1      33.212  29.719  25.999  1.00  0.00     0.102 C 
ATOM     90  C   UNL A   1      31.716  28.246  27.243  1.00  0.00     0.018 C 
ATOM     91  C   UNL A   1      32.350  29.630  27.263  1.00  0.00     0.018 C 
ENDBRANCH  84  87
ENDBRANCH  83  84
ENDBRANCH  76  78
ENDBRANCH  70  74
ENDBRANCH  65  68
ENDBRANCH   1  64
TORSDOF 14
ENDMDL
