MODEL 1
REMARK VINA RESULT:     -12.5      0.000      0.000
REMARK SMILES CCN1C(=O)[C@H](CC(=O)Nc2ccc(C(=O)NCCCNC(=O)c3ccc(-c4c5nc(c(-c6c(F)cccc6F)c6ccc([nH]6)c(-c6c(F)cccc6F)c6nc(c(-c7c(F)cccc7F)c7ccc4[nH]7)C=C6)C=C5)cc3)cc2)S/C1=[NH+]\c1ccc(Cl)cc1
REMARK SMILES IDX 18 1 17 2 15 3 16 4 14 6 11 7 12 8 79 9 13 10 78 11 10 12
REMARK SMILES IDX 8 13 9 14 7 16 6 17 3 18 4 19 81 20 5 21 80 22 82 23 2 25
REMARK SMILES IDX 1 26 83 27 84 28 89 29 85 30 88 31 86 32 87 33 19 34 20 35
REMARK SMILES IDX 21 36 22 37 23 39 24 40 25 41 77 42 26 43 76 44 27 45 28 46
REMARK SMILES IDX 29 47 70 48 30 49 75 50 69 51 71 52 31 53 74 54 68 55 67 56
REMARK SMILES IDX 32 58 58 59 41 60 57 61 42 62 45 63 56 64 72 65 43 66 44 67
REMARK SMILES IDX 55 69 73 70 46 71 33 72 34 73 39 74 35 75 36 76 38 77 40 78
REMARK SMILES IDX 37 79 59 80 60 81 65 82 61 83 62 84 64 85 66 86 63 87 47 88
REMARK SMILES IDX 48 89 53 90 49 91 50 92 52 93 54 94 51 95
REMARK H PARENT 17 5 10 15 82 24 21 38 71 57 45 68
REMARK Flexibility Score: inf
ROOT
ATOM      1  C   UNL A   1      36.288  19.970  24.804  1.00  0.00     0.118 C 
ENDROOT
BRANCH   1   2
ATOM      2  N   UNL A   1      35.813  20.669  26.003  1.00  0.00    -0.352 N 
ATOM      3  C   UNL A   1      35.000  21.747  26.289  1.00  0.00     0.251 C 
ATOM      4  O   UNL A   1      34.509  21.793  27.419  1.00  0.00    -0.269 OA
ATOM      5  H   UNL A   1      36.169  20.259  26.823  1.00  0.00     0.163 HD
BRANCH   3   6
ATOM      6  C   UNL A   1      34.653  22.858  25.365  1.00  0.00     0.039 A 
ATOM      7  C   UNL A   1      34.015  24.924  23.513  1.00  0.00     0.041 A 
ATOM      8  C   UNL A   1      33.788  23.589  23.183  1.00  0.00     0.027 A 
ATOM      9  C   UNL A   1      34.341  25.213  24.840  1.00  0.00     0.027 A 
ATOM     10  C   UNL A   1      34.122  22.564  24.095  1.00  0.00     0.016 A 
ATOM     11  C   UNL A   1      34.651  24.190  25.767  1.00  0.00     0.016 A 
BRANCH   7  12
ATOM     12  N   UNL A   1      33.768  25.941  22.565  1.00  0.00    -0.326 N 
ATOM     13  C   UNL A   1      32.728  26.054  21.659  1.00  0.00     0.226 C 
ATOM     14  O   UNL A   1      32.945  26.488  20.526  1.00  0.00    -0.275 OA
ATOM     15  H   UNL A   1      34.427  26.672  22.546  1.00  0.00     0.169 HD
BRANCH  13  16
ATOM     16  C   UNL A   1      31.286  25.916  22.162  1.00  0.00     0.128 C 
BRANCH  16  17
ATOM     17  C   UNL A   1      30.649  27.227  22.650  1.00  0.00     0.183 C 
ATOM     18  N   UNL A   1      30.375  26.706  24.905  1.00  0.00    -0.190 N 
ATOM     19  C   UNL A   1      29.685  26.839  23.733  1.00  0.00     0.324 C 
ATOM     20  C   UNL A   1      31.376  27.597  25.120  1.00  0.00     0.319 C 
ATOM     21  O   UNL A   1      28.488  26.638  23.562  1.00  0.00    -0.245 OA
ATOM     22  S   UNL A   1      31.841  28.318  23.616  1.00  0.00    -0.022 SA
ATOM     23  N   UNL A   1      31.779  27.710  26.330  1.00  0.00    -0.235 N 
ATOM     24  H   UNL A   1      31.406  27.050  26.958  1.00  0.00     0.313 HD
BRANCH  18  25
ATOM     25  C   UNL A   1      30.135  25.681  25.883  1.00  0.00     0.243 C 
ATOM     26  C   UNL A   1      30.754  24.377  25.351  1.00  0.00     0.054 C 
ENDBRANCH  18  25
BRANCH  23  27
ATOM     27  C   UNL A   1      32.655  28.615  26.887  1.00  0.00     0.125 A 
ATOM     28  C   UNL A   1      32.196  29.925  27.064  1.00  0.00     0.053 A 
ATOM     29  C   UNL A   1      34.022  28.350  26.933  1.00  0.00     0.053 A 
ATOM     30  C   UNL A   1      33.092  30.959  27.327  1.00  0.00     0.025 A 
ATOM     31  C   UNL A   1      34.923  29.381  27.199  1.00  0.00     0.025 A 
ATOM     32  C   UNL A   1      34.454  30.679  27.398  1.00  0.00     0.041 A 
ATOM     33  Cl  UNL A   1      35.570  31.953  27.696  1.00  0.00    -0.084 Cl
ENDBRANCH  23  27
ENDBRANCH  16  17
ENDBRANCH  13  16
ENDBRANCH   7  12
ENDBRANCH   3   6
ENDBRANCH   1   2
BRANCH   1  34
ATOM     34  C   UNL A   1      37.805  19.965  24.626  1.00  0.00     0.042 C 
BRANCH  34  35
ATOM     35  C   UNL A   1      38.586  19.770  25.926  1.00  0.00     0.118 C 
BRANCH  35  36
ATOM     36  N   UNL A   1      39.863  19.069  25.805  1.00  0.00    -0.352 N 
ATOM     37  C   UNL A   1      41.138  19.529  26.086  1.00  0.00     0.251 C 
ATOM     38  H   UNL A   1      39.807  18.142  25.478  1.00  0.00     0.163 HD
ATOM     39  O   UNL A   1      42.107  18.796  25.906  1.00  0.00    -0.269 OA
BRANCH  37  40
ATOM     40  C   UNL A   1      41.350  20.922  26.555  1.00  0.00     0.039 A 
ATOM     41  C   UNL A   1      42.063  21.145  27.739  1.00  0.00     0.014 A 
ATOM     42  C   UNL A   1      40.892  22.010  25.812  1.00  0.00     0.014 A 
ATOM     43  C   UNL A   1      42.414  22.450  28.106  1.00  0.00     0.010 A 
ATOM     44  C   UNL A   1      41.327  23.294  26.121  1.00  0.00     0.010 A 
ATOM     45  C   UNL A   1      42.105  23.531  27.265  1.00  0.00    -0.014 A 
BRANCH  45  46
ATOM     46  C   UNL A   1      42.594  24.909  27.537  1.00  0.00     0.031 A 
ATOM     47  C   UNL A   1      41.710  25.899  28.246  1.00  0.00     0.074 A 
ATOM     48  C   UNL A   1      43.792  25.302  27.054  1.00  0.00     0.049 A 
ATOM     49  N   UNL A   1      41.904  27.176  28.465  1.00  0.00    -0.248 NA
ATOM     50  C   UNL A   1      40.420  25.396  28.743  1.00  0.00     0.031 C 
ATOM     51  C   UNL A   1      44.721  24.457  26.303  1.00  0.00     0.029 A 
ATOM     52  N   UNL A   1      44.426  26.519  27.109  1.00  0.00    -0.354 N 
ATOM     53  C   UNL A   1      40.756  27.626  29.107  1.00  0.00     0.074 A 
ATOM     54  C   UNL A   1      39.847  26.505  29.185  1.00  0.00     0.031 C 
ATOM     55  C   UNL A   1      45.813  25.172  25.988  1.00  0.00     0.029 A 
ATOM     56  C   UNL A   1      45.643  26.538  26.471  1.00  0.00     0.049 A 
ATOM     57  H   UNL A   1      44.043  27.305  27.563  1.00  0.00     0.167 HD
ATOM     58  C   UNL A   1      40.493  28.857  29.609  1.00  0.00     0.037 A 
ATOM     59  C   UNL A   1      46.518  27.545  26.282  1.00  0.00     0.037 A 
ATOM     60  C   UNL A   1      41.412  29.964  29.549  1.00  0.00     0.049 A 
ATOM     61  C   UNL A   1      46.196  28.908  26.832  1.00  0.00     0.074 A 
ATOM     62  C   UNL A   1      41.268  31.232  30.083  1.00  0.00     0.029 A 
ATOM     63  N   UNL A   1      42.643  29.936  28.910  1.00  0.00    -0.354 N 
ATOM     64  N   UNL A   1      45.139  29.300  27.502  1.00  0.00    -0.248 NA
ATOM     65  C   UNL A   1      47.187  29.968  26.602  1.00  0.00     0.031 C 
ATOM     66  C   UNL A   1      42.387  31.989  29.720  1.00  0.00     0.029 A 
ATOM     67  C   UNL A   1      43.255  31.175  29.011  1.00  0.00     0.049 A 
ATOM     68  H   UNL A   1      43.024  29.153  28.453  1.00  0.00     0.167 HD
ATOM     69  C   UNL A   1      45.351  30.641  27.797  1.00  0.00     0.074 A 
ATOM     70  C   UNL A   1      46.644  30.990  27.248  1.00  0.00     0.031 C 
ATOM     71  C   UNL A   1      44.547  31.505  28.463  1.00  0.00     0.037 A 
BRANCH  58  72
ATOM     72  C   UNL A   1      39.160  29.069  30.269  1.00  0.00     0.057 A 
ATOM     73  C   UNL A   1      38.046  29.535  29.557  1.00  0.00     0.134 A 
ATOM     74  C   UNL A   1      38.979  28.773  31.626  1.00  0.00     0.134 A 
ATOM     75  F   UNL A   1      38.153  29.847  28.256  1.00  0.00    -0.206 F 
ATOM     76  C   UNL A   1      36.810  29.729  30.176  1.00  0.00     0.040 A 
ATOM     77  C   UNL A   1      37.739  28.933  32.249  1.00  0.00     0.040 A 
ATOM     78  F   UNL A   1      39.999  28.316  32.367  1.00  0.00    -0.206 F 
ATOM     79  C   UNL A   1      36.654  29.421  31.526  1.00  0.00     0.006 A 
ENDBRANCH  58  72
BRANCH  59  80
ATOM     80  C   UNL A   1      47.789  27.304  25.549  1.00  0.00     0.057 A 
ATOM     81  C   UNL A   1      47.868  27.486  24.162  1.00  0.00     0.134 A 
ATOM     82  C   UNL A   1      48.949  26.880  26.207  1.00  0.00     0.134 A 
ATOM     83  F   UNL A   1      46.786  27.872  23.469  1.00  0.00    -0.206 F 
ATOM     84  C   UNL A   1      49.045  27.233  23.456  1.00  0.00     0.040 A 
ATOM     85  C   UNL A   1      50.142  26.652  25.518  1.00  0.00     0.040 A 
ATOM     86  F   UNL A   1      48.944  26.694  27.535  1.00  0.00    -0.206 F 
ATOM     87  C   UNL A   1      50.189  26.820  24.136  1.00  0.00     0.006 A 
ENDBRANCH  59  80
BRANCH  71  88
ATOM     88  C   UNL A   1      45.053  32.904  28.663  1.00  0.00     0.057 A 
ATOM     89  C   UNL A   1      45.869  33.250  29.747  1.00  0.00     0.134 A 
ATOM     90  C   UNL A   1      44.761  33.906  27.727  1.00  0.00     0.134 A 
ATOM     91  F   UNL A   1      46.176  32.341  30.684  1.00  0.00    -0.206 F 
ATOM     92  C   UNL A   1      46.359  34.548  29.904  1.00  0.00     0.040 A 
ATOM     93  C   UNL A   1      45.271  35.198  27.858  1.00  0.00     0.040 A 
ATOM     94  F   UNL A   1      43.993  33.639  26.660  1.00  0.00    -0.206 F 
ATOM     95  C   UNL A   1      46.068  35.523  28.953  1.00  0.00     0.006 A 
ENDBRANCH  71  88
ENDBRANCH  45  46
ENDBRANCH  37  40
ENDBRANCH  35  36
ENDBRANCH  34  35
ENDBRANCH   1  34
TORSDOF 15
ENDMDL
MODEL 2
REMARK VINA RESULT:     -12.3      1.195      1.940
REMARK SMILES CCN1C(=O)[C@H](CC(=O)Nc2ccc(C(=O)NCCCNC(=O)c3ccc(-c4c5nc(c(-c6c(F)cccc6F)c6ccc([nH]6)c(-c6c(F)cccc6F)c6nc(c(-c7c(F)cccc7F)c7ccc4[nH]7)C=C6)C=C5)cc3)cc2)S/C1=[NH+]\c1ccc(Cl)cc1
REMARK SMILES IDX 18 1 17 2 15 3 16 4 14 6 11 7 12 8 79 9 13 10 78 11 10 12
REMARK SMILES IDX 8 13 9 14 7 16 6 17 3 18 4 19 81 20 5 21 80 22 82 23 2 25
REMARK SMILES IDX 1 26 83 27 84 28 89 29 85 30 88 31 86 32 87 33 19 34 20 35
REMARK SMILES IDX 21 36 22 37 23 39 24 40 25 41 77 42 26 43 76 44 27 45 28 46
REMARK SMILES IDX 29 47 70 48 30 49 75 50 69 51 71 52 31 53 74 54 68 55 67 56
REMARK SMILES IDX 32 58 58 59 41 60 57 61 42 62 45 63 56 64 72 65 43 66 44 67
REMARK SMILES IDX 55 69 73 70 46 71 33 72 34 73 39 74 35 75 36 76 38 77 40 78
REMARK SMILES IDX 37 79 59 80 60 81 65 82 61 83 62 84 64 85 66 86 63 87 47 88
REMARK SMILES IDX 48 89 53 90 49 91 50 92 52 93 54 94 51 95
REMARK H PARENT 17 5 10 15 82 24 21 38 71 57 45 68
REMARK Flexibility Score: inf
ROOT
ATOM      1  C   UNL A   1      36.907  20.323  25.029  1.00  0.00     0.118 C 
ENDROOT
BRANCH   1   2
ATOM      2  N   UNL A   1      36.052  20.806  26.119  1.00  0.00    -0.352 N 
ATOM      3  C   UNL A   1      34.994  21.680  26.262  1.00  0.00     0.251 C 
ATOM      4  O   UNL A   1      34.273  21.528  27.251  1.00  0.00    -0.269 OA
ATOM      5  H   UNL A   1      36.300  20.397  26.979  1.00  0.00     0.163 HD
BRANCH   3   6
ATOM      6  C   UNL A   1      34.634  22.786  25.337  1.00  0.00     0.039 A 
ATOM      7  C   UNL A   1      33.970  24.843  23.484  1.00  0.00     0.041 A 
ATOM      8  C   UNL A   1      33.741  23.506  23.163  1.00  0.00     0.027 A 
ATOM      9  C   UNL A   1      34.313  25.139  24.804  1.00  0.00     0.027 A 
ATOM     10  C   UNL A   1      34.088  22.486  24.076  1.00  0.00     0.016 A 
ATOM     11  C   UNL A   1      34.635  24.121  25.732  1.00  0.00     0.016 A 
BRANCH   7  12
ATOM     12  N   UNL A   1      33.710  25.855  22.534  1.00  0.00    -0.326 N 
ATOM     13  C   UNL A   1      32.665  25.956  21.632  1.00  0.00     0.226 C 
ATOM     14  O   UNL A   1      32.873  26.389  20.498  1.00  0.00    -0.275 OA
ATOM     15  H   UNL A   1      34.362  26.592  22.510  1.00  0.00     0.169 HD
BRANCH  13  16
ATOM     16  C   UNL A   1      31.226  25.807  22.142  1.00  0.00     0.128 C 
BRANCH  16  17
ATOM     17  C   UNL A   1      30.570  27.118  22.603  1.00  0.00     0.183 C 
ATOM     18  N   UNL A   1      30.277  26.629  24.862  1.00  0.00    -0.190 N 
ATOM     19  C   UNL A   1      29.599  26.737  23.681  1.00  0.00     0.324 C 
ATOM     20  C   UNL A   1      31.266  27.533  25.075  1.00  0.00     0.319 C 
ATOM     21  O   UNL A   1      28.406  26.520  23.501  1.00  0.00    -0.245 OA
ATOM     22  S   UNL A   1      31.740  28.236  23.566  1.00  0.00    -0.022 SA
ATOM     23  N   UNL A   1      31.655  27.669  26.288  1.00  0.00    -0.235 N 
ATOM     24  H   UNL A   1      31.282  27.015  26.921  1.00  0.00     0.313 HD
BRANCH  18  25
ATOM     25  C   UNL A   1      30.037  25.615  25.854  1.00  0.00     0.243 C 
ATOM     26  C   UNL A   1      30.822  24.361  25.435  1.00  0.00     0.054 C 
ENDBRANCH  18  25
BRANCH  23  27
ATOM     27  C   UNL A   1      32.514  28.591  26.840  1.00  0.00     0.125 A 
ATOM     28  C   UNL A   1      32.036  29.896  27.003  1.00  0.00     0.053 A 
ATOM     29  C   UNL A   1      33.885  28.347  26.895  1.00  0.00     0.053 A 
ATOM     30  C   UNL A   1      32.915  30.945  27.261  1.00  0.00     0.025 A 
ATOM     31  C   UNL A   1      34.770  29.393  27.155  1.00  0.00     0.025 A 
ATOM     32  C   UNL A   1      34.281  30.686  27.341  1.00  0.00     0.041 A 
ATOM     33  Cl  UNL A   1      35.377  31.978  27.633  1.00  0.00    -0.084 Cl
ENDBRANCH  23  27
ENDBRANCH  16  17
ENDBRANCH  13  16
ENDBRANCH   7  12
ENDBRANCH   3   6
ENDBRANCH   1   2
BRANCH   1  34
ATOM     34  C   UNL A   1      38.279  20.989  24.949  1.00  0.00     0.042 C 
BRANCH  34  35
ATOM     35  C   UNL A   1      39.191  20.682  26.137  1.00  0.00     0.118 C 
BRANCH  35  36
ATOM     36  N   UNL A   1      40.051  19.509  25.995  1.00  0.00    -0.352 N 
ATOM     37  C   UNL A   1      41.426  19.416  26.129  1.00  0.00     0.251 C 
ATOM     38  H   UNL A   1      39.588  18.669  25.774  1.00  0.00     0.163 HD
ATOM     39  O   UNL A   1      41.988  18.338  25.956  1.00  0.00    -0.269 OA
BRANCH  37  40
ATOM     40  C   UNL A   1      42.237  20.624  26.430  1.00  0.00     0.039 A 
ATOM     41  C   UNL A   1      42.782  21.364  25.375  1.00  0.00     0.014 A 
ATOM     42  C   UNL A   1      42.422  21.057  27.743  1.00  0.00     0.014 A 
ATOM     43  C   UNL A   1      43.405  22.591  25.632  1.00  0.00     0.010 A 
ATOM     44  C   UNL A   1      42.948  22.322  27.989  1.00  0.00     0.010 A 
ATOM     45  C   UNL A   1      43.435  23.111  26.936  1.00  0.00    -0.014 A 
BRANCH  45  46
ATOM     46  C   UNL A   1      43.944  24.478  27.230  1.00  0.00     0.031 A 
ATOM     47  C   UNL A   1      42.993  25.561  27.663  1.00  0.00     0.074 A 
ATOM     48  C   UNL A   1      45.242  24.772  27.007  1.00  0.00     0.049 A 
ATOM     49  N   UNL A   1      43.219  26.839  27.846  1.00  0.00    -0.248 NA
ATOM     50  C   UNL A   1      41.594  25.163  27.886  1.00  0.00     0.031 C 
ATOM     51  C   UNL A   1      46.255  23.827  26.534  1.00  0.00     0.029 A 
ATOM     52  N   UNL A   1      45.928  25.955  27.132  1.00  0.00    -0.354 N 
ATOM     53  C   UNL A   1      41.991  27.394  28.185  1.00  0.00     0.074 A 
ATOM     54  C   UNL A   1      41.014  26.330  28.122  1.00  0.00     0.031 C 
ATOM     55  C   UNL A   1      47.436  24.460  26.433  1.00  0.00     0.029 A 
ATOM     56  C   UNL A   1      47.255  25.863  26.784  1.00  0.00     0.049 A 
ATOM     57  H   UNL A   1      45.508  26.790  27.442  1.00  0.00     0.167 HD
ATOM     58  C   UNL A   1      41.707  28.669  28.543  1.00  0.00     0.037 A 
ATOM     59  C   UNL A   1      48.215  26.807  26.739  1.00  0.00     0.037 A 
ATOM     60  C   UNL A   1      42.688  29.720  28.627  1.00  0.00     0.049 A 
ATOM     61  C   UNL A   1      47.872  28.222  27.122  1.00  0.00     0.074 A 
ATOM     62  C   UNL A   1      42.516  31.028  29.041  1.00  0.00     0.029 A 
ATOM     63  N   UNL A   1      44.025  29.581  28.284  1.00  0.00    -0.354 N 
ATOM     64  N   UNL A   1      46.723  28.716  27.513  1.00  0.00    -0.248 NA
ATOM     65  C   UNL A   1      48.959  29.209  27.060  1.00  0.00     0.031 C 
ATOM     66  C   UNL A   1      43.735  31.697  28.895  1.00  0.00     0.029 A 
ATOM     67  C   UNL A   1      44.682  30.790  28.448  1.00  0.00     0.049 A 
ATOM     68  H   UNL A   1      44.445  28.748  27.970  1.00  0.00     0.167 HD
ATOM     69  C   UNL A   1      46.954  30.061  27.769  1.00  0.00     0.074 A 
ATOM     70  C   UNL A   1      48.356  30.302  27.505  1.00  0.00     0.031 C 
ATOM     71  C   UNL A   1      46.082  31.012  28.186  1.00  0.00     0.037 A 
BRANCH  58  72
ATOM     72  C   UNL A   1      40.279  28.998  28.873  1.00  0.00     0.057 A 
ATOM     73  C   UNL A   1      39.810  29.022  30.194  1.00  0.00     0.134 A 
ATOM     74  C   UNL A   1      39.367  29.326  27.861  1.00  0.00     0.134 A 
ATOM     75  F   UNL A   1      40.627  28.708  31.211  1.00  0.00    -0.206 F 
ATOM     76  C   UNL A   1      38.481  29.329  30.494  1.00  0.00     0.040 A 
ATOM     77  C   UNL A   1      38.044  29.665  28.151  1.00  0.00     0.040 A 
ATOM     78  F   UNL A   1      39.748  29.330  26.575  1.00  0.00    -0.206 F 
ATOM     79  C   UNL A   1      37.596  29.658  29.470  1.00  0.00     0.006 A 
ENDBRANCH  58  72
BRANCH  59  80
ATOM     80  C   UNL A   1      49.598  26.448  26.325  1.00  0.00     0.057 A 
ATOM     81  C   UNL A   1      50.504  25.894  27.239  1.00  0.00     0.134 A 
ATOM     82  C   UNL A   1      50.052  26.655  25.018  1.00  0.00     0.134 A 
ATOM     83  F   UNL A   1      50.137  25.689  28.513  1.00  0.00    -0.206 F 
ATOM     84  C   UNL A   1      51.815  25.582  26.873  1.00  0.00     0.040 A 
ATOM     85  C   UNL A   1      51.351  26.320  24.630  1.00  0.00     0.040 A 
ATOM     86  F   UNL A   1      49.234  27.175  24.091  1.00  0.00    -0.206 F 
ATOM     87  C   UNL A   1      52.240  25.790  25.563  1.00  0.00     0.006 A 
ENDBRANCH  59  80
BRANCH  71  88
ATOM     88  C   UNL A   1      46.624  32.393  28.413  1.00  0.00     0.057 A 
ATOM     89  C   UNL A   1      47.173  32.782  29.641  1.00  0.00     0.134 A 
ATOM     90  C   UNL A   1      46.644  33.329  27.369  1.00  0.00     0.134 A 
ATOM     91  F   UNL A   1      47.174  31.938  30.683  1.00  0.00    -0.206 F 
ATOM     92  C   UNL A   1      47.703  34.060  29.829  1.00  0.00     0.040 A 
ATOM     93  C   UNL A   1      47.200  34.598  27.537  1.00  0.00     0.040 A 
ATOM     94  F   UNL A   1      46.144  33.017  26.164  1.00  0.00    -0.206 F 
ATOM     95  C   UNL A   1      47.725  34.968  28.773  1.00  0.00     0.006 A 
ENDBRANCH  71  88
ENDBRANCH  45  46
ENDBRANCH  37  40
ENDBRANCH  35  36
ENDBRANCH  34  35
ENDBRANCH   1  34
TORSDOF 15
ENDMDL
MODEL 3
REMARK VINA RESULT:     -12.3      4.892      9.603
REMARK SMILES CCN1C(=O)[C@H](CC(=O)Nc2ccc(C(=O)NCCCNC(=O)c3ccc(-c4c5nc(c(-c6c(F)cccc6F)c6ccc([nH]6)c(-c6c(F)cccc6F)c6nc(c(-c7c(F)cccc7F)c7ccc4[nH]7)C=C6)C=C5)cc3)cc2)S/C1=[NH+]\c1ccc(Cl)cc1
REMARK SMILES IDX 18 1 17 2 15 3 16 4 14 6 11 7 12 8 79 9 13 10 78 11 10 12
REMARK SMILES IDX 8 13 9 14 7 16 6 17 3 18 4 19 81 20 5 21 80 22 82 23 2 25
REMARK SMILES IDX 1 26 83 27 84 28 89 29 85 30 88 31 86 32 87 33 19 34 20 35
REMARK SMILES IDX 21 36 22 37 23 39 24 40 25 41 77 42 26 43 76 44 27 45 28 46
REMARK SMILES IDX 29 47 70 48 30 49 75 50 69 51 71 52 31 53 74 54 68 55 67 56
REMARK SMILES IDX 32 58 58 59 41 60 57 61 42 62 45 63 56 64 72 65 43 66 44 67
REMARK SMILES IDX 55 69 73 70 46 71 33 72 34 73 39 74 35 75 36 76 38 77 40 78
REMARK SMILES IDX 37 79 59 80 60 81 65 82 61 83 62 84 64 85 66 86 63 87 47 88
REMARK SMILES IDX 48 89 53 90 49 91 50 92 52 93 54 94 51 95
REMARK H PARENT 17 5 10 15 82 24 21 38 71 57 45 68
REMARK Flexibility Score: inf
ROOT
ATOM      1  C   UNL A   1      31.839  30.797  26.395  1.00  0.00     0.118 C 
ENDROOT
BRANCH   1   2
ATOM      2  N   UNL A   1      31.626  30.382  25.003  1.00  0.00    -0.352 N 
ATOM      3  C   UNL A   1      31.074  29.303  24.344  1.00  0.00     0.251 C 
ATOM      4  O   UNL A   1      30.711  29.486  23.180  1.00  0.00    -0.269 OA
ATOM      5  H   UNL A   1      31.970  31.053  24.371  1.00  0.00     0.163 HD
BRANCH   3   6
ATOM      6  C   UNL A   1      30.870  27.941  24.901  1.00  0.00     0.039 A 
ATOM      7  C   UNL A   1      30.381  25.331  25.929  1.00  0.00     0.041 A 
ATOM      8  C   UNL A   1      29.819  25.727  24.717  1.00  0.00     0.027 A 
ATOM      9  C   UNL A   1      31.354  26.161  26.488  1.00  0.00     0.027 A 
ATOM     10  C   UNL A   1      30.047  27.027  24.217  1.00  0.00     0.016 A 
ATOM     11  C   UNL A   1      31.608  27.456  25.977  1.00  0.00     0.016 A 
BRANCH   7  12
ATOM     12  N   UNL A   1      30.076  24.064  26.473  1.00  0.00    -0.326 N 
ATOM     13  C   UNL A   1      30.626  22.830  26.170  1.00  0.00     0.226 C 
ATOM     14  O   UNL A   1      29.907  21.831  26.127  1.00  0.00    -0.275 OA
ATOM     15  H   UNL A   1      29.374  24.056  27.163  1.00  0.00     0.169 HD
BRANCH  13  16
ATOM     16  C   UNL A   1      32.152  22.675  26.183  1.00  0.00     0.128 C 
BRANCH  16  17
ATOM     17  C   UNL A   1      32.679  21.460  25.404  1.00  0.00     0.183 C 
ATOM     18  N   UNL A   1      34.378  22.491  24.186  1.00  0.00    -0.190 N 
ATOM     19  C   UNL A   1      33.115  21.984  24.067  1.00  0.00     0.324 C 
ATOM     20  C   UNL A   1      35.225  21.813  25.002  1.00  0.00     0.319 C 
ATOM     21  O   UNL A   1      32.419  21.987  23.058  1.00  0.00    -0.245 OA
ATOM     22  S   UNL A   1      34.313  20.801  26.070  1.00  0.00    -0.022 SA
ATOM     23  N   UNL A   1      36.473  22.057  24.847  1.00  0.00    -0.235 N 
ATOM     24  H   UNL A   1      36.680  22.802  24.238  1.00  0.00     0.313 HD
BRANCH  18  25
ATOM     25  C   UNL A   1      34.842  23.692  23.546  1.00  0.00     0.243 C 
ATOM     26  C   UNL A   1      34.026  24.866  24.112  1.00  0.00     0.054 C 
ENDBRANCH  18  25
BRANCH  23  27
ATOM     27  C   UNL A   1      37.568  21.436  25.403  1.00  0.00     0.125 A 
ATOM     28  C   UNL A   1      38.520  22.252  26.025  1.00  0.00     0.053 A 
ATOM     29  C   UNL A   1      37.902  20.129  25.054  1.00  0.00     0.053 A 
ATOM     30  C   UNL A   1      39.784  21.754  26.336  1.00  0.00     0.025 A 
ATOM     31  C   UNL A   1      39.165  19.625  25.366  1.00  0.00     0.025 A 
ATOM     32  C   UNL A   1      40.098  20.438  26.008  1.00  0.00     0.041 A 
ATOM     33  Cl  UNL A   1      41.663  19.822  26.364  1.00  0.00    -0.084 Cl
ENDBRANCH  23  27
ENDBRANCH  16  17
ENDBRANCH  13  16
ENDBRANCH   7  12
ENDBRANCH   3   6
ENDBRANCH   1   2
BRANCH   1  34
ATOM     34  C   UNL A   1      31.507  32.259  26.684  1.00  0.00     0.042 C 
BRANCH  34  35
ATOM     35  C   UNL A   1      32.585  32.999  27.477  1.00  0.00     0.118 C 
BRANCH  35  36
ATOM     36  N   UNL A   1      32.294  34.395  27.800  1.00  0.00    -0.352 N 
ATOM     37  C   UNL A   1      32.952  35.240  28.678  1.00  0.00     0.251 C 
ATOM     38  H   UNL A   1      31.524  34.787  27.329  1.00  0.00     0.163 HD
ATOM     39  O   UNL A   1      32.552  36.390  28.837  1.00  0.00    -0.269 OA
BRANCH  37  40
ATOM     40  C   UNL A   1      34.110  34.751  29.469  1.00  0.00     0.039 A 
ATOM     41  C   UNL A   1      33.900  34.276  30.769  1.00  0.00     0.014 A 
ATOM     42  C   UNL A   1      35.392  34.715  28.921  1.00  0.00     0.014 A 
ATOM     43  C   UNL A   1      34.947  33.661  31.464  1.00  0.00     0.010 A 
ATOM     44  C   UNL A   1      36.403  34.013  29.569  1.00  0.00     0.010 A 
ATOM     45  C   UNL A   1      36.192  33.466  30.843  1.00  0.00    -0.014 A 
BRANCH  45  46
ATOM     46  C   UNL A   1      37.280  32.679  31.484  1.00  0.00     0.031 A 
ATOM     47  C   UNL A   1      37.848  33.115  32.808  1.00  0.00     0.074 A 
ATOM     48  C   UNL A   1      37.828  31.635  30.828  1.00  0.00     0.049 A 
ATOM     49  N   UNL A   1      38.876  32.639  33.467  1.00  0.00    -0.248 NA
ATOM     50  C   UNL A   1      37.197  34.261  33.463  1.00  0.00     0.031 C 
ATOM     51  C   UNL A   1      37.407  31.145  29.515  1.00  0.00     0.029 A 
ATOM     52  N   UNL A   1      38.870  30.808  31.169  1.00  0.00    -0.354 N 
ATOM     53  C   UNL A   1      39.002  33.437  34.597  1.00  0.00     0.074 A 
ATOM     54  C   UNL A   1      37.989  34.464  34.505  1.00  0.00     0.031 C 
ATOM     55  C   UNL A   1      38.165  30.090  29.173  1.00  0.00     0.029 A 
ATOM     56  C   UNL A   1      39.158  29.859  30.216  1.00  0.00     0.049 A 
ATOM     57  H   UNL A   1      39.366  30.888  32.017  1.00  0.00     0.167 HD
ATOM     58  C   UNL A   1      39.867  33.311  35.632  1.00  0.00     0.037 A 
ATOM     59  C   UNL A   1      40.121  28.919  30.180  1.00  0.00     0.037 A 
ATOM     60  C   UNL A   1      40.859  32.273  35.730  1.00  0.00     0.049 A 
ATOM     61  C   UNL A   1      41.083  28.810  31.332  1.00  0.00     0.074 A 
ATOM     62  C   UNL A   1      41.741  32.018  36.766  1.00  0.00     0.029 A 
ATOM     63  N   UNL A   1      41.106  31.320  34.752  1.00  0.00    -0.354 N 
ATOM     64  N   UNL A   1      41.142  29.525  32.429  1.00  0.00    -0.248 NA
ATOM     65  C   UNL A   1      42.111  27.763  31.243  1.00  0.00     0.031 C 
ATOM     66  C   UNL A   1      42.558  30.947  36.391  1.00  0.00     0.029 A 
ATOM     67  C   UNL A   1      42.146  30.495  35.148  1.00  0.00     0.049 A 
ATOM     68  H   UNL A   1      40.614  31.242  33.903  1.00  0.00     0.167 HD
ATOM     69  C   UNL A   1      42.192  28.998  33.171  1.00  0.00     0.074 A 
ATOM     70  C   UNL A   1      42.730  27.893  32.407  1.00  0.00     0.031 C 
ATOM     71  C   UNL A   1      42.667  29.394  34.377  1.00  0.00     0.037 A 
BRANCH  58  72
ATOM     72  C   UNL A   1      39.777  34.320  36.741  1.00  0.00     0.057 A 
ATOM     73  C   UNL A   1      38.978  34.106  37.874  1.00  0.00     0.134 A 
ATOM     74  C   UNL A   1      40.520  35.506  36.693  1.00  0.00     0.134 A 
ATOM     75  F   UNL A   1      38.233  32.997  37.980  1.00  0.00    -0.206 F 
ATOM     76  C   UNL A   1      38.899  35.048  38.902  1.00  0.00     0.040 A 
ATOM     77  C   UNL A   1      40.474  36.441  37.730  1.00  0.00     0.040 A 
ATOM     78  F   UNL A   1      41.312  35.773  35.643  1.00  0.00    -0.206 F 
ATOM     79  C   UNL A   1      39.654  36.216  38.834  1.00  0.00     0.006 A 
ENDBRANCH  58  72
BRANCH  59  80
ATOM     80  C   UNL A   1      40.222  27.995  29.019  1.00  0.00     0.057 A 
ATOM     81  C   UNL A   1      39.587  26.747  29.032  1.00  0.00     0.134 A 
ATOM     82  C   UNL A   1      40.957  28.328  27.875  1.00  0.00     0.134 A 
ATOM     83  F   UNL A   1      38.883  26.359  30.106  1.00  0.00    -0.206 F 
ATOM     84  C   UNL A   1      39.698  25.856  27.963  1.00  0.00     0.040 A 
ATOM     85  C   UNL A   1      41.053  27.460  26.786  1.00  0.00     0.040 A 
ATOM     86  F   UNL A   1      41.583  29.511  27.794  1.00  0.00    -0.206 F 
ATOM     87  C   UNL A   1      40.429  26.215  26.833  1.00  0.00     0.006 A 
ENDBRANCH  59  80
BRANCH  71  88
ATOM     88  C   UNL A   1      43.806  28.610  34.961  1.00  0.00     0.057 A 
ATOM     89  C   UNL A   1      43.597  27.470  35.747  1.00  0.00     0.134 A 
ATOM     90  C   UNL A   1      45.133  28.974  34.689  1.00  0.00     0.134 A 
ATOM     91  F   UNL A   1      42.352  27.076  36.055  1.00  0.00    -0.206 F 
ATOM     92  C   UNL A   1      44.666  26.732  36.257  1.00  0.00     0.040 A 
ATOM     93  C   UNL A   1      46.208  28.225  35.168  1.00  0.00     0.040 A 
ATOM     94  F   UNL A   1      45.403  30.049  33.934  1.00  0.00    -0.206 F 
ATOM     95  C   UNL A   1      45.975  27.104  35.961  1.00  0.00     0.006 A 
ENDBRANCH  71  88
ENDBRANCH  45  46
ENDBRANCH  37  40
ENDBRANCH  35  36
ENDBRANCH  34  35
ENDBRANCH   1  34
TORSDOF 15
ENDMDL
