MODEL 1
REMARK VINA RESULT:     -10.7      0.000      0.000
REMARK SMILES CC[C@]1(C(=O)NCCCNC(=O)c2ccc(-c3c4nc(c(-c5c(F)cccc5F)c5ccc([nH]5)c(-c5c(F)cccc5F)c5nc(c(-c6c(F)cccc6F)c6ccc3[nH]6)C=C5)C=C4)cc2)CCCN(S(=O)(=O)CCOC(C)C)C1
REMARK SMILES IDX 4 1 5 2 6 3 3 5 67 6 80 7 68 8 70 9 69 10 2 11 1 12 71 13
REMARK SMILES IDX 72 14 73 15 74 16 75 17 76 18 77 19 78 20 79 21 7 22 8 23
REMARK SMILES IDX 9 24 10 25 11 26 12 28 13 29 14 30 66 31 15 32 65 33 16 34
REMARK SMILES IDX 17 35 18 36 59 37 19 38 64 39 58 40 60 41 20 42 63 43 57 44
REMARK SMILES IDX 56 45 21 47 47 48 30 49 46 50 31 51 34 52 45 53 61 54 32 55
REMARK SMILES IDX 33 56 44 58 62 59 35 60 22 61 23 62 28 63 24 64 25 65 27 66
REMARK SMILES IDX 29 67 26 68 48 69 49 70 54 71 50 72 51 73 53 74 55 75 52 76
REMARK SMILES IDX 36 77 37 78 42 79 38 80 39 81 41 82 43 83 40 84
REMARK H PARENT 6 4 10 27 60 46 34 57
REMARK Flexibility Score: inf
ROOT
ATOM      1  C   UNL A   1      31.980  28.440  27.119  1.00  0.00     0.227 C 
ATOM      2  O   UNL A   1      31.726  27.789  28.135  1.00  0.00    -0.274 OA
ATOM      3  N   UNL A   1      31.420  29.680  27.053  1.00  0.00    -0.356 N 
ATOM      4  H   UNL A   1      30.905  29.933  27.853  1.00  0.00     0.163 HD
ENDROOT
BRANCH   1   5
ATOM      5  C   UNL A   1      32.870  27.893  25.981  1.00  0.00     0.063 C 
ATOM      6  C   UNL A   1      33.572  26.604  26.494  1.00  0.00     0.019 C 
ATOM      7  C   UNL A   1      31.961  27.689  24.738  1.00  0.00     0.119 C 
ATOM      8  C   UNL A   1      33.996  25.651  25.389  1.00  0.00     0.018 C 
ATOM      9  N   UNL A   1      32.380  26.590  23.813  1.00  0.00    -0.201 NA
ATOM     10  C   UNL A   1      32.835  25.342  24.466  1.00  0.00     0.102 C 
BRANCH   5  11
ATOM     11  C   UNL A   1      34.026  28.924  25.719  1.00  0.00     0.015 C 
ATOM     12  C   UNL A   1      34.886  29.348  26.907  1.00  0.00     0.005 C 
ENDBRANCH   5  11
BRANCH   9  13
ATOM     13  S   UNL A   1      31.297  26.354  22.503  1.00  0.00     0.216 S 
ATOM     14  O   UNL A   1      32.115  25.998  21.356  1.00  0.00    -0.212 OA
ATOM     15  O   UNL A   1      30.243  25.472  22.944  1.00  0.00    -0.212 OA
BRANCH  13  16
ATOM     16  C   UNL A   1      30.627  27.996  22.243  1.00  0.00     0.182 C 
BRANCH  16  17
ATOM     17  C   UNL A   1      29.222  28.174  22.796  1.00  0.00     0.178 C 
BRANCH  17  18
ATOM     18  O   UNL A   1      28.999  29.487  23.314  1.00  0.00    -0.378 OA
BRANCH  18  19
ATOM     19  C   UNL A   1      27.919  30.256  22.775  1.00  0.00     0.112 C 
ATOM     20  C   UNL A   1      27.565  31.499  23.590  1.00  0.00     0.038 C 
ATOM     21  C   UNL A   1      28.160  30.604  21.323  1.00  0.00     0.038 C 
ENDBRANCH  18  19
ENDBRANCH  17  18
ENDBRANCH  16  17
ENDBRANCH  13  16
ENDBRANCH   9  13
ENDBRANCH   1   5
BRANCH   3  22
ATOM     22  C   UNL A   1      31.445  30.700  26.015  1.00  0.00     0.117 C 
BRANCH  22  23
ATOM     23  C   UNL A   1      31.316  32.099  26.584  1.00  0.00     0.042 C 
BRANCH  23  24
ATOM     24  C   UNL A   1      32.649  32.682  26.998  1.00  0.00     0.118 C 
BRANCH  24  25
ATOM     25  N   UNL A   1      32.505  34.007  27.583  1.00  0.00    -0.352 N 
ATOM     26  C   UNL A   1      33.141  34.549  28.669  1.00  0.00     0.251 C 
ATOM     27  H   UNL A   1      31.857  34.597  27.136  1.00  0.00     0.163 HD
ATOM     28  O   UNL A   1      32.717  35.580  29.180  1.00  0.00    -0.269 OA
BRANCH  26  29
ATOM     29  C   UNL A   1      34.337  33.882  29.215  1.00  0.00     0.039 A 
ATOM     30  C   UNL A   1      35.597  34.417  28.952  1.00  0.00     0.014 A 
ATOM     31  C   UNL A   1      34.210  32.717  29.977  1.00  0.00     0.014 A 
ATOM     32  C   UNL A   1      36.728  33.791  29.475  1.00  0.00     0.010 A 
ATOM     33  C   UNL A   1      35.318  32.178  30.608  1.00  0.00     0.010 A 
ATOM     34  C   UNL A   1      36.593  32.676  30.320  1.00  0.00    -0.014 A 
BRANCH  34  35
ATOM     35  C   UNL A   1      37.779  31.955  30.834  1.00  0.00     0.031 A 
ATOM     36  C   UNL A   1      38.290  32.262  32.218  1.00  0.00     0.074 A 
ATOM     37  C   UNL A   1      38.410  31.060  30.053  1.00  0.00     0.049 A 
ATOM     38  N   UNL A   1      39.324  31.767  32.848  1.00  0.00    -0.248 NA
ATOM     39  C   UNL A   1      37.566  33.294  32.984  1.00  0.00     0.031 C 
ATOM     40  C   UNL A   1      38.042  30.726  28.675  1.00  0.00     0.029 A 
ATOM     41  N   UNL A   1      39.493  30.262  30.312  1.00  0.00    -0.354 N 
ATOM     42  C   UNL A   1      39.378  32.436  34.065  1.00  0.00     0.074 A 
ATOM     43  C   UNL A   1      38.330  33.429  34.054  1.00  0.00     0.031 C 
ATOM     44  C   UNL A   1      38.858  29.758  28.226  1.00  0.00     0.029 A 
ATOM     45  C   UNL A   1      39.823  29.430  29.270  1.00  0.00     0.049 A 
ATOM     46  H   UNL A   1      39.987  30.283  31.163  1.00  0.00     0.167 HD
ATOM     47  C   UNL A   1      40.201  32.216  35.118  1.00  0.00     0.037 A 
ATOM     48  C   UNL A   1      40.790  28.499  29.181  1.00  0.00     0.037 A 
ATOM     49  C   UNL A   1      41.216  31.199  35.136  1.00  0.00     0.049 A 
ATOM     50  C   UNL A   1      41.677  28.258  30.370  1.00  0.00     0.074 A 
ATOM     51  C   UNL A   1      42.075  30.855  36.164  1.00  0.00     0.029 A 
ATOM     52  N   UNL A   1      41.502  30.356  34.072  1.00  0.00    -0.354 N 
ATOM     53  N   UNL A   1      41.677  28.852  31.540  1.00  0.00    -0.248 NA
ATOM     54  C   UNL A   1      42.688  27.202  30.233  1.00  0.00     0.031 C 
ATOM     55  C   UNL A   1      42.907  29.827  35.707  1.00  0.00     0.029 A 
ATOM     56  C   UNL A   1      42.531  29.497  34.415  1.00  0.00     0.049 A 
ATOM     57  H   UNL A   1      41.041  30.368  33.202  1.00  0.00     0.167 HD
ATOM     58  C   UNL A   1      42.660  28.219  32.289  1.00  0.00     0.074 A 
ATOM     59  C   UNL A   1      43.222  27.183  31.445  1.00  0.00     0.031 C 
ATOM     60  C   UNL A   1      43.066  28.469  33.559  1.00  0.00     0.037 A 
BRANCH  47  61
ATOM     61  C   UNL A   1      40.017  33.084  36.329  1.00  0.00     0.057 A 
ATOM     62  C   UNL A   1      39.100  32.759  37.340  1.00  0.00     0.134 A 
ATOM     63  C   UNL A   1      40.767  34.255  36.493  1.00  0.00     0.134 A 
ATOM     64  F   UNL A   1      38.334  31.662  37.237  1.00  0.00    -0.206 F 
ATOM     65  C   UNL A   1      38.912  33.584  38.451  1.00  0.00     0.040 A 
ATOM     66  C   UNL A   1      40.612  35.070  37.616  1.00  0.00     0.040 A 
ATOM     67  F   UNL A   1      41.663  34.626  35.567  1.00  0.00    -0.206 F 
ATOM     68  C   UNL A   1      39.676  34.740  38.595  1.00  0.00     0.006 A 
ENDBRANCH  47  61
BRANCH  48  69
ATOM     69  C   UNL A   1      40.937  27.693  27.943  1.00  0.00     0.057 A 
ATOM     70  C   UNL A   1      40.292  26.457  27.807  1.00  0.00     0.134 A 
ATOM     71  C   UNL A   1      41.736  28.124  26.878  1.00  0.00     0.134 A 
ATOM     72  F   UNL A   1      39.524  25.984  28.798  1.00  0.00    -0.206 F 
ATOM     73  C   UNL A   1      40.459  25.666  26.668  1.00  0.00     0.040 A 
ATOM     74  C   UNL A   1      41.890  27.355  25.722  1.00  0.00     0.040 A 
ATOM     75  F   UNL A   1      42.370  29.303  26.940  1.00  0.00    -0.206 F 
ATOM     76  C   UNL A   1      41.259  26.117  25.620  1.00  0.00     0.006 A 
ENDBRANCH  48  69
BRANCH  60  77
ATOM     77  C   UNL A   1      44.131  27.572  34.120  1.00  0.00     0.057 A 
ATOM     78  C   UNL A   1      45.491  27.907  34.063  1.00  0.00     0.134 A 
ATOM     79  C   UNL A   1      43.788  26.362  34.736  1.00  0.00     0.134 A 
ATOM     80  F   UNL A   1      45.887  29.046  33.476  1.00  0.00    -0.206 F 
ATOM     81  C   UNL A   1      46.473  27.049  34.560  1.00  0.00     0.040 A 
ATOM     82  C   UNL A   1      44.758  25.513  35.267  1.00  0.00     0.040 A 
ATOM     83  F   UNL A   1      42.503  25.989  34.837  1.00  0.00    -0.206 F 
ATOM     84  C   UNL A   1      46.106  25.850  35.168  1.00  0.00     0.006 A 
ENDBRANCH  60  77
ENDBRANCH  34  35
ENDBRANCH  26  29
ENDBRANCH  24  25
ENDBRANCH  23  24
ENDBRANCH  22  23
ENDBRANCH   3  22
TORSDOF 16
ENDMDL
MODEL 2
REMARK VINA RESULT:     -10.5      4.367      9.090
REMARK SMILES CC[C@]1(C(=O)NCCCNC(=O)c2ccc(-c3c4nc(c(-c5c(F)cccc5F)c5ccc([nH]5)c(-c5c(F)cccc5F)c5nc(c(-c6c(F)cccc6F)c6ccc3[nH]6)C=C5)C=C4)cc2)CCCN(S(=O)(=O)CCOC(C)C)C1
REMARK SMILES IDX 4 1 5 2 6 3 3 5 67 6 80 7 68 8 70 9 69 10 2 11 1 12 71 13
REMARK SMILES IDX 72 14 73 15 74 16 75 17 76 18 77 19 78 20 79 21 7 22 8 23
REMARK SMILES IDX 9 24 10 25 11 26 12 28 13 29 14 30 66 31 15 32 65 33 16 34
REMARK SMILES IDX 17 35 18 36 59 37 19 38 64 39 58 40 60 41 20 42 63 43 57 44
REMARK SMILES IDX 56 45 21 47 47 48 30 49 46 50 31 51 34 52 45 53 61 54 32 55
REMARK SMILES IDX 33 56 44 58 62 59 35 60 22 61 23 62 28 63 24 64 25 65 27 66
REMARK SMILES IDX 29 67 26 68 48 69 49 70 54 71 50 72 51 73 53 74 55 75 52 76
REMARK SMILES IDX 36 77 37 78 42 79 38 80 39 81 41 82 43 83 40 84
REMARK H PARENT 6 4 10 27 60 46 34 57
REMARK Flexibility Score: inf
ROOT
ATOM      1  C   UNL A   1      34.447  21.587  26.270  1.00  0.00     0.227 C 
ATOM      2  O   UNL A   1      34.002  21.496  27.416  1.00  0.00    -0.274 OA
ATOM      3  N   UNL A   1      35.456  20.727  25.955  1.00  0.00    -0.356 N 
ATOM      4  H   UNL A   1      35.686  20.096  26.675  1.00  0.00     0.163 HD
ENDROOT
BRANCH   1   5
ATOM      5  C   UNL A   1      33.909  22.612  25.246  1.00  0.00     0.063 C 
ATOM      6  C   UNL A   1      33.228  21.827  24.090  1.00  0.00     0.019 C 
ATOM      7  C   UNL A   1      32.972  23.585  26.013  1.00  0.00     0.119 C 
ATOM      8  C   UNL A   1      32.181  22.627  23.334  1.00  0.00     0.018 C 
ATOM      9  N   UNL A   1      31.858  24.170  25.204  1.00  0.00    -0.201 NA
ATOM     10  C   UNL A   1      31.170  23.231  24.289  1.00  0.00     0.102 C 
BRANCH   5  11
ATOM     11  C   UNL A   1      35.134  23.345  24.592  1.00  0.00     0.015 C 
ATOM     12  C   UNL A   1      36.011  24.212  25.492  1.00  0.00     0.005 C 
ENDBRANCH   5  11
BRANCH   9  13
ATOM     13  S   UNL A   1      30.807  25.172  26.118  1.00  0.00     0.216 S 
ATOM     14  O   UNL A   1      29.873  24.281  26.786  1.00  0.00    -0.212 OA
ATOM     15  O   UNL A   1      31.615  26.087  26.889  1.00  0.00    -0.212 OA
BRANCH  13  16
ATOM     16  C   UNL A   1      29.925  26.082  24.850  1.00  0.00     0.182 C 
BRANCH  16  17
ATOM     17  C   UNL A   1      30.755  27.176  24.198  1.00  0.00     0.178 C 
BRANCH  17  18
ATOM     18  O   UNL A   1      31.672  26.665  23.229  1.00  0.00    -0.378 OA
BRANCH  18  19
ATOM     19  C   UNL A   1      32.957  27.282  23.115  1.00  0.00     0.112 C 
ATOM     20  C   UNL A   1      32.915  28.751  22.697  1.00  0.00     0.038 C 
ATOM     21  C   UNL A   1      33.773  27.094  24.375  1.00  0.00     0.038 C 
ENDBRANCH  18  19
ENDBRANCH  17  18
ENDBRANCH  16  17
ENDBRANCH  13  16
ENDBRANCH   9  13
ENDBRANCH   1   5
BRANCH   3  22
ATOM     22  C   UNL A   1      36.253  20.570  24.748  1.00  0.00     0.117 C 
BRANCH  22  23
ATOM     23  C   UNL A   1      37.404  19.603  24.944  1.00  0.00     0.042 C 
BRANCH  23  24
ATOM     24  C   UNL A   1      38.666  20.291  25.416  1.00  0.00     0.118 C 
BRANCH  24  25
ATOM     25  N   UNL A   1      39.753  19.347  25.630  1.00  0.00    -0.352 N 
ATOM     26  C   UNL A   1      41.040  19.583  26.034  1.00  0.00     0.251 C 
ATOM     27  H   UNL A   1      39.531  18.403  25.459  1.00  0.00     0.163 HD
ATOM     28  O   UNL A   1      41.893  18.711  25.915  1.00  0.00    -0.269 OA
BRANCH  26  29
ATOM     29  C   UNL A   1      41.389  20.896  26.610  1.00  0.00     0.039 A 
ATOM     30  C   UNL A   1      41.325  21.072  27.992  1.00  0.00     0.014 A 
ATOM     31  C   UNL A   1      41.765  21.954  25.779  1.00  0.00     0.014 A 
ATOM     32  C   UNL A   1      41.662  22.310  28.538  1.00  0.00     0.010 A 
ATOM     33  C   UNL A   1      42.231  23.135  26.331  1.00  0.00     0.010 A 
ATOM     34  C   UNL A   1      42.133  23.344  27.711  1.00  0.00    -0.014 A 
BRANCH  34  35
ATOM     35  C   UNL A   1      42.435  24.686  28.258  1.00  0.00     0.031 A 
ATOM     36  C   UNL A   1      43.844  25.017  28.675  1.00  0.00     0.074 A 
ATOM     37  C   UNL A   1      41.446  25.586  28.409  1.00  0.00     0.049 A 
ATOM     38  N   UNL A   1      44.316  26.118  29.199  1.00  0.00    -0.248 NA
ATOM     39  C   UNL A   1      44.853  23.952  28.519  1.00  0.00     0.031 C 
ATOM     40  C   UNL A   1      40.033  25.357  28.097  1.00  0.00     0.029 A 
ATOM     41  N   UNL A   1      41.482  26.878  28.861  1.00  0.00    -0.354 N 
ATOM     42  C   UNL A   1      45.661  25.870  29.447  1.00  0.00     0.074 A 
ATOM     43  C   UNL A   1      45.913  24.492  29.097  1.00  0.00     0.031 C 
ATOM     44  C   UNL A   1      39.345  26.488  28.324  1.00  0.00     0.029 A 
ATOM     45  C   UNL A   1      40.261  27.506  28.826  1.00  0.00     0.049 A 
ATOM     46  H   UNL A   1      42.305  27.316  29.179  1.00  0.00     0.167 HD
ATOM     47  C   UNL A   1      46.614  26.725  29.887  1.00  0.00     0.037 A 
ATOM     48  C   UNL A   1      39.929  28.768  29.154  1.00  0.00     0.037 A 
ATOM     49  C   UNL A   1      46.364  28.106  30.196  1.00  0.00     0.049 A 
ATOM     50  C   UNL A   1      41.008  29.705  29.620  1.00  0.00     0.074 A 
ATOM     51  C   UNL A   1      47.261  29.076  30.603  1.00  0.00     0.029 A 
ATOM     52  N   UNL A   1      45.119  28.713  30.121  1.00  0.00    -0.354 N 
ATOM     53  N   UNL A   1      42.289  29.478  29.788  1.00  0.00    -0.248 NA
ATOM     54  C   UNL A   1      40.597  31.082  29.924  1.00  0.00     0.031 C 
ATOM     55  C   UNL A   1      46.550  30.263  30.813  1.00  0.00     0.029 A 
ATOM     56  C   UNL A   1      45.222  30.045  30.485  1.00  0.00     0.049 A 
ATOM     57  H   UNL A   1      44.286  28.264  29.850  1.00  0.00     0.167 HD
ATOM     58  C   UNL A   1      42.842  30.689  30.182  1.00  0.00     0.074 A 
ATOM     59  C   UNL A   1      41.759  31.651  30.209  1.00  0.00     0.031 C 
ATOM     60  C   UNL A   1      44.129  30.984  30.495  1.00  0.00     0.037 A 
BRANCH  47  61
ATOM     61  C   UNL A   1      48.007  26.184  30.041  1.00  0.00     0.057 A 
ATOM     62  C   UNL A   1      48.894  26.105  28.957  1.00  0.00     0.134 A 
ATOM     63  C   UNL A   1      48.471  25.744  31.287  1.00  0.00     0.134 A 
ATOM     64  F   UNL A   1      48.508  26.491  27.732  1.00  0.00    -0.206 F 
ATOM     65  C   UNL A   1      50.178  25.575  29.100  1.00  0.00     0.040 A 
ATOM     66  C   UNL A   1      49.764  25.243  31.448  1.00  0.00     0.040 A 
ATOM     67  F   UNL A   1      47.677  25.792  32.366  1.00  0.00    -0.206 F 
ATOM     68  C   UNL A   1      50.619  25.150  30.351  1.00  0.00     0.006 A 
ENDBRANCH  47  61
BRANCH  48  69
ATOM     69  C   UNL A   1      38.527  29.233  29.005  1.00  0.00     0.057 A 
ATOM     70  C   UNL A   1      37.645  29.226  30.093  1.00  0.00     0.134 A 
ATOM     71  C   UNL A   1      38.029  29.678  27.775  1.00  0.00     0.134 A 
ATOM     72  F   UNL A   1      38.059  28.799  31.295  1.00  0.00    -0.206 F 
ATOM     73  C   UNL A   1      36.311  29.617  29.957  1.00  0.00     0.040 A 
ATOM     74  C   UNL A   1      36.704  30.096  27.631  1.00  0.00     0.040 A 
ATOM     75  F   UNL A   1      38.825  29.721  26.697  1.00  0.00    -0.206 F 
ATOM     76  C   UNL A   1      35.839  30.056  28.722  1.00  0.00     0.006 A 
ENDBRANCH  48  69
BRANCH  60  77
ATOM     77  C   UNL A   1      44.434  32.412  30.841  1.00  0.00     0.057 A 
ATOM     78  C   UNL A   1      44.790  33.354  29.866  1.00  0.00     0.134 A 
ATOM     79  C   UNL A   1      44.360  32.851  32.169  1.00  0.00     0.134 A 
ATOM     80  F   UNL A   1      44.890  32.995  28.577  1.00  0.00    -0.206 F 
ATOM     81  C   UNL A   1      45.102  34.670  30.206  1.00  0.00     0.040 A 
ATOM     82  C   UNL A   1      44.637  34.173  32.516  1.00  0.00     0.040 A 
ATOM     83  F   UNL A   1      44.012  32.004  33.148  1.00  0.00    -0.206 F 
ATOM     84  C   UNL A   1      45.021  35.084  31.535  1.00  0.00     0.006 A 
ENDBRANCH  60  77
ENDBRANCH  34  35
ENDBRANCH  26  29
ENDBRANCH  24  25
ENDBRANCH  23  24
ENDBRANCH  22  23
ENDBRANCH   3  22
TORSDOF 16
ENDMDL
MODEL 3
REMARK VINA RESULT:     -10.5      5.110      9.079
REMARK SMILES CC[C@]1(C(=O)NCCCNC(=O)c2ccc(-c3c4nc(c(-c5c(F)cccc5F)c5ccc([nH]5)c(-c5c(F)cccc5F)c5nc(c(-c6c(F)cccc6F)c6ccc3[nH]6)C=C5)C=C4)cc2)CCCN(S(=O)(=O)CCOC(C)C)C1
REMARK SMILES IDX 4 1 5 2 6 3 3 5 67 6 80 7 68 8 70 9 69 10 2 11 1 12 71 13
REMARK SMILES IDX 72 14 73 15 74 16 75 17 76 18 77 19 78 20 79 21 7 22 8 23
REMARK SMILES IDX 9 24 10 25 11 26 12 28 13 29 14 30 66 31 15 32 65 33 16 34
REMARK SMILES IDX 17 35 18 36 59 37 19 38 64 39 58 40 60 41 20 42 63 43 57 44
REMARK SMILES IDX 56 45 21 47 47 48 30 49 46 50 31 51 34 52 45 53 61 54 32 55
REMARK SMILES IDX 33 56 44 58 62 59 35 60 22 61 23 62 28 63 24 64 25 65 27 66
REMARK SMILES IDX 29 67 26 68 48 69 49 70 54 71 50 72 51 73 53 74 55 75 52 76
REMARK SMILES IDX 36 77 37 78 42 79 38 80 39 81 41 82 43 83 40 84
REMARK H PARENT 6 4 10 27 60 46 34 57
REMARK Flexibility Score: inf
ROOT
ATOM      1  C   UNL A   1      36.412  22.749  23.380  1.00  0.00     0.227 C 
ATOM      2  O   UNL A   1      36.952  23.313  22.426  1.00  0.00    -0.274 OA
ATOM      3  N   UNL A   1      37.089  21.690  23.906  1.00  0.00    -0.356 N 
ATOM      4  H   UNL A   1      37.963  21.522  23.485  1.00  0.00     0.163 HD
ENDROOT
BRANCH   1   5
ATOM      5  C   UNL A   1      35.047  23.199  23.949  1.00  0.00     0.063 C 
ATOM      6  C   UNL A   1      35.290  23.810  25.358  1.00  0.00     0.019 C 
ATOM      7  C   UNL A   1      34.412  24.172  22.918  1.00  0.00     0.119 C 
ATOM      8  C   UNL A   1      34.217  24.791  25.799  1.00  0.00     0.018 C 
ATOM      9  N   UNL A   1      33.513  25.219  23.496  1.00  0.00    -0.201 NA
ATOM     10  C   UNL A   1      33.992  25.856  24.744  1.00  0.00     0.102 C 
BRANCH   5  11
ATOM     11  C   UNL A   1      34.168  21.921  24.193  1.00  0.00     0.015 C 
ATOM     12  C   UNL A   1      32.798  21.858  23.520  1.00  0.00     0.005 C 
ENDBRANCH   5  11
BRANCH   9  13
ATOM     13  S   UNL A   1      32.905  26.315  22.325  1.00  0.00     0.216 S 
ATOM     14  O   UNL A   1      33.313  27.641  22.757  1.00  0.00    -0.212 OA
ATOM     15  O   UNL A   1      33.279  25.830  21.018  1.00  0.00    -0.212 OA
BRANCH  13  16
ATOM     16  C   UNL A   1      31.130  26.167  22.527  1.00  0.00     0.182 C 
BRANCH  16  17
ATOM     17  C   UNL A   1      30.469  27.434  23.045  1.00  0.00     0.178 C 
BRANCH  17  18
ATOM     18  O   UNL A   1      29.890  28.217  22.000  1.00  0.00    -0.378 OA
BRANCH  18  19
ATOM     19  C   UNL A   1      29.624  29.600  22.253  1.00  0.00     0.112 C 
ATOM     20  C   UNL A   1      28.216  30.050  21.868  1.00  0.00     0.038 C 
ATOM     21  C   UNL A   1      29.946  29.971  23.684  1.00  0.00     0.038 C 
ENDBRANCH  18  19
ENDBRANCH  17  18
ENDBRANCH  16  17
ENDBRANCH  13  16
ENDBRANCH   9  13
ENDBRANCH   1   5
BRANCH   3  22
ATOM     22  C   UNL A   1      36.757  20.764  24.977  1.00  0.00     0.117 C 
BRANCH  22  23
ATOM     23  C   UNL A   1      37.806  19.681  25.144  1.00  0.00     0.042 C 
BRANCH  23  24
ATOM     24  C   UNL A   1      38.955  20.118  26.025  1.00  0.00     0.118 C 
BRANCH  24  25
ATOM     25  N   UNL A   1      40.027  19.133  26.048  1.00  0.00    -0.352 N 
ATOM     26  C   UNL A   1      41.382  19.327  26.072  1.00  0.00     0.251 C 
ATOM     27  H   UNL A   1      39.735  18.193  26.046  1.00  0.00     0.163 HD
ATOM     28  O   UNL A   1      42.142  18.396  25.830  1.00  0.00    -0.269 OA
BRANCH  26  29
ATOM     29  C   UNL A   1      41.917  20.665  26.389  1.00  0.00     0.039 A 
ATOM     30  C   UNL A   1      42.182  20.997  27.717  1.00  0.00     0.014 A 
ATOM     31  C   UNL A   1      42.142  21.595  25.370  1.00  0.00     0.014 A 
ATOM     32  C   UNL A   1      42.695  22.258  28.016  1.00  0.00     0.010 A 
ATOM     33  C   UNL A   1      42.779  22.791  25.654  1.00  0.00     0.010 A 
ATOM     34  C   UNL A   1      43.012  23.157  26.984  1.00  0.00    -0.014 A 
BRANCH  34  35
ATOM     35  C   UNL A   1      43.496  24.525  27.278  1.00  0.00     0.031 A 
ATOM     36  C   UNL A   1      42.518  25.573  27.743  1.00  0.00     0.074 A 
ATOM     37  C   UNL A   1      44.793  24.829  27.097  1.00  0.00     0.049 A 
ATOM     38  N   UNL A   1      42.727  26.832  28.028  1.00  0.00    -0.248 NA
ATOM     39  C   UNL A   1      41.107  25.162  27.866  1.00  0.00     0.031 C 
ATOM     40  C   UNL A   1      45.819  23.914  26.592  1.00  0.00     0.029 A 
ATOM     41  N   UNL A   1      45.471  25.998  27.321  1.00  0.00    -0.354 N 
ATOM     42  C   UNL A   1      41.480  27.357  28.344  1.00  0.00     0.074 A 
ATOM     43  C   UNL A   1      40.509  26.309  28.136  1.00  0.00     0.031 C 
ATOM     44  C   UNL A   1      47.006  24.543  26.591  1.00  0.00     0.029 A 
ATOM     45  C   UNL A   1      46.817  25.911  27.060  1.00  0.00     0.049 A 
ATOM     46  H   UNL A   1      45.036  26.822  27.640  1.00  0.00     0.167 HD
ATOM     47  C   UNL A   1      41.173  28.592  28.809  1.00  0.00     0.037 A 
ATOM     48  C   UNL A   1      47.786  26.834  27.199  1.00  0.00     0.037 A 
ATOM     49  C   UNL A   1      42.151  29.617  29.052  1.00  0.00     0.049 A 
ATOM     50  C   UNL A   1      47.424  28.190  27.737  1.00  0.00     0.074 A 
ATOM     51  C   UNL A   1      41.961  30.887  29.566  1.00  0.00     0.029 A 
ATOM     52  N   UNL A   1      43.508  29.482  28.802  1.00  0.00    -0.354 N 
ATOM     53  N   UNL A   1      46.251  28.655  28.095  1.00  0.00    -0.248 NA
ATOM     54  C   UNL A   1      48.527  29.145  27.908  1.00  0.00     0.031 C 
ATOM     55  C   UNL A   1      43.201  31.534  29.591  1.00  0.00     0.029 A 
ATOM     56  C   UNL A   1      44.168  30.650  29.143  1.00  0.00     0.049 A 
ATOM     57  H   UNL A   1      43.938  28.675  28.437  1.00  0.00     0.167 HD
ATOM     58  C   UNL A   1      46.479  29.942  28.566  1.00  0.00     0.074 A 
ATOM     59  C   UNL A   1      47.906  30.174  28.465  1.00  0.00     0.031 C 
ATOM     60  C   UNL A   1      45.592  30.852  29.041  1.00  0.00     0.037 A 
BRANCH  47  61
ATOM     61  C   UNL A   1      39.727  28.881  29.094  1.00  0.00     0.057 A 
ATOM     62  C   UNL A   1      39.179  28.721  30.375  1.00  0.00     0.134 A 
ATOM     63  C   UNL A   1      38.873  29.331  28.079  1.00  0.00     0.134 A 
ATOM     64  F   UNL A   1      39.936  28.275  31.389  1.00  0.00    -0.206 F 
ATOM     65  C   UNL A   1      37.827  28.964  30.628  1.00  0.00     0.040 A 
ATOM     66  C   UNL A   1      37.528  29.608  28.329  1.00  0.00     0.040 A 
ATOM     67  F   UNL A   1      39.330  29.507  26.831  1.00  0.00    -0.206 F 
ATOM     68  C   UNL A   1      36.999  29.417  29.604  1.00  0.00     0.006 A 
ENDBRANCH  47  61
BRANCH  48  69
ATOM     69  C   UNL A   1      49.193  26.493  26.874  1.00  0.00     0.057 A 
ATOM     70  C   UNL A   1      49.715  26.724  25.594  1.00  0.00     0.134 A 
ATOM     71  C   UNL A   1      50.045  25.915  27.822  1.00  0.00     0.134 A 
ATOM     72  F   UNL A   1      48.944  27.263  24.639  1.00  0.00    -0.206 F 
ATOM     73  C   UNL A   1      51.022  26.365  25.261  1.00  0.00     0.040 A 
ATOM     74  C   UNL A   1      51.364  25.576  27.509  1.00  0.00     0.040 A 
ATOM     75  F   UNL A   1      49.612  25.680  29.068  1.00  0.00    -0.206 F 
ATOM     76  C   UNL A   1      51.852  25.792  26.221  1.00  0.00     0.006 A 
ENDBRANCH  48  69
BRANCH  60  77
ATOM     77  C   UNL A   1      46.152  32.156  29.529  1.00  0.00     0.057 A 
ATOM     78  C   UNL A   1      46.293  33.267  28.686  1.00  0.00     0.134 A 
ATOM     79  C   UNL A   1      46.545  32.303  30.865  1.00  0.00     0.134 A 
ATOM     80  F   UNL A   1      45.945  33.188  27.393  1.00  0.00    -0.206 F 
ATOM     81  C   UNL A   1      46.845  34.463  29.145  1.00  0.00     0.040 A 
ATOM     82  C   UNL A   1      47.068  33.504  31.344  1.00  0.00     0.040 A 
ATOM     83  F   UNL A   1      46.424  31.282  31.727  1.00  0.00    -0.206 F 
ATOM     84  C   UNL A   1      47.230  34.585  30.480  1.00  0.00     0.006 A 
ENDBRANCH  60  77
ENDBRANCH  34  35
ENDBRANCH  26  29
ENDBRANCH  24  25
ENDBRANCH  23  24
ENDBRANCH  22  23
ENDBRANCH   3  22
TORSDOF 16
ENDMDL
