MODEL 1
REMARK VINA RESULT:     -12.1      0.000      0.000
REMARK SMILES CC1(C)C(=O)N([C@H]2COC[C@@H]2C(=O)NCCCNC(=O)c2ccc(-c3c4nc(c(-c5c(F)cccc5F)c5ccc([nH]5)c(-c5c(F)cccc5F)c5nc(c(-c6c(F)cccc6F)c6ccc3[nH]6)C=C5)C=C4)cc2)S1(=O)=O
REMARK SMILES IDX 16 1 15 2 14 3 12 4 13 5 11 7 7 8 8 9 9 10 10 11 6 12 1 13
REMARK SMILES IDX 2 14 3 15 4 16 75 17 5 18 76 19 77 20 17 21 18 22 19 23
REMARK SMILES IDX 20 25 21 26 22 27 74 28 23 29 73 30 24 31 25 32 26 33 67 34
REMARK SMILES IDX 27 35 72 36 66 37 68 38 28 39 71 40 65 41 64 42 29 44 55 45
REMARK SMILES IDX 38 46 54 47 39 48 42 49 53 50 69 51 40 52 41 53 52 55 70 56
REMARK SMILES IDX 43 57 30 58 31 59 36 60 32 61 33 62 35 63 37 64 34 65 56 66
REMARK SMILES IDX 57 67 62 68 58 69 59 70 61 71 63 72 60 73 44 74 45 75 50 76
REMARK SMILES IDX 46 77 47 78 49 79 51 80 48 81
REMARK H PARENT 14 6 18 24 68 43 42 54
REMARK Flexibility Score: inf
ROOT
ATOM      1  C   UNL A   1      31.422  32.204  26.532  1.00  0.00     0.042 C 
ENDROOT
BRANCH   1   2
ATOM      2  C   UNL A   1      31.466  30.684  26.432  1.00  0.00     0.117 C 
BRANCH   2   3
ATOM      3  N   UNL A   1      32.144  30.236  25.222  1.00  0.00    -0.356 N 
ATOM      4  C   UNL A   1      32.097  29.189  24.370  1.00  0.00     0.227 C 
ATOM      5  O   UNL A   1      32.948  29.242  23.467  1.00  0.00    -0.275 OA
ATOM      6  H   UNL A   1      32.836  30.882  24.948  1.00  0.00     0.163 HD
BRANCH   4   7
ATOM      7  C   UNL A   1      31.138  28.001  24.378  1.00  0.00     0.130 C 
ATOM      8  C   UNL A   1      31.621  26.646  23.937  1.00  0.00     0.143 C 
ATOM      9  C   UNL A   1      31.397  26.703  22.425  1.00  0.00     0.187 C 
ATOM     10  O   UNL A   1      30.321  27.618  22.177  1.00  0.00    -0.378 OA
ATOM     11  C   UNL A   1      30.005  28.286  23.405  1.00  0.00     0.176 C 
BRANCH   8  12
ATOM     12  N   UNL A   1      30.878  25.477  24.503  1.00  0.00    -0.231 N 
ATOM     13  C   UNL A   1      30.643  22.449  26.013  1.00  0.00     0.041 C 
ATOM     14  C   UNL A   1      31.476  23.698  25.749  1.00  0.00     0.165 C 
ATOM     15  C   UNL A   1      32.911  23.523  26.261  1.00  0.00     0.041 C 
ATOM     16  C   UNL A   1      31.424  24.180  24.297  1.00  0.00     0.259 C 
ATOM     17  S   UNL A   1      30.739  25.242  26.150  1.00  0.00     0.252 S 
ATOM     18  O   UNL A   1      31.881  23.759  23.253  1.00  0.00    -0.272 OA
ATOM     19  O   UNL A   1      29.339  25.116  26.482  1.00  0.00    -0.205 OA
ATOM     20  O   UNL A   1      31.652  26.112  26.847  1.00  0.00    -0.205 OA
ENDBRANCH   8  12
ENDBRANCH   4   7
ENDBRANCH   2   3
ENDBRANCH   1   2
BRANCH   1  21
ATOM     21  C   UNL A   1      32.627  32.785  27.260  1.00  0.00     0.118 C 
BRANCH  21  22
ATOM     22  N   UNL A   1      32.433  34.189  27.607  1.00  0.00    -0.352 N 
ATOM     23  C   UNL A   1      33.017  34.954  28.588  1.00  0.00     0.251 C 
ATOM     24  H   UNL A   1      31.780  34.666  27.047  1.00  0.00     0.163 HD
ATOM     25  O   UNL A   1      32.533  36.045  28.874  1.00  0.00    -0.269 OA
BRANCH  23  26
ATOM     26  C   UNL A   1      34.212  34.468  29.310  1.00  0.00     0.039 A 
ATOM     27  C   UNL A   1      34.065  33.915  30.587  1.00  0.00     0.014 A 
ATOM     28  C   UNL A   1      35.483  34.593  28.750  1.00  0.00     0.014 A 
ATOM     29  C   UNL A   1      35.183  33.421  31.265  1.00  0.00     0.010 A 
ATOM     30  C   UNL A   1      36.580  34.022  29.383  1.00  0.00     0.010 A 
ATOM     31  C   UNL A   1      36.444  33.435  30.651  1.00  0.00    -0.014 A 
BRANCH  31  32
ATOM     32  C   UNL A   1      37.655  32.879  31.306  1.00  0.00     0.031 A 
ATOM     33  C   UNL A   1      38.346  31.690  30.695  1.00  0.00     0.074 A 
ATOM     34  C   UNL A   1      38.063  33.360  32.495  1.00  0.00     0.049 A 
ATOM     35  N   UNL A   1      39.274  30.920  31.200  1.00  0.00    -0.248 NA
ATOM     36  C   UNL A   1      37.900  31.291  29.349  1.00  0.00     0.031 C 
ATOM     37  C   UNL A   1      37.460  34.487  33.208  1.00  0.00     0.029 A 
ATOM     38  N   UNL A   1      39.069  32.939  33.329  1.00  0.00    -0.354 N 
ATOM     39  C   UNL A   1      39.491  29.924  30.256  1.00  0.00     0.074 A 
ATOM     40  C   UNL A   1      38.573  30.166  29.165  1.00  0.00     0.031 C 
ATOM     41  C   UNL A   1      38.116  34.675  34.366  1.00  0.00     0.029 A 
ATOM     42  C   UNL A   1      39.150  33.655  34.499  1.00  0.00     0.049 A 
ATOM     43  H   UNL A   1      39.676  32.196  33.109  1.00  0.00     0.167 HD
ATOM     44  C   UNL A   1      40.385  28.908  30.290  1.00  0.00     0.037 A 
ATOM     45  C   UNL A   1      39.954  33.491  35.567  1.00  0.00     0.037 A 
ATOM     46  C   UNL A   1      41.333  28.702  31.351  1.00  0.00     0.049 A 
ATOM     47  C   UNL A   1      40.952  32.368  35.572  1.00  0.00     0.074 A 
ATOM     48  C   UNL A   1      42.324  27.741  31.449  1.00  0.00     0.029 A 
ATOM     49  N   UNL A   1      41.414  29.482  32.494  1.00  0.00    -0.354 N 
ATOM     50  N   UNL A   1      41.169  31.453  34.659  1.00  0.00    -0.248 NA
ATOM     51  C   UNL A   1      41.817  32.254  36.756  1.00  0.00     0.031 C 
ATOM     52  C   UNL A   1      42.990  27.925  32.665  1.00  0.00     0.029 A 
ATOM     53  C   UNL A   1      42.435  29.021  33.307  1.00  0.00     0.049 A 
ATOM     54  H   UNL A   1      40.832  30.249  32.698  1.00  0.00     0.167 HD
ATOM     55  C   UNL A   1      42.213  30.674  35.143  1.00  0.00     0.074 A 
ATOM     56  C   UNL A   1      42.587  31.226  36.428  1.00  0.00     0.031 C 
ATOM     57  C   UNL A   1      42.808  29.600  34.572  1.00  0.00     0.037 A 
BRANCH  44  58
ATOM     58  C   UNL A   1      40.381  27.945  29.138  1.00  0.00     0.057 A 
ATOM     59  C   UNL A   1      41.193  28.137  28.012  1.00  0.00     0.134 A 
ATOM     60  C   UNL A   1      39.571  26.804  29.165  1.00  0.00     0.134 A 
ATOM     61  F   UNL A   1      41.981  29.219  27.919  1.00  0.00    -0.206 F 
ATOM     62  C   UNL A   1      41.179  27.241  26.942  1.00  0.00     0.040 A 
ATOM     63  C   UNL A   1      39.568  25.887  28.111  1.00  0.00     0.040 A 
ATOM     64  F   UNL A   1      38.774  26.557  30.216  1.00  0.00    -0.206 F 
ATOM     65  C   UNL A   1      40.368  26.110  26.993  1.00  0.00     0.006 A 
ENDBRANCH  44  58
BRANCH  45  66
ATOM     66  C   UNL A   1      39.860  34.428  36.713  1.00  0.00     0.057 A 
ATOM     67  C   UNL A   1      40.562  35.639  36.706  1.00  0.00     0.134 A 
ATOM     68  C   UNL A   1      39.072  34.143  37.834  1.00  0.00     0.134 A 
ATOM     69  F   UNL A   1      41.347  35.958  35.667  1.00  0.00    -0.206 F 
ATOM     70  C   UNL A   1      40.495  36.529  37.779  1.00  0.00     0.040 A 
ATOM     71  C   UNL A   1      38.980  35.033  38.905  1.00  0.00     0.040 A 
ATOM     72  F   UNL A   1      38.370  33.003  37.897  1.00  0.00    -0.206 F 
ATOM     73  C   UNL A   1      39.697  36.228  38.881  1.00  0.00     0.006 A 
ENDBRANCH  45  66
BRANCH  57  74
ATOM     74  C   UNL A   1      43.959  28.980  35.303  1.00  0.00     0.057 A 
ATOM     75  C   UNL A   1      45.279  29.386  35.081  1.00  0.00     0.134 A 
ATOM     76  C   UNL A   1      43.731  28.012  36.289  1.00  0.00     0.134 A 
ATOM     77  F   UNL A   1      45.561  30.300  34.141  1.00  0.00    -0.206 F 
ATOM     78  C   UNL A   1      46.338  28.843  35.809  1.00  0.00     0.040 A 
ATOM     79  C   UNL A   1      44.779  27.476  37.038  1.00  0.00     0.040 A 
ATOM     80  F   UNL A   1      42.486  27.588  36.553  1.00  0.00    -0.206 F 
ATOM     81  C   UNL A   1      46.088  27.891  36.797  1.00  0.00     0.006 A 
ENDBRANCH  57  74
ENDBRANCH  31  32
ENDBRANCH  23  26
ENDBRANCH  21  22
ENDBRANCH   1  21
TORSDOF 11
ENDMDL
MODEL 2
REMARK VINA RESULT:     -12.1      4.644      9.699
REMARK SMILES CC1(C)C(=O)N([C@H]2COC[C@@H]2C(=O)NCCCNC(=O)c2ccc(-c3c4nc(c(-c5c(F)cccc5F)c5ccc([nH]5)c(-c5c(F)cccc5F)c5nc(c(-c6c(F)cccc6F)c6ccc3[nH]6)C=C5)C=C4)cc2)S1(=O)=O
REMARK SMILES IDX 16 1 15 2 14 3 12 4 13 5 11 7 7 8 8 9 9 10 10 11 6 12 1 13
REMARK SMILES IDX 2 14 3 15 4 16 75 17 5 18 76 19 77 20 17 21 18 22 19 23
REMARK SMILES IDX 20 25 21 26 22 27 74 28 23 29 73 30 24 31 25 32 26 33 67 34
REMARK SMILES IDX 27 35 72 36 66 37 68 38 28 39 71 40 65 41 64 42 29 44 55 45
REMARK SMILES IDX 38 46 54 47 39 48 42 49 53 50 69 51 40 52 41 53 52 55 70 56
REMARK SMILES IDX 43 57 30 58 31 59 36 60 32 61 33 62 35 63 37 64 34 65 56 66
REMARK SMILES IDX 57 67 62 68 58 69 59 70 61 71 63 72 60 73 44 74 45 75 50 76
REMARK SMILES IDX 46 77 47 78 49 79 51 80 48 81
REMARK H PARENT 14 6 18 24 68 43 42 54
REMARK Flexibility Score: inf
ROOT
ATOM      1  C   UNL A   1      37.312  19.944  24.971  1.00  0.00     0.042 C 
ENDROOT
BRANCH   1   2
ATOM      2  C   UNL A   1      36.194  20.969  24.813  1.00  0.00     0.117 C 
BRANCH   2   3
ATOM      3  N   UNL A   1      35.346  21.039  25.997  1.00  0.00    -0.356 N 
ATOM      4  C   UNL A   1      34.206  21.651  26.385  1.00  0.00     0.227 C 
ATOM      5  O   UNL A   1      33.890  21.417  27.562  1.00  0.00    -0.275 OA
ATOM      6  H   UNL A   1      35.709  20.480  26.722  1.00  0.00     0.163 HD
BRANCH   4   7
ATOM      7  C   UNL A   1      33.284  22.549  25.562  1.00  0.00     0.130 C 
ATOM      8  C   UNL A   1      32.528  23.662  26.235  1.00  0.00     0.143 C 
ATOM      9  C   UNL A   1      31.262  22.947  26.711  1.00  0.00     0.187 C 
ATOM     10  O   UNL A   1      31.029  21.838  25.831  1.00  0.00    -0.378 OA
ATOM     11  C   UNL A   1      32.170  21.694  24.977  1.00  0.00     0.176 C 
BRANCH   8  12
ATOM     12  N   UNL A   1      32.146  24.810  25.356  1.00  0.00    -0.231 N 
ATOM     13  C   UNL A   1      32.009  28.091  24.505  1.00  0.00     0.041 C 
ATOM     14  C   UNL A   1      32.701  26.993  25.304  1.00  0.00     0.165 C 
ATOM     15  C   UNL A   1      33.725  27.584  26.281  1.00  0.00     0.041 C 
ATOM     16  C   UNL A   1      31.735  26.019  25.982  1.00  0.00     0.259 C 
ATOM     17  S   UNL A   1      33.271  25.596  24.403  1.00  0.00     0.252 S 
ATOM     18  O   UNL A   1      30.975  26.107  26.925  1.00  0.00    -0.272 OA
ATOM     19  O   UNL A   1      32.802  25.591  23.037  1.00  0.00    -0.205 OA
ATOM     20  O   UNL A   1      34.601  25.205  24.795  1.00  0.00    -0.205 OA
ENDBRANCH   8  12
ENDBRANCH   4   7
ENDBRANCH   2   3
ENDBRANCH   1   2
BRANCH   1  21
ATOM     21  C   UNL A   1      38.606  20.555  25.493  1.00  0.00     0.118 C 
BRANCH  21  22
ATOM     22  N   UNL A   1      39.664  19.560  25.629  1.00  0.00    -0.352 N 
ATOM     23  C   UNL A   1      40.983  19.705  25.987  1.00  0.00     0.251 C 
ATOM     24  H   UNL A   1      39.389  18.636  25.435  1.00  0.00     0.163 HD
ATOM     25  O   UNL A   1      41.768  18.780  25.799  1.00  0.00    -0.269 OA
BRANCH  23  26
ATOM     26  C   UNL A   1      41.467  20.969  26.583  1.00  0.00     0.039 A 
ATOM     27  C   UNL A   1      41.975  21.971  25.748  1.00  0.00     0.014 A 
ATOM     28  C   UNL A   1      41.460  21.154  27.965  1.00  0.00     0.014 A 
ATOM     29  C   UNL A   1      42.404  23.183  26.296  1.00  0.00     0.010 A 
ATOM     30  C   UNL A   1      41.800  22.390  28.501  1.00  0.00     0.010 A 
ATOM     31  C   UNL A   1      42.283  23.417  27.674  1.00  0.00    -0.014 A 
BRANCH  31  32
ATOM     32  C   UNL A   1      42.676  24.704  28.302  1.00  0.00     0.031 A 
ATOM     33  C   UNL A   1      41.635  25.766  28.525  1.00  0.00     0.074 A 
ATOM     34  C   UNL A   1      43.972  24.963  28.560  1.00  0.00     0.049 A 
ATOM     35  N   UNL A   1      41.788  27.022  28.854  1.00  0.00    -0.248 NA
ATOM     36  C   UNL A   1      40.233  25.368  28.310  1.00  0.00     0.031 C 
ATOM     37  C   UNL A   1      45.082  24.030  28.358  1.00  0.00     0.029 A 
ATOM     38  N   UNL A   1      44.577  26.103  29.026  1.00  0.00    -0.354 N 
ATOM     39  C   UNL A   1      40.513  27.573  28.841  1.00  0.00     0.074 A 
ATOM     40  C   UNL A   1      39.601  26.524  28.438  1.00  0.00     0.031 C 
ATOM     41  C   UNL A   1      46.230  24.632  28.709  1.00  0.00     0.029 A 
ATOM     42  C   UNL A   1      45.944  26.005  29.113  1.00  0.00     0.049 A 
ATOM     43  H   UNL A   1      44.078  26.914  29.275  1.00  0.00     0.167 HD
ATOM     44  C   UNL A   1      40.134  28.835  29.151  1.00  0.00     0.037 A 
ATOM     45  C   UNL A   1      46.864  26.926  29.458  1.00  0.00     0.037 A 
ATOM     46  C   UNL A   1      41.035  29.860  29.604  1.00  0.00     0.049 A 
ATOM     47  C   UNL A   1      46.417  28.315  29.818  1.00  0.00     0.074 A 
ATOM     48  C   UNL A   1      40.742  31.151  30.006  1.00  0.00     0.029 A 
ATOM     49  N   UNL A   1      42.407  29.702  29.726  1.00  0.00    -0.354 N 
ATOM     50  N   UNL A   1      45.205  28.813  29.833  1.00  0.00    -0.248 NA
ATOM     51  C   UNL A   1      47.466  29.269  30.208  1.00  0.00     0.031 C 
ATOM     52  C   UNL A   1      41.942  31.783  30.348  1.00  0.00     0.029 A 
ATOM     53  C   UNL A   1      42.976  30.874  30.191  1.00  0.00     0.049 A 
ATOM     54  H   UNL A   1      42.902  28.878  29.513  1.00  0.00     0.167 HD
ATOM     55  C   UNL A   1      45.340  30.127  30.262  1.00  0.00     0.074 A 
ATOM     56  C   UNL A   1      46.751  30.348  30.499  1.00  0.00     0.031 C 
ATOM     57  C   UNL A   1      44.380  31.065  30.445  1.00  0.00     0.037 A 
BRANCH  44  58
ATOM     58  C   UNL A   1      38.677  29.172  29.017  1.00  0.00     0.057 A 
ATOM     59  C   UNL A   1      37.801  29.111  30.108  1.00  0.00     0.134 A 
ATOM     60  C   UNL A   1      38.151  29.583  27.786  1.00  0.00     0.134 A 
ATOM     61  F   UNL A   1      38.241  28.711  31.311  1.00  0.00    -0.206 F 
ATOM     62  C   UNL A   1      36.446  29.419  29.974  1.00  0.00     0.040 A 
ATOM     63  C   UNL A   1      36.802  29.918  27.646  1.00  0.00     0.040 A 
ATOM     64  F   UNL A   1      38.936  29.668  26.702  1.00  0.00    -0.206 F 
ATOM     65  C   UNL A   1      35.945  29.829  28.740  1.00  0.00     0.006 A 
ENDBRANCH  44  58
BRANCH  45  66
ATOM     66  C   UNL A   1      48.301  26.557  29.499  1.00  0.00     0.057 A 
ATOM     67  C   UNL A   1      48.867  26.014  30.657  1.00  0.00     0.134 A 
ATOM     68  C   UNL A   1      49.137  26.733  28.391  1.00  0.00     0.134 A 
ATOM     69  F   UNL A   1      48.118  25.838  31.756  1.00  0.00    -0.206 F 
ATOM     70  C   UNL A   1      50.218  25.670  30.719  1.00  0.00     0.040 A 
ATOM     71  C   UNL A   1      50.486  26.374  28.432  1.00  0.00     0.040 A 
ATOM     72  F   UNL A   1      48.652  27.242  27.250  1.00  0.00    -0.206 F 
ATOM     73  C   UNL A   1      51.030  25.846  29.601  1.00  0.00     0.006 A 
ENDBRANCH  45  66
BRANCH  57  74
ATOM     74  C   UNL A   1      44.812  32.399  30.972  1.00  0.00     0.057 A 
ATOM     75  C   UNL A   1      44.917  32.650  32.345  1.00  0.00     0.134 A 
ATOM     76  C   UNL A   1      45.190  33.420  30.092  1.00  0.00     0.134 A 
ATOM     77  F   UNL A   1      44.558  31.716  33.238  1.00  0.00    -0.206 F 
ATOM     78  C   UNL A   1      45.376  33.878  32.825  1.00  0.00     0.040 A 
ATOM     79  C   UNL A   1      45.670  34.644  30.559  1.00  0.00     0.040 A 
ATOM     80  F   UNL A   1      45.119  33.236  28.764  1.00  0.00    -0.206 F 
ATOM     81  C   UNL A   1      45.762  34.875  31.930  1.00  0.00     0.006 A 
ENDBRANCH  57  74
ENDBRANCH  31  32
ENDBRANCH  23  26
ENDBRANCH  21  22
ENDBRANCH   1  21
TORSDOF 11
ENDMDL
MODEL 3
REMARK VINA RESULT:     -12.1      5.508     10.517
REMARK SMILES CC1(C)C(=O)N([C@H]2COC[C@@H]2C(=O)NCCCNC(=O)c2ccc(-c3c4nc(c(-c5c(F)cccc5F)c5ccc([nH]5)c(-c5c(F)cccc5F)c5nc(c(-c6c(F)cccc6F)c6ccc3[nH]6)C=C5)C=C4)cc2)S1(=O)=O
REMARK SMILES IDX 16 1 15 2 14 3 12 4 13 5 11 7 7 8 8 9 9 10 10 11 6 12 1 13
REMARK SMILES IDX 2 14 3 15 4 16 75 17 5 18 76 19 77 20 17 21 18 22 19 23
REMARK SMILES IDX 20 25 21 26 22 27 74 28 23 29 73 30 24 31 25 32 26 33 67 34
REMARK SMILES IDX 27 35 72 36 66 37 68 38 28 39 71 40 65 41 64 42 29 44 55 45
REMARK SMILES IDX 38 46 54 47 39 48 42 49 53 50 69 51 40 52 41 53 52 55 70 56
REMARK SMILES IDX 43 57 30 58 31 59 36 60 32 61 33 62 35 63 37 64 34 65 56 66
REMARK SMILES IDX 57 67 62 68 58 69 59 70 61 71 63 72 60 73 44 74 45 75 50 76
REMARK SMILES IDX 46 77 47 78 49 79 51 80 48 81
REMARK H PARENT 14 6 18 24 68 43 42 54
REMARK Flexibility Score: inf
ROOT
ATOM      1  C   UNL A   1      37.604  19.672  25.001  1.00  0.00     0.042 C 
ENDROOT
BRANCH   1   2
ATOM      2  C   UNL A   1      36.464  20.684  24.997  1.00  0.00     0.117 C 
BRANCH   2   3
ATOM      3  N   UNL A   1      35.158  20.035  25.001  1.00  0.00    -0.356 N 
ATOM      4  C   UNL A   1      33.905  20.296  25.434  1.00  0.00     0.227 C 
ATOM      5  O   UNL A   1      33.105  19.369  25.231  1.00  0.00    -0.275 OA
ATOM      6  H   UNL A   1      35.202  19.155  24.562  1.00  0.00     0.163 HD
BRANCH   4   7
ATOM      7  C   UNL A   1      33.378  21.563  26.104  1.00  0.00     0.130 C 
ATOM      8  C   UNL A   1      33.592  22.900  25.450  1.00  0.00     0.143 C 
ATOM      9  C   UNL A   1      34.971  23.299  25.981  1.00  0.00     0.187 C 
ATOM     10  O   UNL A   1      35.152  22.657  27.251  1.00  0.00    -0.378 OA
ATOM     11  C   UNL A   1      34.077  21.730  27.445  1.00  0.00     0.176 C 
BRANCH   8  12
ATOM     12  N   UNL A   1      32.601  23.963  25.804  1.00  0.00    -0.231 N 
ATOM     13  C   UNL A   1      30.102  26.154  25.129  1.00  0.00     0.041 C 
ATOM     14  C   UNL A   1      30.847  24.885  24.732  1.00  0.00     0.165 C 
ATOM     15  C   UNL A   1      30.403  24.394  23.349  1.00  0.00     0.041 C 
ATOM     16  C   UNL A   1      32.368  24.997  24.856  1.00  0.00     0.259 C 
ATOM     17  S   UNL A   1      30.972  23.625  25.951  1.00  0.00     0.252 S 
ATOM     18  O   UNL A   1      33.222  25.591  24.230  1.00  0.00    -0.272 OA
ATOM     19  O   UNL A   1      30.525  24.068  27.251  1.00  0.00    -0.205 OA
ATOM     20  O   UNL A   1      30.692  22.320  25.410  1.00  0.00    -0.205 OA
ENDBRANCH   8  12
ENDBRANCH   4   7
ENDBRANCH   2   3
ENDBRANCH   1   2
BRANCH   1  21
ATOM     21  C   UNL A   1      38.889  20.230  25.599  1.00  0.00     0.118 C 
BRANCH  21  22
ATOM     22  N   UNL A   1      39.913  19.202  25.751  1.00  0.00    -0.352 N 
ATOM     23  C   UNL A   1      41.266  19.316  25.965  1.00  0.00     0.251 C 
ATOM     24  H   UNL A   1      39.582  18.277  25.693  1.00  0.00     0.163 HD
ATOM     25  O   UNL A   1      41.988  18.336  25.813  1.00  0.00    -0.269 OA
BRANCH  23  26
ATOM     26  C   UNL A   1      41.858  20.612  26.361  1.00  0.00     0.039 A 
ATOM     27  C   UNL A   1      42.149  21.563  25.376  1.00  0.00     0.014 A 
ATOM     28  C   UNL A   1      42.167  20.876  27.695  1.00  0.00     0.014 A 
ATOM     29  C   UNL A   1      42.679  22.804  25.741  1.00  0.00     0.010 A 
ATOM     30  C   UNL A   1      42.607  22.141  28.067  1.00  0.00     0.010 A 
ATOM     31  C   UNL A   1      42.875  23.117  27.095  1.00  0.00    -0.014 A 
BRANCH  31  32
ATOM     32  C   UNL A   1      43.386  24.438  27.541  1.00  0.00     0.031 A 
ATOM     33  C   UNL A   1      42.415  25.489  28.003  1.00  0.00     0.074 A 
ATOM     34  C   UNL A   1      44.695  24.731  27.423  1.00  0.00     0.049 A 
ATOM     35  N   UNL A   1      42.615  26.761  28.229  1.00  0.00    -0.248 NA
ATOM     36  C   UNL A   1      41.021  25.056  28.197  1.00  0.00     0.031 C 
ATOM     37  C   UNL A   1      45.734  23.811  26.959  1.00  0.00     0.029 A 
ATOM     38  N   UNL A   1      45.370  25.902  27.661  1.00  0.00    -0.354 N 
ATOM     39  C   UNL A   1      41.369  27.288  28.547  1.00  0.00     0.074 A 
ATOM     40  C   UNL A   1      40.414  26.206  28.451  1.00  0.00     0.031 C 
ATOM     41  C   UNL A   1      46.917  24.449  26.957  1.00  0.00     0.029 A 
ATOM     42  C   UNL A   1      46.711  25.833  27.372  1.00  0.00     0.049 A 
ATOM     43  H   UNL A   1      44.935  26.714  28.008  1.00  0.00     0.167 HD
ATOM     44  C   UNL A   1      41.053  28.555  28.903  1.00  0.00     0.037 A 
ATOM     45  C   UNL A   1      47.663  26.785  27.416  1.00  0.00     0.037 A 
ATOM     46  C   UNL A   1      42.012  29.615  29.051  1.00  0.00     0.049 A 
ATOM     47  C   UNL A   1      47.290  28.180  27.833  1.00  0.00     0.074 A 
ATOM     48  C   UNL A   1      41.803  30.917  29.470  1.00  0.00     0.029 A 
ATOM     49  N   UNL A   1      43.369  29.488  28.797  1.00  0.00    -0.354 N 
ATOM     50  N   UNL A   1      46.115  28.656  28.163  1.00  0.00    -0.248 NA
ATOM     51  C   UNL A   1      48.377  29.170  27.883  1.00  0.00     0.031 C 
ATOM     52  C   UNL A   1      43.031  31.586  29.445  1.00  0.00     0.029 A 
ATOM     53  C   UNL A   1      44.009  30.690  29.043  1.00  0.00     0.049 A 
ATOM     54  H   UNL A   1      43.812  28.665  28.486  1.00  0.00     0.167 HD
ATOM     55  C   UNL A   1      46.323  29.990  28.489  1.00  0.00     0.074 A 
ATOM     56  C   UNL A   1      47.738  30.247  28.319  1.00  0.00     0.031 C 
ATOM     57  C   UNL A   1      45.423  30.918  28.893  1.00  0.00     0.037 A 
BRANCH  44  58
ATOM     58  C   UNL A   1      39.606  28.859  29.162  1.00  0.00     0.057 A 
ATOM     59  C   UNL A   1      38.748  29.294  28.143  1.00  0.00     0.134 A 
ATOM     60  C   UNL A   1      39.060  28.695  30.441  1.00  0.00     0.134 A 
ATOM     61  F   UNL A   1      39.213  29.485  26.899  1.00  0.00    -0.206 F 
ATOM     62  C   UNL A   1      37.406  29.582  28.393  1.00  0.00     0.040 A 
ATOM     63  C   UNL A   1      37.712  28.955  30.698  1.00  0.00     0.040 A 
ATOM     64  F   UNL A   1      39.825  28.275  31.461  1.00  0.00    -0.206 F 
ATOM     65  C   UNL A   1      36.884  29.407  29.673  1.00  0.00     0.006 A 
ENDBRANCH  44  58
BRANCH  45  66
ATOM     66  C   UNL A   1      49.066  26.445  27.073  1.00  0.00     0.057 A 
ATOM     67  C   UNL A   1      49.508  26.490  25.747  1.00  0.00     0.134 A 
ATOM     68  C   UNL A   1      49.994  26.073  28.053  1.00  0.00     0.134 A 
ATOM     69  F   UNL A   1      48.659  26.823  24.763  1.00  0.00    -0.206 F 
ATOM     70  C   UNL A   1      50.821  26.164  25.402  1.00  0.00     0.040 A 
ATOM     71  C   UNL A   1      51.315  25.764  27.725  1.00  0.00     0.040 A 
ATOM     72  F   UNL A   1      49.632  26.019  29.342  1.00  0.00    -0.206 F 
ATOM     73  C   UNL A   1      51.730  25.805  26.395  1.00  0.00     0.006 A 
ENDBRANCH  45  66
BRANCH  57  74
ATOM     74  C   UNL A   1      45.943  32.281  29.231  1.00  0.00     0.057 A 
ATOM     75  C   UNL A   1      45.990  33.308  28.282  1.00  0.00     0.134 A 
ATOM     76  C   UNL A   1      46.337  32.584  30.540  1.00  0.00     0.134 A 
ATOM     77  F   UNL A   1      45.638  33.076  27.009  1.00  0.00    -0.206 F 
ATOM     78  C   UNL A   1      46.422  34.591  28.622  1.00  0.00     0.040 A 
ATOM     79  C   UNL A   1      46.751  33.868  30.897  1.00  0.00     0.040 A 
ATOM     80  F   UNL A   1      46.306  31.643  31.496  1.00  0.00    -0.206 F 
ATOM     81  C   UNL A   1      46.796  34.875  29.935  1.00  0.00     0.006 A 
ENDBRANCH  57  74
ENDBRANCH  31  32
ENDBRANCH  23  26
ENDBRANCH  21  22
ENDBRANCH   1  21
TORSDOF 11
ENDMDL
