MODEL 1
REMARK VINA RESULT:     -11.4      0.000      0.000
REMARK SMILES O=C(CC1(C[S@](=O)C[C@H]2Cc3ccccc3S2)CC1)NCCCNC(=O)c1ccc(-c2c3nc(c(-c4c(F)cccc4F)c4ccc([nH]4)c(-c4c(F)cccc4F)c4nc(c(-c5c(F)cccc5F)c5ccc2[nH]5)C=C4)C=C3)cc1
REMARK SMILES IDX 1 1 2 2 20 3 3 5 4 6 18 7 19 8 5 9 6 10 7 11 8 12 9 13 10 14
REMARK SMILES IDX 17 15 11 16 16 17 12 18 15 19 13 20 14 21 21 22 22 23 23 24
REMARK SMILES IDX 24 25 25 26 26 28 27 29 28 30 80 31 29 32 79 33 30 34 31 35
REMARK SMILES IDX 32 36 73 37 33 38 78 39 72 40 74 41 34 42 77 43 71 44 70 45
REMARK SMILES IDX 35 47 61 48 44 49 60 50 45 51 48 52 59 53 75 54 46 55 47 56
REMARK SMILES IDX 58 58 76 59 49 60 36 61 37 62 42 63 38 64 39 65 41 66 43 67
REMARK SMILES IDX 40 68 62 69 63 70 68 71 64 72 65 73 67 74 69 75 66 76 50 77
REMARK SMILES IDX 51 78 56 79 52 80 53 81 55 82 57 83 54 84
REMARK H PARENT 20 4 24 27 74 46 48 57
REMARK Flexibility Score: inf
ROOT
ATOM      1  O   UNL A   1      33.286  28.720  24.262  1.00  0.00    -0.275 OA
ATOM      2  C   UNL A   1      32.606  28.357  25.221  1.00  0.00     0.220 C 
ATOM      3  N   UNL A   1      31.630  29.147  25.779  1.00  0.00    -0.356 N 
ATOM      4  H   UNL A   1      31.065  28.771  26.493  1.00  0.00     0.163 HD
ENDROOT
BRANCH   2   5
ATOM      5  C   UNL A   1      32.856  27.012  25.886  1.00  0.00     0.108 C 
BRANCH   5   6
ATOM      6  C   UNL A   1      32.019  25.829  25.433  1.00  0.00    -0.009 C 
ATOM      7  C   UNL A   1      31.762  24.787  26.519  1.00  0.00     0.009 C 
ATOM      8  C   UNL A   1      30.646  25.679  26.084  1.00  0.00     0.009 C 
BRANCH   6   9
ATOM      9  C   UNL A   1      32.242  25.225  24.052  1.00  0.00     0.112 C 
BRANCH   9  10
ATOM     10  S   UNL A   1      33.812  24.601  23.455  1.00  0.00     0.023 S 
ATOM     11  O   UNL A   1      34.028  25.095  22.056  1.00  0.00    -0.260 OA
BRANCH  10  12
ATOM     12  C   UNL A   1      33.630  22.812  23.408  1.00  0.00     0.120 C 
BRANCH  12  13
ATOM     13  C   UNL A   1      33.214  22.035  24.661  1.00  0.00     0.068 C 
ATOM     14  C   UNL A   1      32.153  20.970  24.260  1.00  0.00     0.052 C 
ATOM     15  S   UNL A   1      34.521  21.071  25.506  1.00  0.00    -0.121 SA
ATOM     16  C   UNL A   1      32.871  19.664  24.034  1.00  0.00    -0.033 A 
ATOM     17  C   UNL A   1      34.119  19.587  24.649  1.00  0.00     0.011 A 
ATOM     18  C   UNL A   1      32.366  18.562  23.355  1.00  0.00     0.005 A 
ATOM     19  C   UNL A   1      34.901  18.445  24.569  1.00  0.00     0.015 A 
ATOM     20  C   UNL A   1      33.138  17.398  23.278  1.00  0.00     0.000 A 
ATOM     21  C   UNL A   1      34.403  17.342  23.876  1.00  0.00     0.001 A 
ENDBRANCH  12  13
ENDBRANCH  10  12
ENDBRANCH   9  10
ENDBRANCH   6   9
ENDBRANCH   5   6
ENDBRANCH   2   5
BRANCH   3  22
ATOM     22  C   UNL A   1      31.403  30.516  25.357  1.00  0.00     0.117 C 
BRANCH  22  23
ATOM     23  C   UNL A   1      31.303  31.500  26.517  1.00  0.00     0.042 C 
BRANCH  23  24
ATOM     24  C   UNL A   1      32.609  32.205  26.876  1.00  0.00     0.118 C 
BRANCH  24  25
ATOM     25  N   UNL A   1      32.421  33.554  27.395  1.00  0.00    -0.352 N 
ATOM     26  C   UNL A   1      33.076  34.266  28.369  1.00  0.00     0.251 C 
ATOM     27  H   UNL A   1      31.687  34.048  26.966  1.00  0.00     0.163 HD
ATOM     28  O   UNL A   1      32.623  35.360  28.705  1.00  0.00    -0.269 OA
BRANCH  26  29
ATOM     29  C   UNL A   1      34.283  33.741  29.051  1.00  0.00     0.039 A 
ATOM     30  C   UNL A   1      35.564  34.203  28.752  1.00  0.00     0.014 A 
ATOM     31  C   UNL A   1      34.117  32.781  30.057  1.00  0.00     0.014 A 
ATOM     32  C   UNL A   1      36.678  33.581  29.316  1.00  0.00     0.010 A 
ATOM     33  C   UNL A   1      35.233  32.222  30.690  1.00  0.00     0.010 A 
ATOM     34  C   UNL A   1      36.527  32.575  30.284  1.00  0.00    -0.014 A 
BRANCH  34  35
ATOM     35  C   UNL A   1      37.730  31.890  30.834  1.00  0.00     0.031 A 
ATOM     36  C   UNL A   1      38.217  32.198  32.227  1.00  0.00     0.074 A 
ATOM     37  C   UNL A   1      38.360  30.952  30.102  1.00  0.00     0.049 A 
ATOM     38  N   UNL A   1      39.226  31.682  32.885  1.00  0.00    -0.248 NA
ATOM     39  C   UNL A   1      37.478  33.225  32.979  1.00  0.00     0.031 C 
ATOM     40  C   UNL A   1      37.993  30.555  28.741  1.00  0.00     0.029 A 
ATOM     41  N   UNL A   1      39.430  30.147  30.406  1.00  0.00    -0.354 N 
ATOM     42  C   UNL A   1      39.250  32.325  34.117  1.00  0.00     0.074 A 
ATOM     43  C   UNL A   1      38.181  33.301  34.099  1.00  0.00     0.031 C 
ATOM     44  C   UNL A   1      38.793  29.551  28.346  1.00  0.00     0.029 A 
ATOM     45  C   UNL A   1      39.762  29.271  29.400  1.00  0.00     0.049 A 
ATOM     46  H   UNL A   1      39.913  30.193  31.262  1.00  0.00     0.167 HD
ATOM     47  C   UNL A   1      40.070  32.112  35.175  1.00  0.00     0.037 A 
ATOM     48  C   UNL A   1      40.744  28.354  29.330  1.00  0.00     0.037 A 
ATOM     49  C   UNL A   1      41.128  31.136  35.202  1.00  0.00     0.049 A 
ATOM     50  C   UNL A   1      41.677  28.179  30.495  1.00  0.00     0.074 A 
ATOM     51  C   UNL A   1      41.996  30.831  36.237  1.00  0.00     0.029 A 
ATOM     52  N   UNL A   1      41.464  30.306  34.144  1.00  0.00    -0.354 N 
ATOM     53  N   UNL A   1      41.665  28.775  31.663  1.00  0.00    -0.248 NA
ATOM     54  C   UNL A   1      42.764  27.205  30.328  1.00  0.00     0.031 C 
ATOM     55  C   UNL A   1      42.887  29.850  35.789  1.00  0.00     0.029 A 
ATOM     56  C   UNL A   1      42.543  29.507  34.492  1.00  0.00     0.049 A 
ATOM     57  H   UNL A   1      41.005  30.287  33.273  1.00  0.00     0.167 HD
ATOM     58  C   UNL A   1      42.727  28.233  32.376  1.00  0.00     0.074 A 
ATOM     59  C   UNL A   1      43.348  27.246  31.516  1.00  0.00     0.031 C 
ATOM     60  C   UNL A   1      43.153  28.529  33.628  1.00  0.00     0.037 A 
BRANCH  47  61
ATOM     61  C   UNL A   1      39.862  32.970  36.391  1.00  0.00     0.057 A 
ATOM     62  C   UNL A   1      40.623  34.128  36.590  1.00  0.00     0.134 A 
ATOM     63  C   UNL A   1      38.923  32.638  37.379  1.00  0.00     0.134 A 
ATOM     64  F   UNL A   1      41.546  34.500  35.690  1.00  0.00    -0.206 F 
ATOM     65  C   UNL A   1      40.457  34.927  37.723  1.00  0.00     0.040 A 
ATOM     66  C   UNL A   1      38.729  33.445  38.502  1.00  0.00     0.040 A 
ATOM     67  F   UNL A   1      38.151  31.549  37.245  1.00  0.00    -0.206 F 
ATOM     68  C   UNL A   1      39.502  34.590  38.679  1.00  0.00     0.006 A 
ENDBRANCH  47  61
BRANCH  48  69
ATOM     69  C   UNL A   1      40.907  27.526  28.108  1.00  0.00     0.057 A 
ATOM     70  C   UNL A   1      40.272  26.285  27.978  1.00  0.00     0.134 A 
ATOM     71  C   UNL A   1      41.676  27.972  27.028  1.00  0.00     0.134 A 
ATOM     72  F   UNL A   1      39.522  25.799  28.978  1.00  0.00    -0.206 F 
ATOM     73  C   UNL A   1      40.402  25.515  26.822  1.00  0.00     0.040 A 
ATOM     74  C   UNL A   1      41.792  27.226  25.855  1.00  0.00     0.040 A 
ATOM     75  F   UNL A   1      42.290  29.164  27.083  1.00  0.00    -0.206 F 
ATOM     76  C   UNL A   1      41.156  25.990  25.752  1.00  0.00     0.006 A 
ENDBRANCH  48  69
BRANCH  60  77
ATOM     77  C   UNL A   1      44.326  27.753  34.150  1.00  0.00     0.057 A 
ATOM     78  C   UNL A   1      45.628  28.252  34.018  1.00  0.00     0.134 A 
ATOM     79  C   UNL A   1      44.170  26.509  34.778  1.00  0.00     0.134 A 
ATOM     80  F   UNL A   1      45.848  29.432  33.422  1.00  0.00    -0.206 F 
ATOM     81  C   UNL A   1      46.733  27.543  34.493  1.00  0.00     0.040 A 
ATOM     82  C   UNL A   1      45.265  25.805  35.282  1.00  0.00     0.040 A 
ATOM     83  F   UNL A   1      42.949  25.983  34.950  1.00  0.00    -0.206 F 
ATOM     84  C   UNL A   1      46.551  26.320  35.135  1.00  0.00     0.006 A 
ENDBRANCH  60  77
ENDBRANCH  34  35
ENDBRANCH  26  29
ENDBRANCH  24  25
ENDBRANCH  23  24
ENDBRANCH  22  23
ENDBRANCH   3  22
TORSDOF 15
ENDMDL
MODEL 2
REMARK VINA RESULT:     -11.4      4.773      8.454
REMARK SMILES O=C(CC1(C[S@](=O)C[C@H]2Cc3ccccc3S2)CC1)NCCCNC(=O)c1ccc(-c2c3nc(c(-c4c(F)cccc4F)c4ccc([nH]4)c(-c4c(F)cccc4F)c4nc(c(-c5c(F)cccc5F)c5ccc2[nH]5)C=C4)C=C3)cc1
REMARK SMILES IDX 1 1 2 2 20 3 3 5 4 6 18 7 19 8 5 9 6 10 7 11 8 12 9 13 10 14
REMARK SMILES IDX 17 15 11 16 16 17 12 18 15 19 13 20 14 21 21 22 22 23 23 24
REMARK SMILES IDX 24 25 25 26 26 28 27 29 28 30 80 31 29 32 79 33 30 34 31 35
REMARK SMILES IDX 32 36 73 37 33 38 78 39 72 40 74 41 34 42 77 43 71 44 70 45
REMARK SMILES IDX 35 47 61 48 44 49 60 50 45 51 48 52 59 53 75 54 46 55 47 56
REMARK SMILES IDX 58 58 76 59 49 60 36 61 37 62 42 63 38 64 39 65 41 66 43 67
REMARK SMILES IDX 40 68 62 69 63 70 68 71 64 72 65 73 67 74 69 75 66 76 50 77
REMARK SMILES IDX 51 78 56 79 52 80 53 81 55 82 57 83 54 84
REMARK H PARENT 20 4 24 27 74 46 48 57
REMARK Flexibility Score: inf
ROOT
ATOM      1  O   UNL A   1      31.060  27.673  27.311  1.00  0.00    -0.275 OA
ATOM      2  C   UNL A   1      31.748  27.298  26.363  1.00  0.00     0.220 C 
ATOM      3  N   UNL A   1      32.852  27.990  25.928  1.00  0.00    -0.356 N 
ATOM      4  H   UNL A   1      33.409  27.598  25.217  1.00  0.00     0.163 HD
ENDROOT
BRANCH   2   5
ATOM      5  C   UNL A   1      31.369  26.054  25.573  1.00  0.00     0.108 C 
BRANCH   5   6
ATOM      6  C   UNL A   1      30.878  26.239  24.148  1.00  0.00    -0.009 C 
ATOM      7  C   UNL A   1      29.358  26.257  24.004  1.00  0.00     0.009 C 
ATOM      8  C   UNL A   1      30.121  27.532  23.854  1.00  0.00     0.009 C 
BRANCH   6   9
ATOM      9  C   UNL A   1      31.589  25.532  23.002  1.00  0.00     0.112 C 
BRANCH   9  10
ATOM     10  S   UNL A   1      33.346  25.652  22.665  1.00  0.00     0.023 S 
ATOM     11  O   UNL A   1      33.541  25.900  21.199  1.00  0.00    -0.260 OA
BRANCH  10  12
ATOM     12  C   UNL A   1      34.021  24.033  23.065  1.00  0.00     0.120 C 
BRANCH  12  13
ATOM     13  C   UNL A   1      33.927  23.477  24.489  1.00  0.00     0.068 C 
ATOM     14  C   UNL A   1      34.615  22.081  24.527  1.00  0.00     0.052 C 
ATOM     15  S   UNL A   1      34.772  24.431  25.804  1.00  0.00    -0.121 SA
ATOM     16  C   UNL A   1      36.033  22.278  25.000  1.00  0.00    -0.033 A 
ATOM     17  C   UNL A   1      36.241  23.466  25.697  1.00  0.00     0.011 A 
ATOM     18  C   UNL A   1      37.072  21.365  24.864  1.00  0.00     0.005 A 
ATOM     19  C   UNL A   1      37.479  23.791  26.230  1.00  0.00     0.015 A 
ATOM     20  C   UNL A   1      38.324  21.674  25.408  1.00  0.00     0.000 A 
ATOM     21  C   UNL A   1      38.529  22.885  26.082  1.00  0.00     0.001 A 
ENDBRANCH  12  13
ENDBRANCH  10  12
ENDBRANCH   9  10
ENDBRANCH   6   9
ENDBRANCH   5   6
ENDBRANCH   2   5
BRANCH   3  22
ATOM     22  C   UNL A   1      33.227  29.279  26.478  1.00  0.00     0.117 C 
BRANCH  22  23
ATOM     23  C   UNL A   1      34.418  29.212  27.425  1.00  0.00     0.042 C 
BRANCH  23  24
ATOM     24  C   UNL A   1      35.105  30.551  27.690  1.00  0.00     0.118 C 
BRANCH  24  25
ATOM     25  N   UNL A   1      35.188  30.895  29.104  1.00  0.00    -0.352 N 
ATOM     26  C   UNL A   1      36.155  30.669  30.052  1.00  0.00     0.251 C 
ATOM     27  H   UNL A   1      34.404  31.383  29.442  1.00  0.00     0.163 HD
ATOM     28  O   UNL A   1      35.911  30.958  31.223  1.00  0.00    -0.269 OA
BRANCH  26  29
ATOM     29  C   UNL A   1      37.460  30.054  29.715  1.00  0.00     0.039 A 
ATOM     30  C   UNL A   1      38.245  29.408  30.668  1.00  0.00     0.014 A 
ATOM     31  C   UNL A   1      37.892  30.092  28.383  1.00  0.00     0.014 A 
ATOM     32  C   UNL A   1      39.527  28.970  30.336  1.00  0.00     0.010 A 
ATOM     33  C   UNL A   1      39.141  29.569  28.030  1.00  0.00     0.010 A 
ATOM     34  C   UNL A   1      39.996  29.055  29.015  1.00  0.00    -0.014 A 
BRANCH  34  35
ATOM     35  C   UNL A   1      41.386  28.630  28.694  1.00  0.00     0.031 A 
ATOM     36  C   UNL A   1      41.678  27.207  28.290  1.00  0.00     0.074 A 
ATOM     37  C   UNL A   1      42.386  29.532  28.716  1.00  0.00     0.049 A 
ATOM     38  N   UNL A   1      42.819  26.660  27.947  1.00  0.00    -0.248 NA
ATOM     39  C   UNL A   1      40.541  26.273  28.275  1.00  0.00     0.031 C 
ATOM     40  C   UNL A   1      42.243  30.942  29.087  1.00  0.00     0.029 A 
ATOM     41  N   UNL A   1      43.716  29.405  28.401  1.00  0.00    -0.354 N 
ATOM     42  C   UNL A   1      42.540  25.323  27.686  1.00  0.00     0.074 A 
ATOM     43  C   UNL A   1      41.131  25.130  27.954  1.00  0.00     0.031 C 
ATOM     44  C   UNL A   1      43.426  31.557  28.933  1.00  0.00     0.029 A 
ATOM     45  C   UNL A   1      44.421  30.579  28.508  1.00  0.00     0.049 A 
ATOM     46  H   UNL A   1      44.125  28.553  28.126  1.00  0.00     0.167 HD
ATOM     47  C   UNL A   1      43.373  24.349  27.246  1.00  0.00     0.037 A 
ATOM     48  C   UNL A   1      45.725  30.837  28.298  1.00  0.00     0.037 A 
ATOM     49  C   UNL A   1      44.773  24.537  26.968  1.00  0.00     0.049 A 
ATOM     50  C   UNL A   1      46.638  29.724  27.867  1.00  0.00     0.074 A 
ATOM     51  C   UNL A   1      45.692  23.615  26.496  1.00  0.00     0.029 A 
ATOM     52  N   UNL A   1      45.459  25.730  27.140  1.00  0.00    -0.354 N 
ATOM     53  N   UNL A   1      46.352  28.474  27.597  1.00  0.00    -0.248 NA
ATOM     54  C   UNL A   1      48.061  30.061  27.716  1.00  0.00     0.031 C 
ATOM     55  C   UNL A   1      46.943  24.237  26.426  1.00  0.00     0.029 A 
ATOM     56  C   UNL A   1      46.794  25.561  26.807  1.00  0.00     0.049 A 
ATOM     57  H   UNL A   1      45.057  26.572  27.452  1.00  0.00     0.167 HD
ATOM     58  C   UNL A   1      47.551  27.881  27.225  1.00  0.00     0.074 A 
ATOM     59  C   UNL A   1      48.565  28.915  27.284  1.00  0.00     0.031 C 
ATOM     60  C   UNL A   1      47.793  26.596  26.870  1.00  0.00     0.037 A 
BRANCH  47  61
ATOM     61  C   UNL A   1      42.788  22.978  27.053  1.00  0.00     0.057 A 
ATOM     62  C   UNL A   1      42.526  22.150  28.151  1.00  0.00     0.134 A 
ATOM     63  C   UNL A   1      42.502  22.468  25.778  1.00  0.00     0.134 A 
ATOM     64  F   UNL A   1      42.785  22.570  29.399  1.00  0.00    -0.206 F 
ATOM     65  C   UNL A   1      42.000  20.866  27.990  1.00  0.00     0.040 A 
ATOM     66  C   UNL A   1      41.950  21.197  25.607  1.00  0.00     0.040 A 
ATOM     67  F   UNL A   1      42.716  23.215  24.684  1.00  0.00    -0.206 F 
ATOM     68  C   UNL A   1      41.703  20.390  26.715  1.00  0.00     0.006 A 
ENDBRANCH  47  61
BRANCH  48  69
ATOM     69  C   UNL A   1      46.256  32.210  28.498  1.00  0.00     0.057 A 
ATOM     70  C   UNL A   1      46.239  33.156  27.465  1.00  0.00     0.134 A 
ATOM     71  C   UNL A   1      46.766  32.616  29.735  1.00  0.00     0.134 A 
ATOM     72  F   UNL A   1      45.765  32.828  26.254  1.00  0.00    -0.206 F 
ATOM     73  C   UNL A   1      46.713  34.453  27.655  1.00  0.00     0.040 A 
ATOM     74  C   UNL A   1      47.218  33.919  29.948  1.00  0.00     0.040 A 
ATOM     75  F   UNL A   1      46.789  31.762  30.769  1.00  0.00    -0.206 F 
ATOM     76  C   UNL A   1      47.196  34.841  28.903  1.00  0.00     0.006 A 
ENDBRANCH  48  69
BRANCH  60  77
ATOM     77  C   UNL A   1      49.203  26.248  26.489  1.00  0.00     0.057 A 
ATOM     78  C   UNL A   1      50.058  25.627  27.408  1.00  0.00     0.134 A 
ATOM     79  C   UNL A   1      49.717  26.532  25.217  1.00  0.00     0.134 A 
ATOM     80  F   UNL A   1      49.632  25.334  28.645  1.00  0.00    -0.206 F 
ATOM     81  C   UNL A   1      51.374  25.300  27.075  1.00  0.00     0.040 A 
ATOM     82  C   UNL A   1      51.021  26.184  24.863  1.00  0.00     0.040 A 
ATOM     83  F   UNL A   1      48.944  27.110  24.285  1.00  0.00    -0.206 F 
ATOM     84  C   UNL A   1      51.855  25.570  25.796  1.00  0.00     0.006 A 
ENDBRANCH  60  77
ENDBRANCH  34  35
ENDBRANCH  26  29
ENDBRANCH  24  25
ENDBRANCH  23  24
ENDBRANCH  22  23
ENDBRANCH   3  22
TORSDOF 15
ENDMDL
MODEL 3
REMARK VINA RESULT:     -11.4      4.434      9.182
REMARK SMILES O=C(CC1(C[S@](=O)C[C@H]2Cc3ccccc3S2)CC1)NCCCNC(=O)c1ccc(-c2c3nc(c(-c4c(F)cccc4F)c4ccc([nH]4)c(-c4c(F)cccc4F)c4nc(c(-c5c(F)cccc5F)c5ccc2[nH]5)C=C4)C=C3)cc1
REMARK SMILES IDX 1 1 2 2 20 3 3 5 4 6 18 7 19 8 5 9 6 10 7 11 8 12 9 13 10 14
REMARK SMILES IDX 17 15 11 16 16 17 12 18 15 19 13 20 14 21 21 22 22 23 23 24
REMARK SMILES IDX 24 25 25 26 26 28 27 29 28 30 80 31 29 32 79 33 30 34 31 35
REMARK SMILES IDX 32 36 73 37 33 38 78 39 72 40 74 41 34 42 77 43 71 44 70 45
REMARK SMILES IDX 35 47 61 48 44 49 60 50 45 51 48 52 59 53 75 54 46 55 47 56
REMARK SMILES IDX 58 58 76 59 49 60 36 61 37 62 42 63 38 64 39 65 41 66 43 67
REMARK SMILES IDX 40 68 62 69 63 70 68 71 64 72 65 73 67 74 69 75 66 76 50 77
REMARK SMILES IDX 51 78 56 79 52 80 53 81 55 82 57 83 54 84
REMARK H PARENT 20 4 24 27 74 46 48 57
REMARK Flexibility Score: inf
ROOT
ATOM      1  O   UNL A   1      35.198  23.001  26.322  1.00  0.00    -0.275 OA
ATOM      2  C   UNL A   1      35.153  22.888  25.099  1.00  0.00     0.220 C 
ATOM      3  N   UNL A   1      35.487  21.724  24.448  1.00  0.00    -0.356 N 
ATOM      4  H   UNL A   1      35.354  21.669  23.474  1.00  0.00     0.163 HD
ENDROOT
BRANCH   2   5
ATOM      5  C   UNL A   1      34.772  24.072  24.223  1.00  0.00     0.108 C 
BRANCH   5   6
ATOM      6  C   UNL A   1      33.377  24.091  23.621  1.00  0.00    -0.009 C 
ATOM      7  C   UNL A   1      33.256  24.914  22.340  1.00  0.00     0.009 C 
ATOM      8  C   UNL A   1      33.217  23.423  22.257  1.00  0.00     0.009 C 
BRANCH   6   9
ATOM      9  C   UNL A   1      32.159  24.197  24.529  1.00  0.00     0.112 C 
BRANCH   9  10
ATOM     10  S   UNL A   1      31.992  25.369  25.875  1.00  0.00     0.023 S 
ATOM     11  O   UNL A   1      31.286  24.699  27.015  1.00  0.00    -0.260 OA
BRANCH  10  12
ATOM     12  C   UNL A   1      30.935  26.680  25.239  1.00  0.00     0.120 C 
BRANCH  12  13
ATOM     13  C   UNL A   1      31.298  27.419  23.947  1.00  0.00     0.068 C 
ATOM     14  C   UNL A   1      30.073  27.379  22.988  1.00  0.00     0.052 C 
ATOM     15  S   UNL A   1      31.693  29.200  24.098  1.00  0.00    -0.121 SA
ATOM     16  C   UNL A   1      29.302  28.661  23.171  1.00  0.00    -0.033 A 
ATOM     17  C   UNL A   1      30.045  29.698  23.731  1.00  0.00     0.011 A 
ATOM     18  C   UNL A   1      27.992  28.890  22.767  1.00  0.00     0.005 A 
ATOM     19  C   UNL A   1      29.500  30.956  23.939  1.00  0.00     0.015 A 
ATOM     20  C   UNL A   1      27.433  30.158  22.959  1.00  0.00     0.000 A 
ATOM     21  C   UNL A   1      28.180  31.185  23.549  1.00  0.00     0.001 A 
ENDBRANCH  12  13
ENDBRANCH  10  12
ENDBRANCH   9  10
ENDBRANCH   6   9
ENDBRANCH   5   6
ENDBRANCH   2   5
BRANCH   3  22
ATOM     22  C   UNL A   1      36.031  20.574  25.145  1.00  0.00     0.117 C 
BRANCH  22  23
ATOM     23  C   UNL A   1      37.437  20.198  24.690  1.00  0.00     0.042 C 
BRANCH  23  24
ATOM     24  C   UNL A   1      38.550  20.574  25.666  1.00  0.00     0.118 C 
BRANCH  24  25
ATOM     25  N   UNL A   1      39.649  19.618  25.695  1.00  0.00    -0.352 N 
ATOM     26  C   UNL A   1      40.972  19.744  26.040  1.00  0.00     0.251 C 
ATOM     27  H   UNL A   1      39.394  18.710  25.415  1.00  0.00     0.163 HD
ATOM     28  O   UNL A   1      41.724  18.790  25.848  1.00  0.00    -0.269 OA
BRANCH  26  29
ATOM     29  C   UNL A   1      41.523  21.001  26.598  1.00  0.00     0.039 A 
ATOM     30  C   UNL A   1      41.512  21.274  27.965  1.00  0.00     0.014 A 
ATOM     31  C   UNL A   1      42.111  21.920  25.721  1.00  0.00     0.014 A 
ATOM     32  C   UNL A   1      41.911  22.527  28.429  1.00  0.00     0.010 A 
ATOM     33  C   UNL A   1      42.598  23.142  26.198  1.00  0.00     0.010 A 
ATOM     34  C   UNL A   1      42.449  23.482  27.551  1.00  0.00    -0.014 A 
BRANCH  34  35
ATOM     35  C   UNL A   1      42.820  24.831  28.060  1.00  0.00     0.031 A 
ATOM     36  C   UNL A   1      41.763  25.883  28.284  1.00  0.00     0.074 A 
ATOM     37  C   UNL A   1      44.102  25.101  28.370  1.00  0.00     0.049 A 
ATOM     38  N   UNL A   1      41.892  27.102  28.747  1.00  0.00    -0.248 NA
ATOM     39  C   UNL A   1      40.380  25.521  27.935  1.00  0.00     0.031 C 
ATOM     40  C   UNL A   1      45.225  24.175  28.205  1.00  0.00     0.029 A 
ATOM     41  N   UNL A   1      44.677  26.226  28.908  1.00  0.00    -0.354 N 
ATOM     42  C   UNL A   1      40.616  27.653  28.737  1.00  0.00     0.074 A 
ATOM     43  C   UNL A   1      39.733  26.651  28.179  1.00  0.00     0.031 C 
ATOM     44  C   UNL A   1      46.342  24.752  28.676  1.00  0.00     0.029 A 
ATOM     45  C   UNL A   1      46.028  26.104  29.123  1.00  0.00     0.049 A 
ATOM     46  H   UNL A   1      44.168  27.042  29.119  1.00  0.00     0.167 HD
ATOM     47  C   UNL A   1      40.210  28.871  29.169  1.00  0.00     0.037 A 
ATOM     48  C   UNL A   1      46.917  26.986  29.616  1.00  0.00     0.037 A 
ATOM     49  C   UNL A   1      41.082  29.868  29.735  1.00  0.00     0.049 A 
ATOM     50  C   UNL A   1      46.449  28.352  30.032  1.00  0.00     0.074 A 
ATOM     51  C   UNL A   1      40.758  31.123  30.222  1.00  0.00     0.029 A 
ATOM     52  N   UNL A   1      42.453  29.724  29.886  1.00  0.00    -0.354 N 
ATOM     53  N   UNL A   1      45.235  28.846  30.043  1.00  0.00    -0.248 NA
ATOM     54  C   UNL A   1      47.482  29.287  30.502  1.00  0.00     0.031 C 
ATOM     55  C   UNL A   1      41.939  31.756  30.625  1.00  0.00     0.029 A 
ATOM     56  C   UNL A   1      42.992  30.876  30.436  1.00  0.00     0.049 A 
ATOM     57  H   UNL A   1      42.967  28.922  29.639  1.00  0.00     0.167 HD
ATOM     58  C   UNL A   1      45.354  30.137  30.539  1.00  0.00     0.074 A 
ATOM     59  C   UNL A   1      46.756  30.343  30.837  1.00  0.00     0.031 C 
ATOM     60  C   UNL A   1      44.390  31.070  30.727  1.00  0.00     0.037 A 
BRANCH  47  61
ATOM     61  C   UNL A   1      38.750  29.200  29.030  1.00  0.00     0.057 A 
ATOM     62  C   UNL A   1      37.889  29.113  30.131  1.00  0.00     0.134 A 
ATOM     63  C   UNL A   1      38.191  29.583  27.802  1.00  0.00     0.134 A 
ATOM     64  F   UNL A   1      38.355  28.744  31.333  1.00  0.00    -0.206 F 
ATOM     65  C   UNL A   1      36.526  29.397  30.017  1.00  0.00     0.040 A 
ATOM     66  C   UNL A   1      36.835  29.896  27.683  1.00  0.00     0.040 A 
ATOM     67  F   UNL A   1      38.963  29.699  26.710  1.00  0.00    -0.206 F 
ATOM     68  C   UNL A   1      35.998  29.797  28.791  1.00  0.00     0.006 A 
ENDBRANCH  47  61
BRANCH  48  69
ATOM     69  C   UNL A   1      48.350  26.613  29.739  1.00  0.00     0.057 A 
ATOM     70  C   UNL A   1      48.831  25.928  30.861  1.00  0.00     0.134 A 
ATOM     71  C   UNL A   1      49.265  26.907  28.722  1.00  0.00     0.134 A 
ATOM     72  F   UNL A   1      48.004  25.619  31.872  1.00  0.00    -0.206 F 
ATOM     73  C   UNL A   1      50.170  25.554  30.971  1.00  0.00     0.040 A 
ATOM     74  C   UNL A   1      50.601  26.514  28.805  1.00  0.00     0.040 A 
ATOM     75  F   UNL A   1      48.859  27.542  27.612  1.00  0.00    -0.206 F 
ATOM     76  C   UNL A   1      51.057  25.838  29.935  1.00  0.00     0.006 A 
ENDBRANCH  48  69
BRANCH  60  77
ATOM     77  C   UNL A   1      44.818  32.386  31.310  1.00  0.00     0.057 A 
ATOM     78  C   UNL A   1      45.253  33.427  30.480  1.00  0.00     0.134 A 
ATOM     79  C   UNL A   1      44.807  32.621  32.692  1.00  0.00     0.134 A 
ATOM     80  F   UNL A   1      45.294  33.265  29.150  1.00  0.00    -0.206 F 
ATOM     81  C   UNL A   1      45.660  34.655  31.003  1.00  0.00     0.040 A 
ATOM     82  C   UNL A   1      45.185  33.855  33.224  1.00  0.00     0.040 A 
ATOM     83  F   UNL A   1      44.387  31.671  33.540  1.00  0.00    -0.206 F 
ATOM     84  C   UNL A   1      45.618  34.875  32.378  1.00  0.00     0.006 A 
ENDBRANCH  60  77
ENDBRANCH  34  35
ENDBRANCH  26  29
ENDBRANCH  24  25
ENDBRANCH  23  24
ENDBRANCH  22  23
ENDBRANCH   3  22
TORSDOF 15
ENDMDL
