MODEL 1
REMARK VINA RESULT:     -11.7      0.000      0.000
REMARK SMILES CC(C)[C@@H](C(=O)NCCCNC(=O)c1ccc(-c2c3nc(c(-c4c(F)cccc4F)c4ccc([nH]4)c(-c4c(F)cccc4F)c4nc(c(-c5c(F)cccc5F)c5ccc2[nH]5)C=C4)C=C3)cc1)N1C(=O)/C(=C\c2ccc([N+](=O)[O-])cc2)SC1=S
REMARK SMILES IDX 8 1 7 2 5 3 6 4 4 6 2 7 1 8 3 9 68 10 69 11 83 12 70 13
REMARK SMILES IDX 71 14 82 15 84 16 72 17 73 18 74 19 81 20 75 21 80 22 76 23
REMARK SMILES IDX 77 24 78 25 79 26 9 27 10 28 11 29 12 30 13 32 14 33 15 34
REMARK SMILES IDX 67 35 16 36 66 37 17 38 18 39 19 40 60 41 20 42 65 43 59 44
REMARK SMILES IDX 61 45 21 46 64 47 58 48 57 49 22 51 48 52 31 53 47 54 32 55
REMARK SMILES IDX 35 56 46 57 62 58 33 59 34 60 45 62 63 63 36 64 23 65 24 66
REMARK SMILES IDX 29 67 25 68 26 69 28 70 30 71 27 72 49 73 50 74 55 75 51 76
REMARK SMILES IDX 52 77 54 78 56 79 53 80 37 81 38 82 43 83 39 84 40 85 42 86
REMARK SMILES IDX 44 87 41 88
REMARK H PARENT 7 5 11 31 61 50 35 61
REMARK Flexibility Score: inf
ROOT
ATOM      1  C   UNL A   1      37.348  22.715  25.575  1.00  0.00     0.117 C 
ENDROOT
BRANCH   1   2
ATOM      2  N   UNL A   1      36.672  23.067  24.332  1.00  0.00    -0.354 N 
ATOM      3  C   UNL A   1      35.397  22.871  23.884  1.00  0.00     0.243 C 
ATOM      4  O   UNL A   1      35.149  23.309  22.757  1.00  0.00    -0.273 OA
ATOM      5  H   UNL A   1      37.249  23.541  23.689  1.00  0.00     0.163 HD
BRANCH   3   6
ATOM      6  C   UNL A   1      34.307  22.188  24.750  1.00  0.00     0.184 C 
BRANCH   6   7
ATOM      7  C   UNL A   1      34.158  20.644  24.650  1.00  0.00     0.015 C 
ATOM      8  C   UNL A   1      35.424  19.834  24.892  1.00  0.00     0.010 C 
ATOM      9  C   UNL A   1      33.066  20.143  25.603  1.00  0.00     0.010 C 
ENDBRANCH   6   7
BRANCH   6  10
ATOM     10  N   UNL A   1      33.033  22.934  24.468  1.00  0.00    -0.280 N 
ATOM     11  C   UNL A   1      32.807  24.099  25.199  1.00  0.00     0.266 C 
ATOM     12  C   UNL A   1      32.126  22.714  23.444  1.00  0.00     0.149 C 
ATOM     13  O   UNL A   1      33.531  24.532  26.080  1.00  0.00    -0.268 OA
ATOM     14  C   UNL A   1      31.552  24.769  24.742  1.00  0.00     0.081 C 
ATOM     15  S   UNL A   1      30.687  23.700  23.714  1.00  0.00    -0.054 SA
ATOM     16  S   UNL A   1      32.193  21.740  22.090  1.00  0.00    -0.052 S 
ATOM     17  C   UNL A   1      31.140  26.029  24.939  1.00  0.00     0.029 C 
BRANCH  17  18
ATOM     18  C   UNL A   1      31.923  27.102  25.548  1.00  0.00    -0.024 A 
ATOM     19  C   UNL A   1      31.656  27.516  26.857  1.00  0.00     0.015 A 
ATOM     20  C   UNL A   1      32.881  27.783  24.783  1.00  0.00     0.015 A 
ATOM     21  C   UNL A   1      32.363  28.586  27.411  1.00  0.00     0.086 A 
ATOM     22  C   UNL A   1      33.590  28.853  25.327  1.00  0.00     0.086 A 
ATOM     23  C   UNL A   1      33.333  29.248  26.644  1.00  0.00     0.269 A 
BRANCH  23  24
ATOM     24  N   UNL A   1      34.083  30.368  27.223  1.00  0.00     0.062 N 
ATOM     25  O   UNL A   1      35.279  30.183  27.493  1.00  0.00    -0.258 OA
ATOM     26  O   UNL A   1      33.477  31.433  27.413  1.00  0.00    -0.258 OA
ENDBRANCH  23  24
ENDBRANCH  17  18
ENDBRANCH   6  10
ENDBRANCH   3   6
ENDBRANCH   1   2
BRANCH   1  27
ATOM     27  C   UNL A   1      38.004  23.938  26.224  1.00  0.00     0.042 C 
BRANCH  27  28
ATOM     28  C   UNL A   1      39.362  23.661  26.864  1.00  0.00     0.118 C 
BRANCH  28  29
ATOM     29  N   UNL A   1      40.462  24.141  26.047  1.00  0.00    -0.352 N 
ATOM     30  C   UNL A   1      41.147  25.332  26.090  1.00  0.00     0.251 C 
ATOM     31  H   UNL A   1      40.766  23.512  25.351  1.00  0.00     0.163 HD
ATOM     32  O   UNL A   1      41.902  25.619  25.164  1.00  0.00    -0.269 OA
BRANCH  30  33
ATOM     33  C   UNL A   1      40.984  26.286  27.218  1.00  0.00     0.039 A 
ATOM     34  C   UNL A   1      40.128  25.937  28.268  1.00  0.00     0.014 A 
ATOM     35  C   UNL A   1      41.602  27.538  27.227  1.00  0.00     0.014 A 
ATOM     36  C   UNL A   1      39.931  26.816  29.339  1.00  0.00     0.010 A 
ATOM     37  C   UNL A   1      41.470  28.380  28.335  1.00  0.00     0.010 A 
ATOM     38  C   UNL A   1      40.621  28.036  29.396  1.00  0.00    -0.014 A 
BRANCH  38  39
ATOM     39  C   UNL A   1      40.447  28.967  30.546  1.00  0.00     0.031 A 
ATOM     40  C   UNL A   1      39.375  30.025  30.516  1.00  0.00     0.074 A 
ATOM     41  C   UNL A   1      41.284  28.901  31.598  1.00  0.00     0.049 A 
ATOM     42  N   UNL A   1      39.105  30.957  31.397  1.00  0.00    -0.248 NA
ATOM     43  C   UNL A   1      38.510  30.059  29.326  1.00  0.00     0.031 C 
ATOM     44  C   UNL A   1      42.395  27.958  31.736  1.00  0.00     0.029 A 
ATOM     45  N   UNL A   1      41.339  29.648  32.750  1.00  0.00    -0.354 N 
ATOM     46  C   UNL A   1      38.058  31.696  30.859  1.00  0.00     0.074 A 
ATOM     47  C   UNL A   1      37.775  31.136  29.555  1.00  0.00     0.031 C 
ATOM     48  C   UNL A   1      43.007  28.168  32.914  1.00  0.00     0.029 A 
ATOM     49  C   UNL A   1      42.355  29.281  33.597  1.00  0.00     0.049 A 
ATOM     50  H   UNL A   1      40.708  30.377  32.948  1.00  0.00     0.167 HD
ATOM     51  C   UNL A   1      37.377  32.731  31.408  1.00  0.00     0.037 A 
ATOM     52  C   UNL A   1      42.727  29.786  34.789  1.00  0.00     0.037 A 
ATOM     53  C   UNL A   1      37.635  33.270  32.719  1.00  0.00     0.049 A 
ATOM     54  C   UNL A   1      41.953  30.930  35.384  1.00  0.00     0.074 A 
ATOM     55  C   UNL A   1      36.951  34.268  33.390  1.00  0.00     0.029 A 
ATOM     56  N   UNL A   1      38.663  32.858  33.553  1.00  0.00    -0.354 N 
ATOM     57  N   UNL A   1      40.918  31.570  34.896  1.00  0.00    -0.248 NA
ATOM     58  C   UNL A   1      42.394  31.417  36.699  1.00  0.00     0.031 C 
ATOM     59  C   UNL A   1      37.593  34.491  34.615  1.00  0.00     0.029 A 
ATOM     60  C   UNL A   1      38.646  33.599  34.725  1.00  0.00     0.049 A 
ATOM     61  H   UNL A   1      39.309  32.145  33.345  1.00  0.00     0.167 HD
ATOM     62  C   UNL A   1      40.571  32.516  35.851  1.00  0.00     0.074 A 
ATOM     63  C   UNL A   1      41.497  32.358  36.953  1.00  0.00     0.031 C 
ATOM     64  C   UNL A   1      39.574  33.434  35.815  1.00  0.00     0.037 A 
BRANCH  51  65
ATOM     65  C   UNL A   1      36.284  33.353  30.585  1.00  0.00     0.057 A 
ATOM     66  C   UNL A   1      36.562  34.195  29.499  1.00  0.00     0.134 A 
ATOM     67  C   UNL A   1      34.938  33.091  30.869  1.00  0.00     0.134 A 
ATOM     68  F   UNL A   1      37.829  34.495  29.179  1.00  0.00    -0.206 F 
ATOM     69  C   UNL A   1      35.541  34.780  28.748  1.00  0.00     0.040 A 
ATOM     70  C   UNL A   1      33.909  33.648  30.108  1.00  0.00     0.040 A 
ATOM     71  F   UNL A   1      34.601  32.287  31.888  1.00  0.00    -0.206 F 
ATOM     72  C   UNL A   1      34.209  34.503  29.050  1.00  0.00     0.006 A 
ENDBRANCH  51  65
BRANCH  52  73
ATOM     73  C   UNL A   1      43.879  29.193  35.513  1.00  0.00     0.057 A 
ATOM     74  C   UNL A   1      45.170  29.713  35.366  1.00  0.00     0.134 A 
ATOM     75  C   UNL A   1      43.717  28.102  36.377  1.00  0.00     0.134 A 
ATOM     76  F   UNL A   1      45.390  30.744  34.537  1.00  0.00    -0.206 F 
ATOM     77  C   UNL A   1      46.261  29.165  36.042  1.00  0.00     0.040 A 
ATOM     78  C   UNL A   1      44.795  27.559  37.077  1.00  0.00     0.040 A 
ATOM     79  F   UNL A   1      42.503  27.563  36.566  1.00  0.00    -0.206 F 
ATOM     80  C   UNL A   1      46.073  28.088  36.906  1.00  0.00     0.006 A 
ENDBRANCH  52  73
BRANCH  64  81
ATOM     81  C   UNL A   1      39.413  34.322  37.015  1.00  0.00     0.057 A 
ATOM     82  C   UNL A   1      38.769  33.883  38.179  1.00  0.00     0.134 A 
ATOM     83  C   UNL A   1      39.941  35.618  37.019  1.00  0.00     0.134 A 
ATOM     84  F   UNL A   1      38.229  32.655  38.236  1.00  0.00    -0.206 F 
ATOM     85  C   UNL A   1      38.638  34.710  39.296  1.00  0.00     0.040 A 
ATOM     86  C   UNL A   1      39.838  36.446  38.138  1.00  0.00     0.040 A 
ATOM     87  F   UNL A   1      40.576  36.099  35.939  1.00  0.00    -0.206 F 
ATOM     88  C   UNL A   1      39.180  35.993  39.279  1.00  0.00     0.006 A 
ENDBRANCH  64  81
ENDBRANCH  38  39
ENDBRANCH  30  33
ENDBRANCH  28  29
ENDBRANCH  27  28
ENDBRANCH   1  27
TORSDOF 14
ENDMDL
MODEL 2
REMARK VINA RESULT:     -11.7      0.539      6.085
REMARK SMILES CC(C)[C@@H](C(=O)NCCCNC(=O)c1ccc(-c2c3nc(c(-c4c(F)cccc4F)c4ccc([nH]4)c(-c4c(F)cccc4F)c4nc(c(-c5c(F)cccc5F)c5ccc2[nH]5)C=C4)C=C3)cc1)N1C(=O)/C(=C\c2ccc([N+](=O)[O-])cc2)SC1=S
REMARK SMILES IDX 8 1 7 2 5 3 6 4 4 6 2 7 1 8 3 9 68 10 69 11 83 12 70 13
REMARK SMILES IDX 71 14 82 15 84 16 72 17 73 18 74 19 81 20 75 21 80 22 76 23
REMARK SMILES IDX 77 24 78 25 79 26 9 27 10 28 11 29 12 30 13 32 14 33 15 34
REMARK SMILES IDX 67 35 16 36 66 37 17 38 18 39 19 40 60 41 20 42 65 43 59 44
REMARK SMILES IDX 61 45 21 46 64 47 58 48 57 49 22 51 48 52 31 53 47 54 32 55
REMARK SMILES IDX 35 56 46 57 62 58 33 59 34 60 45 62 63 63 36 64 23 65 24 66
REMARK SMILES IDX 29 67 25 68 26 69 28 70 30 71 27 72 49 73 50 74 55 75 51 76
REMARK SMILES IDX 52 77 54 78 56 79 53 80 37 81 38 82 43 83 39 84 40 85 42 86
REMARK SMILES IDX 44 87 41 88
REMARK H PARENT 7 5 11 31 61 50 35 61
REMARK Flexibility Score: inf
ROOT
ATOM      1  C   UNL A   1      37.001  23.273  25.990  1.00  0.00     0.117 C 
ENDROOT
BRANCH   1   2
ATOM      2  N   UNL A   1      36.503  23.334  24.621  1.00  0.00    -0.354 N 
ATOM      3  C   UNL A   1      35.347  22.902  24.037  1.00  0.00     0.243 C 
ATOM      4  O   UNL A   1      35.239  23.122  22.827  1.00  0.00    -0.273 OA
ATOM      5  H   UNL A   1      37.121  23.776  23.995  1.00  0.00     0.163 HD
BRANCH   3   6
ATOM      6  C   UNL A   1      34.210  22.222  24.845  1.00  0.00     0.184 C 
BRANCH   6   7
ATOM      7  C   UNL A   1      34.061  20.678  24.733  1.00  0.00     0.015 C 
ATOM      8  C   UNL A   1      35.321  19.865  24.995  1.00  0.00     0.010 C 
ATOM      9  C   UNL A   1      32.951  20.175  25.664  1.00  0.00     0.010 C 
ENDBRANCH   6   7
BRANCH   6  10
ATOM     10  N   UNL A   1      32.955  22.974  24.498  1.00  0.00    -0.280 N 
ATOM     11  C   UNL A   1      32.703  24.144  25.210  1.00  0.00     0.266 C 
ATOM     12  C   UNL A   1      32.096  22.752  23.433  1.00  0.00     0.149 C 
ATOM     13  O   UNL A   1      33.387  24.579  26.122  1.00  0.00    -0.268 OA
ATOM     14  C   UNL A   1      31.474  24.818  24.691  1.00  0.00     0.081 C 
ATOM     15  S   UNL A   1      30.653  23.748  23.630  1.00  0.00    -0.054 SA
ATOM     16  S   UNL A   1      32.222  21.769  22.091  1.00  0.00    -0.052 S 
ATOM     17  C   UNL A   1      31.061  26.082  24.861  1.00  0.00     0.029 C 
BRANCH  17  18
ATOM     18  C   UNL A   1      31.821  27.154  25.500  1.00  0.00    -0.024 A 
ATOM     19  C   UNL A   1      31.469  27.606  26.775  1.00  0.00     0.015 A 
ATOM     20  C   UNL A   1      32.846  27.797  24.789  1.00  0.00     0.015 A 
ATOM     21  C   UNL A   1      32.158  28.676  27.354  1.00  0.00     0.086 A 
ATOM     22  C   UNL A   1      33.537  28.866  25.358  1.00  0.00     0.086 A 
ATOM     23  C   UNL A   1      33.194  29.299  26.644  1.00  0.00     0.269 A 
BRANCH  23  24
ATOM     24  N   UNL A   1      33.924  30.418  27.249  1.00  0.00     0.062 N 
ATOM     25  O   UNL A   1      35.143  30.281  27.430  1.00  0.00    -0.258 OA
ATOM     26  O   UNL A   1      33.280  31.434  27.548  1.00  0.00    -0.258 OA
ENDBRANCH  23  24
ENDBRANCH  17  18
ENDBRANCH   6  10
ENDBRANCH   3   6
ENDBRANCH   1   2
BRANCH   1  27
ATOM     27  C   UNL A   1      38.302  24.066  26.150  1.00  0.00     0.042 C 
BRANCH  27  28
ATOM     28  C   UNL A   1      39.458  23.269  26.750  1.00  0.00     0.118 C 
BRANCH  28  29
ATOM     29  N   UNL A   1      40.730  23.596  26.132  1.00  0.00    -0.352 N 
ATOM     30  C   UNL A   1      41.544  24.690  26.301  1.00  0.00     0.251 C 
ATOM     31  H   UNL A   1      41.062  22.927  25.488  1.00  0.00     0.163 HD
ATOM     32  O   UNL A   1      42.472  24.869  25.515  1.00  0.00    -0.269 OA
BRANCH  30  33
ATOM     33  C   UNL A   1      41.321  25.667  27.397  1.00  0.00     0.039 A 
ATOM     34  C   UNL A   1      42.167  26.779  27.482  1.00  0.00     0.014 A 
ATOM     35  C   UNL A   1      40.344  25.476  28.377  1.00  0.00     0.014 A 
ATOM     36  C   UNL A   1      42.003  27.713  28.512  1.00  0.00     0.010 A 
ATOM     37  C   UNL A   1      40.128  26.450  29.356  1.00  0.00     0.010 A 
ATOM     38  C   UNL A   1      40.965  27.572  29.444  1.00  0.00    -0.014 A 
BRANCH  38  39
ATOM     39  C   UNL A   1      40.758  28.575  30.526  1.00  0.00     0.031 A 
ATOM     40  C   UNL A   1      41.573  28.513  31.790  1.00  0.00     0.074 A 
ATOM     41  C   UNL A   1      39.801  29.513  30.398  1.00  0.00     0.049 A 
ATOM     42  N   UNL A   1      41.501  29.265  32.861  1.00  0.00    -0.248 NA
ATOM     43  C   UNL A   1      42.586  27.449  31.875  1.00  0.00     0.031 C 
ATOM     44  C   UNL A   1      38.906  29.658  29.249  1.00  0.00     0.029 A 
ATOM     45  N   UNL A   1      39.412  30.519  31.250  1.00  0.00    -0.354 N 
ATOM     46  C   UNL A   1      42.439  28.752  33.750  1.00  0.00     0.074 A 
ATOM     47  C   UNL A   1      43.032  27.596  33.113  1.00  0.00     0.031 C 
ATOM     48  C   UNL A   1      38.089  30.704  29.457  1.00  0.00     0.029 A 
ATOM     49  C   UNL A   1      38.377  31.281  30.767  1.00  0.00     0.049 A 
ATOM     50  H   UNL A   1      39.836  30.678  32.124  1.00  0.00     0.167 HD
ATOM     51  C   UNL A   1      42.792  29.213  34.975  1.00  0.00     0.037 A 
ATOM     52  C   UNL A   1      37.727  32.325  31.316  1.00  0.00     0.037 A 
ATOM     53  C   UNL A   1      42.226  30.382  35.598  1.00  0.00     0.049 A 
ATOM     54  C   UNL A   1      38.139  32.826  32.672  1.00  0.00     0.074 A 
ATOM     55  C   UNL A   1      42.572  30.969  36.802  1.00  0.00     0.029 A 
ATOM     56  N   UNL A   1      41.192  31.137  35.065  1.00  0.00    -0.354 N 
ATOM     57  N   UNL A   1      39.079  32.375  33.468  1.00  0.00    -0.248 NA
ATOM     58  C   UNL A   1      37.408  33.984  33.203  1.00  0.00     0.031 C 
ATOM     59  C   UNL A   1      41.715  32.055  37.021  1.00  0.00     0.029 A 
ATOM     60  C   UNL A   1      40.870  32.172  35.930  1.00  0.00     0.049 A 
ATOM     61  H   UNL A   1      40.752  30.964  34.202  1.00  0.00     0.167 HD
ATOM     62  C   UNL A   1      39.066  33.206  34.580  1.00  0.00     0.074 A 
ATOM     63  C   UNL A   1      38.035  34.197  34.351  1.00  0.00     0.031 C 
ATOM     64  C   UNL A   1      39.841  33.152  35.692  1.00  0.00     0.037 A 
BRANCH  51  65
ATOM     65  C   UNL A   1      43.843  28.445  35.724  1.00  0.00     0.057 A 
ATOM     66  C   UNL A   1      45.211  28.714  35.570  1.00  0.00     0.134 A 
ATOM     67  C   UNL A   1      43.484  27.436  36.627  1.00  0.00     0.134 A 
ATOM     68  F   UNL A   1      45.624  29.660  34.713  1.00  0.00    -0.206 F 
ATOM     69  C   UNL A   1      46.182  27.986  36.258  1.00  0.00     0.040 A 
ATOM     70  C   UNL A   1      44.445  26.721  37.343  1.00  0.00     0.040 A 
ATOM     71  F   UNL A   1      42.194  27.133  36.831  1.00  0.00    -0.206 F 
ATOM     72  C   UNL A   1      45.799  26.989  37.152  1.00  0.00     0.006 A 
ENDBRANCH  51  65
BRANCH  52  73
ATOM     73  C   UNL A   1      36.628  32.985  30.567  1.00  0.00     0.057 A 
ATOM     74  C   UNL A   1      35.290  32.797  30.933  1.00  0.00     0.134 A 
ATOM     75  C   UNL A   1      36.887  33.826  29.478  1.00  0.00     0.134 A 
ATOM     76  F   UNL A   1      34.979  31.987  31.955  1.00  0.00    -0.206 F 
ATOM     77  C   UNL A   1      34.248  33.412  30.238  1.00  0.00     0.040 A 
ATOM     78  C   UNL A   1      35.857  34.467  28.788  1.00  0.00     0.040 A 
ATOM     79  F   UNL A   1      38.149  34.052  29.082  1.00  0.00    -0.206 F 
ATOM     80  C   UNL A   1      34.532  34.256  29.165  1.00  0.00     0.006 A 
ENDBRANCH  52  73
BRANCH  64  81
ATOM     81  C   UNL A   1      39.622  34.209  36.735  1.00  0.00     0.057 A 
ATOM     82  C   UNL A   1      38.849  33.971  37.878  1.00  0.00     0.134 A 
ATOM     83  C   UNL A   1      40.221  35.469  36.611  1.00  0.00     0.134 A 
ATOM     84  F   UNL A   1      38.236  32.790  38.052  1.00  0.00    -0.206 F 
ATOM     85  C   UNL A   1      38.664  34.955  38.852  1.00  0.00     0.040 A 
ATOM     86  C   UNL A   1      40.064  36.452  37.588  1.00  0.00     0.040 A 
ATOM     87  F   UNL A   1      40.980  35.760  35.543  1.00  0.00    -0.206 F 
ATOM     88  C   UNL A   1      39.279  36.197  38.710  1.00  0.00     0.006 A 
ENDBRANCH  64  81
ENDBRANCH  38  39
ENDBRANCH  30  33
ENDBRANCH  28  29
ENDBRANCH  27  28
ENDBRANCH   1  27
TORSDOF 14
ENDMDL
MODEL 3
REMARK VINA RESULT:     -11.5      4.520      9.136
REMARK SMILES CC(C)[C@@H](C(=O)NCCCNC(=O)c1ccc(-c2c3nc(c(-c4c(F)cccc4F)c4ccc([nH]4)c(-c4c(F)cccc4F)c4nc(c(-c5c(F)cccc5F)c5ccc2[nH]5)C=C4)C=C3)cc1)N1C(=O)/C(=C\c2ccc([N+](=O)[O-])cc2)SC1=S
REMARK SMILES IDX 8 1 7 2 5 3 6 4 4 6 2 7 1 8 3 9 68 10 69 11 83 12 70 13
REMARK SMILES IDX 71 14 82 15 84 16 72 17 73 18 74 19 81 20 75 21 80 22 76 23
REMARK SMILES IDX 77 24 78 25 79 26 9 27 10 28 11 29 12 30 13 32 14 33 15 34
REMARK SMILES IDX 67 35 16 36 66 37 17 38 18 39 19 40 60 41 20 42 65 43 59 44
REMARK SMILES IDX 61 45 21 46 64 47 58 48 57 49 22 51 48 52 31 53 47 54 32 55
REMARK SMILES IDX 35 56 46 57 62 58 33 59 34 60 45 62 63 63 36 64 23 65 24 66
REMARK SMILES IDX 29 67 25 68 26 69 28 70 30 71 27 72 49 73 50 74 55 75 51 76
REMARK SMILES IDX 52 77 54 78 56 79 53 80 37 81 38 82 43 83 39 84 40 85 42 86
REMARK SMILES IDX 44 87 41 88
REMARK H PARENT 7 5 11 31 61 50 35 61
REMARK Flexibility Score: inf
ROOT
ATOM      1  C   UNL A   1      37.766  21.239  25.249  1.00  0.00     0.117 C 
ENDROOT
BRANCH   1   2
ATOM      2  N   UNL A   1      37.503  21.987  24.026  1.00  0.00    -0.354 N 
ATOM      3  C   UNL A   1      36.577  22.938  23.704  1.00  0.00     0.243 C 
ATOM      4  O   UNL A   1      36.635  23.378  22.552  1.00  0.00    -0.273 OA
ATOM      5  H   UNL A   1      38.113  21.763  23.286  1.00  0.00     0.163 HD
BRANCH   3   6
ATOM      6  C   UNL A   1      35.547  23.478  24.730  1.00  0.00     0.184 C 
BRANCH   6   7
ATOM      7  C   UNL A   1      35.768  23.136  26.231  1.00  0.00     0.015 C 
ATOM      8  C   UNL A   1      36.756  24.020  26.979  1.00  0.00     0.010 C 
ATOM      9  C   UNL A   1      34.434  23.144  26.989  1.00  0.00     0.010 C 
ENDBRANCH   6   7
BRANCH   6  10
ATOM     10  N   UNL A   1      34.198  23.065  24.212  1.00  0.00    -0.280 N 
ATOM     11  C   UNL A   1      34.022  21.715  23.912  1.00  0.00     0.266 C 
ATOM     12  C   UNL A   1      33.038  23.821  24.158  1.00  0.00     0.149 C 
ATOM     13  O   UNL A   1      34.885  20.856  23.986  1.00  0.00    -0.268 OA
ATOM     14  C   UNL A   1      32.610  21.451  23.497  1.00  0.00     0.081 C 
ATOM     15  S   UNL A   1      31.813  22.948  23.236  1.00  0.00    -0.054 SA
ATOM     16  S   UNL A   1      32.654  25.314  24.798  1.00  0.00    -0.052 S 
ATOM     17  C   UNL A   1      31.947  20.289  23.432  1.00  0.00     0.029 C 
BRANCH  17  18
ATOM     18  C   UNL A   1      32.435  18.995  23.904  1.00  0.00    -0.024 A 
ATOM     19  C   UNL A   1      32.502  18.720  25.273  1.00  0.00     0.015 A 
ATOM     20  C   UNL A   1      32.929  18.061  22.980  1.00  0.00     0.015 A 
ATOM     21  C   UNL A   1      33.031  17.507  25.720  1.00  0.00     0.086 A 
ATOM     22  C   UNL A   1      33.460  16.848  23.417  1.00  0.00     0.086 A 
ATOM     23  C   UNL A   1      33.504  16.572  24.788  1.00  0.00     0.269 A 
BRANCH  23  24
ATOM     24  N   UNL A   1      34.055  15.293  25.251  1.00  0.00     0.062 N 
ATOM     25  O   UNL A   1      33.256  14.378  25.503  1.00  0.00    -0.258 OA
ATOM     26  O   UNL A   1      35.285  15.202  25.368  1.00  0.00    -0.258 OA
ENDBRANCH  23  24
ENDBRANCH  17  18
ENDBRANCH   6  10
ENDBRANCH   3   6
ENDBRANCH   1   2
BRANCH   1  27
ATOM     27  C   UNL A   1      38.654  20.019  24.982  1.00  0.00     0.042 C 
BRANCH  27  28
ATOM     28  C   UNL A   1      39.472  19.557  26.185  1.00  0.00     0.118 C 
BRANCH  28  29
ATOM     29  N   UNL A   1      40.761  19.014  25.796  1.00  0.00    -0.352 N 
ATOM     30  C   UNL A   1      41.999  19.610  25.756  1.00  0.00     0.251 C 
ATOM     31  H   UNL A   1      40.746  18.069  25.518  1.00  0.00     0.163 HD
ATOM     32  O   UNL A   1      42.922  19.029  25.189  1.00  0.00    -0.269 OA
BRANCH  30  33
ATOM     33  C   UNL A   1      42.245  20.944  26.363  1.00  0.00     0.039 A 
ATOM     34  C   UNL A   1      42.573  22.011  25.520  1.00  0.00     0.014 A 
ATOM     35  C   UNL A   1      42.224  21.146  27.745  1.00  0.00     0.014 A 
ATOM     36  C   UNL A   1      42.832  23.278  26.054  1.00  0.00     0.010 A 
ATOM     37  C   UNL A   1      42.401  22.428  28.272  1.00  0.00     0.010 A 
ATOM     38  C   UNL A   1      42.723  23.506  27.434  1.00  0.00    -0.014 A 
BRANCH  38  39
ATOM     39  C   UNL A   1      42.963  24.857  28.014  1.00  0.00     0.031 A 
ATOM     40  C   UNL A   1      44.341  25.258  28.471  1.00  0.00     0.074 A 
ATOM     41  C   UNL A   1      41.935  25.711  28.180  1.00  0.00     0.049 A 
ATOM     42  N   UNL A   1      44.734  26.368  29.046  1.00  0.00    -0.248 NA
ATOM     43  C   UNL A   1      45.415  24.270  28.282  1.00  0.00     0.031 C 
ATOM     44  C   UNL A   1      40.541  25.435  27.826  1.00  0.00     0.029 A 
ATOM     45  N   UNL A   1      41.899  26.982  28.699  1.00  0.00    -0.354 N 
ATOM     46  C   UNL A   1      46.089  26.202  29.306  1.00  0.00     0.074 A 
ATOM     47  C   UNL A   1      46.440  24.867  28.871  1.00  0.00     0.031 C 
ATOM     48  C   UNL A   1      39.793  26.511  28.118  1.00  0.00     0.029 A 
ATOM     49  C   UNL A   1      40.644  27.538  28.710  1.00  0.00     0.049 A 
ATOM     50  H   UNL A   1      42.699  27.450  29.031  1.00  0.00     0.167 HD
ATOM     51  C   UNL A   1      46.969  27.087  29.836  1.00  0.00     0.037 A 
ATOM     52  C   UNL A   1      40.221  28.738  29.152  1.00  0.00     0.037 A 
ATOM     53  C   UNL A   1      46.630  28.427  30.240  1.00  0.00     0.049 A 
ATOM     54  C   UNL A   1      41.214  29.708  29.730  1.00  0.00     0.074 A 
ATOM     55  C   UNL A   1      47.466  29.421  30.718  1.00  0.00     0.029 A 
ATOM     56  N   UNL A   1      45.349  28.958  30.218  1.00  0.00    -0.354 N 
ATOM     57  N   UNL A   1      42.506  29.564  29.900  1.00  0.00    -0.248 NA
ATOM     58  C   UNL A   1      40.692  31.009  30.169  1.00  0.00     0.031 C 
ATOM     59  C   UNL A   1      46.683  30.540  31.028  1.00  0.00     0.029 A 
ATOM     60  C   UNL A   1      45.369  30.259  30.697  1.00  0.00     0.049 A 
ATOM     61  H   UNL A   1      44.545  28.482  29.907  1.00  0.00     0.167 HD
ATOM     62  C   UNL A   1      42.954  30.760  30.444  1.00  0.00     0.074 A 
ATOM     63  C   UNL A   1      41.799  31.625  30.562  1.00  0.00     0.031 C 
ATOM     64  C   UNL A   1      44.211  31.110  30.811  1.00  0.00     0.037 A 
BRANCH  51  65
ATOM     65  C   UNL A   1      48.389  26.628  30.012  1.00  0.00     0.057 A 
ATOM     66  C   UNL A   1      48.816  25.966  31.172  1.00  0.00     0.134 A 
ATOM     67  C   UNL A   1      49.336  26.830  29.001  1.00  0.00     0.134 A 
ATOM     68  F   UNL A   1      47.961  25.749  32.184  1.00  0.00    -0.206 F 
ATOM     69  C   UNL A   1      50.140  25.556  31.335  1.00  0.00     0.040 A 
ATOM     70  C   UNL A   1      50.657  26.399  29.141  1.00  0.00     0.040 A 
ATOM     71  F   UNL A   1      48.994  27.448  27.861  1.00  0.00    -0.206 F 
ATOM     72  C   UNL A   1      51.063  25.768  30.314  1.00  0.00     0.006 A 
ENDBRANCH  51  65
BRANCH  52  73
ATOM     73  C   UNL A   1      38.786  29.099  29.041  1.00  0.00     0.057 A 
ATOM     74  C   UNL A   1      37.932  29.014  30.147  1.00  0.00     0.134 A 
ATOM     75  C   UNL A   1      38.235  29.549  27.835  1.00  0.00     0.134 A 
ATOM     76  F   UNL A   1      38.397  28.571  31.325  1.00  0.00    -0.206 F 
ATOM     77  C   UNL A   1      36.581  29.352  30.057  1.00  0.00     0.040 A 
ATOM     78  C   UNL A   1      36.892  29.913  27.736  1.00  0.00     0.040 A 
ATOM     79  F   UNL A   1      39.003  29.659  26.740  1.00  0.00    -0.206 F 
ATOM     80  C   UNL A   1      36.060  29.810  28.848  1.00  0.00     0.006 A 
ENDBRANCH  52  73
BRANCH  64  81
ATOM     81  C   UNL A   1      44.410  32.496  31.351  1.00  0.00     0.057 A 
ATOM     82  C   UNL A   1      44.672  33.587  30.512  1.00  0.00     0.134 A 
ATOM     83  C   UNL A   1      44.301  32.749  32.724  1.00  0.00     0.134 A 
ATOM     84  F   UNL A   1      44.801  33.410  29.188  1.00  0.00    -0.206 F 
ATOM     85  C   UNL A   1      44.839  34.876  31.021  1.00  0.00     0.040 A 
ATOM     86  C   UNL A   1      44.442  34.038  33.243  1.00  0.00     0.040 A 
ATOM     87  F   UNL A   1      44.045  31.751  33.583  1.00  0.00    -0.206 F 
ATOM     88  C   UNL A   1      44.717  35.104  32.390  1.00  0.00     0.006 A 
ENDBRANCH  64  81
ENDBRANCH  38  39
ENDBRANCH  30  33
ENDBRANCH  28  29
ENDBRANCH  27  28
ENDBRANCH   1  27
TORSDOF 14
ENDMDL
