MODEL 1
REMARK VINA RESULT:     -10.8      0.000      0.000
REMARK SMILES CN(CCCC(=O)NCCCNC(=O)c1ccc(-c2c3nc(c(-c4c(F)cccc4F)c4ccc([nH]4)c(-c4c(F)cccc4F)c4nc(c(-c5c(F)cccc5F)c5ccc2[nH]5)C=C4)C=C3)cc1)C(=O)c1ccc(Br)o1
REMARK SMILES IDX 6 1 7 2 8 3 5 5 4 6 3 7 2 8 1 9 69 10 70 11 71 12 72 13
REMARK SMILES IDX 76 14 73 15 74 16 75 17 9 18 10 19 11 20 12 21 13 22 14 24
REMARK SMILES IDX 15 25 16 26 68 27 17 28 67 29 18 30 19 31 20 32 61 33 21 34
REMARK SMILES IDX 66 35 60 36 62 37 22 38 65 39 59 40 58 41 23 43 49 44 32 45
REMARK SMILES IDX 48 46 33 47 36 48 47 49 63 50 34 51 35 52 46 54 64 55 37 56
REMARK SMILES IDX 24 57 25 58 30 59 26 60 27 61 29 62 31 63 28 64 50 65 51 66
REMARK SMILES IDX 56 67 52 68 53 69 55 70 57 71 54 72 38 73 39 74 44 75 40 76
REMARK SMILES IDX 41 77 43 78 45 79 42 80
REMARK H PARENT 8 4 12 23 62 42 36 53
REMARK Flexibility Score: inf
ROOT
ATOM      1  C   UNL A   1      34.058  29.343  26.978  1.00  0.00     0.220 C 
ATOM      2  O   UNL A   1      35.090  29.330  27.661  1.00  0.00    -0.275 OA
ATOM      3  N   UNL A   1      33.097  30.198  27.394  1.00  0.00    -0.356 N 
ATOM      4  H   UNL A   1      33.350  30.710  28.196  1.00  0.00     0.163 HD
ENDROOT
BRANCH   1   5
ATOM      5  C   UNL A   1      34.015  28.526  25.697  1.00  0.00     0.102 C 
BRANCH   5   6
ATOM      6  C   UNL A   1      33.693  27.049  25.628  1.00  0.00     0.031 C 
BRANCH   6   7
ATOM      7  C   UNL A   1      33.495  26.299  24.318  1.00  0.00     0.120 C 
BRANCH   7   8
ATOM      8  N   UNL A   1      32.207  26.096  23.618  1.00  0.00    -0.339 N 
ATOM      9  C   UNL A   1      31.336  25.141  24.310  1.00  0.00     0.147 C 
BRANCH   8  10
ATOM     10  C   UNL A   1      31.493  26.808  22.616  1.00  0.00     0.289 C 
ATOM     11  O   UNL A   1      31.492  26.366  21.462  1.00  0.00    -0.265 OA
BRANCH  10  12
ATOM     12  C   UNL A   1      30.690  27.982  22.886  1.00  0.00     0.193 A 
ATOM     13  C   UNL A   1      30.710  28.912  23.912  1.00  0.00     0.057 A 
ATOM     14  O   UNL A   1      29.930  28.489  21.857  1.00  0.00    -0.444 OA
ATOM     15  C   UNL A   1      29.793  29.940  23.560  1.00  0.00     0.059 A 
ATOM     16  C   UNL A   1      29.370  29.652  22.285  1.00  0.00     0.170 A 
ATOM     17  Br  UNL A   1      28.195  30.696  21.277  1.00  0.00    -0.008 Br
ENDBRANCH  10  12
ENDBRANCH   8  10
ENDBRANCH   7   8
ENDBRANCH   6   7
ENDBRANCH   5   6
ENDBRANCH   1   5
BRANCH   3  18
ATOM     18  C   UNL A   1      31.775  30.516  26.906  1.00  0.00     0.117 C 
BRANCH  18  19
ATOM     19  C   UNL A   1      31.550  32.014  26.819  1.00  0.00     0.042 C 
BRANCH  19  20
ATOM     20  C   UNL A   1      32.757  32.788  27.297  1.00  0.00     0.118 C 
BRANCH  20  21
ATOM     21  N   UNL A   1      32.435  34.179  27.594  1.00  0.00    -0.352 N 
ATOM     22  C   UNL A   1      32.965  35.008  28.557  1.00  0.00     0.251 C 
ATOM     23  H   UNL A   1      31.740  34.583  27.024  1.00  0.00     0.163 HD
ATOM     24  O   UNL A   1      32.456  36.095  28.787  1.00  0.00    -0.269 OA
BRANCH  22  25
ATOM     25  C   UNL A   1      34.135  34.552  29.340  1.00  0.00     0.039 A 
ATOM     26  C   UNL A   1      33.937  34.020  30.616  1.00  0.00     0.014 A 
ATOM     27  C   UNL A   1      35.418  34.606  28.794  1.00  0.00     0.014 A 
ATOM     28  C   UNL A   1      35.021  33.474  31.308  1.00  0.00     0.010 A 
ATOM     29  C   UNL A   1      36.462  33.944  29.422  1.00  0.00     0.010 A 
ATOM     30  C   UNL A   1      36.283  33.391  30.696  1.00  0.00    -0.014 A 
BRANCH  30  31
ATOM     31  C   UNL A   1      37.444  32.771  31.381  1.00  0.00     0.031 A 
ATOM     32  C   UNL A   1      38.126  31.581  30.758  1.00  0.00     0.074 A 
ATOM     33  C   UNL A   1      37.839  33.227  32.585  1.00  0.00     0.049 A 
ATOM     34  N   UNL A   1      39.098  30.843  31.229  1.00  0.00    -0.248 NA
ATOM     35  C   UNL A   1      37.623  31.138  29.447  1.00  0.00     0.031 C 
ATOM     36  C   UNL A   1      37.224  34.337  33.317  1.00  0.00     0.029 A 
ATOM     37  N   UNL A   1      38.853  32.810  33.410  1.00  0.00    -0.354 N 
ATOM     38  C   UNL A   1      39.303  29.845  30.286  1.00  0.00     0.074 A 
ATOM     39  C   UNL A   1      38.309  30.023  29.253  1.00  0.00     0.031 C 
ATOM     40  C   UNL A   1      37.896  34.536  34.462  1.00  0.00     0.029 A 
ATOM     41  C   UNL A   1      38.960  33.543  34.567  1.00  0.00     0.049 A 
ATOM     42  H   UNL A   1      39.448  32.056  33.193  1.00  0.00     0.167 HD
ATOM     43  C   UNL A   1      40.259  28.886  30.259  1.00  0.00     0.037 A 
ATOM     44  C   UNL A   1      39.819  33.423  35.596  1.00  0.00     0.037 A 
ATOM     45  C   UNL A   1      41.267  28.734  31.272  1.00  0.00     0.049 A 
ATOM     46  C   UNL A   1      40.868  32.345  35.549  1.00  0.00     0.074 A 
ATOM     47  C   UNL A   1      42.316  27.834  31.316  1.00  0.00     0.029 A 
ATOM     48  N   UNL A   1      41.353  29.507  32.420  1.00  0.00    -0.354 N 
ATOM     49  N   UNL A   1      41.093  31.450  34.618  1.00  0.00    -0.248 NA
ATOM     50  C   UNL A   1      41.785  32.264  36.694  1.00  0.00     0.031 C 
ATOM     51  C   UNL A   1      43.008  28.030  32.515  1.00  0.00     0.029 A 
ATOM     52  C   UNL A   1      42.423  29.090  33.191  1.00  0.00     0.049 A 
ATOM     53  H   UNL A   1      40.741  30.243  32.653  1.00  0.00     0.167 HD
ATOM     54  C   UNL A   1      42.195  30.721  35.047  1.00  0.00     0.074 A 
ATOM     55  C   UNL A   1      42.601  31.290  36.317  1.00  0.00     0.031 C 
ATOM     56  C   UNL A   1      42.816  29.677  34.448  1.00  0.00     0.037 A 
BRANCH  43  57
ATOM     57  C   UNL A   1      40.259  27.940  29.093  1.00  0.00     0.057 A 
ATOM     58  C   UNL A   1      39.531  26.741  29.112  1.00  0.00     0.134 A 
ATOM     59  C   UNL A   1      40.977  28.237  27.928  1.00  0.00     0.134 A 
ATOM     60  F   UNL A   1      38.833  26.386  30.202  1.00  0.00    -0.206 F 
ATOM     61  C   UNL A   1      39.544  25.860  28.029  1.00  0.00     0.040 A 
ATOM     62  C   UNL A   1      40.972  27.379  26.828  1.00  0.00     0.040 A 
ATOM     63  F   UNL A   1      41.692  29.369  27.840  1.00  0.00    -0.206 F 
ATOM     64  C   UNL A   1      40.261  26.183  26.879  1.00  0.00     0.006 A 
ENDBRANCH  43  57
BRANCH  44  65
ATOM     65  C   UNL A   1      39.747  34.364  36.744  1.00  0.00     0.057 A 
ATOM     66  C   UNL A   1      40.384  35.611  36.695  1.00  0.00     0.134 A 
ATOM     67  C   UNL A   1      39.053  34.043  37.917  1.00  0.00     0.134 A 
ATOM     68  F   UNL A   1      41.080  35.970  35.606  1.00  0.00    -0.206 F 
ATOM     69  C   UNL A   1      40.354  36.491  37.778  1.00  0.00     0.040 A 
ATOM     70  C   UNL A   1      38.991  34.926  38.996  1.00  0.00     0.040 A 
ATOM     71  F   UNL A   1      38.411  32.869  38.024  1.00  0.00    -0.206 F 
ATOM     72  C   UNL A   1      39.651  36.151  38.931  1.00  0.00     0.006 A 
ENDBRANCH  44  65
BRANCH  56  73
ATOM     73  C   UNL A   1      44.024  29.108  35.134  1.00  0.00     0.057 A 
ATOM     74  C   UNL A   1      45.318  29.564  34.855  1.00  0.00     0.134 A 
ATOM     75  C   UNL A   1      43.883  28.121  36.118  1.00  0.00     0.134 A 
ATOM     76  F   UNL A   1      45.523  30.499  33.915  1.00  0.00    -0.206 F 
ATOM     77  C   UNL A   1      46.431  29.042  35.514  1.00  0.00     0.040 A 
ATOM     78  C   UNL A   1      44.984  27.613  36.806  1.00  0.00     0.040 A 
ATOM     79  F   UNL A   1      42.669  27.649  36.440  1.00  0.00    -0.206 F 
ATOM     80  C   UNL A   1      46.265  28.069  36.499  1.00  0.00     0.006 A 
ENDBRANCH  56  73
ENDBRANCH  30  31
ENDBRANCH  22  25
ENDBRANCH  20  21
ENDBRANCH  19  20
ENDBRANCH  18  19
ENDBRANCH   3  18
TORSDOF 15
ENDMDL
MODEL 2
REMARK VINA RESULT:     -10.8      6.538     11.293
REMARK SMILES CN(CCCC(=O)NCCCNC(=O)c1ccc(-c2c3nc(c(-c4c(F)cccc4F)c4ccc([nH]4)c(-c4c(F)cccc4F)c4nc(c(-c5c(F)cccc5F)c5ccc2[nH]5)C=C4)C=C3)cc1)C(=O)c1ccc(Br)o1
REMARK SMILES IDX 6 1 7 2 8 3 5 5 4 6 3 7 2 8 1 9 69 10 70 11 71 12 72 13
REMARK SMILES IDX 76 14 73 15 74 16 75 17 9 18 10 19 11 20 12 21 13 22 14 24
REMARK SMILES IDX 15 25 16 26 68 27 17 28 67 29 18 30 19 31 20 32 61 33 21 34
REMARK SMILES IDX 66 35 60 36 62 37 22 38 65 39 59 40 58 41 23 43 49 44 32 45
REMARK SMILES IDX 48 46 33 47 36 48 47 49 63 50 34 51 35 52 46 54 64 55 37 56
REMARK SMILES IDX 24 57 25 58 30 59 26 60 27 61 29 62 31 63 28 64 50 65 51 66
REMARK SMILES IDX 56 67 52 68 53 69 55 70 57 71 54 72 38 73 39 74 44 75 40 76
REMARK SMILES IDX 41 77 43 78 45 79 42 80
REMARK H PARENT 8 4 12 23 62 42 36 53
REMARK Flexibility Score: inf
ROOT
ATOM      1  C   UNL A   1      36.982  23.172  25.354  1.00  0.00     0.220 C 
ATOM      2  O   UNL A   1      37.410  24.103  26.048  1.00  0.00    -0.275 OA
ATOM      3  N   UNL A   1      37.203  21.932  25.845  1.00  0.00    -0.356 N 
ATOM      4  H   UNL A   1      37.677  21.933  26.707  1.00  0.00     0.163 HD
ENDROOT
BRANCH   1   5
ATOM      5  C   UNL A   1      36.156  23.496  24.120  1.00  0.00     0.102 C 
BRANCH   5   6
ATOM      6  C   UNL A   1      34.646  23.405  24.045  1.00  0.00     0.031 C 
BRANCH   6   7
ATOM      7  C   UNL A   1      33.766  23.137  25.257  1.00  0.00     0.120 C 
BRANCH   7   8
ATOM      8  N   UNL A   1      33.417  21.806  25.802  1.00  0.00    -0.339 N 
ATOM      9  C   UNL A   1      33.874  21.626  27.183  1.00  0.00     0.147 C 
BRANCH   8  10
ATOM     10  C   UNL A   1      32.505  20.782  25.426  1.00  0.00     0.289 C 
ATOM     11  O   UNL A   1      31.301  21.051  25.376  1.00  0.00    -0.265 OA
BRANCH  10  12
ATOM     12  C   UNL A   1      32.915  19.457  25.013  1.00  0.00     0.193 A 
ATOM     13  C   UNL A   1      33.983  19.001  24.259  1.00  0.00     0.057 A 
ATOM     14  O   UNL A   1      32.355  18.381  25.664  1.00  0.00    -0.444 OA
ATOM     15  C   UNL A   1      33.962  17.581  24.322  1.00  0.00     0.059 A 
ATOM     16  C   UNL A   1      32.972  17.255  25.217  1.00  0.00     0.170 A 
ATOM     17  Br  UNL A   1      32.527  15.521  25.748  1.00  0.00    -0.008 Br
ENDBRANCH  10  12
ENDBRANCH   8  10
ENDBRANCH   7   8
ENDBRANCH   6   7
ENDBRANCH   5   6
ENDBRANCH   1   5
BRANCH   3  18
ATOM     18  C   UNL A   1      36.885  20.606  25.367  1.00  0.00     0.117 C 
BRANCH  18  19
ATOM     19  C   UNL A   1      38.130  19.838  24.963  1.00  0.00     0.042 C 
BRANCH  19  20
ATOM     20  C   UNL A   1      39.310  20.187  25.841  1.00  0.00     0.118 C 
BRANCH  20  21
ATOM     21  N   UNL A   1      40.254  19.082  25.953  1.00  0.00    -0.352 N 
ATOM     22  C   UNL A   1      41.618  19.120  26.139  1.00  0.00     0.251 C 
ATOM     23  H   UNL A   1      39.861  18.181  25.888  1.00  0.00     0.163 HD
ATOM     24  O   UNL A   1      42.286  18.101  26.034  1.00  0.00    -0.269 OA
BRANCH  22  25
ATOM     25  C   UNL A   1      42.273  20.414  26.428  1.00  0.00     0.039 A 
ATOM     26  C   UNL A   1      42.805  21.161  25.375  1.00  0.00     0.014 A 
ATOM     27  C   UNL A   1      42.319  20.910  27.731  1.00  0.00     0.014 A 
ATOM     28  C   UNL A   1      43.313  22.437  25.624  1.00  0.00     0.010 A 
ATOM     29  C   UNL A   1      42.696  22.226  27.955  1.00  0.00     0.010 A 
ATOM     30  C   UNL A   1      43.219  22.998  26.910  1.00  0.00    -0.014 A 
BRANCH  30  31
ATOM     31  C   UNL A   1      43.700  24.371  27.201  1.00  0.00     0.031 A 
ATOM     32  C   UNL A   1      42.717  25.426  27.638  1.00  0.00     0.074 A 
ATOM     33  C   UNL A   1      44.995  24.687  27.008  1.00  0.00     0.049 A 
ATOM     34  N   UNL A   1      42.914  26.701  27.859  1.00  0.00    -0.248 NA
ATOM     35  C   UNL A   1      41.318  25.000  27.811  1.00  0.00     0.031 C 
ATOM     36  C   UNL A   1      46.032  23.767  26.535  1.00  0.00     0.029 A 
ATOM     37  N   UNL A   1      45.661  25.874  27.182  1.00  0.00    -0.354 N 
ATOM     38  C   UNL A   1      41.667  27.224  28.175  1.00  0.00     0.074 A 
ATOM     39  C   UNL A   1      40.708  26.151  28.044  1.00  0.00     0.031 C 
ATOM     40  C   UNL A   1      47.208  24.414  26.493  1.00  0.00     0.029 A 
ATOM     41  C   UNL A   1      47.002  25.802  26.894  1.00  0.00     0.049 A 
ATOM     42  H   UNL A   1      45.219  26.699  27.486  1.00  0.00     0.167 HD
ATOM     43  C   UNL A   1      41.350  28.477  28.577  1.00  0.00     0.037 A 
ATOM     44  C   UNL A   1      47.955  26.752  26.944  1.00  0.00     0.037 A 
ATOM     45  C   UNL A   1      42.313  29.532  28.738  1.00  0.00     0.049 A 
ATOM     46  C   UNL A   1      47.579  28.140  27.386  1.00  0.00     0.074 A 
ATOM     47  C   UNL A   1      42.110  30.822  29.194  1.00  0.00     0.029 A 
ATOM     48  N   UNL A   1      43.665  29.415  28.452  1.00  0.00    -0.354 N 
ATOM     49  N   UNL A   1      46.407  28.603  27.747  1.00  0.00    -0.248 NA
ATOM     50  C   UNL A   1      48.658  29.135  27.432  1.00  0.00     0.031 C 
ATOM     51  C   UNL A   1      43.331  31.501  29.136  1.00  0.00     0.029 A 
ATOM     52  C   UNL A   1      44.305  30.617  28.699  1.00  0.00     0.049 A 
ATOM     53  H   UNL A   1      44.104  28.598  28.121  1.00  0.00     0.167 HD
ATOM     54  C   UNL A   1      46.612  29.932  28.093  1.00  0.00     0.074 A 
ATOM     55  C   UNL A   1      48.026  30.196  27.912  1.00  0.00     0.031 C 
ATOM     56  C   UNL A   1      45.716  30.854  28.522  1.00  0.00     0.037 A 
BRANCH  43  57
ATOM     57  C   UNL A   1      39.907  28.764  28.876  1.00  0.00     0.057 A 
ATOM     58  C   UNL A   1      39.371  28.603  30.163  1.00  0.00     0.134 A 
ATOM     59  C   UNL A   1      39.045  29.226  27.874  1.00  0.00     0.134 A 
ATOM     60  F   UNL A   1      40.137  28.149  31.166  1.00  0.00    -0.206 F 
ATOM     61  C   UNL A   1      38.026  28.861  30.432  1.00  0.00     0.040 A 
ATOM     62  C   UNL A   1      37.706  29.517  28.140  1.00  0.00     0.040 A 
ATOM     63  F   UNL A   1      39.491  29.407  26.622  1.00  0.00    -0.206 F 
ATOM     64  C   UNL A   1      37.191  29.327  29.420  1.00  0.00     0.006 A 
ENDBRANCH  43  57
BRANCH  44  65
ATOM     65  C   UNL A   1      49.361  26.418  26.597  1.00  0.00     0.057 A 
ATOM     66  C   UNL A   1      50.226  25.864  27.550  1.00  0.00     0.134 A 
ATOM     67  C   UNL A   1      49.879  26.653  25.318  1.00  0.00     0.134 A 
ATOM     68  F   UNL A   1      49.795  25.631  28.798  1.00  0.00    -0.206 F 
ATOM     69  C   UNL A   1      51.559  25.577  27.250  1.00  0.00     0.040 A 
ATOM     70  C   UNL A   1      51.202  26.345  24.997  1.00  0.00     0.040 A 
ATOM     71  F   UNL A   1      49.100  27.172  24.357  1.00  0.00    -0.206 F 
ATOM     72  C   UNL A   1      52.049  25.814  25.967  1.00  0.00     0.006 A 
ENDBRANCH  44  65
BRANCH  56  73
ATOM     73  C   UNL A   1      46.240  32.218  28.866  1.00  0.00     0.057 A 
ATOM     74  C   UNL A   1      46.698  32.532  30.151  1.00  0.00     0.134 A 
ATOM     75  C   UNL A   1      46.328  33.213  27.884  1.00  0.00     0.134 A 
ATOM     76  F   UNL A   1      46.631  31.628  31.139  1.00  0.00    -0.206 F 
ATOM     77  C   UNL A   1      47.203  33.798  30.453  1.00  0.00     0.040 A 
ATOM     78  C   UNL A   1      46.859  34.471  28.166  1.00  0.00     0.040 A 
ATOM     79  F   UNL A   1      45.916  32.972  26.630  1.00  0.00    -0.206 F 
ATOM     80  C   UNL A   1      47.292  34.769  29.457  1.00  0.00     0.006 A 
ENDBRANCH  56  73
ENDBRANCH  30  31
ENDBRANCH  22  25
ENDBRANCH  20  21
ENDBRANCH  19  20
ENDBRANCH  18  19
ENDBRANCH   3  18
TORSDOF 15
ENDMDL
MODEL 3
REMARK VINA RESULT:     -10.7      6.276     10.386
REMARK SMILES CN(CCCC(=O)NCCCNC(=O)c1ccc(-c2c3nc(c(-c4c(F)cccc4F)c4ccc([nH]4)c(-c4c(F)cccc4F)c4nc(c(-c5c(F)cccc5F)c5ccc2[nH]5)C=C4)C=C3)cc1)C(=O)c1ccc(Br)o1
REMARK SMILES IDX 6 1 7 2 8 3 5 5 4 6 3 7 2 8 1 9 69 10 70 11 71 12 72 13
REMARK SMILES IDX 76 14 73 15 74 16 75 17 9 18 10 19 11 20 12 21 13 22 14 24
REMARK SMILES IDX 15 25 16 26 68 27 17 28 67 29 18 30 19 31 20 32 61 33 21 34
REMARK SMILES IDX 66 35 60 36 62 37 22 38 65 39 59 40 58 41 23 43 49 44 32 45
REMARK SMILES IDX 48 46 33 47 36 48 47 49 63 50 34 51 35 52 46 54 64 55 37 56
REMARK SMILES IDX 24 57 25 58 30 59 26 60 27 61 29 62 31 63 28 64 50 65 51 66
REMARK SMILES IDX 56 67 52 68 53 69 55 70 57 71 54 72 38 73 39 74 44 75 40 76
REMARK SMILES IDX 41 77 43 78 45 79 42 80
REMARK H PARENT 8 4 12 23 62 42 36 53
REMARK Flexibility Score: inf
ROOT
ATOM      1  C   UNL A   1      37.340  23.259  25.700  1.00  0.00     0.220 C 
ATOM      2  O   UNL A   1      38.140  24.131  26.063  1.00  0.00    -0.275 OA
ATOM      3  N   UNL A   1      37.888  22.062  25.392  1.00  0.00    -0.356 N 
ATOM      4  H   UNL A   1      38.865  22.039  25.503  1.00  0.00     0.163 HD
ENDROOT
BRANCH   1   5
ATOM      5  C   UNL A   1      35.852  23.557  25.761  1.00  0.00     0.102 C 
BRANCH   5   6
ATOM      6  C   UNL A   1      34.940  23.648  24.556  1.00  0.00     0.031 C 
BRANCH   6   7
ATOM      7  C   UNL A   1      34.342  22.429  23.869  1.00  0.00     0.120 C 
BRANCH   7   8
ATOM      8  N   UNL A   1      32.945  21.957  23.996  1.00  0.00    -0.339 N 
ATOM      9  C   UNL A   1      32.034  22.643  23.075  1.00  0.00     0.147 C 
BRANCH   8  10
ATOM     10  C   UNL A   1      32.328  20.813  24.571  1.00  0.00     0.289 C 
ATOM     11  O   UNL A   1      31.433  20.979  25.406  1.00  0.00    -0.265 OA
BRANCH  10  12
ATOM     12  C   UNL A   1      32.628  19.454  24.171  1.00  0.00     0.193 A 
ATOM     13  C   UNL A   1      32.430  18.763  22.987  1.00  0.00     0.057 A 
ATOM     14  O   UNL A   1      33.507  18.737  24.949  1.00  0.00    -0.444 OA
ATOM     15  C   UNL A   1      33.078  17.505  23.126  1.00  0.00     0.059 A 
ATOM     16  C   UNL A   1      33.746  17.552  24.325  1.00  0.00     0.170 A 
ATOM     17  Br  UNL A   1      34.828  16.193  25.010  1.00  0.00    -0.008 Br
ENDBRANCH  10  12
ENDBRANCH   8  10
ENDBRANCH   7   8
ENDBRANCH   6   7
ENDBRANCH   5   6
ENDBRANCH   1   5
BRANCH   3  18
ATOM     18  C   UNL A   1      37.334  20.809  24.933  1.00  0.00     0.117 C 
BRANCH  18  19
ATOM     19  C   UNL A   1      38.363  19.694  24.956  1.00  0.00     0.042 C 
BRANCH  19  20
ATOM     20  C   UNL A   1      39.365  19.884  26.072  1.00  0.00     0.118 C 
BRANCH  20  21
ATOM     21  N   UNL A   1      40.439  18.898  26.018  1.00  0.00    -0.352 N 
ATOM     22  C   UNL A   1      41.800  19.091  26.091  1.00  0.00     0.251 C 
ATOM     23  H   UNL A   1      40.149  17.962  25.916  1.00  0.00     0.163 HD
ATOM     24  O   UNL A   1      42.570  18.171  25.851  1.00  0.00    -0.269 OA
BRANCH  22  25
ATOM     25  C   UNL A   1      42.324  20.434  26.422  1.00  0.00     0.039 A 
ATOM     26  C   UNL A   1      42.652  21.314  25.389  1.00  0.00     0.014 A 
ATOM     27  C   UNL A   1      42.446  20.838  27.752  1.00  0.00     0.014 A 
ATOM     28  C   UNL A   1      43.029  22.623  25.694  1.00  0.00     0.010 A 
ATOM     29  C   UNL A   1      42.686  22.172  28.048  1.00  0.00     0.010 A 
ATOM     30  C   UNL A   1      43.003  23.075  27.025  1.00  0.00    -0.014 A 
BRANCH  30  31
ATOM     31  C   UNL A   1      43.346  24.474  27.382  1.00  0.00     0.031 A 
ATOM     32  C   UNL A   1      44.785  24.917  27.354  1.00  0.00     0.074 A 
ATOM     33  C   UNL A   1      42.382  25.320  27.797  1.00  0.00     0.049 A 
ATOM     34  N   UNL A   1      45.306  26.064  27.711  1.00  0.00    -0.248 NA
ATOM     35  C   UNL A   1      45.777  23.927  26.902  1.00  0.00     0.031 C 
ATOM     36  C   UNL A   1      40.960  24.992  27.920  1.00  0.00     0.029 A 
ATOM     37  N   UNL A   1      42.455  26.630  28.196  1.00  0.00    -0.354 N 
ATOM     38  C   UNL A   1      46.677  25.921  27.544  1.00  0.00     0.074 A 
ATOM     39  C   UNL A   1      46.917  24.558  27.130  1.00  0.00     0.031 C 
ATOM     40  C   UNL A   1      40.291  26.082  28.327  1.00  0.00     0.029 A 
ATOM     41  C   UNL A   1      41.239  27.172  28.537  1.00  0.00     0.049 A 
ATOM     42  H   UNL A   1      43.299  27.135  28.236  1.00  0.00     0.167 HD
ATOM     43  C   UNL A   1      47.650  26.851  27.686  1.00  0.00     0.037 A 
ATOM     44  C   UNL A   1      40.928  28.407  28.971  1.00  0.00     0.037 A 
ATOM     45  C   UNL A   1      47.403  28.215  28.066  1.00  0.00     0.049 A 
ATOM     46  C   UNL A   1      42.026  29.423  29.129  1.00  0.00     0.074 A 
ATOM     47  C   UNL A   1      48.307  29.255  28.184  1.00  0.00     0.029 A 
ATOM     48  N   UNL A   1      46.155  28.730  28.385  1.00  0.00    -0.354 N 
ATOM     49  N   UNL A   1      43.311  29.293  28.904  1.00  0.00    -0.248 NA
ATOM     50  C   UNL A   1      41.631  30.758  29.598  1.00  0.00     0.031 C 
ATOM     51  C   UNL A   1      47.614  30.387  28.624  1.00  0.00     0.029 A 
ATOM     52  C   UNL A   1      46.269  30.067  28.724  1.00  0.00     0.049 A 
ATOM     53  H   UNL A   1      45.313  28.219  28.374  1.00  0.00     0.167 HD
ATOM     54  C   UNL A   1      43.873  30.535  29.170  1.00  0.00     0.074 A 
ATOM     55  C   UNL A   1      42.784  31.408  29.561  1.00  0.00     0.031 C 
ATOM     56  C   UNL A   1      45.170  30.921  29.100  1.00  0.00     0.037 A 
BRANCH  43  57
ATOM     57  C   UNL A   1      49.064  26.422  27.419  1.00  0.00     0.057 A 
ATOM     58  C   UNL A   1      49.905  25.963  28.444  1.00  0.00     0.134 A 
ATOM     59  C   UNL A   1      49.588  26.447  26.120  1.00  0.00     0.134 A 
ATOM     60  F   UNL A   1      49.473  25.928  29.714  1.00  0.00    -0.206 F 
ATOM     61  C   UNL A   1      51.222  25.576  28.191  1.00  0.00     0.040 A 
ATOM     62  C   UNL A   1      50.893  26.032  25.851  1.00  0.00     0.040 A 
ATOM     63  F   UNL A   1      48.838  26.870  25.092  1.00  0.00    -0.206 F 
ATOM     64  C   UNL A   1      51.717  25.603  26.890  1.00  0.00     0.006 A 
ENDBRANCH  43  57
BRANCH  44  65
ATOM     65  C   UNL A   1      39.514  28.764  29.258  1.00  0.00     0.057 A 
ATOM     66  C   UNL A   1      38.967  28.572  30.534  1.00  0.00     0.134 A 
ATOM     67  C   UNL A   1      38.674  29.293  28.271  1.00  0.00     0.134 A 
ATOM     68  F   UNL A   1      39.716  28.053  31.518  1.00  0.00    -0.206 F 
ATOM     69  C   UNL A   1      37.632  28.871  30.810  1.00  0.00     0.040 A 
ATOM     70  C   UNL A   1      37.344  29.622  28.542  1.00  0.00     0.040 A 
ATOM     71  F   UNL A   1      39.139  29.511  27.032  1.00  0.00    -0.206 F 
ATOM     72  C   UNL A   1      36.817  29.402  29.812  1.00  0.00     0.006 A 
ENDBRANCH  44  65
BRANCH  56  73
ATOM     73  C   UNL A   1      45.480  32.356  29.410  1.00  0.00     0.057 A 
ATOM     74  C   UNL A   1      45.848  32.773  30.695  1.00  0.00     0.134 A 
ATOM     75  C   UNL A   1      45.451  33.324  28.398  1.00  0.00     0.134 A 
ATOM     76  F   UNL A   1      45.884  31.899  31.712  1.00  0.00    -0.206 F 
ATOM     77  C   UNL A   1      46.154  34.108  30.967  1.00  0.00     0.040 A 
ATOM     78  C   UNL A   1      45.784  34.654  28.650  1.00  0.00     0.040 A 
ATOM     79  F   UNL A   1      45.117  32.987  27.143  1.00  0.00    -0.206 F 
ATOM     80  C   UNL A   1      46.130  35.051  29.940  1.00  0.00     0.006 A 
ENDBRANCH  56  73
ENDBRANCH  30  31
ENDBRANCH  22  25
ENDBRANCH  20  21
ENDBRANCH  19  20
ENDBRANCH  18  19
ENDBRANCH   3  18
TORSDOF 15
ENDMDL
