MODEL 1
REMARK VINA RESULT:     -13.0      0.000      0.000
REMARK SMILES Cc1ccc(OCC(=O)NNC(=O)[C@H]2CCCC[C@@H]2C(=O)NCCCNC(=O)c2ccc(-c3c4nc(c(-c5c(F)cccc5F)c5ccc([nH]5)c(-c5c(F)cccc5F)c5nc(c(-c6c(F)cccc6F)c6ccc3[nH]6)C=C5)C=C4)cc2)cc1
REMARK SMILES IDX 20 1 21 2 22 3 19 5 14 6 15 7 16 8 18 9 17 10 12 11 11 12
REMARK SMILES IDX 13 14 10 15 8 16 9 17 7 19 6 20 5 21 1 22 2 23 3 24 84 25
REMARK SMILES IDX 4 26 83 27 23 28 24 29 25 30 26 31 27 32 28 34 29 35 30 36
REMARK SMILES IDX 82 37 31 38 81 39 32 40 33 41 34 42 75 43 35 44 80 45 74 46
REMARK SMILES IDX 76 47 36 48 79 49 73 50 72 51 37 53 63 54 46 55 62 56 47 57
REMARK SMILES IDX 50 58 61 59 77 60 48 61 49 62 60 64 78 65 51 66 38 67 39 68
REMARK SMILES IDX 44 69 40 70 41 71 43 72 45 73 42 74 64 75 65 76 70 77 66 78
REMARK SMILES IDX 67 79 69 80 71 81 68 82 52 83 53 84 58 85 54 86 55 87 57 88
REMARK SMILES IDX 59 89 56 90
REMARK H PARENT 22 4 11 13 10 18 26 33 76 52 50 63
REMARK Flexibility Score: inf
ROOT
ATOM      1  C   UNL A   1      31.898  28.098  27.161  1.00  0.00     0.223 C 
ATOM      2  O   UNL A   1      31.028  27.823  28.001  1.00  0.00    -0.275 OA
ATOM      3  N   UNL A   1      33.022  28.652  27.663  1.00  0.00    -0.356 N 
ATOM      4  H   UNL A   1      32.973  28.783  28.638  1.00  0.00     0.163 HD
ENDROOT
BRANCH   1   5
ATOM      5  C   UNL A   1      31.589  27.803  25.687  1.00  0.00     0.091 C 
ATOM      6  C   UNL A   1      32.113  26.385  25.357  1.00  0.00     0.092 C 
ATOM      7  C   UNL A   1      33.599  26.454  24.968  1.00  0.00     0.014 C 
ATOM      8  C   UNL A   1      33.871  27.365  23.776  1.00  0.00     0.001 C 
ATOM      9  C   UNL A   1      31.870  28.787  24.552  1.00  0.00     0.014 C 
ATOM     10  C   UNL A   1      33.261  28.748  23.919  1.00  0.00     0.001 C 
BRANCH   6  11
ATOM     11  C   UNL A   1      31.269  25.680  24.289  1.00  0.00     0.242 C 
ATOM     12  N   UNL A   1      30.239  24.861  24.660  1.00  0.00    -0.267 N 
ATOM     13  H   UNL A   1      29.684  24.486  23.937  1.00  0.00     0.191 HD
ATOM     14  O   UNL A   1      31.490  25.797  23.083  1.00  0.00    -0.273 OA
BRANCH  12  15
ATOM     15  N   UNL A   1      29.903  24.507  25.959  1.00  0.00    -0.265 N 
ATOM     16  C   UNL A   1      30.170  23.266  26.492  1.00  0.00     0.276 C 
ATOM     17  O   UNL A   1      29.923  23.037  27.678  1.00  0.00    -0.269 OA
ATOM     18  H   UNL A   1      29.452  25.175  26.525  1.00  0.00     0.191 HD
BRANCH  16  19
ATOM     19  C   UNL A   1      30.823  22.206  25.595  1.00  0.00     0.331 C 
BRANCH  19  20
ATOM     20  O   UNL A   1      32.010  21.620  26.108  1.00  0.00    -0.484 OA
BRANCH  20  21
ATOM     21  C   UNL A   1      33.188  21.912  25.475  1.00  0.00     0.120 A 
ATOM     22  C   UNL A   1      36.660  22.954  23.127  1.00  0.00     0.044 C 
ATOM     23  C   UNL A   1      35.456  22.589  23.943  1.00  0.00    -0.051 A 
ATOM     24  C   UNL A   1      34.170  22.859  23.464  1.00  0.00     0.007 A 
ATOM     25  C   UNL A   1      35.596  21.991  25.199  1.00  0.00     0.007 A 
ATOM     26  C   UNL A   1      33.047  22.518  24.225  1.00  0.00     0.047 A 
ATOM     27  C   UNL A   1      34.470  21.655  25.960  1.00  0.00     0.047 A 
ENDBRANCH  20  21
ENDBRANCH  19  20
ENDBRANCH  16  19
ENDBRANCH  12  15
ENDBRANCH   6  11
ENDBRANCH   1   5
BRANCH   3  28
ATOM     28  C   UNL A   1      34.281  29.098  27.102  1.00  0.00     0.117 C 
BRANCH  28  29
ATOM     29  C   UNL A   1      34.493  30.601  27.250  1.00  0.00     0.042 C 
BRANCH  29  30
ATOM     30  C   UNL A   1      34.687  31.010  28.700  1.00  0.00     0.118 C 
BRANCH  30  31
ATOM     31  N   UNL A   1      35.822  31.896  28.953  1.00  0.00    -0.352 N 
ATOM     32  C   UNL A   1      37.169  31.571  29.100  1.00  0.00     0.251 C 
ATOM     33  H   UNL A   1      35.604  32.853  29.032  1.00  0.00     0.163 HD
ATOM     34  O   UNL A   1      37.995  32.435  29.328  1.00  0.00    -0.269 OA
BRANCH  32  35
ATOM     35  C   UNL A   1      37.596  30.174  28.827  1.00  0.00     0.039 A 
ATOM     36  C   UNL A   1      37.728  29.312  29.919  1.00  0.00     0.014 A 
ATOM     37  C   UNL A   1      38.169  29.855  27.603  1.00  0.00     0.014 A 
ATOM     38  C   UNL A   1      38.693  28.310  29.871  1.00  0.00     0.010 A 
ATOM     39  C   UNL A   1      39.224  28.969  27.605  1.00  0.00     0.010 A 
ATOM     40  C   UNL A   1      39.535  28.249  28.764  1.00  0.00    -0.014 A 
BRANCH  40  41
ATOM     41  C   UNL A   1      40.820  27.557  28.762  1.00  0.00     0.031 A 
ATOM     42  C   UNL A   1      40.880  26.111  28.468  1.00  0.00     0.074 A 
ATOM     43  C   UNL A   1      41.968  28.255  28.915  1.00  0.00     0.049 A 
ATOM     44  N   UNL A   1      41.871  25.352  28.786  1.00  0.00    -0.248 NA
ATOM     45  C   UNL A   1      39.797  25.396  27.798  1.00  0.00     0.031 C 
ATOM     46  C   UNL A   1      43.333  27.788  28.675  1.00  0.00     0.029 A 
ATOM     47  N   UNL A   1      42.140  29.503  29.534  1.00  0.00    -0.354 N 
ATOM     48  C   UNL A   1      41.684  24.144  28.166  1.00  0.00     0.074 A 
ATOM     49  C   UNL A   1      40.368  24.209  27.578  1.00  0.00     0.031 C 
ATOM     50  C   UNL A   1      44.181  28.540  29.392  1.00  0.00     0.029 A 
ATOM     51  C   UNL A   1      43.382  29.429  30.213  1.00  0.00     0.049 A 
ATOM     52  H   UNL A   1      41.524  30.270  29.503  1.00  0.00     0.167 HD
ATOM     53  C   UNL A   1      42.699  23.237  28.125  1.00  0.00     0.037 A 
ATOM     54  C   UNL A   1      43.423  29.494  31.576  1.00  0.00     0.037 A 
ATOM     55  C   UNL A   1      43.873  23.690  28.858  1.00  0.00     0.049 A 
ATOM     56  C   UNL A   1      43.892  28.220  32.251  1.00  0.00     0.074 A 
ATOM     57  C   UNL A   1      45.061  24.309  28.513  1.00  0.00     0.029 A 
ATOM     58  N   UNL A   1      43.765  23.819  30.231  1.00  0.00    -0.354 N 
ATOM     59  N   UNL A   1      44.262  27.136  31.623  1.00  0.00    -0.248 NA
ATOM     60  C   UNL A   1      43.893  28.044  33.706  1.00  0.00     0.031 C 
ATOM     61  C   UNL A   1      45.640  24.853  29.700  1.00  0.00     0.029 A 
ATOM     62  C   UNL A   1      44.811  24.544  30.762  1.00  0.00     0.049 A 
ATOM     63  H   UNL A   1      43.029  23.440  30.764  1.00  0.00     0.167 HD
ATOM     64  C   UNL A   1      44.477  26.135  32.534  1.00  0.00     0.074 A 
ATOM     65  C   UNL A   1      44.245  26.754  33.826  1.00  0.00     0.031 C 
ATOM     66  C   UNL A   1      44.786  24.854  32.181  1.00  0.00     0.037 A 
BRANCH  53  67
ATOM     67  C   UNL A   1      42.642  22.040  27.226  1.00  0.00     0.057 A 
ATOM     68  C   UNL A   1      41.717  21.008  27.453  1.00  0.00     0.134 A 
ATOM     69  C   UNL A   1      43.524  21.830  26.152  1.00  0.00     0.134 A 
ATOM     70  F   UNL A   1      40.779  21.105  28.404  1.00  0.00    -0.206 F 
ATOM     71  C   UNL A   1      41.735  19.812  26.727  1.00  0.00     0.040 A 
ATOM     72  C   UNL A   1      43.592  20.617  25.458  1.00  0.00     0.040 A 
ATOM     73  F   UNL A   1      44.348  22.802  25.733  1.00  0.00    -0.206 F 
ATOM     74  C   UNL A   1      42.700  19.596  25.751  1.00  0.00     0.006 A 
ENDBRANCH  53  67
BRANCH  54  75
ATOM     75  C   UNL A   1      42.424  30.452  32.120  1.00  0.00     0.057 A 
ATOM     76  C   UNL A   1      42.710  31.828  32.039  1.00  0.00     0.134 A 
ATOM     77  C   UNL A   1      41.092  30.090  32.325  1.00  0.00     0.134 A 
ATOM     78  F   UNL A   1      43.972  32.245  31.852  1.00  0.00    -0.206 F 
ATOM     79  C   UNL A   1      41.699  32.791  32.018  1.00  0.00     0.040 A 
ATOM     80  C   UNL A   1      40.072  31.048  32.322  1.00  0.00     0.040 A 
ATOM     81  F   UNL A   1      40.739  28.798  32.397  1.00  0.00    -0.206 F 
ATOM     82  C   UNL A   1      40.369  32.395  32.121  1.00  0.00     0.006 A 
ENDBRANCH  54  75
BRANCH  66  83
ATOM     83  C   UNL A   1      45.078  23.780  33.188  1.00  0.00     0.057 A 
ATOM     84  C   UNL A   1      44.089  22.890  33.631  1.00  0.00     0.134 A 
ATOM     85  C   UNL A   1      46.322  23.689  33.841  1.00  0.00     0.134 A 
ATOM     86  F   UNL A   1      42.851  22.926  33.117  1.00  0.00    -0.206 F 
ATOM     87  C   UNL A   1      44.334  21.943  34.631  1.00  0.00     0.040 A 
ATOM     88  C   UNL A   1      46.564  22.781  34.874  1.00  0.00     0.040 A 
ATOM     89  F   UNL A   1      47.360  24.461  33.487  1.00  0.00    -0.206 F 
ATOM     90  C   UNL A   1      45.571  21.895  35.266  1.00  0.00     0.006 A 
ENDBRANCH  66  83
ENDBRANCH  40  41
ENDBRANCH  32  35
ENDBRANCH  30  31
ENDBRANCH  29  30
ENDBRANCH  28  29
ENDBRANCH   3  28
TORSDOF 15
ENDMDL
MODEL 2
REMARK VINA RESULT:     -12.7      3.472      9.300
REMARK SMILES Cc1ccc(OCC(=O)NNC(=O)[C@H]2CCCC[C@@H]2C(=O)NCCCNC(=O)c2ccc(-c3c4nc(c(-c5c(F)cccc5F)c5ccc([nH]5)c(-c5c(F)cccc5F)c5nc(c(-c6c(F)cccc6F)c6ccc3[nH]6)C=C5)C=C4)cc2)cc1
REMARK SMILES IDX 20 1 21 2 22 3 19 5 14 6 15 7 16 8 18 9 17 10 12 11 11 12
REMARK SMILES IDX 13 14 10 15 8 16 9 17 7 19 6 20 5 21 1 22 2 23 3 24 84 25
REMARK SMILES IDX 4 26 83 27 23 28 24 29 25 30 26 31 27 32 28 34 29 35 30 36
REMARK SMILES IDX 82 37 31 38 81 39 32 40 33 41 34 42 75 43 35 44 80 45 74 46
REMARK SMILES IDX 76 47 36 48 79 49 73 50 72 51 37 53 63 54 46 55 62 56 47 57
REMARK SMILES IDX 50 58 61 59 77 60 48 61 49 62 60 64 78 65 51 66 38 67 39 68
REMARK SMILES IDX 44 69 40 70 41 71 43 72 45 73 42 74 64 75 65 76 70 77 66 78
REMARK SMILES IDX 67 79 69 80 71 81 68 82 52 83 53 84 58 85 54 86 55 87 57 88
REMARK SMILES IDX 59 89 56 90
REMARK H PARENT 22 4 11 13 10 18 26 33 76 52 50 63
REMARK Flexibility Score: inf
ROOT
ATOM      1  C   UNL A   1      36.292  22.604  23.872  1.00  0.00     0.223 C 
ATOM      2  O   UNL A   1      36.421  23.496  23.019  1.00  0.00    -0.275 OA
ATOM      3  N   UNL A   1      37.447  22.154  24.406  1.00  0.00    -0.356 N 
ATOM      4  H   UNL A   1      38.238  22.589  24.013  1.00  0.00     0.163 HD
ENDROOT
BRANCH   1   5
ATOM      5  C   UNL A   1      34.872  22.117  24.190  1.00  0.00     0.091 C 
ATOM      6  C   UNL A   1      33.968  23.358  24.383  1.00  0.00     0.092 C 
ATOM      7  C   UNL A   1      34.059  23.850  25.837  1.00  0.00     0.014 C 
ATOM      8  C   UNL A   1      33.662  22.792  26.860  1.00  0.00     0.001 C 
ATOM      9  C   UNL A   1      34.563  21.028  25.216  1.00  0.00     0.014 C 
ATOM     10  C   UNL A   1      34.376  21.465  26.668  1.00  0.00     0.001 C 
BRANCH   6  11
ATOM     11  C   UNL A   1      32.520  23.103  23.950  1.00  0.00     0.242 C 
ATOM     12  N   UNL A   1      32.081  23.539  22.730  1.00  0.00    -0.267 N 
ATOM     13  H   UNL A   1      31.165  23.290  22.470  1.00  0.00     0.191 HD
ATOM     14  O   UNL A   1      31.701  22.531  24.671  1.00  0.00    -0.273 OA
BRANCH  12  15
ATOM     15  N   UNL A   1      32.809  24.299  21.825  1.00  0.00    -0.265 N 
ATOM     16  C   UNL A   1      32.685  25.667  21.725  1.00  0.00     0.276 C 
ATOM     17  O   UNL A   1      33.417  26.298  20.959  1.00  0.00    -0.269 OA
ATOM     18  H   UNL A   1      33.441  23.839  21.227  1.00  0.00     0.191 HD
BRANCH  16  19
ATOM     19  C   UNL A   1      31.660  26.380  22.617  1.00  0.00     0.331 C 
BRANCH  19  20
ATOM     20  O   UNL A   1      31.864  26.236  24.015  1.00  0.00    -0.484 OA
BRANCH  20  21
ATOM     21  C   UNL A   1      32.174  27.360  24.731  1.00  0.00     0.120 A 
ATOM     22  C   UNL A   1      33.463  30.664  27.196  1.00  0.00     0.044 C 
ATOM     23  C   UNL A   1      33.012  29.518  26.341  1.00  0.00    -0.051 A 
ATOM     24  C   UNL A   1      33.709  28.305  26.361  1.00  0.00     0.007 A 
ATOM     25  C   UNL A   1      31.903  29.644  25.499  1.00  0.00     0.007 A 
ATOM     26  C   UNL A   1      33.288  27.236  25.564  1.00  0.00     0.047 A 
ATOM     27  C   UNL A   1      31.488  28.574  24.699  1.00  0.00     0.047 A 
ENDBRANCH  20  21
ENDBRANCH  19  20
ENDBRANCH  16  19
ENDBRANCH  12  15
ENDBRANCH   6  11
ENDBRANCH   1   5
BRANCH   3  28
ATOM     28  C   UNL A   1      37.793  21.179  25.421  1.00  0.00     0.117 C 
BRANCH  28  29
ATOM     29  C   UNL A   1      39.198  21.381  25.979  1.00  0.00     0.042 C 
BRANCH  29  30
ATOM     30  C   UNL A   1      39.431  22.811  26.436  1.00  0.00     0.118 C 
BRANCH  30  31
ATOM     31  N   UNL A   1      40.812  23.140  26.782  1.00  0.00    -0.352 N 
ATOM     32  C   UNL A   1      41.370  24.384  27.067  1.00  0.00     0.251 C 
ATOM     33  H   UNL A   1      41.434  22.378  26.816  1.00  0.00     0.163 HD
ATOM     34  O   UNL A   1      42.554  24.491  27.322  1.00  0.00    -0.269 OA
BRANCH  32  35
ATOM     35  C   UNL A   1      40.463  25.554  27.201  1.00  0.00     0.039 A 
ATOM     36  C   UNL A   1      40.765  26.697  26.454  1.00  0.00     0.014 A 
ATOM     37  C   UNL A   1      39.579  25.623  28.270  1.00  0.00     0.014 A 
ATOM     38  C   UNL A   1      40.440  27.946  26.977  1.00  0.00     0.010 A 
ATOM     39  C   UNL A   1      39.392  26.853  28.863  1.00  0.00     0.010 A 
ATOM     40  C   UNL A   1      39.888  28.010  28.254  1.00  0.00    -0.014 A 
BRANCH  40  41
ATOM     41  C   UNL A   1      39.892  29.216  29.077  1.00  0.00     0.031 A 
ATOM     42  C   UNL A   1      38.833  30.231  28.905  1.00  0.00     0.074 A 
ATOM     43  C   UNL A   1      40.795  29.354  30.074  1.00  0.00     0.049 A 
ATOM     44  N   UNL A   1      38.937  31.452  29.300  1.00  0.00    -0.248 NA
ATOM     45  C   UNL A   1      37.562  29.943  28.247  1.00  0.00     0.031 C 
ATOM     46  C   UNL A   1      40.785  30.341  31.153  1.00  0.00     0.029 A 
ATOM     47  N   UNL A   1      42.050  28.736  30.190  1.00  0.00    -0.354 N 
ATOM     48  C   UNL A   1      37.700  32.033  29.184  1.00  0.00     0.074 A 
ATOM     49  C   UNL A   1      36.878  31.060  28.503  1.00  0.00     0.031 C 
ATOM     50  C   UNL A   1      42.036  30.495  31.611  1.00  0.00     0.029 A 
ATOM     51  C   UNL A   1      42.909  29.710  30.759  1.00  0.00     0.049 A 
ATOM     52  H   UNL A   1      42.284  27.816  29.929  1.00  0.00     0.167 HD
ATOM     53  C   UNL A   1      37.459  33.241  29.760  1.00  0.00     0.037 A 
ATOM     54  C   UNL A   1      43.960  30.201  30.041  1.00  0.00     0.037 A 
ATOM     55  C   UNL A   1      38.650  33.801  30.385  1.00  0.00     0.049 A 
ATOM     56  C   UNL A   1      43.848  31.672  29.689  1.00  0.00     0.074 A 
ATOM     57  C   UNL A   1      39.154  33.831  31.674  1.00  0.00     0.029 A 
ATOM     58  N   UNL A   1      39.698  34.168  29.562  1.00  0.00    -0.354 N 
ATOM     59  N   UNL A   1      42.861  32.450  30.045  1.00  0.00    -0.248 NA
ATOM     60  C   UNL A   1      44.809  32.359  28.824  1.00  0.00     0.031 C 
ATOM     61  C   UNL A   1      40.537  34.179  31.602  1.00  0.00     0.029 A 
ATOM     62  C   UNL A   1      40.861  34.377  30.273  1.00  0.00     0.049 A 
ATOM     63  H   UNL A   1      39.623  34.268  28.585  1.00  0.00     0.167 HD
ATOM     64  C   UNL A   1      43.001  33.669  29.435  1.00  0.00     0.074 A 
ATOM     65  C   UNL A   1      44.242  33.569  28.689  1.00  0.00     0.031 C 
ATOM     66  C   UNL A   1      42.079  34.669  29.536  1.00  0.00     0.037 A 
BRANCH  53  67
ATOM     67  C   UNL A   1      36.067  33.776  29.905  1.00  0.00     0.057 A 
ATOM     68  C   UNL A   1      35.322  34.169  28.781  1.00  0.00     0.134 A 
ATOM     69  C   UNL A   1      35.436  33.979  31.144  1.00  0.00     0.134 A 
ATOM     70  F   UNL A   1      35.778  33.974  27.537  1.00  0.00    -0.206 F 
ATOM     71  C   UNL A   1      34.082  34.808  28.889  1.00  0.00     0.040 A 
ATOM     72  C   UNL A   1      34.225  34.670  31.270  1.00  0.00     0.040 A 
ATOM     73  F   UNL A   1      35.971  33.506  32.279  1.00  0.00    -0.206 F 
ATOM     74  C   UNL A   1      33.546  35.097  30.138  1.00  0.00     0.006 A 
ENDBRANCH  53  67
BRANCH  54  75
ATOM     75  C   UNL A   1      44.605  29.153  29.206  1.00  0.00     0.057 A 
ATOM     76  C   UNL A   1      45.462  28.233  29.840  1.00  0.00     0.134 A 
ATOM     77  C   UNL A   1      44.104  28.796  27.954  1.00  0.00     0.134 A 
ATOM     78  F   UNL A   1      45.986  28.518  31.043  1.00  0.00    -0.206 F 
ATOM     79  C   UNL A   1      45.693  26.959  29.317  1.00  0.00     0.040 A 
ATOM     80  C   UNL A   1      44.342  27.528  27.412  1.00  0.00     0.040 A 
ATOM     81  F   UNL A   1      43.269  29.613  27.294  1.00  0.00    -0.206 F 
ATOM     82  C   UNL A   1      45.097  26.590  28.115  1.00  0.00     0.006 A 
ENDBRANCH  54  75
BRANCH  66  83
ATOM     83  C   UNL A   1      42.271  36.020  28.912  1.00  0.00     0.057 A 
ATOM     84  C   UNL A   1      41.798  36.317  27.626  1.00  0.00     0.134 A 
ATOM     85  C   UNL A   1      43.047  37.021  29.527  1.00  0.00     0.134 A 
ATOM     86  F   UNL A   1      41.095  35.416  26.925  1.00  0.00    -0.206 F 
ATOM     87  C   UNL A   1      42.049  37.546  27.007  1.00  0.00     0.040 A 
ATOM     88  C   UNL A   1      43.345  38.232  28.899  1.00  0.00     0.040 A 
ATOM     89  F   UNL A   1      43.529  36.873  30.769  1.00  0.00    -0.206 F 
ATOM     90  C   UNL A   1      42.837  38.504  27.638  1.00  0.00     0.006 A 
ENDBRANCH  66  83
ENDBRANCH  40  41
ENDBRANCH  32  35
ENDBRANCH  30  31
ENDBRANCH  29  30
ENDBRANCH  28  29
ENDBRANCH   3  28
TORSDOF 15
ENDMDL
MODEL 3
REMARK VINA RESULT:     -12.4      3.077      8.177
REMARK SMILES Cc1ccc(OCC(=O)NNC(=O)[C@H]2CCCC[C@@H]2C(=O)NCCCNC(=O)c2ccc(-c3c4nc(c(-c5c(F)cccc5F)c5ccc([nH]5)c(-c5c(F)cccc5F)c5nc(c(-c6c(F)cccc6F)c6ccc3[nH]6)C=C5)C=C4)cc2)cc1
REMARK SMILES IDX 20 1 21 2 22 3 19 5 14 6 15 7 16 8 18 9 17 10 12 11 11 12
REMARK SMILES IDX 13 14 10 15 8 16 9 17 7 19 6 20 5 21 1 22 2 23 3 24 84 25
REMARK SMILES IDX 4 26 83 27 23 28 24 29 25 30 26 31 27 32 28 34 29 35 30 36
REMARK SMILES IDX 82 37 31 38 81 39 32 40 33 41 34 42 75 43 35 44 80 45 74 46
REMARK SMILES IDX 76 47 36 48 79 49 73 50 72 51 37 53 63 54 46 55 62 56 47 57
REMARK SMILES IDX 50 58 61 59 77 60 48 61 49 62 60 64 78 65 51 66 38 67 39 68
REMARK SMILES IDX 44 69 40 70 41 71 43 72 45 73 42 74 64 75 65 76 70 77 66 78
REMARK SMILES IDX 67 79 69 80 71 81 68 82 52 83 53 84 58 85 54 86 55 87 57 88
REMARK SMILES IDX 59 89 56 90
REMARK H PARENT 22 4 11 13 10 18 26 33 76 52 50 63
REMARK Flexibility Score: inf
ROOT
ATOM      1  C   UNL A   1      36.366  22.949  23.604  1.00  0.00     0.223 C 
ATOM      2  O   UNL A   1      36.518  22.977  22.372  1.00  0.00    -0.275 OA
ATOM      3  N   UNL A   1      37.456  23.294  24.321  1.00  0.00    -0.356 N 
ATOM      4  H   UNL A   1      38.234  23.494  23.751  1.00  0.00     0.163 HD
ENDROOT
BRANCH   1   5
ATOM      5  C   UNL A   1      34.998  22.516  24.147  1.00  0.00     0.091 C 
ATOM      6  C   UNL A   1      34.111  23.776  24.285  1.00  0.00     0.092 C 
ATOM      7  C   UNL A   1      34.367  24.449  25.643  1.00  0.00     0.014 C 
ATOM      8  C   UNL A   1      34.104  23.534  26.832  1.00  0.00     0.001 C 
ATOM      9  C   UNL A   1      34.822  21.569  25.332  1.00  0.00     0.014 C 
ATOM     10  C   UNL A   1      34.803  22.189  26.729  1.00  0.00     0.001 C 
BRANCH   6  11
ATOM     11  C   UNL A   1      32.624  23.476  24.062  1.00  0.00     0.242 C 
ATOM     12  N   UNL A   1      32.098  23.516  22.800  1.00  0.00    -0.267 N 
ATOM     13  H   UNL A   1      31.155  23.248  22.700  1.00  0.00     0.191 HD
ATOM     14  O   UNL A   1      31.852  23.217  24.986  1.00  0.00    -0.273 OA
BRANCH  12  15
ATOM     15  N   UNL A   1      32.769  23.899  21.647  1.00  0.00    -0.265 N 
ATOM     16  C   UNL A   1      32.579  25.119  21.038  1.00  0.00     0.276 C 
ATOM     17  O   UNL A   1      33.263  25.437  20.063  1.00  0.00    -0.269 OA
ATOM     18  H   UNL A   1      33.410  23.268  21.246  1.00  0.00     0.191 HD
BRANCH  16  19
ATOM     19  C   UNL A   1      31.540  26.081  21.630  1.00  0.00     0.331 C 
BRANCH  19  20
ATOM     20  O   UNL A   1      32.040  27.349  22.028  1.00  0.00    -0.484 OA
BRANCH  20  21
ATOM     21  C   UNL A   1      32.175  27.588  23.369  1.00  0.00     0.120 A 
ATOM     22  C   UNL A   1      33.038  28.365  27.528  1.00  0.00     0.044 C 
ATOM     23  C   UNL A   1      32.736  28.093  26.085  1.00  0.00    -0.051 A 
ATOM     24  C   UNL A   1      33.753  28.152  25.127  1.00  0.00     0.007 A 
ATOM     25  C   UNL A   1      31.436  27.793  25.669  1.00  0.00     0.007 A 
ATOM     26  C   UNL A   1      33.473  27.898  23.781  1.00  0.00     0.047 A 
ATOM     27  C   UNL A   1      31.156  27.543  24.321  1.00  0.00     0.047 A 
ENDBRANCH  20  21
ENDBRANCH  19  20
ENDBRANCH  16  19
ENDBRANCH  12  15
ENDBRANCH   6  11
ENDBRANCH   1   5
BRANCH   3  28
ATOM     28  C   UNL A   1      37.748  23.437  25.733  1.00  0.00     0.117 C 
BRANCH  28  29
ATOM     29  C   UNL A   1      38.547  22.265  26.292  1.00  0.00     0.042 C 
BRANCH  29  30
ATOM     30  C   UNL A   1      40.045  22.479  26.156  1.00  0.00     0.118 C 
BRANCH  30  31
ATOM     31  N   UNL A   1      40.797  21.331  25.654  1.00  0.00    -0.352 N 
ATOM     32  C   UNL A   1      42.148  21.032  25.815  1.00  0.00     0.251 C 
ATOM     33  H   UNL A   1      40.278  20.680  25.128  1.00  0.00     0.163 HD
ATOM     34  O   UNL A   1      42.629  20.034  25.313  1.00  0.00    -0.269 OA
BRANCH  32  35
ATOM     35  C   UNL A   1      42.956  21.875  26.735  1.00  0.00     0.039 A 
ATOM     36  C   UNL A   1      42.739  21.727  28.108  1.00  0.00     0.014 A 
ATOM     37  C   UNL A   1      43.623  22.989  26.243  1.00  0.00     0.014 A 
ATOM     38  C   UNL A   1      42.900  22.834  28.937  1.00  0.00     0.010 A 
ATOM     39  C   UNL A   1      43.636  24.122  27.027  1.00  0.00     0.010 A 
ATOM     40  C   UNL A   1      43.204  24.062  28.356  1.00  0.00    -0.014 A 
BRANCH  40  41
ATOM     41  C   UNL A   1      42.989  25.345  29.017  1.00  0.00     0.031 A 
ATOM     42  C   UNL A   1      41.806  26.162  28.678  1.00  0.00     0.074 A 
ATOM     43  C   UNL A   1      43.805  25.737  30.022  1.00  0.00     0.049 A 
ATOM     44  N   UNL A   1      41.711  27.424  28.918  1.00  0.00    -0.248 NA
ATOM     45  C   UNL A   1      40.628  25.610  28.015  1.00  0.00     0.031 C 
ATOM     46  C   UNL A   1      43.593  26.835  30.965  1.00  0.00     0.029 A 
ATOM     47  N   UNL A   1      45.127  25.333  30.263  1.00  0.00    -0.354 N 
ATOM     48  C   UNL A   1      40.411  27.794  28.681  1.00  0.00     0.074 A 
ATOM     49  C   UNL A   1      39.778  26.635  28.100  1.00  0.00     0.031 C 
ATOM     50  C   UNL A   1      44.781  27.228  31.447  1.00  0.00     0.029 A 
ATOM     51  C   UNL A   1      45.804  26.485  30.735  1.00  0.00     0.049 A 
ATOM     52  H   UNL A   1      45.506  24.434  30.131  1.00  0.00     0.167 HD
ATOM     53  C   UNL A   1      39.967  29.014  29.090  1.00  0.00     0.037 A 
ATOM     54  C   UNL A   1      46.812  27.038  30.000  1.00  0.00     0.037 A 
ATOM     55  C   UNL A   1      41.028  29.817  29.682  1.00  0.00     0.049 A 
ATOM     56  C   UNL A   1      46.509  28.422  29.460  1.00  0.00     0.074 A 
ATOM     57  C   UNL A   1      41.450  30.078  30.975  1.00  0.00     0.029 A 
ATOM     58  N   UNL A   1      42.057  30.235  28.859  1.00  0.00    -0.354 N 
ATOM     59  N   UNL A   1      45.402  29.081  29.676  1.00  0.00    -0.248 NA
ATOM     60  C   UNL A   1      47.409  29.136  28.550  1.00  0.00     0.031 C 
ATOM     61  C   UNL A   1      42.770  30.617  30.910  1.00  0.00     0.029 A 
ATOM     62  C   UNL A   1      43.137  30.700  29.581  1.00  0.00     0.049 A 
ATOM     63  H   UNL A   1      42.023  30.204  27.875  1.00  0.00     0.167 HD
ATOM     64  C   UNL A   1      45.399  30.225  28.921  1.00  0.00     0.074 A 
ATOM     65  C   UNL A   1      46.682  30.222  28.241  1.00  0.00     0.031 C 
ATOM     66  C   UNL A   1      44.339  31.079  28.858  1.00  0.00     0.037 A 
BRANCH  53  67
ATOM     67  C   UNL A   1      38.507  29.348  29.112  1.00  0.00     0.057 A 
ATOM     68  C   UNL A   1      37.850  29.800  27.957  1.00  0.00     0.134 A 
ATOM     69  C   UNL A   1      37.714  29.295  30.272  1.00  0.00     0.134 A 
ATOM     70  F   UNL A   1      38.469  29.840  26.770  1.00  0.00    -0.206 F 
ATOM     71  C   UNL A   1      36.528  30.260  27.977  1.00  0.00     0.040 A 
ATOM     72  C   UNL A   1      36.412  29.808  30.320  1.00  0.00     0.040 A 
ATOM     73  F   UNL A   1      38.175  28.737  31.401  1.00  0.00    -0.206 F 
ATOM     74  C   UNL A   1      35.816  30.302  29.169  1.00  0.00     0.006 A 
ENDBRANCH  53  67
BRANCH  54  75
ATOM     75  C   UNL A   1      47.647  26.005  29.331  1.00  0.00     0.057 A 
ATOM     76  C   UNL A   1      47.393  25.721  27.976  1.00  0.00     0.134 A 
ATOM     77  C   UNL A   1      48.886  25.615  29.841  1.00  0.00     0.134 A 
ATOM     78  F   UNL A   1      46.217  26.061  27.424  1.00  0.00    -0.206 F 
ATOM     79  C   UNL A   1      48.379  25.203  27.133  1.00  0.00     0.040 A 
ATOM     80  C   UNL A   1      49.876  25.081  29.010  1.00  0.00     0.040 A 
ATOM     81  F   UNL A   1      49.207  25.866  31.119  1.00  0.00    -0.206 F 
ATOM     82  C   UNL A   1      49.641  24.918  27.645  1.00  0.00     0.006 A 
ENDBRANCH  54  75
BRANCH  66  83
ATOM     83  C   UNL A   1      44.369  32.359  28.075  1.00  0.00     0.057 A 
ATOM     84  C   UNL A   1      44.091  32.394  26.701  1.00  0.00     0.134 A 
ATOM     85  C   UNL A   1      44.804  33.572  28.644  1.00  0.00     0.134 A 
ATOM     86  F   UNL A   1      43.723  31.285  26.044  1.00  0.00    -0.206 F 
ATOM     87  C   UNL A   1      44.202  33.569  25.949  1.00  0.00     0.040 A 
ATOM     88  C   UNL A   1      44.965  34.738  27.894  1.00  0.00     0.040 A 
ATOM     89  F   UNL A   1      45.068  33.677  29.954  1.00  0.00    -0.206 F 
ATOM     90  C   UNL A   1      44.653  34.743  26.543  1.00  0.00     0.006 A 
ENDBRANCH  66  83
ENDBRANCH  40  41
ENDBRANCH  32  35
ENDBRANCH  30  31
ENDBRANCH  29  30
ENDBRANCH  28  29
ENDBRANCH   3  28
TORSDOF 15
ENDMDL
