MODEL 1
REMARK VINA RESULT:     -11.2      0.000      0.000
REMARK SMILES CCOc1ccc(C(=O)NCC(=O)NCCCNC(=O)c2ccc(-c3c4nc(c(-c5c(F)cccc5F)c5ccc([nH]5)c(-c5c(F)cccc5F)c5nc(c(-c6c(F)cccc6F)c6ccc3[nH]6)C=C5)C=C4)cc2)c2ccccc12
REMARK SMILES IDX 15 1 14 2 12 3 13 4 11 6 10 7 8 8 9 9 7 11 4 12 5 13 80 14
REMARK SMILES IDX 6 15 75 16 79 17 76 18 78 19 77 20 3 21 2 22 1 23 16 24
REMARK SMILES IDX 17 25 18 26 19 27 20 29 21 30 22 31 74 32 23 33 73 34 24 35
REMARK SMILES IDX 25 36 26 37 67 38 27 39 72 40 66 41 68 42 28 43 71 44 65 45
REMARK SMILES IDX 64 46 29 48 55 49 38 50 54 51 39 52 42 53 53 54 69 55 40 56
REMARK SMILES IDX 41 57 52 59 70 60 43 61 30 62 31 63 36 64 32 65 33 66 35 67
REMARK SMILES IDX 37 68 34 69 56 70 57 71 62 72 58 73 59 74 61 75 63 76 60 77
REMARK SMILES IDX 44 78 45 79 50 80 46 81 47 82 49 83 51 84 48 85
REMARK H PARENT 14 5 10 10 18 28 68 47 42 58
REMARK Flexibility Score: inf
ROOT
ATOM      1  C   UNL A   1      31.539  27.722  26.262  1.00  0.00     0.117 C 
ENDROOT
BRANCH   1   2
ATOM      2  N   UNL A   1      31.461  26.415  26.873  1.00  0.00    -0.355 N 
ATOM      3  C   UNL A   1      31.074  25.209  26.377  1.00  0.00     0.239 C 
ATOM      4  O   UNL A   1      31.314  24.226  27.089  1.00  0.00    -0.273 OA
ATOM      5  H   UNL A   1      31.737  26.393  27.818  1.00  0.00     0.163 HD
BRANCH   3   6
ATOM      6  C   UNL A   1      30.515  24.995  24.958  1.00  0.00     0.216 C 
BRANCH   6   7
ATOM      7  N   UNL A   1      31.379  25.209  23.806  1.00  0.00    -0.343 N 
ATOM      8  C   UNL A   1      32.571  24.735  23.317  1.00  0.00     0.252 C 
ATOM      9  O   UNL A   1      32.784  25.104  22.162  1.00  0.00    -0.269 OA
ATOM     10  H   UNL A   1      30.999  25.890  23.204  1.00  0.00     0.164 HD
BRANCH   8  11
ATOM     11  C   UNL A   1      33.582  23.892  24.073  1.00  0.00     0.047 A 
ATOM     12  C   UNL A   1      35.572  22.399  25.423  1.00  0.00     0.127 A 
ATOM     13  C   UNL A   1      35.719  23.760  25.239  1.00  0.00     0.048 A 
ATOM     14  C   UNL A   1      34.481  21.718  24.853  1.00  0.00     0.025 A 
ATOM     15  C   UNL A   1      34.722  24.494  24.619  1.00  0.00     0.018 A 
ATOM     16  C   UNL A   1      33.471  22.452  24.149  1.00  0.00    -0.002 A 
ATOM     17  C   UNL A   1      34.400  20.309  24.943  1.00  0.00     0.012 A 
ATOM     18  C   UNL A   1      32.448  21.666  23.546  1.00  0.00     0.010 A 
ATOM     19  C   UNL A   1      33.374  19.591  24.335  1.00  0.00     0.001 A 
ATOM     20  C   UNL A   1      32.401  20.270  23.629  1.00  0.00     0.001 A 
BRANCH  12  21
ATOM     21  O   UNL A   1      36.585  21.716  26.054  1.00  0.00    -0.493 OA
BRANCH  21  22
ATOM     22  C   UNL A   1      37.825  21.753  25.327  1.00  0.00     0.226 C 
ATOM     23  C   UNL A   1      38.970  22.347  26.137  1.00  0.00     0.049 C 
ENDBRANCH  21  22
ENDBRANCH  12  21
ENDBRANCH   8  11
ENDBRANCH   6   7
ENDBRANCH   3   6
ENDBRANCH   1   2
BRANCH   1  24
ATOM     24  C   UNL A   1      32.952  28.168  25.943  1.00  0.00     0.042 C 
BRANCH  24  25
ATOM     25  C   UNL A   1      33.789  28.426  27.186  1.00  0.00     0.118 C 
BRANCH  25  26
ATOM     26  N   UNL A   1      33.751  29.820  27.612  1.00  0.00    -0.352 N 
ATOM     27  C   UNL A   1      34.697  30.581  28.253  1.00  0.00     0.251 C 
ATOM     28  H   UNL A   1      32.911  30.292  27.407  1.00  0.00     0.163 HD
ATOM     29  O   UNL A   1      34.399  31.693  28.672  1.00  0.00    -0.269 OA
BRANCH  27  30
ATOM     30  C   UNL A   1      36.066  30.059  28.452  1.00  0.00     0.039 A 
ATOM     31  C   UNL A   1      36.988  30.177  27.409  1.00  0.00     0.014 A 
ATOM     32  C   UNL A   1      36.438  29.442  29.648  1.00  0.00     0.014 A 
ATOM     33  C   UNL A   1      38.298  29.731  27.590  1.00  0.00     0.010 A 
ATOM     34  C   UNL A   1      37.766  29.086  29.861  1.00  0.00     0.010 A 
ATOM     35  C   UNL A   1      38.708  29.216  28.831  1.00  0.00    -0.014 A 
BRANCH  35  36
ATOM     36  C   UNL A   1      40.114  28.802  29.066  1.00  0.00     0.031 A 
ATOM     37  C   UNL A   1      41.090  29.763  29.693  1.00  0.00     0.074 A 
ATOM     38  C   UNL A   1      40.529  27.589  28.654  1.00  0.00     0.049 A 
ATOM     39  N   UNL A   1      42.370  29.609  29.919  1.00  0.00    -0.248 NA
ATOM     40  C   UNL A   1      40.567  31.080  30.094  1.00  0.00     0.031 C 
ATOM     41  C   UNL A   1      39.694  26.590  27.982  1.00  0.00     0.029 A 
ATOM     42  N   UNL A   1      41.762  26.990  28.729  1.00  0.00    -0.354 N 
ATOM     43  C   UNL A   1      42.806  30.812  30.462  1.00  0.00     0.074 A 
ATOM     44  C   UNL A   1      41.667  31.702  30.492  1.00  0.00     0.031 C 
ATOM     45  C   UNL A   1      40.432  25.498  27.724  1.00  0.00     0.029 A 
ATOM     46  C   UNL A   1      41.800  25.733  28.173  1.00  0.00     0.049 A 
ATOM     47  H   UNL A   1      42.545  27.420  29.141  1.00  0.00     0.167 HD
ATOM     48  C   UNL A   1      44.040  31.136  30.912  1.00  0.00     0.037 A 
ATOM     49  C   UNL A   1      42.825  24.873  28.029  1.00  0.00     0.037 A 
ATOM     50  C   UNL A   1      45.161  30.233  30.920  1.00  0.00     0.049 A 
ATOM     51  C   UNL A   1      44.183  25.261  28.552  1.00  0.00     0.074 A 
ATOM     52  C   UNL A   1      46.427  30.439  31.438  1.00  0.00     0.029 A 
ATOM     53  N   UNL A   1      45.151  28.956  30.379  1.00  0.00    -0.354 N 
ATOM     54  N   UNL A   1      44.556  26.365  29.151  1.00  0.00    -0.248 NA
ATOM     55  C   UNL A   1      45.262  24.276  28.386  1.00  0.00     0.031 C 
ATOM     56  C   UNL A   1      47.202  29.311  31.158  1.00  0.00     0.029 A 
ATOM     57  C   UNL A   1      46.400  28.376  30.523  1.00  0.00     0.049 A 
ATOM     58  H   UNL A   1      44.373  28.528  29.956  1.00  0.00     0.167 HD
ATOM     59  C   UNL A   1      45.898  26.193  29.466  1.00  0.00     0.074 A 
ATOM     60  C   UNL A   1      46.268  24.872  29.009  1.00  0.00     0.031 C 
ATOM     61  C   UNL A   1      46.749  27.052  30.079  1.00  0.00     0.037 A 
BRANCH  48  62
ATOM     62  C   UNL A   1      44.258  32.525  31.439  1.00  0.00     0.057 A 
ATOM     63  C   UNL A   1      44.091  32.841  32.794  1.00  0.00     0.134 A 
ATOM     64  C   UNL A   1      44.719  33.541  30.592  1.00  0.00     0.134 A 
ATOM     65  F   UNL A   1      43.642  31.917  33.658  1.00  0.00    -0.206 F 
ATOM     66  C   UNL A   1      44.364  34.119  33.284  1.00  0.00     0.040 A 
ATOM     67  C   UNL A   1      45.021  34.815  31.075  1.00  0.00     0.040 A 
ATOM     68  F   UNL A   1      44.905  33.305  29.285  1.00  0.00    -0.206 F 
ATOM     69  C   UNL A   1      44.843  35.107  32.425  1.00  0.00     0.006 A 
ENDBRANCH  48  62
BRANCH  49  70
ATOM     70  C   UNL A   1      42.623  23.559  27.364  1.00  0.00     0.057 A 
ATOM     71  C   UNL A   1      42.285  22.416  28.100  1.00  0.00     0.134 A 
ATOM     72  C   UNL A   1      42.816  23.401  25.987  1.00  0.00     0.134 A 
ATOM     73  F   UNL A   1      42.104  22.497  29.428  1.00  0.00    -0.206 F 
ATOM     74  C   UNL A   1      42.186  21.160  27.500  1.00  0.00     0.040 A 
ATOM     75  C   UNL A   1      42.686  22.158  25.367  1.00  0.00     0.040 A 
ATOM     76  F   UNL A   1      43.132  24.456  25.221  1.00  0.00    -0.206 F 
ATOM     77  C   UNL A   1      42.385  21.029  26.127  1.00  0.00     0.006 A 
ENDBRANCH  49  70
BRANCH  61  78
ATOM     78  C   UNL A   1      48.147  26.569  30.339  1.00  0.00     0.057 A 
ATOM     79  C   UNL A   1      49.196  26.806  29.443  1.00  0.00     0.134 A 
ATOM     80  C   UNL A   1      48.450  25.883  31.523  1.00  0.00     0.134 A 
ATOM     81  F   UNL A   1      48.971  27.447  28.285  1.00  0.00    -0.206 F 
ATOM     82  C   UNL A   1      50.490  26.351  29.699  1.00  0.00     0.040 A 
ATOM     83  C   UNL A   1      49.748  25.453  31.806  1.00  0.00     0.040 A 
ATOM     84  F   UNL A   1      47.496  25.634  32.431  1.00  0.00    -0.206 F 
ATOM     85  C   UNL A   1      50.770  25.679  30.887  1.00  0.00     0.006 A 
ENDBRANCH  61  78
ENDBRANCH  35  36
ENDBRANCH  27  30
ENDBRANCH  25  26
ENDBRANCH  24  25
ENDBRANCH   1  24
TORSDOF 14
ENDMDL
MODEL 2
REMARK VINA RESULT:     -11.2      2.682      7.279
REMARK SMILES CCOc1ccc(C(=O)NCC(=O)NCCCNC(=O)c2ccc(-c3c4nc(c(-c5c(F)cccc5F)c5ccc([nH]5)c(-c5c(F)cccc5F)c5nc(c(-c6c(F)cccc6F)c6ccc3[nH]6)C=C5)C=C4)cc2)c2ccccc12
REMARK SMILES IDX 15 1 14 2 12 3 13 4 11 6 10 7 8 8 9 9 7 11 4 12 5 13 80 14
REMARK SMILES IDX 6 15 75 16 79 17 76 18 78 19 77 20 3 21 2 22 1 23 16 24
REMARK SMILES IDX 17 25 18 26 19 27 20 29 21 30 22 31 74 32 23 33 73 34 24 35
REMARK SMILES IDX 25 36 26 37 67 38 27 39 72 40 66 41 68 42 28 43 71 44 65 45
REMARK SMILES IDX 64 46 29 48 55 49 38 50 54 51 39 52 42 53 53 54 69 55 40 56
REMARK SMILES IDX 41 57 52 59 70 60 43 61 30 62 31 63 36 64 32 65 33 66 35 67
REMARK SMILES IDX 37 68 34 69 56 70 57 71 62 72 58 73 59 74 61 75 63 76 60 77
REMARK SMILES IDX 44 78 45 79 50 80 46 81 47 82 49 83 51 84 48 85
REMARK H PARENT 14 5 10 10 18 28 68 47 42 58
REMARK Flexibility Score: inf
ROOT
ATOM      1  C   UNL A   1      36.748  20.562  25.064  1.00  0.00     0.117 C 
ENDROOT
BRANCH   1   2
ATOM      2  N   UNL A   1      36.686  21.479  23.949  1.00  0.00    -0.355 N 
ATOM      3  C   UNL A   1      36.675  22.838  23.899  1.00  0.00     0.239 C 
ATOM      4  O   UNL A   1      36.825  23.342  22.779  1.00  0.00    -0.273 OA
ATOM      5  H   UNL A   1      36.643  21.042  23.068  1.00  0.00     0.163 HD
BRANCH   3   6
ATOM      6  C   UNL A   1      36.644  23.750  25.139  1.00  0.00     0.216 C 
BRANCH   6   7
ATOM      7  N   UNL A   1      35.375  24.300  25.596  1.00  0.00    -0.343 N 
ATOM      8  C   UNL A   1      34.122  23.848  25.922  1.00  0.00     0.252 C 
ATOM      9  O   UNL A   1      33.435  24.717  26.460  1.00  0.00    -0.269 OA
ATOM     10  H   UNL A   1      35.435  25.277  25.700  1.00  0.00     0.164 HD
BRANCH   8  11
ATOM     11  C   UNL A   1      33.560  22.466  25.637  1.00  0.00     0.047 A 
ATOM     12  C   UNL A   1      32.621  19.836  25.178  1.00  0.00     0.127 A 
ATOM     13  C   UNL A   1      33.221  20.169  26.377  1.00  0.00     0.048 A 
ATOM     14  C   UNL A   1      32.562  20.771  24.129  1.00  0.00     0.025 A 
ATOM     15  C   UNL A   1      33.636  21.468  26.615  1.00  0.00     0.018 A 
ATOM     16  C   UNL A   1      33.047  22.104  24.334  1.00  0.00    -0.002 A 
ATOM     17  C   UNL A   1      32.056  20.388  22.866  1.00  0.00     0.012 A 
ATOM     18  C   UNL A   1      33.010  22.954  23.192  1.00  0.00     0.010 A 
ATOM     19  C   UNL A   1      32.041  21.263  21.783  1.00  0.00     0.001 A 
ATOM     20  C   UNL A   1      32.526  22.545  21.945  1.00  0.00     0.001 A 
BRANCH  12  21
ATOM     21  O   UNL A   1      32.217  18.535  24.994  1.00  0.00    -0.493 OA
BRANCH  21  22
ATOM     22  C   UNL A   1      33.276  17.583  25.195  1.00  0.00     0.226 C 
ATOM     23  C   UNL A   1      34.173  17.427  23.973  1.00  0.00     0.049 C 
ENDBRANCH  21  22
ENDBRANCH  12  21
ENDBRANCH   8  11
ENDBRANCH   6   7
ENDBRANCH   3   6
ENDBRANCH   1   2
BRANCH   1  24
ATOM     24  C   UNL A   1      37.923  19.605  25.008  1.00  0.00     0.042 C 
BRANCH  24  25
ATOM     25  C   UNL A   1      39.137  20.108  25.773  1.00  0.00     0.118 C 
BRANCH  25  26
ATOM     26  N   UNL A   1      40.185  19.100  25.894  1.00  0.00    -0.352 N 
ATOM     27  C   UNL A   1      41.528  19.238  26.138  1.00  0.00     0.251 C 
ATOM     28  H   UNL A   1      39.878  18.171  25.783  1.00  0.00     0.163 HD
ATOM     29  O   UNL A   1      42.266  18.266  26.035  1.00  0.00    -0.269 OA
BRANCH  27  30
ATOM     30  C   UNL A   1      42.089  20.555  26.509  1.00  0.00     0.039 A 
ATOM     31  C   UNL A   1      42.544  21.401  25.494  1.00  0.00     0.014 A 
ATOM     32  C   UNL A   1      42.185  20.951  27.844  1.00  0.00     0.014 A 
ATOM     33  C   UNL A   1      43.038  22.666  25.817  1.00  0.00     0.010 A 
ATOM     34  C   UNL A   1      42.586  22.246  28.157  1.00  0.00     0.010 A 
ATOM     35  C   UNL A   1      43.027  23.113  27.148  1.00  0.00    -0.014 A 
BRANCH  35  36
ATOM     36  C   UNL A   1      43.482  24.481  27.503  1.00  0.00     0.031 A 
ATOM     37  C   UNL A   1      42.479  25.529  27.907  1.00  0.00     0.074 A 
ATOM     38  C   UNL A   1      44.787  24.798  27.398  1.00  0.00     0.049 A 
ATOM     39  N   UNL A   1      42.673  26.793  28.189  1.00  0.00    -0.248 NA
ATOM     40  C   UNL A   1      41.068  25.114  27.975  1.00  0.00     0.031 C 
ATOM     41  C   UNL A   1      45.849  23.886  26.962  1.00  0.00     0.029 A 
ATOM     42  N   UNL A   1      45.445  25.979  27.637  1.00  0.00    -0.354 N 
ATOM     43  C   UNL A   1      41.414  27.323  28.442  1.00  0.00     0.074 A 
ATOM     44  C   UNL A   1      40.456  26.259  28.238  1.00  0.00     0.031 C 
ATOM     45  C   UNL A   1      47.024  24.535  26.985  1.00  0.00     0.029 A 
ATOM     46  C   UNL A   1      46.797  25.917  27.394  1.00  0.00     0.049 A 
ATOM     47  H   UNL A   1      44.991  26.793  27.953  1.00  0.00     0.167 HD
ATOM     48  C   UNL A   1      41.090  28.578  28.829  1.00  0.00     0.037 A 
ATOM     49  C   UNL A   1      47.743  26.870  27.479  1.00  0.00     0.037 A 
ATOM     50  C   UNL A   1      42.049  29.622  29.072  1.00  0.00     0.049 A 
ATOM     51  C   UNL A   1      47.349  28.254  27.923  1.00  0.00     0.074 A 
ATOM     52  C   UNL A   1      41.825  30.900  29.554  1.00  0.00     0.029 A 
ATOM     53  N   UNL A   1      43.413  29.511  28.848  1.00  0.00    -0.354 N 
ATOM     54  N   UNL A   1      46.166  28.713  28.253  1.00  0.00    -0.248 NA
ATOM     55  C   UNL A   1      48.425  29.251  28.017  1.00  0.00     0.031 C 
ATOM     56  C   UNL A   1      43.044  31.582  29.565  1.00  0.00     0.029 A 
ATOM     57  C   UNL A   1      44.037  30.710  29.151  1.00  0.00     0.049 A 
ATOM     58  H   UNL A   1      43.868  28.702  28.521  1.00  0.00     0.167 HD
ATOM     59  C   UNL A   1      46.363  30.036  28.628  1.00  0.00     0.074 A 
ATOM     60  C   UNL A   1      47.780  30.300  28.503  1.00  0.00     0.031 C 
ATOM     61  C   UNL A   1      45.452  30.952  29.039  1.00  0.00     0.037 A 
BRANCH  48  62
ATOM     62  C   UNL A   1      39.636  28.906  29.018  1.00  0.00     0.057 A 
ATOM     63  C   UNL A   1      38.818  29.300  27.951  1.00  0.00     0.134 A 
ATOM     64  C   UNL A   1      39.031  28.748  30.272  1.00  0.00     0.134 A 
ATOM     65  F   UNL A   1      39.336  29.481  26.727  1.00  0.00    -0.206 F 
ATOM     66  C   UNL A   1      37.453  29.535  28.127  1.00  0.00     0.040 A 
ATOM     67  C   UNL A   1      37.663  28.953  30.454  1.00  0.00     0.040 A 
ATOM     68  F   UNL A   1      39.756  28.369  31.334  1.00  0.00    -0.206 F 
ATOM     69  C   UNL A   1      36.870  29.349  29.379  1.00  0.00     0.006 A 
ENDBRANCH  48  62
BRANCH  49  70
ATOM     70  C   UNL A   1      49.158  26.564  27.138  1.00  0.00     0.057 A 
ATOM     71  C   UNL A   1      49.658  26.784  25.849  1.00  0.00     0.134 A 
ATOM     72  C   UNL A   1      50.027  25.994  28.075  1.00  0.00     0.134 A 
ATOM     73  F   UNL A   1      48.870  27.311  24.899  1.00  0.00    -0.206 F 
ATOM     74  C   UNL A   1      50.956  26.412  25.493  1.00  0.00     0.040 A 
ATOM     75  C   UNL A   1      51.337  25.649  27.743  1.00  0.00     0.040 A 
ATOM     76  F   UNL A   1      49.614  25.765  29.331  1.00  0.00    -0.206 F 
ATOM     77  C   UNL A   1      51.801  25.844  26.443  1.00  0.00     0.006 A 
ENDBRANCH  49  70
BRANCH  61  78
ATOM     78  C   UNL A   1      45.967  32.306  29.435  1.00  0.00     0.057 A 
ATOM     79  C   UNL A   1      46.389  32.591  30.739  1.00  0.00     0.134 A 
ATOM     80  C   UNL A   1      46.070  33.330  28.484  1.00  0.00     0.134 A 
ATOM     81  F   UNL A   1      46.306  31.658  31.701  1.00  0.00    -0.206 F 
ATOM     82  C   UNL A   1      46.866  33.854  31.091  1.00  0.00     0.040 A 
ATOM     83  C   UNL A   1      46.576  34.587  28.817  1.00  0.00     0.040 A 
ATOM     84  F   UNL A   1      45.695  33.121  27.214  1.00  0.00    -0.206 F 
ATOM     85  C   UNL A   1      46.967  34.854  30.127  1.00  0.00     0.006 A 
ENDBRANCH  61  78
ENDBRANCH  35  36
ENDBRANCH  27  30
ENDBRANCH  25  26
ENDBRANCH  24  25
ENDBRANCH   1  24
TORSDOF 14
ENDMDL
MODEL 3
REMARK VINA RESULT:     -11.1      0.669      1.701
REMARK SMILES CCOc1ccc(C(=O)NCC(=O)NCCCNC(=O)c2ccc(-c3c4nc(c(-c5c(F)cccc5F)c5ccc([nH]5)c(-c5c(F)cccc5F)c5nc(c(-c6c(F)cccc6F)c6ccc3[nH]6)C=C5)C=C4)cc2)c2ccccc12
REMARK SMILES IDX 15 1 14 2 12 3 13 4 11 6 10 7 8 8 9 9 7 11 4 12 5 13 80 14
REMARK SMILES IDX 6 15 75 16 79 17 76 18 78 19 77 20 3 21 2 22 1 23 16 24
REMARK SMILES IDX 17 25 18 26 19 27 20 29 21 30 22 31 74 32 23 33 73 34 24 35
REMARK SMILES IDX 25 36 26 37 67 38 27 39 72 40 66 41 68 42 28 43 71 44 65 45
REMARK SMILES IDX 64 46 29 48 55 49 38 50 54 51 39 52 42 53 53 54 69 55 40 56
REMARK SMILES IDX 41 57 52 59 70 60 43 61 30 62 31 63 36 64 32 65 33 66 35 67
REMARK SMILES IDX 37 68 34 69 56 70 57 71 62 72 58 73 59 74 61 75 63 76 60 77
REMARK SMILES IDX 44 78 45 79 50 80 46 81 47 82 49 83 51 84 48 85
REMARK H PARENT 14 5 10 10 18 28 68 47 42 58
REMARK Flexibility Score: inf
ROOT
ATOM      1  C   UNL A   1      31.457  27.801  26.476  1.00  0.00     0.117 C 
ENDROOT
BRANCH   1   2
ATOM      2  N   UNL A   1      31.456  26.401  26.832  1.00  0.00    -0.355 N 
ATOM      3  C   UNL A   1      31.294  25.280  26.080  1.00  0.00     0.239 C 
ATOM      4  O   UNL A   1      31.550  24.207  26.641  1.00  0.00    -0.273 OA
ATOM      5  H   UNL A   1      31.597  26.227  27.791  1.00  0.00     0.163 HD
BRANCH   3   6
ATOM      6  C   UNL A   1      30.971  25.286  24.574  1.00  0.00     0.216 C 
BRANCH   6   7
ATOM      7  N   UNL A   1      32.057  25.342  23.606  1.00  0.00    -0.343 N 
ATOM      8  C   UNL A   1      32.961  24.485  23.031  1.00  0.00     0.252 C 
ATOM      9  O   UNL A   1      33.563  25.000  22.088  1.00  0.00    -0.269 OA
ATOM     10  H   UNL A   1      32.177  26.259  23.266  1.00  0.00     0.164 HD
BRANCH   8  11
ATOM     11  C   UNL A   1      33.275  23.070  23.484  1.00  0.00     0.047 A 
ATOM     12  C   UNL A   1      33.723  20.418  24.366  1.00  0.00     0.127 A 
ATOM     13  C   UNL A   1      32.533  20.764  23.755  1.00  0.00     0.048 A 
ATOM     14  C   UNL A   1      34.688  21.401  24.651  1.00  0.00     0.025 A 
ATOM     15  C   UNL A   1      32.337  22.051  23.284  1.00  0.00     0.018 A 
ATOM     16  C   UNL A   1      34.474  22.754  24.229  1.00  0.00    -0.002 A 
ATOM     17  C   UNL A   1      35.850  21.063  25.383  1.00  0.00     0.012 A 
ATOM     18  C   UNL A   1      35.472  23.688  24.628  1.00  0.00     0.010 A 
ATOM     19  C   UNL A   1      36.796  22.018  25.744  1.00  0.00     0.001 A 
ATOM     20  C   UNL A   1      36.602  23.334  25.373  1.00  0.00     0.001 A 
BRANCH  12  21
ATOM     21  O   UNL A   1      33.874  19.125  24.808  1.00  0.00    -0.493 OA
BRANCH  21  22
ATOM     22  C   UNL A   1      32.969  18.205  24.174  1.00  0.00     0.226 C 
ATOM     23  C   UNL A   1      33.678  17.203  23.270  1.00  0.00     0.049 C 
ENDBRANCH  21  22
ENDBRANCH  12  21
ENDBRANCH   8  11
ENDBRANCH   6   7
ENDBRANCH   3   6
ENDBRANCH   1   2
BRANCH   1  24
ATOM     24  C   UNL A   1      32.817  28.328  26.058  1.00  0.00     0.042 C 
BRANCH  24  25
ATOM     25  C   UNL A   1      33.749  28.566  27.234  1.00  0.00     0.118 C 
BRANCH  25  26
ATOM     26  N   UNL A   1      33.722  29.947  27.705  1.00  0.00    -0.352 N 
ATOM     27  C   UNL A   1      34.673  30.680  28.369  1.00  0.00     0.251 C 
ATOM     28  H   UNL A   1      32.885  30.431  27.516  1.00  0.00     0.163 HD
ATOM     29  O   UNL A   1      34.383  31.779  28.824  1.00  0.00    -0.269 OA
BRANCH  27  30
ATOM     30  C   UNL A   1      36.038  30.142  28.552  1.00  0.00     0.039 A 
ATOM     31  C   UNL A   1      36.928  30.190  27.475  1.00  0.00     0.014 A 
ATOM     32  C   UNL A   1      36.438  29.579  29.765  1.00  0.00     0.014 A 
ATOM     33  C   UNL A   1      38.235  29.727  27.637  1.00  0.00     0.010 A 
ATOM     34  C   UNL A   1      37.766  29.208  29.953  1.00  0.00     0.010 A 
ATOM     35  C   UNL A   1      38.676  29.268  28.889  1.00  0.00    -0.014 A 
BRANCH  35  36
ATOM     36  C   UNL A   1      40.081  28.839  29.099  1.00  0.00     0.031 A 
ATOM     37  C   UNL A   1      41.077  29.789  29.711  1.00  0.00     0.074 A 
ATOM     38  C   UNL A   1      40.476  27.621  28.680  1.00  0.00     0.049 A 
ATOM     39  N   UNL A   1      42.360  29.622  29.915  1.00  0.00    -0.248 NA
ATOM     40  C   UNL A   1      40.576  31.111  30.121  1.00  0.00     0.031 C 
ATOM     41  C   UNL A   1      39.619  26.632  28.021  1.00  0.00     0.029 A 
ATOM     42  N   UNL A   1      41.704  27.009  28.733  1.00  0.00    -0.354 N 
ATOM     43  C   UNL A   1      42.818  30.819  30.451  1.00  0.00     0.074 A 
ATOM     44  C   UNL A   1      41.689  31.721  30.501  1.00  0.00     0.031 C 
ATOM     45  C   UNL A   1      40.341  25.533  27.750  1.00  0.00     0.029 A 
ATOM     46  C   UNL A   1      41.719  25.753  28.176  1.00  0.00     0.049 A 
ATOM     47  H   UNL A   1      42.498  27.431  29.133  1.00  0.00     0.167 HD
ATOM     48  C   UNL A   1      44.062  31.130  30.880  1.00  0.00     0.037 A 
ATOM     49  C   UNL A   1      42.733  24.882  28.014  1.00  0.00     0.037 A 
ATOM     50  C   UNL A   1      45.173  30.215  30.868  1.00  0.00     0.049 A 
ATOM     51  C   UNL A   1      44.103  25.255  28.514  1.00  0.00     0.074 A 
ATOM     52  C   UNL A   1      46.450  30.407  31.365  1.00  0.00     0.029 A 
ATOM     53  N   UNL A   1      45.141  28.939  30.327  1.00  0.00    -0.354 N 
ATOM     54  N   UNL A   1      44.498  26.356  29.107  1.00  0.00    -0.248 NA
ATOM     55  C   UNL A   1      45.169  24.260  28.330  1.00  0.00     0.031 C 
ATOM     56  C   UNL A   1      47.208  29.271  31.072  1.00  0.00     0.029 A 
ATOM     57  C   UNL A   1      46.386  28.346  30.450  1.00  0.00     0.049 A 
ATOM     58  H   UNL A   1      44.351  28.519  29.917  1.00  0.00     0.167 HD
ATOM     59  C   UNL A   1      45.843  26.169  29.400  1.00  0.00     0.074 A 
ATOM     60  C   UNL A   1      46.192  24.844  28.935  1.00  0.00     0.031 C 
ATOM     61  C   UNL A   1      46.713  27.018  29.999  1.00  0.00     0.037 A 
BRANCH  48  62
ATOM     62  C   UNL A   1      44.304  32.516  31.405  1.00  0.00     0.057 A 
ATOM     63  C   UNL A   1      44.166  32.831  32.763  1.00  0.00     0.134 A 
ATOM     64  C   UNL A   1      44.758  33.529  30.550  1.00  0.00     0.134 A 
ATOM     65  F   UNL A   1      43.724  31.911  33.634  1.00  0.00    -0.206 F 
ATOM     66  C   UNL A   1      44.461  34.106  33.249  1.00  0.00     0.040 A 
ATOM     67  C   UNL A   1      45.082  34.799  31.028  1.00  0.00     0.040 A 
ATOM     68  F   UNL A   1      44.917  33.292  29.239  1.00  0.00    -0.206 F 
ATOM     69  C   UNL A   1      44.932  35.091  32.382  1.00  0.00     0.006 A 
ENDBRANCH  48  62
BRANCH  49  70
ATOM     70  C   UNL A   1      42.505  23.571  27.352  1.00  0.00     0.057 A 
ATOM     71  C   UNL A   1      42.124  22.442  28.087  1.00  0.00     0.134 A 
ATOM     72  C   UNL A   1      42.717  23.401  25.979  1.00  0.00     0.134 A 
ATOM     73  F   UNL A   1      41.923  22.534  29.411  1.00  0.00    -0.206 F 
ATOM     74  C   UNL A   1      42.000  21.186  27.491  1.00  0.00     0.040 A 
ATOM     75  C   UNL A   1      42.564  22.158  25.362  1.00  0.00     0.040 A 
ATOM     76  F   UNL A   1      43.075  24.443  25.214  1.00  0.00    -0.206 F 
ATOM     77  C   UNL A   1      42.218  21.042  26.122  1.00  0.00     0.006 A 
ENDBRANCH  49  70
BRANCH  61  78
ATOM     78  C   UNL A   1      48.110  26.520  30.235  1.00  0.00     0.057 A 
ATOM     79  C   UNL A   1      49.140  26.721  29.307  1.00  0.00     0.134 A 
ATOM     80  C   UNL A   1      48.434  25.857  31.426  1.00  0.00     0.134 A 
ATOM     81  F   UNL A   1      48.895  27.339  28.141  1.00  0.00    -0.206 F 
ATOM     82  C   UNL A   1      50.433  26.253  29.542  1.00  0.00     0.040 A 
ATOM     83  C   UNL A   1      49.731  25.414  31.686  1.00  0.00     0.040 A 
ATOM     84  F   UNL A   1      47.499  25.642  32.363  1.00  0.00    -0.206 F 
ATOM     85  C   UNL A   1      50.733  25.604  30.737  1.00  0.00     0.006 A 
ENDBRANCH  61  78
ENDBRANCH  35  36
ENDBRANCH  27  30
ENDBRANCH  25  26
ENDBRANCH  24  25
ENDBRANCH   1  24
TORSDOF 14
ENDMDL
