MODEL 1
REMARK VINA RESULT:     -13.3      0.000      0.000
REMARK SMILES COc1cc([C@H]2c3c(-c4ccccc4)n[nH]c3C(=O)N2c2ccc(C(=O)NCCCNC(=O)c3ccc(-c4c5nc(c(-c6c(F)cccc6F)c6ccc([nH]6)c(-c6c(F)cccc6F)c6nc(c(-c7c(F)cccc7F)c7ccc4[nH]7)C=C6)C=C5)cc3)cc2)ccc1O
REMARK SMILES IDX 28 1 27 2 25 3 26 4 24 6 21 7 22 8 89 9 23 10 88 11 20 12
REMARK SMILES IDX 6 13 7 14 8 15 17 16 18 17 15 18 16 19 19 20 5 22 3 23 4 24
REMARK SMILES IDX 92 25 91 26 90 27 2 28 1 29 93 30 9 32 10 33 14 34 11 35
REMARK SMILES IDX 13 36 12 37 29 38 30 39 31 40 32 41 33 43 34 44 35 45 87 46
REMARK SMILES IDX 36 47 86 48 37 49 38 50 39 51 80 52 40 53 85 54 79 55 81 56
REMARK SMILES IDX 41 57 84 58 78 59 77 60 42 62 68 63 51 64 67 65 52 66 55 67
REMARK SMILES IDX 66 68 82 69 53 70 54 71 65 73 83 74 56 75 43 76 44 77 49 78
REMARK SMILES IDX 45 79 46 80 48 81 50 82 47 83 69 84 70 85 75 86 71 87 72 88
REMARK SMILES IDX 74 89 76 90 73 91 57 92 58 93 63 94 59 95 60 96 62 97 64 98
REMARK SMILES IDX 61 99
REMARK H PARENT 27 5 16 21 93 31 31 42 81 61 55 72
REMARK Flexibility Score: inf
ROOT
ATOM      1  C   UNL A   1      44.145  41.255  27.556  1.00  0.00     0.118 C 
ENDROOT
BRANCH   1   2
ATOM      2  N   UNL A   1      45.284  42.161  27.594  1.00  0.00    -0.352 N 
ATOM      3  C   UNL A   1      45.812  43.012  26.652  1.00  0.00     0.251 C 
ATOM      4  O   UNL A   1      46.744  43.738  26.998  1.00  0.00    -0.269 OA
ATOM      5  H   UNL A   1      45.764  42.166  28.454  1.00  0.00     0.163 HD
BRANCH   3   6
ATOM      6  C   UNL A   1      45.280  43.121  25.261  1.00  0.00     0.039 A 
ATOM      7  C   UNL A   1      44.441  43.368  22.592  1.00  0.00     0.045 A 
ATOM      8  C   UNL A   1      45.644  42.726  22.885  1.00  0.00     0.027 A 
ATOM      9  C   UNL A   1      43.633  43.829  23.623  1.00  0.00     0.027 A 
ATOM     10  C   UNL A   1      46.077  42.634  24.213  1.00  0.00     0.016 A 
ATOM     11  C   UNL A   1      44.029  43.653  24.944  1.00  0.00     0.016 A 
BRANCH   7  12
ATOM     12  N   UNL A   1      44.012  43.529  21.273  1.00  0.00    -0.295 N 
ATOM     13  C   UNL A   1      44.147  44.831  20.557  1.00  0.00     0.156 C 
ATOM     14  C   UNL A   1      43.381  44.514  19.331  1.00  0.00     0.038 A 
ATOM     15  C   UNL A   1      42.887  45.043  18.131  1.00  0.00     0.099 A 
ATOM     16  C   UNL A   1      42.915  43.232  19.384  1.00  0.00     0.129 A 
ATOM     17  C   UNL A   1      43.306  42.550  20.560  1.00  0.00     0.277 C 
ATOM     18  N   UNL A   1      42.107  44.126  17.512  1.00  0.00    -0.174 NA
ATOM     19  N   UNL A   1      42.158  43.023  18.298  1.00  0.00    -0.272 N 
ATOM     20  O   UNL A   1      43.027  41.403  20.876  1.00  0.00    -0.267 OA
ATOM     21  H   UNL A   1      41.696  42.176  18.097  1.00  0.00     0.190 HD
BRANCH  13  22
ATOM     22  C   UNL A   1      45.580  45.135  20.169  1.00  0.00    -0.016 A 
ATOM     23  C   UNL A   1      47.513  46.658  20.280  1.00  0.00     0.160 A 
ATOM     24  C   UNL A   1      46.179  46.338  20.589  1.00  0.00     0.056 A 
ATOM     25  C   UNL A   1      48.256  45.744  19.532  1.00  0.00     0.157 A 
ATOM     26  C   UNL A   1      47.683  44.550  19.095  1.00  0.00     0.050 A 
ATOM     27  C   UNL A   1      46.364  44.239  19.424  1.00  0.00     0.010 A 
BRANCH  23  28
ATOM     28  O   UNL A   1      47.900  47.867  20.785  1.00  0.00    -0.493 OA
ATOM     29  C   UNL A   1      48.653  47.913  21.988  1.00  0.00     0.278 C 
ENDBRANCH  23  28
BRANCH  25  30
ATOM     30  O   UNL A   1      49.568  45.910  19.197  1.00  0.00    -0.504 OA
ATOM     31  H   UNL A   1      50.170  46.259  19.823  1.00  0.00     0.293 HD
ENDBRANCH  25  30
ENDBRANCH  13  22
BRANCH  15  32
ATOM     32  C   UNL A   1      43.102  46.363  17.559  1.00  0.00     0.002 A 
ATOM     33  C   UNL A   1      42.012  47.172  17.221  1.00  0.00     0.010 A 
ATOM     34  C   UNL A   1      44.401  46.825  17.312  1.00  0.00     0.010 A 
ATOM     35  C   UNL A   1      42.219  48.434  16.659  1.00  0.00     0.001 A 
ATOM     36  C   UNL A   1      44.608  48.086  16.751  1.00  0.00     0.001 A 
ATOM     37  C   UNL A   1      43.518  48.890  16.426  1.00  0.00     0.000 A 
ENDBRANCH  15  32
ENDBRANCH   7  12
ENDBRANCH   3   6
ENDBRANCH   1   2
BRANCH   1  38
ATOM     38  C   UNL A   1      43.719  40.806  28.964  1.00  0.00     0.042 C 
BRANCH  38  39
ATOM     39  C   UNL A   1      43.295  39.354  28.989  1.00  0.00     0.118 C 
BRANCH  39  40
ATOM     40  N   UNL A   1      43.859  38.591  27.866  1.00  0.00    -0.352 N 
ATOM     41  C   UNL A   1      44.081  37.230  27.758  1.00  0.00     0.251 C 
ATOM     42  H   UNL A   1      44.115  39.124  27.079  1.00  0.00     0.163 HD
ATOM     43  O   UNL A   1      44.839  36.779  26.908  1.00  0.00    -0.269 OA
BRANCH  41  44
ATOM     44  C   UNL A   1      43.376  36.331  28.683  1.00  0.00     0.039 A 
ATOM     45  C   UNL A   1      43.846  36.020  29.963  1.00  0.00     0.014 A 
ATOM     46  C   UNL A   1      42.170  35.821  28.228  1.00  0.00     0.014 A 
ATOM     47  C   UNL A   1      43.054  35.217  30.782  1.00  0.00     0.010 A 
ATOM     48  C   UNL A   1      41.279  35.331  29.125  1.00  0.00     0.010 A 
ATOM     49  C   UNL A   1      41.773  34.880  30.338  1.00  0.00    -0.014 A 
BRANCH  49  50
ATOM     50  C   UNL A   1      40.852  34.030  31.067  1.00  0.00     0.031 A 
ATOM     51  C   UNL A   1      41.185  33.839  32.497  1.00  0.00     0.074 A 
ATOM     52  C   UNL A   1      39.622  33.799  30.554  1.00  0.00     0.049 A 
ATOM     53  N   UNL A   1      41.530  32.745  33.087  1.00  0.00    -0.248 NA
ATOM     54  C   UNL A   1      41.315  35.038  33.343  1.00  0.00     0.031 C 
ATOM     55  C   UNL A   1      39.051  34.293  29.289  1.00  0.00     0.029 A 
ATOM     56  N   UNL A   1      38.553  33.216  31.151  1.00  0.00    -0.354 N 
ATOM     57  C   UNL A   1      41.696  33.079  34.430  1.00  0.00     0.074 A 
ATOM     58  C   UNL A   1      41.809  34.510  34.465  1.00  0.00     0.031 C 
ATOM     59  C   UNL A   1      37.704  34.202  29.335  1.00  0.00     0.029 A 
ATOM     60  C   UNL A   1      37.331  33.510  30.550  1.00  0.00     0.049 A 
ATOM     61  H   UNL A   1      38.634  32.636  31.943  1.00  0.00     0.167 HD
ATOM     62  C   UNL A   1      41.438  32.175  35.417  1.00  0.00     0.037 A 
ATOM     63  C   UNL A   1      36.115  33.259  31.096  1.00  0.00     0.037 A 
ATOM     64  C   UNL A   1      41.298  30.847  34.861  1.00  0.00     0.049 A 
ATOM     65  C   UNL A   1      36.328  32.231  32.156  1.00  0.00     0.074 A 
ATOM     66  C   UNL A   1      42.104  30.026  34.094  1.00  0.00     0.029 A 
ATOM     67  N   UNL A   1      40.022  30.346  34.720  1.00  0.00    -0.354 N 
ATOM     68  N   UNL A   1      36.728  31.010  31.905  1.00  0.00    -0.248 NA
ATOM     69  C   UNL A   1      36.607  32.710  33.503  1.00  0.00     0.031 C 
ATOM     70  C   UNL A   1      41.219  29.429  33.147  1.00  0.00     0.029 A 
ATOM     71  C   UNL A   1      39.921  29.845  33.449  1.00  0.00     0.049 A 
ATOM     72  H   UNL A   1      39.315  30.349  35.405  1.00  0.00     0.167 HD
ATOM     73  C   UNL A   1      37.665  30.729  32.893  1.00  0.00     0.074 A 
ATOM     74  C   UNL A   1      37.500  31.791  33.885  1.00  0.00     0.031 C 
ATOM     75  C   UNL A   1      38.698  29.859  32.676  1.00  0.00     0.037 A 
BRANCH  62  76
ATOM     76  C   UNL A   1      40.916  32.511  36.799  1.00  0.00     0.057 A 
ATOM     77  C   UNL A   1      39.736  33.274  36.900  1.00  0.00     0.134 A 
ATOM     78  C   UNL A   1      41.635  32.382  38.005  1.00  0.00     0.134 A 
ATOM     79  F   UNL A   1      38.937  33.453  35.836  1.00  0.00    -0.206 F 
ATOM     80  C   UNL A   1      39.372  33.956  38.067  1.00  0.00     0.040 A 
ATOM     81  C   UNL A   1      41.253  33.018  39.190  1.00  0.00     0.040 A 
ATOM     82  F   UNL A   1      42.790  31.718  38.101  1.00  0.00    -0.206 F 
ATOM     83  C   UNL A   1      40.143  33.844  39.213  1.00  0.00     0.006 A 
ENDBRANCH  62  76
BRANCH  63  84
ATOM     84  C   UNL A   1      34.899  34.105  30.997  1.00  0.00     0.057 A 
ATOM     85  C   UNL A   1      34.667  35.160  31.890  1.00  0.00     0.134 A 
ATOM     86  C   UNL A   1      34.046  34.057  29.876  1.00  0.00     0.134 A 
ATOM     87  F   UNL A   1      35.452  35.327  32.964  1.00  0.00    -0.206 F 
ATOM     88  C   UNL A   1      33.654  36.110  31.678  1.00  0.00     0.040 A 
ATOM     89  C   UNL A   1      33.028  34.991  29.658  1.00  0.00     0.040 A 
ATOM     90  F   UNL A   1      34.224  33.149  28.906  1.00  0.00    -0.206 F 
ATOM     91  C   UNL A   1      32.835  36.031  30.555  1.00  0.00     0.006 A 
ENDBRANCH  63  84
BRANCH  75  92
ATOM     92  C   UNL A   1      38.707  29.037  31.412  1.00  0.00     0.057 A 
ATOM     93  C   UNL A   1      39.125  29.521  30.162  1.00  0.00     0.134 A 
ATOM     94  C   UNL A   1      38.494  27.657  31.505  1.00  0.00     0.134 A 
ATOM     95  F   UNL A   1      39.456  30.805  29.992  1.00  0.00    -0.206 F 
ATOM     96  C   UNL A   1      39.294  28.683  29.056  1.00  0.00     0.040 A 
ATOM     97  C   UNL A   1      38.691  26.803  30.417  1.00  0.00     0.040 A 
ATOM     98  F   UNL A   1      38.153  27.106  32.681  1.00  0.00    -0.206 F 
ATOM     99  C   UNL A   1      39.086  27.315  29.185  1.00  0.00     0.006 A 
ENDBRANCH  75  92
ENDBRANCH  49  50
ENDBRANCH  41  44
ENDBRANCH  39  40
ENDBRANCH  38  39
ENDBRANCH   1  38
TORSDOF 15
ENDMDL
MODEL 2
REMARK VINA RESULT:     -13.2     10.447     16.285
REMARK SMILES COc1cc([C@H]2c3c(-c4ccccc4)n[nH]c3C(=O)N2c2ccc(C(=O)NCCCNC(=O)c3ccc(-c4c5nc(c(-c6c(F)cccc6F)c6ccc([nH]6)c(-c6c(F)cccc6F)c6nc(c(-c7c(F)cccc7F)c7ccc4[nH]7)C=C6)C=C5)cc3)cc2)ccc1O
REMARK SMILES IDX 28 1 27 2 25 3 26 4 24 6 21 7 22 8 89 9 23 10 88 11 20 12
REMARK SMILES IDX 6 13 7 14 8 15 17 16 18 17 15 18 16 19 19 20 5 22 3 23 4 24
REMARK SMILES IDX 92 25 91 26 90 27 2 28 1 29 93 30 9 32 10 33 14 34 11 35
REMARK SMILES IDX 13 36 12 37 29 38 30 39 31 40 32 41 33 43 34 44 35 45 87 46
REMARK SMILES IDX 36 47 86 48 37 49 38 50 39 51 80 52 40 53 85 54 79 55 81 56
REMARK SMILES IDX 41 57 84 58 78 59 77 60 42 62 68 63 51 64 67 65 52 66 55 67
REMARK SMILES IDX 66 68 82 69 53 70 54 71 65 73 83 74 56 75 43 76 44 77 49 78
REMARK SMILES IDX 45 79 46 80 48 81 50 82 47 83 69 84 70 85 75 86 71 87 72 88
REMARK SMILES IDX 74 89 76 90 73 91 57 92 58 93 63 94 59 95 60 96 62 97 64 98
REMARK SMILES IDX 61 99
REMARK H PARENT 27 5 16 21 93 31 31 42 81 61 55 72
REMARK Flexibility Score: inf
ROOT
ATOM      1  C   UNL A   1      34.464  31.773  27.613  1.00  0.00     0.118 C 
ENDROOT
BRANCH   1   2
ATOM      2  N   UNL A   1      33.066  32.124  27.412  1.00  0.00    -0.352 N 
ATOM      3  C   UNL A   1      32.057  31.512  26.707  1.00  0.00     0.251 C 
ATOM      4  O   UNL A   1      30.929  31.996  26.788  1.00  0.00    -0.269 OA
ATOM      5  H   UNL A   1      32.791  32.954  27.867  1.00  0.00     0.163 HD
BRANCH   3   6
ATOM      6  C   UNL A   1      32.263  30.277  25.894  1.00  0.00     0.039 A 
ATOM      7  C   UNL A   1      32.488  27.907  24.403  1.00  0.00     0.045 A 
ATOM      8  C   UNL A   1      31.326  28.671  24.319  1.00  0.00     0.027 A 
ATOM      9  C   UNL A   1      33.555  28.349  25.175  1.00  0.00     0.027 A 
ATOM     10  C   UNL A   1      31.202  29.835  25.088  1.00  0.00     0.016 A 
ATOM     11  C   UNL A   1      33.456  29.552  25.866  1.00  0.00     0.016 A 
BRANCH   7  12
ATOM     12  N   UNL A   1      32.617  26.710  23.694  1.00  0.00    -0.295 N 
ATOM     13  C   UNL A   1      33.119  25.464  24.342  1.00  0.00     0.156 C 
ATOM     14  C   UNL A   1      33.247  24.603  23.145  1.00  0.00     0.038 A 
ATOM     15  C   UNL A   1      33.670  23.348  22.687  1.00  0.00     0.099 A 
ATOM     16  C   UNL A   1      32.863  25.288  22.028  1.00  0.00     0.129 A 
ATOM     17  C   UNL A   1      32.424  26.602  22.310  1.00  0.00     0.277 C 
ATOM     18  N   UNL A   1      33.593  23.301  21.337  1.00  0.00    -0.174 NA
ATOM     19  N   UNL A   1      33.080  24.499  20.966  1.00  0.00    -0.272 N 
ATOM     20  O   UNL A   1      32.035  27.438  21.508  1.00  0.00    -0.267 OA
ATOM     21  H   UNL A   1      32.892  24.758  20.034  1.00  0.00     0.190 HD
BRANCH  13  22
ATOM     22  C   UNL A   1      32.100  24.845  25.278  1.00  0.00    -0.016 A 
ATOM     23  C   UNL A   1      31.615  23.315  27.146  1.00  0.00     0.160 A 
ATOM     24  C   UNL A   1      32.514  23.900  26.236  1.00  0.00     0.056 A 
ATOM     25  C   UNL A   1      30.273  23.691  27.085  1.00  0.00     0.157 A 
ATOM     26  C   UNL A   1      29.837  24.617  26.139  1.00  0.00     0.050 A 
ATOM     27  C   UNL A   1      30.742  25.202  25.254  1.00  0.00     0.010 A 
BRANCH  23  28
ATOM     28  O   UNL A   1      32.219  22.429  27.994  1.00  0.00    -0.493 OA
ATOM     29  C   UNL A   1      33.580  22.082  27.789  1.00  0.00     0.278 C 
ENDBRANCH  23  28
BRANCH  25  30
ATOM     30  O   UNL A   1      29.306  23.232  27.932  1.00  0.00    -0.504 OA
ATOM     31  H   UNL A   1      28.511  23.715  28.040  1.00  0.00     0.293 HD
ENDBRANCH  25  30
ENDBRANCH  13  22
BRANCH  15  32
ATOM     32  C   UNL A   1      34.153  22.212  23.458  1.00  0.00     0.002 A 
ATOM     33  C   UNL A   1      33.307  21.132  23.730  1.00  0.00     0.010 A 
ATOM     34  C   UNL A   1      35.460  22.203  23.962  1.00  0.00     0.010 A 
ATOM     35  C   UNL A   1      33.767  20.049  24.482  1.00  0.00     0.001 A 
ATOM     36  C   UNL A   1      35.920  21.120  24.713  1.00  0.00     0.001 A 
ATOM     37  C   UNL A   1      35.074  20.043  24.972  1.00  0.00     0.000 A 
ENDBRANCH  15  32
ENDBRANCH   7  12
ENDBRANCH   3   6
ENDBRANCH   1   2
BRANCH   1  38
ATOM     38  C   UNL A   1      34.810  31.616  29.103  1.00  0.00     0.042 C 
BRANCH  38  39
ATOM     39  C   UNL A   1      35.635  32.776  29.616  1.00  0.00     0.118 C 
BRANCH  39  40
ATOM     40  N   UNL A   1      35.464  32.984  31.061  1.00  0.00    -0.352 N 
ATOM     41  C   UNL A   1      35.952  32.231  32.115  1.00  0.00     0.251 C 
ATOM     42  H   UNL A   1      34.929  33.770  31.315  1.00  0.00     0.163 HD
ATOM     43  O   UNL A   1      35.474  32.334  33.239  1.00  0.00    -0.269 OA
BRANCH  41  44
ATOM     44  C   UNL A   1      37.068  31.309  31.859  1.00  0.00     0.039 A 
ATOM     45  C   UNL A   1      36.897  29.943  31.611  1.00  0.00     0.014 A 
ATOM     46  C   UNL A   1      38.330  31.880  31.837  1.00  0.00     0.014 A 
ATOM     47  C   UNL A   1      38.022  29.180  31.305  1.00  0.00     0.010 A 
ATOM     48  C   UNL A   1      39.345  31.218  31.229  1.00  0.00     0.010 A 
ATOM     49  C   UNL A   1      39.240  29.841  31.123  1.00  0.00    -0.014 A 
BRANCH  49  50
ATOM     50  C   UNL A   1      40.494  29.176  30.832  1.00  0.00     0.031 A 
ATOM     51  C   UNL A   1      41.308  28.840  32.022  1.00  0.00     0.074 A 
ATOM     52  C   UNL A   1      40.662  28.586  29.627  1.00  0.00     0.049 A 
ATOM     53  N   UNL A   1      42.465  29.313  32.345  1.00  0.00    -0.248 NA
ATOM     54  C   UNL A   1      40.694  28.005  33.068  1.00  0.00     0.031 C 
ATOM     55  C   UNL A   1      39.718  28.527  28.497  1.00  0.00     0.029 A 
ATOM     56  N   UNL A   1      41.653  27.751  29.225  1.00  0.00    -0.354 N 
ATOM     57  C   UNL A   1      42.823  28.656  33.521  1.00  0.00     0.074 A 
ATOM     58  C   UNL A   1      41.609  28.087  34.036  1.00  0.00     0.031 C 
ATOM     59  C   UNL A   1      40.069  27.522  27.666  1.00  0.00     0.029 A 
ATOM     60  C   UNL A   1      41.331  26.974  28.115  1.00  0.00     0.049 A 
ATOM     61  H   UNL A   1      42.524  27.698  29.681  1.00  0.00     0.167 HD
ATOM     62  C   UNL A   1      44.129  28.398  33.814  1.00  0.00     0.037 A 
ATOM     63  C   UNL A   1      42.043  25.903  27.681  1.00  0.00     0.037 A 
ATOM     64  C   UNL A   1      45.001  29.146  32.935  1.00  0.00     0.049 A 
ATOM     65  C   UNL A   1      43.402  26.025  28.283  1.00  0.00     0.074 A 
ATOM     66  C   UNL A   1      45.161  30.487  32.639  1.00  0.00     0.029 A 
ATOM     67  N   UNL A   1      45.591  28.466  31.892  1.00  0.00    -0.354 N 
ATOM     68  N   UNL A   1      44.235  26.992  27.992  1.00  0.00    -0.248 NA
ATOM     69  C   UNL A   1      43.619  25.388  29.575  1.00  0.00     0.031 C 
ATOM     70  C   UNL A   1      45.357  30.527  31.226  1.00  0.00     0.029 A 
ATOM     71  C   UNL A   1      45.398  29.212  30.759  1.00  0.00     0.049 A 
ATOM     72  H   UNL A   1      46.062  27.604  31.951  1.00  0.00     0.167 HD
ATOM     73  C   UNL A   1      44.793  27.364  29.211  1.00  0.00     0.074 A 
ATOM     74  C   UNL A   1      44.421  26.297  30.140  1.00  0.00     0.031 C 
ATOM     75  C   UNL A   1      45.228  28.640  29.441  1.00  0.00     0.037 A 
BRANCH  62  76
ATOM     76  C   UNL A   1      44.633  27.199  34.591  1.00  0.00     0.057 A 
ATOM     77  C   UNL A   1      45.566  27.418  35.625  1.00  0.00     0.134 A 
ATOM     78  C   UNL A   1      44.485  25.849  34.211  1.00  0.00     0.134 A 
ATOM     79  F   UNL A   1      45.785  28.651  36.107  1.00  0.00    -0.206 F 
ATOM     80  C   UNL A   1      46.373  26.399  36.144  1.00  0.00     0.040 A 
ATOM     81  C   UNL A   1      45.251  24.817  34.761  1.00  0.00     0.040 A 
ATOM     82  F   UNL A   1      43.668  25.450  33.234  1.00  0.00    -0.206 F 
ATOM     83  C   UNL A   1      46.229  25.094  35.698  1.00  0.00     0.006 A 
ENDBRANCH  62  76
BRANCH  63  84
ATOM     84  C   UNL A   1      41.504  24.648  27.100  1.00  0.00     0.057 A 
ATOM     85  C   UNL A   1      42.247  23.885  26.190  1.00  0.00     0.134 A 
ATOM     86  C   UNL A   1      40.340  24.033  27.605  1.00  0.00     0.134 A 
ATOM     87  F   UNL A   1      43.397  24.356  25.687  1.00  0.00    -0.206 F 
ATOM     88  C   UNL A   1      41.860  22.589  25.809  1.00  0.00     0.040 A 
ATOM     89  C   UNL A   1      39.939  22.748  27.227  1.00  0.00     0.040 A 
ATOM     90  F   UNL A   1      39.594  24.625  28.548  1.00  0.00    -0.206 F 
ATOM     91  C   UNL A   1      40.706  22.014  26.334  1.00  0.00     0.006 A 
ENDBRANCH  63  84
BRANCH  75  92
ATOM     92  C   UNL A   1      45.289  29.610  28.289  1.00  0.00     0.057 A 
ATOM     93  C   UNL A   1      44.253  30.495  27.949  1.00  0.00     0.134 A 
ATOM     94  C   UNL A   1      46.513  29.806  27.639  1.00  0.00     0.134 A 
ATOM     95  F   UNL A   1      43.078  30.463  28.585  1.00  0.00    -0.206 F 
ATOM     96  C   UNL A   1      44.417  31.503  26.994  1.00  0.00     0.040 A 
ATOM     97  C   UNL A   1      46.700  30.829  26.706  1.00  0.00     0.040 A 
ATOM     98  F   UNL A   1      47.571  29.041  27.951  1.00  0.00    -0.206 F 
ATOM     99  C   UNL A   1      45.649  31.679  26.376  1.00  0.00     0.006 A 
ENDBRANCH  75  92
ENDBRANCH  49  50
ENDBRANCH  41  44
ENDBRANCH  39  40
ENDBRANCH  38  39
ENDBRANCH   1  38
TORSDOF 15
ENDMDL
MODEL 3
REMARK VINA RESULT:     -13.1      8.438     15.683
REMARK SMILES COc1cc([C@H]2c3c(-c4ccccc4)n[nH]c3C(=O)N2c2ccc(C(=O)NCCCNC(=O)c3ccc(-c4c5nc(c(-c6c(F)cccc6F)c6ccc([nH]6)c(-c6c(F)cccc6F)c6nc(c(-c7c(F)cccc7F)c7ccc4[nH]7)C=C6)C=C5)cc3)cc2)ccc1O
REMARK SMILES IDX 28 1 27 2 25 3 26 4 24 6 21 7 22 8 89 9 23 10 88 11 20 12
REMARK SMILES IDX 6 13 7 14 8 15 17 16 18 17 15 18 16 19 19 20 5 22 3 23 4 24
REMARK SMILES IDX 92 25 91 26 90 27 2 28 1 29 93 30 9 32 10 33 14 34 11 35
REMARK SMILES IDX 13 36 12 37 29 38 30 39 31 40 32 41 33 43 34 44 35 45 87 46
REMARK SMILES IDX 36 47 86 48 37 49 38 50 39 51 80 52 40 53 85 54 79 55 81 56
REMARK SMILES IDX 41 57 84 58 78 59 77 60 42 62 68 63 51 64 67 65 52 66 55 67
REMARK SMILES IDX 66 68 82 69 53 70 54 71 65 73 83 74 56 75 43 76 44 77 49 78
REMARK SMILES IDX 45 79 46 80 48 81 50 82 47 83 69 84 70 85 75 86 71 87 72 88
REMARK SMILES IDX 74 89 76 90 73 91 57 92 58 93 63 94 59 95 60 96 62 97 64 98
REMARK SMILES IDX 61 99
REMARK H PARENT 27 5 16 21 93 31 31 42 81 61 55 72
REMARK Flexibility Score: inf
ROOT
ATOM      1  C   UNL A   1      39.968  22.561  27.118  1.00  0.00     0.118 C 
ENDROOT
BRANCH   1   2
ATOM      2  N   UNL A   1      39.744  21.414  26.250  1.00  0.00    -0.352 N 
ATOM      3  C   UNL A   1      38.621  20.959  25.602  1.00  0.00     0.251 C 
ATOM      4  O   UNL A   1      38.749  19.993  24.849  1.00  0.00    -0.269 OA
ATOM      5  H   UNL A   1      40.546  20.863  26.100  1.00  0.00     0.163 HD
BRANCH   3   6
ATOM      6  C   UNL A   1      37.282  21.605  25.737  1.00  0.00     0.039 A 
ATOM      7  C   UNL A   1      34.712  22.734  25.851  1.00  0.00     0.045 A 
ATOM      8  C   UNL A   1      34.862  21.377  25.567  1.00  0.00     0.027 A 
ATOM      9  C   UNL A   1      35.828  23.510  26.135  1.00  0.00     0.027 A 
ATOM     10  C   UNL A   1      36.145  20.823  25.478  1.00  0.00     0.016 A 
ATOM     11  C   UNL A   1      37.092  22.930  26.132  1.00  0.00     0.016 A 
BRANCH   7  12
ATOM     12  N   UNL A   1      33.448  23.327  25.886  1.00  0.00    -0.295 N 
ATOM     13  C   UNL A   1      33.193  24.668  25.283  1.00  0.00     0.156 C 
ATOM     14  C   UNL A   1      31.813  24.893  25.768  1.00  0.00     0.038 A 
ATOM     15  C   UNL A   1      30.760  25.816  25.812  1.00  0.00     0.099 A 
ATOM     16  C   UNL A   1      31.394  23.827  26.512  1.00  0.00     0.129 A 
ATOM     17  C   UNL A   1      32.361  22.797  26.594  1.00  0.00     0.277 C 
ATOM     18  N   UNL A   1      29.766  25.343  26.599  1.00  0.00    -0.174 NA
ATOM     19  N   UNL A   1      30.180  24.116  26.999  1.00  0.00    -0.272 N 
ATOM     20  O   UNL A   1      32.263  21.739  27.197  1.00  0.00    -0.267 OA
ATOM     21  H   UNL A   1      29.655  23.514  27.576  1.00  0.00     0.190 HD
BRANCH  13  22
ATOM     22  C   UNL A   1      33.175  24.629  23.768  1.00  0.00    -0.016 A 
ATOM     23  C   UNL A   1      33.281  25.848  21.630  1.00  0.00     0.160 A 
ATOM     24  C   UNL A   1      33.267  25.829  23.036  1.00  0.00     0.056 A 
ATOM     25  C   UNL A   1      33.199  24.631  20.951  1.00  0.00     0.157 A 
ATOM     26  C   UNL A   1      33.097  23.431  21.653  1.00  0.00     0.050 A 
ATOM     27  C   UNL A   1      33.101  23.426  23.047  1.00  0.00     0.010 A 
BRANCH  23  28
ATOM     28  O   UNL A   1      33.382  27.110  21.117  1.00  0.00    -0.493 OA
ATOM     29  C   UNL A   1      33.679  28.195  21.983  1.00  0.00     0.278 C 
ENDBRANCH  23  28
BRANCH  25  30
ATOM     30  O   UNL A   1      33.242  24.504  19.593  1.00  0.00    -0.504 OA
ATOM     31  H   UNL A   1      33.889  24.969  19.100  1.00  0.00     0.293 HD
ENDBRANCH  25  30
ENDBRANCH  13  22
BRANCH  15  32
ATOM     32  C   UNL A   1      30.660  27.116  25.165  1.00  0.00     0.002 A 
ATOM     33  C   UNL A   1      31.414  28.197  25.632  1.00  0.00     0.010 A 
ATOM     34  C   UNL A   1      29.785  27.305  24.088  1.00  0.00     0.010 A 
ATOM     35  C   UNL A   1      31.306  29.448  25.020  1.00  0.00     0.001 A 
ATOM     36  C   UNL A   1      29.677  28.555  23.476  1.00  0.00     0.001 A 
ATOM     37  C   UNL A   1      30.439  29.625  23.941  1.00  0.00     0.000 A 
ENDBRANCH  15  32
ENDBRANCH   7  12
ENDBRANCH   3   6
ENDBRANCH   1   2
BRANCH   1  38
ATOM     38  C   UNL A   1      41.343  22.503  27.806  1.00  0.00     0.042 C 
BRANCH  38  39
ATOM     39  C   UNL A   1      41.761  23.853  28.345  1.00  0.00     0.118 C 
BRANCH  39  40
ATOM     40  N   UNL A   1      43.213  23.941  28.558  1.00  0.00    -0.352 N 
ATOM     41  C   UNL A   1      43.983  25.045  28.878  1.00  0.00     0.251 C 
ATOM     42  H   UNL A   1      43.707  23.095  28.459  1.00  0.00     0.163 HD
ATOM     43  O   UNL A   1      45.197  25.037  28.713  1.00  0.00    -0.269 OA
BRANCH  41  44
ATOM     44  C   UNL A   1      43.313  26.228  29.435  1.00  0.00     0.039 A 
ATOM     45  C   UNL A   1      43.473  26.652  30.759  1.00  0.00     0.014 A 
ATOM     46  C   UNL A   1      42.522  26.946  28.553  1.00  0.00     0.014 A 
ATOM     47  C   UNL A   1      42.849  27.834  31.156  1.00  0.00     0.010 A 
ATOM     48  C   UNL A   1      42.202  28.230  28.847  1.00  0.00     0.010 A 
ATOM     49  C   UNL A   1      42.213  28.605  30.180  1.00  0.00    -0.014 A 
BRANCH  49  50
ATOM     50  C   UNL A   1      41.499  29.837  30.450  1.00  0.00     0.031 A 
ATOM     51  C   UNL A   1      42.280  31.072  30.210  1.00  0.00     0.074 A 
ATOM     52  C   UNL A   1      40.148  29.814  30.515  1.00  0.00     0.049 A 
ATOM     53  N   UNL A   1      42.659  31.947  31.079  1.00  0.00    -0.248 NA
ATOM     54  C   UNL A   1      42.856  31.276  28.870  1.00  0.00     0.031 C 
ATOM     55  C   UNL A   1      39.244  28.661  30.363  1.00  0.00     0.029 A 
ATOM     56  N   UNL A   1      39.286  30.861  30.552  1.00  0.00    -0.354 N 
ATOM     57  C   UNL A   1      43.325  32.933  30.353  1.00  0.00     0.074 A 
ATOM     58  C   UNL A   1      43.635  32.340  29.082  1.00  0.00     0.031 C 
ATOM     59  C   UNL A   1      37.998  29.098  30.077  1.00  0.00     0.029 A 
ATOM     60  C   UNL A   1      37.983  30.541  30.178  1.00  0.00     0.049 A 
ATOM     61  H   UNL A   1      39.559  31.769  30.819  1.00  0.00     0.167 HD
ATOM     62  C   UNL A   1      43.308  34.236  30.755  1.00  0.00     0.037 A 
ATOM     63  C   UNL A   1      37.010  31.445  29.895  1.00  0.00     0.037 A 
ATOM     64  C   UNL A   1      42.806  34.340  32.107  1.00  0.00     0.049 A 
ATOM     65  C   UNL A   1      37.440  32.736  30.507  1.00  0.00     0.074 A 
ATOM     66  C   UNL A   1      43.176  33.798  33.324  1.00  0.00     0.029 A 
ATOM     67  N   UNL A   1      41.506  34.765  32.274  1.00  0.00    -0.354 N 
ATOM     68  N   UNL A   1      37.559  32.918  31.797  1.00  0.00    -0.248 NA
ATOM     69  C   UNL A   1      38.232  33.636  29.679  1.00  0.00     0.031 C 
ATOM     70  C   UNL A   1      41.946  33.457  33.961  1.00  0.00     0.029 A 
ATOM     71  C   UNL A   1      40.902  33.893  33.142  1.00  0.00     0.049 A 
ATOM     72  H   UNL A   1      41.089  35.547  31.848  1.00  0.00     0.167 HD
ATOM     73  C   UNL A   1      38.735  33.644  31.951  1.00  0.00     0.074 A 
ATOM     74  C   UNL A   1      39.070  34.111  30.605  1.00  0.00     0.031 C 
ATOM     75  C   UNL A   1      39.500  33.541  33.080  1.00  0.00     0.037 A 
BRANCH  62  76
ATOM     76  C   UNL A   1      43.350  35.437  29.834  1.00  0.00     0.057 A 
ATOM     77  C   UNL A   1      44.266  36.469  30.124  1.00  0.00     0.134 A 
ATOM     78  C   UNL A   1      42.376  35.772  28.871  1.00  0.00     0.134 A 
ATOM     79  F   UNL A   1      45.265  36.279  31.000  1.00  0.00    -0.206 F 
ATOM     80  C   UNL A   1      44.143  37.760  29.598  1.00  0.00     0.040 A 
ATOM     81  C   UNL A   1      42.277  37.045  28.301  1.00  0.00     0.040 A 
ATOM     82  F   UNL A   1      41.410  34.935  28.486  1.00  0.00    -0.206 F 
ATOM     83  C   UNL A   1      43.133  38.057  28.696  1.00  0.00     0.006 A 
ENDBRANCH  62  76
BRANCH  63  84
ATOM     84  C   UNL A   1      35.962  31.332  28.851  1.00  0.00     0.057 A 
ATOM     85  C   UNL A   1      36.058  30.392  27.815  1.00  0.00     0.134 A 
ATOM     86  C   UNL A   1      34.716  31.980  28.972  1.00  0.00     0.134 A 
ATOM     87  F   UNL A   1      37.184  29.684  27.643  1.00  0.00    -0.206 F 
ATOM     88  C   UNL A   1      34.981  30.110  26.959  1.00  0.00     0.040 A 
ATOM     89  C   UNL A   1      33.639  31.716  28.119  1.00  0.00     0.040 A 
ATOM     90  F   UNL A   1      34.471  32.834  29.975  1.00  0.00    -0.206 F 
ATOM     91  C   UNL A   1      33.765  30.768  27.114  1.00  0.00     0.006 A 
ENDBRANCH  63  84
BRANCH  75  92
ATOM     92  C   UNL A   1      38.958  32.780  34.262  1.00  0.00     0.057 A 
ATOM     93  C   UNL A   1      39.150  31.404  34.468  1.00  0.00     0.134 A 
ATOM     94  C   UNL A   1      38.413  33.498  35.333  1.00  0.00     0.134 A 
ATOM     95  F   UNL A   1      39.759  30.645  33.551  1.00  0.00    -0.206 F 
ATOM     96  C   UNL A   1      38.793  30.771  35.662  1.00  0.00     0.040 A 
ATOM     97  C   UNL A   1      38.082  32.885  36.544  1.00  0.00     0.040 A 
ATOM     98  F   UNL A   1      38.255  34.828  35.240  1.00  0.00    -0.206 F 
ATOM     99  C   UNL A   1      38.265  31.516  36.710  1.00  0.00     0.006 A 
ENDBRANCH  75  92
ENDBRANCH  49  50
ENDBRANCH  41  44
ENDBRANCH  39  40
ENDBRANCH  38  39
ENDBRANCH   1  38
TORSDOF 15
ENDMDL
