MODEL 1
REMARK VINA RESULT:     -12.9      0.000      0.000
REMARK SMILES O=C(NCCCNC(=O)c1ccc(-c2c3nc(c(-c4c(F)cccc4F)c4ccc([nH]4)c(-c4c(F)cccc4F)c4nc(c(-c5c(F)cccc5F)c5ccc2[nH]5)C=C4)C=C3)cc1)c1ccc(NS(=O)(=O)C2=Cc3ccccc3CC2)cc1
REMARK SMILES IDX 4 1 3 2 1 3 2 4 64 6 65 7 83 8 66 9 82 10 67 11 68 12 69 14
REMARK SMILES IDX 70 15 71 16 72 17 73 18 81 19 74 20 80 21 75 22 79 23 76 24
REMARK SMILES IDX 78 25 77 26 5 27 6 28 7 29 8 30 9 32 10 33 11 34 63 35 12 36
REMARK SMILES IDX 62 37 13 38 14 39 15 40 56 41 16 42 61 43 55 44 57 45 17 46
REMARK SMILES IDX 60 47 54 48 53 49 18 51 44 52 27 53 43 54 28 55 31 56 42 57
REMARK SMILES IDX 58 58 29 59 30 60 41 62 59 63 32 64 19 65 20 66 25 67 21 68
REMARK SMILES IDX 22 69 24 70 26 71 23 72 45 73 46 74 51 75 47 76 48 77 50 78
REMARK SMILES IDX 52 79 49 80 33 81 34 82 39 83 35 84 36 85 38 86 40 87 37 88
REMARK H PARENT 3 5 68 13 7 31 57 50 31 61
REMARK Flexibility Score: inf
ROOT
ATOM      1  C   UNL A   1      35.973  21.096  25.370  1.00  0.00     0.118 C 
ENDROOT
BRANCH   1   2
ATOM      2  N   UNL A   1      35.000  20.014  25.381  1.00  0.00    -0.352 N 
ATOM      3  O   UNL A   1      32.955  19.078  25.448  1.00  0.00    -0.269 OA
ATOM      4  C   UNL A   1      33.648  20.048  25.156  1.00  0.00     0.251 C 
ATOM      5  H   UNL A   1      35.368  19.121  25.580  1.00  0.00     0.163 HD
BRANCH   4   6
ATOM      6  C   UNL A   1      33.021  21.235  24.535  1.00  0.00     0.039 A 
ATOM      7  C   UNL A   1      33.277  21.551  23.199  1.00  0.00     0.016 A 
ATOM      8  C   UNL A   1      32.070  21.969  25.251  1.00  0.00     0.016 A 
ATOM      9  C   UNL A   1      32.622  22.621  22.597  1.00  0.00     0.027 A 
ATOM     10  C   UNL A   1      31.416  23.049  24.644  1.00  0.00     0.027 A 
ATOM     11  C   UNL A   1      31.703  23.386  23.316  1.00  0.00     0.049 A 
BRANCH  11  12
ATOM     12  N   UNL A   1      30.927  24.379  22.644  1.00  0.00    -0.280 N 
ATOM     13  H   UNL A   1      30.152  24.107  22.100  1.00  0.00     0.180 HD
BRANCH  12  14
ATOM     14  S   UNL A   1      31.333  26.027  22.777  1.00  0.00     0.258 S 
ATOM     15  O   UNL A   1      32.655  26.019  23.368  1.00  0.00    -0.202 OA
ATOM     16  O   UNL A   1      31.167  26.563  21.437  1.00  0.00    -0.202 OA
BRANCH  14  17
ATOM     17  C   UNL A   1      30.177  26.811  23.861  1.00  0.00     0.066 C 
ATOM     18  C   UNL A   1      30.415  26.679  25.185  1.00  0.00     0.026 C 
ATOM     19  C   UNL A   1      29.705  28.170  23.404  1.00  0.00     0.055 C 
ATOM     20  C   UNL A   1      31.245  27.771  25.770  1.00  0.00    -0.021 A 
ATOM     21  C   UNL A   1      30.755  29.235  23.747  1.00  0.00     0.041 C 
ATOM     22  C   UNL A   1      31.857  27.571  27.011  1.00  0.00     0.008 A 
ATOM     23  C   UNL A   1      31.429  28.988  25.080  1.00  0.00    -0.040 A 
ATOM     24  C   UNL A   1      32.693  28.555  27.544  1.00  0.00     0.001 A 
ATOM     25  C   UNL A   1      32.289  29.954  25.613  1.00  0.00     0.004 A 
ATOM     26  C   UNL A   1      32.922  29.736  26.837  1.00  0.00     0.000 A 
ENDBRANCH  14  17
ENDBRANCH  12  14
ENDBRANCH  11  12
ENDBRANCH   4   6
ENDBRANCH   1   2
BRANCH   1  27
ATOM     27  C   UNL A   1      37.304  20.658  24.776  1.00  0.00     0.042 C 
BRANCH  27  28
ATOM     28  C   UNL A   1      38.505  20.918  25.677  1.00  0.00     0.118 C 
BRANCH  28  29
ATOM     29  N   UNL A   1      39.471  19.826  25.668  1.00  0.00    -0.352 N 
ATOM     30  C   UNL A   1      40.807  19.811  25.989  1.00  0.00     0.251 C 
ATOM     31  H   UNL A   1      39.106  18.956  25.386  1.00  0.00     0.163 HD
ATOM     32  O   UNL A   1      41.480  18.812  25.743  1.00  0.00    -0.269 OA
BRANCH  30  33
ATOM     33  C   UNL A   1      41.451  20.999  26.588  1.00  0.00     0.039 A 
ATOM     34  C   UNL A   1      42.025  21.955  25.742  1.00  0.00     0.014 A 
ATOM     35  C   UNL A   1      41.486  21.185  27.971  1.00  0.00     0.014 A 
ATOM     36  C   UNL A   1      42.529  23.142  26.278  1.00  0.00     0.010 A 
ATOM     37  C   UNL A   1      41.905  22.402  28.496  1.00  0.00     0.010 A 
ATOM     38  C   UNL A   1      42.417  23.401  27.654  1.00  0.00    -0.014 A 
BRANCH  38  39
ATOM     39  C   UNL A   1      42.777  24.722  28.228  1.00  0.00     0.031 A 
ATOM     40  C   UNL A   1      41.727  25.775  28.436  1.00  0.00     0.074 A 
ATOM     41  C   UNL A   1      44.073  25.005  28.465  1.00  0.00     0.049 A 
ATOM     42  N   UNL A   1      41.870  27.022  28.809  1.00  0.00    -0.248 NA
ATOM     43  C   UNL A   1      40.335  25.384  28.163  1.00  0.00     0.031 C 
ATOM     44  C   UNL A   1      45.196  24.088  28.252  1.00  0.00     0.029 A 
ATOM     45  N   UNL A   1      44.669  26.155  28.920  1.00  0.00    -0.354 N 
ATOM     46  C   UNL A   1      40.593  27.568  28.797  1.00  0.00     0.074 A 
ATOM     47  C   UNL A   1      39.694  26.531  28.338  1.00  0.00     0.031 C 
ATOM     48  C   UNL A   1      46.339  24.704  28.592  1.00  0.00     0.029 A 
ATOM     49  C   UNL A   1      46.038  26.070  29.003  1.00  0.00     0.049 A 
ATOM     50  H   UNL A   1      44.163  26.964  29.162  1.00  0.00     0.167 HD
ATOM     51  C   UNL A   1      40.205  28.814  29.155  1.00  0.00     0.037 A 
ATOM     52  C   UNL A   1      46.951  26.994  29.356  1.00  0.00     0.037 A 
ATOM     53  C   UNL A   1      41.096  29.836  29.640  1.00  0.00     0.049 A 
ATOM     54  C   UNL A   1      46.495  28.373  29.738  1.00  0.00     0.074 A 
ATOM     55  C   UNL A   1      40.785  31.102  30.103  1.00  0.00     0.029 A 
ATOM     56  N   UNL A   1      42.474  29.707  29.719  1.00  0.00    -0.354 N 
ATOM     57  N   UNL A   1      45.277  28.854  29.785  1.00  0.00    -0.248 NA
ATOM     58  C   UNL A   1      47.540  29.336  30.111  1.00  0.00     0.031 C 
ATOM     59  C   UNL A   1      41.980  31.755  30.426  1.00  0.00     0.029 A 
ATOM     60  C   UNL A   1      43.031  30.881  30.198  1.00  0.00     0.049 A 
ATOM     61  H   UNL A   1      42.982  28.900  29.471  1.00  0.00     0.167 HD
ATOM     62  C   UNL A   1      45.407  30.170  30.206  1.00  0.00     0.074 A 
ATOM     63  C   UNL A   1      46.820  30.406  30.418  1.00  0.00     0.031 C 
ATOM     64  C   UNL A   1      44.440  31.102  30.396  1.00  0.00     0.037 A 
BRANCH  51  65
ATOM     65  C   UNL A   1      38.745  29.142  29.043  1.00  0.00     0.057 A 
ATOM     66  C   UNL A   1      37.890  29.080  30.150  1.00  0.00     0.134 A 
ATOM     67  C   UNL A   1      38.198  29.561  27.825  1.00  0.00     0.134 A 
ATOM     68  F   UNL A   1      38.351  28.673  31.342  1.00  0.00    -0.206 F 
ATOM     69  C   UNL A   1      36.536  29.402  30.046  1.00  0.00     0.040 A 
ATOM     70  C   UNL A   1      36.850  29.909  27.713  1.00  0.00     0.040 A 
ATOM     71  F   UNL A   1      38.963  29.647  26.726  1.00  0.00    -0.206 F 
ATOM     72  C   UNL A   1      36.014  29.825  28.824  1.00  0.00     0.006 A 
ENDBRANCH  51  65
BRANCH  52  73
ATOM     73  C   UNL A   1      48.392  26.643  29.369  1.00  0.00     0.057 A 
ATOM     74  C   UNL A   1      48.974  26.035  30.488  1.00  0.00     0.134 A 
ATOM     75  C   UNL A   1      49.221  26.905  28.272  1.00  0.00     0.134 A 
ATOM     76  F   UNL A   1      48.234  25.778  31.576  1.00  0.00    -0.206 F 
ATOM     77  C   UNL A   1      50.332  25.712  30.521  1.00  0.00     0.040 A 
ATOM     78  C   UNL A   1      50.576  26.568  28.283  1.00  0.00     0.040 A 
ATOM     79  F   UNL A   1      48.721  27.479  27.167  1.00  0.00    -0.206 F 
ATOM     80  C   UNL A   1      51.135  25.975  29.413  1.00  0.00     0.006 A 
ENDBRANCH  52  73
BRANCH  64  81
ATOM     81  C   UNL A   1      44.882  32.455  30.865  1.00  0.00     0.057 A 
ATOM     82  C   UNL A   1      45.168  33.487  29.962  1.00  0.00     0.134 A 
ATOM     83  C   UNL A   1      44.993  32.739  32.231  1.00  0.00     0.134 A 
ATOM     84  F   UNL A   1      45.096  33.272  28.640  1.00  0.00    -0.206 F 
ATOM     85  C   UNL A   1      45.566  34.749  30.402  1.00  0.00     0.040 A 
ATOM     86  C   UNL A   1      45.368  34.004  32.684  1.00  0.00     0.040 A 
ATOM     87  F   UNL A   1      44.727  31.794  33.147  1.00  0.00    -0.206 F 
ATOM     88  C   UNL A   1      45.661  35.012  31.768  1.00  0.00     0.006 A 
ENDBRANCH  64  81
ENDBRANCH  38  39
ENDBRANCH  30  33
ENDBRANCH  28  29
ENDBRANCH  27  28
ENDBRANCH   1  27
TORSDOF 13
ENDMDL
MODEL 2
REMARK VINA RESULT:     -12.9      4.595      9.624
REMARK SMILES O=C(NCCCNC(=O)c1ccc(-c2c3nc(c(-c4c(F)cccc4F)c4ccc([nH]4)c(-c4c(F)cccc4F)c4nc(c(-c5c(F)cccc5F)c5ccc2[nH]5)C=C4)C=C3)cc1)c1ccc(NS(=O)(=O)C2=Cc3ccccc3CC2)cc1
REMARK SMILES IDX 4 1 3 2 1 3 2 4 64 6 65 7 83 8 66 9 82 10 67 11 68 12 69 14
REMARK SMILES IDX 70 15 71 16 72 17 73 18 81 19 74 20 80 21 75 22 79 23 76 24
REMARK SMILES IDX 78 25 77 26 5 27 6 28 7 29 8 30 9 32 10 33 11 34 63 35 12 36
REMARK SMILES IDX 62 37 13 38 14 39 15 40 56 41 16 42 61 43 55 44 57 45 17 46
REMARK SMILES IDX 60 47 54 48 53 49 18 51 44 52 27 53 43 54 28 55 31 56 42 57
REMARK SMILES IDX 58 58 29 59 30 60 41 62 59 63 32 64 19 65 20 66 25 67 21 68
REMARK SMILES IDX 22 69 24 70 26 71 23 72 45 73 46 74 51 75 47 76 48 77 50 78
REMARK SMILES IDX 52 79 49 80 33 81 34 82 39 83 35 84 36 85 38 86 40 87 37 88
REMARK H PARENT 3 5 68 13 7 31 57 50 31 61
REMARK Flexibility Score: inf
ROOT
ATOM      1  C   UNL A   1      32.051  30.446  25.978  1.00  0.00     0.118 C 
ENDROOT
BRANCH   1   2
ATOM      2  N   UNL A   1      33.435  30.146  26.310  1.00  0.00    -0.352 N 
ATOM      3  O   UNL A   1      35.149  28.922  27.103  1.00  0.00    -0.269 OA
ATOM      4  C   UNL A   1      34.024  28.944  26.611  1.00  0.00     0.251 C 
ATOM      5  H   UNL A   1      34.041  30.922  26.320  1.00  0.00     0.163 HD
BRANCH   4   6
ATOM      6  C   UNL A   1      33.327  27.674  26.320  1.00  0.00     0.039 A 
ATOM      7  C   UNL A   1      32.104  27.384  26.928  1.00  0.00     0.016 A 
ATOM      8  C   UNL A   1      33.831  26.818  25.334  1.00  0.00     0.016 A 
ATOM      9  C   UNL A   1      31.413  26.224  26.590  1.00  0.00     0.027 A 
ATOM     10  C   UNL A   1      33.136  25.649  24.999  1.00  0.00     0.027 A 
ATOM     11  C   UNL A   1      31.929  25.343  25.639  1.00  0.00     0.049 A 
BRANCH  11  12
ATOM     12  N   UNL A   1      31.138  24.242  25.189  1.00  0.00    -0.280 N 
ATOM     13  H   UNL A   1      30.375  24.402  24.586  1.00  0.00     0.180 HD
BRANCH  12  14
ATOM     14  S   UNL A   1      31.504  22.656  25.689  1.00  0.00     0.258 S 
ATOM     15  O   UNL A   1      32.559  22.828  26.665  1.00  0.00    -0.202 OA
ATOM     16  O   UNL A   1      30.235  22.096  26.118  1.00  0.00    -0.202 OA
BRANCH  14  17
ATOM     17  C   UNL A   1      32.096  21.744  24.294  1.00  0.00     0.066 C 
ATOM     18  C   UNL A   1      32.949  22.395  23.472  1.00  0.00     0.026 C 
ATOM     19  C   UNL A   1      32.423  20.298  24.579  1.00  0.00     0.055 C 
ATOM     20  C   UNL A   1      34.389  22.219  23.819  1.00  0.00    -0.021 A 
ATOM     21  C   UNL A   1      33.804  20.190  25.240  1.00  0.00     0.041 C 
ATOM     22  C   UNL A   1      35.331  23.108  23.292  1.00  0.00     0.008 A 
ATOM     23  C   UNL A   1      34.803  21.180  24.679  1.00  0.00    -0.040 A 
ATOM     24  C   UNL A   1      36.673  23.000  23.658  1.00  0.00     0.001 A 
ATOM     25  C   UNL A   1      36.148  21.099  25.058  1.00  0.00     0.004 A 
ATOM     26  C   UNL A   1      37.077  22.009  24.552  1.00  0.00     0.000 A 
ENDBRANCH  14  17
ENDBRANCH  12  14
ENDBRANCH  11  12
ENDBRANCH   4   6
ENDBRANCH   1   2
BRANCH   1  27
ATOM     27  C   UNL A   1      31.609  31.791  26.537  1.00  0.00     0.042 C 
BRANCH  27  28
ATOM     28  C   UNL A   1      32.674  32.504  27.361  1.00  0.00     0.118 C 
BRANCH  28  29
ATOM     29  N   UNL A   1      32.365  33.908  27.599  1.00  0.00    -0.352 N 
ATOM     30  C   UNL A   1      32.929  34.814  28.466  1.00  0.00     0.251 C 
ATOM     31  H   UNL A   1      31.631  34.267  27.049  1.00  0.00     0.163 HD
ATOM     32  O   UNL A   1      32.397  35.909  28.631  1.00  0.00    -0.269 OA
BRANCH  30  33
ATOM     33  C   UNL A   1      34.146  34.467  29.230  1.00  0.00     0.039 A 
ATOM     34  C   UNL A   1      34.007  33.957  30.525  1.00  0.00     0.014 A 
ATOM     35  C   UNL A   1      35.418  34.629  28.680  1.00  0.00     0.014 A 
ATOM     36  C   UNL A   1      35.133  33.510  31.219  1.00  0.00     0.010 A 
ATOM     37  C   UNL A   1      36.527  34.103  29.333  1.00  0.00     0.010 A 
ATOM     38  C   UNL A   1      36.394  33.522  30.603  1.00  0.00    -0.014 A 
BRANCH  38  39
ATOM     39  C   UNL A   1      37.577  32.890  31.241  1.00  0.00     0.031 A 
ATOM     40  C   UNL A   1      38.216  31.676  30.629  1.00  0.00     0.074 A 
ATOM     41  C   UNL A   1      38.011  33.354  32.429  1.00  0.00     0.049 A 
ATOM     42  N   UNL A   1      39.174  30.919  31.102  1.00  0.00    -0.248 NA
ATOM     43  C   UNL A   1      37.691  31.238  29.326  1.00  0.00     0.031 C 
ATOM     44  C   UNL A   1      37.441  34.491  33.156  1.00  0.00     0.029 A 
ATOM     45  N   UNL A   1      39.020  32.913  33.248  1.00  0.00    -0.354 N 
ATOM     46  C   UNL A   1      39.353  29.908  30.168  1.00  0.00     0.074 A 
ATOM     47  C   UNL A   1      38.376  30.122  29.121  1.00  0.00     0.031 C 
ATOM     48  C   UNL A   1      38.120  34.668  34.300  1.00  0.00     0.029 A 
ATOM     49  C   UNL A   1      39.141  33.634  34.411  1.00  0.00     0.049 A 
ATOM     50  H   UNL A   1      39.602  32.151  33.022  1.00  0.00     0.167 HD
ATOM     51  C   UNL A   1      40.261  28.905  30.173  1.00  0.00     0.037 A 
ATOM     52  C   UNL A   1      39.970  33.470  35.459  1.00  0.00     0.037 A 
ATOM     53  C   UNL A   1      41.252  28.711  31.199  1.00  0.00     0.049 A 
ATOM     54  C   UNL A   1      40.962  32.342  35.445  1.00  0.00     0.074 A 
ATOM     55  C   UNL A   1      42.267  27.771  31.251  1.00  0.00     0.029 A 
ATOM     56  N   UNL A   1      41.348  29.469  32.356  1.00  0.00    -0.354 N 
ATOM     57  N   UNL A   1      41.164  31.434  34.522  1.00  0.00    -0.248 NA
ATOM     58  C   UNL A   1      41.838  32.215  36.618  1.00  0.00     0.031 C 
ATOM     59  C   UNL A   1      42.953  27.936  32.459  1.00  0.00     0.029 A 
ATOM     60  C   UNL A   1      42.388  29.001  33.142  1.00  0.00     0.049 A 
ATOM     61  H   UNL A   1      40.762  30.227  32.585  1.00  0.00     0.167 HD
ATOM     62  C   UNL A   1      42.196  30.636  34.996  1.00  0.00     0.074 A 
ATOM     63  C   UNL A   1      42.592  31.179  36.279  1.00  0.00     0.031 C 
ATOM     64  C   UNL A   1      42.763  29.548  34.420  1.00  0.00     0.037 A 
BRANCH  51  65
ATOM     65  C   UNL A   1      40.233  27.941  29.024  1.00  0.00     0.057 A 
ATOM     66  C   UNL A   1      40.960  28.172  27.850  1.00  0.00     0.134 A 
ATOM     67  C   UNL A   1      39.500  26.751  29.108  1.00  0.00     0.134 A 
ATOM     68  F   UNL A   1      41.671  29.299  27.703  1.00  0.00    -0.206 F 
ATOM     69  C   UNL A   1      40.944  27.264  26.791  1.00  0.00     0.040 A 
ATOM     70  C   UNL A   1      39.495  25.823  28.064  1.00  0.00     0.040 A 
ATOM     71  F   UNL A   1      38.785  26.465  30.207  1.00  0.00    -0.206 F 
ATOM     72  C   UNL A   1      40.214  26.080  26.899  1.00  0.00     0.006 A 
ENDBRANCH  51  65
BRANCH  52  73
ATOM     73  C   UNL A   1      39.902  34.402  36.611  1.00  0.00     0.057 A 
ATOM     74  C   UNL A   1      39.114  34.107  37.729  1.00  0.00     0.134 A 
ATOM     75  C   UNL A   1      40.618  35.605  36.624  1.00  0.00     0.134 A 
ATOM     76  F   UNL A   1      38.390  32.978  37.765  1.00  0.00    -0.206 F 
ATOM     77  C   UNL A   1      39.028  34.981  38.814  1.00  0.00     0.040 A 
ATOM     78  C   UNL A   1      40.559  36.478  37.712  1.00  0.00     0.040 A 
ATOM     79  F   UNL A   1      41.398  35.940  35.585  1.00  0.00    -0.206 F 
ATOM     80  C   UNL A   1      39.757  36.168  38.809  1.00  0.00     0.006 A 
ENDBRANCH  52  73
BRANCH  64  81
ATOM     81  C   UNL A   1      43.878  28.884  35.171  1.00  0.00     0.057 A 
ATOM     82  C   UNL A   1      45.211  29.278  35.003  1.00  0.00     0.134 A 
ATOM     83  C   UNL A   1      43.613  27.862  36.090  1.00  0.00     0.134 A 
ATOM     84  F   UNL A   1      45.531  30.241  34.125  1.00  0.00    -0.206 F 
ATOM     85  C   UNL A   1      46.245  28.667  35.713  1.00  0.00     0.040 A 
ATOM     86  C   UNL A   1      44.636  27.258  36.822  1.00  0.00     0.040 A 
ATOM     87  F   UNL A   1      42.356  27.443  36.299  1.00  0.00    -0.206 F 
ATOM     88  C   UNL A   1      45.957  27.658  36.631  1.00  0.00     0.006 A 
ENDBRANCH  64  81
ENDBRANCH  38  39
ENDBRANCH  30  33
ENDBRANCH  28  29
ENDBRANCH  27  28
ENDBRANCH   1  27
TORSDOF 13
ENDMDL
MODEL 3
REMARK VINA RESULT:     -12.8      4.151      9.249
REMARK SMILES O=C(NCCCNC(=O)c1ccc(-c2c3nc(c(-c4c(F)cccc4F)c4ccc([nH]4)c(-c4c(F)cccc4F)c4nc(c(-c5c(F)cccc5F)c5ccc2[nH]5)C=C4)C=C3)cc1)c1ccc(NS(=O)(=O)C2=Cc3ccccc3CC2)cc1
REMARK SMILES IDX 4 1 3 2 1 3 2 4 64 6 65 7 83 8 66 9 82 10 67 11 68 12 69 14
REMARK SMILES IDX 70 15 71 16 72 17 73 18 81 19 74 20 80 21 75 22 79 23 76 24
REMARK SMILES IDX 78 25 77 26 5 27 6 28 7 29 8 30 9 32 10 33 11 34 63 35 12 36
REMARK SMILES IDX 62 37 13 38 14 39 15 40 56 41 16 42 61 43 55 44 57 45 17 46
REMARK SMILES IDX 60 47 54 48 53 49 18 51 44 52 27 53 43 54 28 55 31 56 42 57
REMARK SMILES IDX 58 58 29 59 30 60 41 62 59 63 32 64 19 65 20 66 25 67 21 68
REMARK SMILES IDX 22 69 24 70 26 71 23 72 45 73 46 74 51 75 47 76 48 77 50 78
REMARK SMILES IDX 52 79 49 80 33 81 34 82 39 83 35 84 36 85 38 86 40 87 37 88
REMARK H PARENT 3 5 68 13 7 31 57 50 31 61
REMARK Flexibility Score: inf
ROOT
ATOM      1  C   UNL A   1      31.012  30.230  24.931  1.00  0.00     0.118 C 
ENDROOT
BRANCH   1   2
ATOM      2  N   UNL A   1      30.397  30.325  23.616  1.00  0.00    -0.352 N 
ATOM      3  O   UNL A   1      29.877  29.665  21.529  1.00  0.00    -0.269 OA
ATOM      4  C   UNL A   1      30.188  29.350  22.674  1.00  0.00     0.251 C 
ATOM      5  H   UNL A   1      30.082  31.223  23.364  1.00  0.00     0.163 HD
BRANCH   4   6
ATOM      6  C   UNL A   1      30.306  27.921  23.034  1.00  0.00     0.039 A 
ATOM      7  C   UNL A   1      29.392  27.337  23.915  1.00  0.00     0.016 A 
ATOM      8  C   UNL A   1      31.257  27.121  22.392  1.00  0.00     0.016 A 
ATOM      9  C   UNL A   1      29.459  25.974  24.188  1.00  0.00     0.027 A 
ATOM     10  C   UNL A   1      31.325  25.750  22.672  1.00  0.00     0.027 A 
ATOM     11  C   UNL A   1      30.432  25.177  23.584  1.00  0.00     0.049 A 
BRANCH  11  12
ATOM     12  N   UNL A   1      30.390  23.758  23.752  1.00  0.00    -0.280 N 
ATOM     13  H   UNL A   1      29.671  23.237  23.326  1.00  0.00     0.180 HD
BRANCH  12  14
ATOM     14  S   UNL A   1      31.574  22.966  24.684  1.00  0.00     0.258 S 
ATOM     15  O   UNL A   1      32.376  24.042  25.227  1.00  0.00    -0.202 OA
ATOM     16  O   UNL A   1      30.826  22.118  25.596  1.00  0.00    -0.202 OA
BRANCH  14  17
ATOM     17  C   UNL A   1      32.548  21.947  23.616  1.00  0.00     0.066 C 
ATOM     18  C   UNL A   1      33.623  22.536  23.046  1.00  0.00     0.026 C 
ATOM     19  C   UNL A   1      32.747  20.532  24.103  1.00  0.00     0.055 C 
ATOM     20  C   UNL A   1      34.884  22.400  23.831  1.00  0.00    -0.021 A 
ATOM     21  C   UNL A   1      33.857  20.490  25.162  1.00  0.00     0.041 C 
ATOM     22  C   UNL A   1      35.957  23.251  23.549  1.00  0.00     0.008 A 
ATOM     23  C   UNL A   1      34.997  21.439  24.857  1.00  0.00    -0.040 A 
ATOM     24  C   UNL A   1      37.122  23.184  24.316  1.00  0.00     0.001 A 
ATOM     25  C   UNL A   1      36.160  21.400  25.635  1.00  0.00     0.004 A 
ATOM     26  C   UNL A   1      37.215  22.273  25.368  1.00  0.00     0.000 A 
ENDBRANCH  14  17
ENDBRANCH  12  14
ENDBRANCH  11  12
ENDBRANCH   4   6
ENDBRANCH   1   2
BRANCH   1  27
ATOM     27  C   UNL A   1      30.880  31.528  25.716  1.00  0.00     0.042 C 
BRANCH  27  28
ATOM     28  C   UNL A   1      32.029  31.794  26.680  1.00  0.00     0.118 C 
BRANCH  28  29
ATOM     29  N   UNL A   1      32.097  33.183  27.115  1.00  0.00    -0.352 N 
ATOM     30  C   UNL A   1      33.012  33.827  27.914  1.00  0.00     0.251 C 
ATOM     31  H   UNL A   1      31.368  33.755  26.782  1.00  0.00     0.163 HD
ATOM     32  O   UNL A   1      32.784  34.971  28.299  1.00  0.00    -0.269 OA
BRANCH  30  33
ATOM     33  C   UNL A   1      34.248  33.140  28.347  1.00  0.00     0.039 A 
ATOM     34  C   UNL A   1      35.469  33.814  28.238  1.00  0.00     0.014 A 
ATOM     35  C   UNL A   1      34.213  31.845  28.867  1.00  0.00     0.014 A 
ATOM     36  C   UNL A   1      36.630  33.233  28.752  1.00  0.00     0.010 A 
ATOM     37  C   UNL A   1      35.350  31.305  29.458  1.00  0.00     0.010 A 
ATOM     38  C   UNL A   1      36.568  32.001  29.422  1.00  0.00    -0.014 A 
BRANCH  38  39
ATOM     39  C   UNL A   1      37.745  31.443  30.134  1.00  0.00     0.031 A 
ATOM     40  C   UNL A   1      38.623  30.420  29.471  1.00  0.00     0.074 A 
ATOM     41  C   UNL A   1      37.961  31.786  31.419  1.00  0.00     0.049 A 
ATOM     42  N   UNL A   1      39.617  29.733  29.975  1.00  0.00    -0.248 NA
ATOM     43  C   UNL A   1      38.327  30.107  28.064  1.00  0.00     0.031 C 
ATOM     44  C   UNL A   1      37.149  32.727  32.195  1.00  0.00     0.029 A 
ATOM     45  N   UNL A   1      38.919  31.367  32.308  1.00  0.00    -0.354 N 
ATOM     46  C   UNL A   1      40.052  28.896  28.957  1.00  0.00     0.074 A 
ATOM     47  C   UNL A   1      39.187  29.128  27.820  1.00  0.00     0.031 C 
ATOM     48  C   UNL A   1      37.653  32.826  33.435  1.00  0.00     0.029 A 
ATOM     49  C   UNL A   1      38.793  31.926  33.557  1.00  0.00     0.049 A 
ATOM     50  H   UNL A   1      39.629  30.726  32.073  1.00  0.00     0.167 HD
ATOM     51  C   UNL A   1      41.090  28.027  28.964  1.00  0.00     0.037 A 
ATOM     52  C   UNL A   1      39.506  31.724  34.681  1.00  0.00     0.037 A 
ATOM     53  C   UNL A   1      41.969  27.819  30.085  1.00  0.00     0.049 A 
ATOM     54  C   UNL A   1      40.646  30.746  34.665  1.00  0.00     0.074 A 
ATOM     55  C   UNL A   1      43.096  27.020  30.160  1.00  0.00     0.029 A 
ATOM     56  N   UNL A   1      41.814  28.412  31.329  1.00  0.00    -0.354 N 
ATOM     57  N   UNL A   1      41.087  30.011  33.674  1.00  0.00    -0.248 NA
ATOM     58  C   UNL A   1      41.384  30.569  35.923  1.00  0.00     0.031 C 
ATOM     59  C   UNL A   1      43.602  27.099  31.463  1.00  0.00     0.029 A 
ATOM     60  C   UNL A   1      42.810  27.976  32.186  1.00  0.00     0.049 A 
ATOM     61  H   UNL A   1      41.101  29.049  31.566  1.00  0.00     0.167 HD
ATOM     62  C   UNL A   1      42.161  29.294  34.184  1.00  0.00     0.074 A 
ATOM     63  C   UNL A   1      42.317  29.697  35.566  1.00  0.00     0.031 C 
ATOM     64  C   UNL A   1      42.945  28.381  33.562  1.00  0.00     0.037 A 
BRANCH  51  65
ATOM     65  C   UNL A   1      41.340  27.239  27.712  1.00  0.00     0.057 A 
ATOM     66  C   UNL A   1      42.183  27.714  26.699  1.00  0.00     0.134 A 
ATOM     67  C   UNL A   1      40.763  25.977  27.535  1.00  0.00     0.134 A 
ATOM     68  F   UNL A   1      42.756  28.922  26.803  1.00  0.00    -0.206 F 
ATOM     69  C   UNL A   1      42.426  26.969  25.544  1.00  0.00     0.040 A 
ATOM     70  C   UNL A   1      41.016  25.212  26.394  1.00  0.00     0.040 A 
ATOM     71  F   UNL A   1      39.949  25.461  28.469  1.00  0.00    -0.206 F 
ATOM     72  C   UNL A   1      41.847  25.710  25.392  1.00  0.00     0.006 A 
ENDBRANCH  51  65
BRANCH  52  73
ATOM     73  C   UNL A   1      39.165  32.468  35.918  1.00  0.00     0.057 A 
ATOM     74  C   UNL A   1      38.287  31.926  36.865  1.00  0.00     0.134 A 
ATOM     75  C   UNL A   1      39.704  33.731  36.187  1.00  0.00     0.134 A 
ATOM     76  F   UNL A   1      37.724  30.727  36.652  1.00  0.00    -0.206 F 
ATOM     77  C   UNL A   1      37.946  32.620  38.026  1.00  0.00     0.040 A 
ATOM     78  C   UNL A   1      39.389  34.427  37.355  1.00  0.00     0.040 A 
ATOM     79  F   UNL A   1      40.558  34.300  35.323  1.00  0.00    -0.206 F 
ATOM     80  C   UNL A   1      38.502  33.873  38.276  1.00  0.00     0.006 A 
ENDBRANCH  52  73
BRANCH  64  81
ATOM     81  C   UNL A   1      44.047  27.765  34.372  1.00  0.00     0.057 A 
ATOM     82  C   UNL A   1      43.868  26.554  35.051  1.00  0.00     0.134 A 
ATOM     83  C   UNL A   1      45.305  28.373  34.448  1.00  0.00     0.134 A 
ATOM     84  F   UNL A   1      42.680  25.931  35.030  1.00  0.00    -0.206 F 
ATOM     85  C   UNL A   1      44.899  25.977  35.793  1.00  0.00     0.040 A 
ATOM     86  C   UNL A   1      46.351  27.795  35.168  1.00  0.00     0.040 A 
ATOM     87  F   UNL A   1      45.542  29.533  33.815  1.00  0.00    -0.206 F 
ATOM     88  C   UNL A   1      46.147  26.595  35.847  1.00  0.00     0.006 A 
ENDBRANCH  64  81
ENDBRANCH  38  39
ENDBRANCH  30  33
ENDBRANCH  28  29
ENDBRANCH  27  28
ENDBRANCH   1  27
TORSDOF 13
ENDMDL
