MODEL 1
REMARK VINA RESULT:     -10.9      0.000      0.000
REMARK SMILES [NH3+][C@H](CC(=O)NCCCNC(=O)c1ccc(-c2c3nc(c(-c4c(F)cccc4F)c4ccc([nH]4)c(-c4c(F)cccc4F)c4nc(c(-c5c(F)cccc5F)c5ccc2[nH]5)C=C4)C=C3)cc1)c1ccccc1Br
REMARK SMILES IDX 8 1 7 2 6 3 4 4 5 5 3 7 2 8 1 9 67 13 68 14 72 15 69 16
REMARK SMILES IDX 71 17 73 18 70 19 9 20 10 21 11 22 12 24 13 25 14 26 66 27
REMARK SMILES IDX 15 28 65 29 16 30 17 31 18 32 59 33 19 34 64 35 58 36 60 37
REMARK SMILES IDX 20 38 63 39 57 40 56 41 21 43 47 44 30 45 46 46 31 47 34 48
REMARK SMILES IDX 45 49 61 50 32 51 33 52 44 54 62 55 35 56 22 57 23 58 28 59
REMARK SMILES IDX 24 60 25 61 27 62 29 63 26 64 48 65 49 66 54 67 50 68 51 69
REMARK SMILES IDX 53 70 55 71 52 72 36 73 37 74 42 75 38 76 39 77 41 78 43 79
REMARK SMILES IDX 40 80
REMARK H PARENT 6 6 1 10 1 11 1 12 10 23 60 42 34 53
REMARK Flexibility Score: inf
ROOT
ATOM      1  C   UNL A   1      37.933  19.591  24.748  1.00  0.00     0.042 C 
ENDROOT
BRANCH   1   2
ATOM      2  C   UNL A   1      36.547  20.184  24.996  1.00  0.00     0.117 C 
BRANCH   2   3
ATOM      3  N   UNL A   1      35.475  19.201  24.963  1.00  0.00    -0.356 N 
ATOM      4  C   UNL A   1      34.138  19.358  24.740  1.00  0.00     0.226 C 
ATOM      5  O   UNL A   1      33.415  18.361  24.759  1.00  0.00    -0.275 OA
ATOM      6  H   UNL A   1      35.760  18.273  25.128  1.00  0.00     0.163 HD
BRANCH   4   7
ATOM      7  C   UNL A   1      33.567  20.742  24.530  1.00  0.00     0.170 C 
BRANCH   7   8
ATOM      8  C   UNL A   1      32.912  21.402  25.780  1.00  0.00     0.222 C 
BRANCH   8   9
ATOM      9  N   UNL A   1      33.313  20.733  27.014  1.00  0.00    -0.351 N 
ATOM     10  H   UNL A   1      32.482  20.449  27.534  1.00  0.00     0.345 HD
ATOM     11  H   UNL A   1      33.868  21.371  27.583  1.00  0.00     0.345 HD
ATOM     12  H   UNL A   1      33.870  19.908  26.789  1.00  0.00     0.345 HD
ENDBRANCH   8   9
BRANCH   8  13
ATOM     13  C   UNL A   1      33.099  22.936  25.802  1.00  0.00     0.024 A 
ATOM     14  C   UNL A   1      34.331  23.455  25.325  1.00  0.00     0.011 A 
ATOM     15  C   UNL A   1      32.135  23.895  26.185  1.00  0.00     0.027 A 
ATOM     16  C   UNL A   1      34.637  24.820  25.346  1.00  0.00     0.001 A 
ATOM     17  C   UNL A   1      32.450  25.268  26.204  1.00  0.00     0.016 A 
ATOM     18  Br  UNL A   1      30.322  23.522  26.640  1.00  0.00    -0.050 Br
ATOM     19  C   UNL A   1      33.699  25.728  25.806  1.00  0.00     0.001 A 
ENDBRANCH   8  13
ENDBRANCH   7   8
ENDBRANCH   4   7
ENDBRANCH   2   3
ENDBRANCH   1   2
BRANCH   1  20
ATOM     20  C   UNL A   1      38.994  20.010  25.765  1.00  0.00     0.118 C 
BRANCH  20  21
ATOM     21  N   UNL A   1      40.081  19.049  25.862  1.00  0.00    -0.352 N 
ATOM     22  C   UNL A   1      41.421  19.240  26.092  1.00  0.00     0.251 C 
ATOM     23  H   UNL A   1      39.813  18.109  25.744  1.00  0.00     0.163 HD
ATOM     24  O   UNL A   1      42.198  18.300  25.943  1.00  0.00    -0.269 OA
BRANCH  22  25
ATOM     25  C   UNL A   1      41.947  20.561  26.499  1.00  0.00     0.039 A 
ATOM     26  C   UNL A   1      42.401  21.434  25.505  1.00  0.00     0.014 A 
ATOM     27  C   UNL A   1      42.051  20.925  27.845  1.00  0.00     0.014 A 
ATOM     28  C   UNL A   1      42.899  22.693  25.853  1.00  0.00     0.010 A 
ATOM     29  C   UNL A   1      42.502  22.201  28.190  1.00  0.00     0.010 A 
ATOM     30  C   UNL A   1      42.925  23.097  27.197  1.00  0.00    -0.014 A 
BRANCH  30  31
ATOM     31  C   UNL A   1      43.359  24.467  27.575  1.00  0.00     0.031 A 
ATOM     32  C   UNL A   1      42.355  25.510  27.972  1.00  0.00     0.074 A 
ATOM     33  C   UNL A   1      44.665  24.788  27.505  1.00  0.00     0.049 A 
ATOM     34  N   UNL A   1      42.549  26.770  28.274  1.00  0.00    -0.248 NA
ATOM     35  C   UNL A   1      40.948  25.089  28.020  1.00  0.00     0.031 C 
ATOM     36  C   UNL A   1      45.739  23.875  27.108  1.00  0.00     0.029 A 
ATOM     37  N   UNL A   1      45.309  25.974  27.752  1.00  0.00    -0.354 N 
ATOM     38  C   UNL A   1      41.290  27.294  28.538  1.00  0.00     0.074 A 
ATOM     39  C   UNL A   1      40.336  26.225  28.325  1.00  0.00     0.031 C 
ATOM     40  C   UNL A   1      46.909  24.530  27.158  1.00  0.00     0.029 A 
ATOM     41  C   UNL A   1      46.665  25.914  27.550  1.00  0.00     0.049 A 
ATOM     42  H   UNL A   1      44.843  26.789  28.048  1.00  0.00     0.167 HD
ATOM     43  C   UNL A   1      40.961  28.546  28.938  1.00  0.00     0.037 A 
ATOM     44  C   UNL A   1      47.607  26.870  27.658  1.00  0.00     0.037 A 
ATOM     45  C   UNL A   1      41.908  29.607  29.165  1.00  0.00     0.049 A 
ATOM     46  C   UNL A   1      47.212  28.262  28.057  1.00  0.00     0.074 A 
ATOM     47  C   UNL A   1      41.675  30.885  29.645  1.00  0.00     0.029 A 
ATOM     48  N   UNL A   1      43.270  29.516  28.919  1.00  0.00    -0.354 N 
ATOM     49  N   UNL A   1      46.027  28.727  28.365  1.00  0.00    -0.248 NA
ATOM     50  C   UNL A   1      48.287  29.263  28.117  1.00  0.00     0.031 C 
ATOM     51  C   UNL A   1      42.888  31.581  29.647  1.00  0.00     0.029 A 
ATOM     52  C   UNL A   1      43.884  30.725  29.203  1.00  0.00     0.049 A 
ATOM     53  H   UNL A   1      43.731  28.711  28.589  1.00  0.00     0.167 HD
ATOM     54  C   UNL A   1      46.212  30.068  28.668  1.00  0.00     0.074 A 
ATOM     55  C   UNL A   1      47.627  30.341  28.520  1.00  0.00     0.031 C 
ATOM     56  C   UNL A   1      45.290  30.991  29.038  1.00  0.00     0.037 A 
BRANCH  43  57
ATOM     57  C   UNL A   1      39.504  28.838  29.149  1.00  0.00     0.057 A 
ATOM     58  C   UNL A   1      38.898  28.687  30.403  1.00  0.00     0.134 A 
ATOM     59  C   UNL A   1      38.707  29.299  28.096  1.00  0.00     0.134 A 
ATOM     60  F   UNL A   1      39.605  28.240  31.452  1.00  0.00    -0.206 F 
ATOM     61  C   UNL A   1      37.541  28.956  30.593  1.00  0.00     0.040 A 
ATOM     62  C   UNL A   1      37.355  29.593  28.279  1.00  0.00     0.040 A 
ATOM     63  F   UNL A   1      39.229  29.473  26.871  1.00  0.00    -0.206 F 
ATOM     64  C   UNL A   1      36.767  29.415  29.529  1.00  0.00     0.006 A 
ENDBRANCH  43  57
BRANCH  44  65
ATOM     65  C   UNL A   1      49.026  26.532  27.393  1.00  0.00     0.057 A 
ATOM     66  C   UNL A   1      49.580  26.715  26.121  1.00  0.00     0.134 A 
ATOM     67  C   UNL A   1      49.863  26.041  28.401  1.00  0.00     0.134 A 
ATOM     68  F   UNL A   1      48.819  27.165  25.113  1.00  0.00    -0.206 F 
ATOM     69  C   UNL A   1      50.918  26.418  25.859  1.00  0.00     0.040 A 
ATOM     70  C   UNL A   1      51.207  25.756  28.157  1.00  0.00     0.040 A 
ATOM     71  F   UNL A   1      49.390  25.847  29.640  1.00  0.00    -0.206 F 
ATOM     72  C   UNL A   1      51.737  25.942  26.881  1.00  0.00     0.006 A 
ENDBRANCH  44  65
BRANCH  56  73
ATOM     73  C   UNL A   1      45.785  32.378  29.314  1.00  0.00     0.057 A 
ATOM     74  C   UNL A   1      45.809  33.360  28.314  1.00  0.00     0.134 A 
ATOM     75  C   UNL A   1      46.213  32.747  30.594  1.00  0.00     0.134 A 
ATOM     76  F   UNL A   1      45.427  33.064  27.062  1.00  0.00    -0.206 F 
ATOM     77  C   UNL A   1      46.254  34.656  28.578  1.00  0.00     0.040 A 
ATOM     78  C   UNL A   1      46.641  34.045  30.874  1.00  0.00     0.040 A 
ATOM     79  F   UNL A   1      46.211  31.855  31.597  1.00  0.00    -0.206 F 
ATOM     80  C   UNL A   1      46.665  35.003  29.863  1.00  0.00     0.006 A 
ENDBRANCH  56  73
ENDBRANCH  30  31
ENDBRANCH  22  25
ENDBRANCH  20  21
ENDBRANCH   1  20
TORSDOF 13
ENDMDL
MODEL 2
REMARK VINA RESULT:     -10.8      4.823      9.322
REMARK SMILES [NH3+][C@H](CC(=O)NCCCNC(=O)c1ccc(-c2c3nc(c(-c4c(F)cccc4F)c4ccc([nH]4)c(-c4c(F)cccc4F)c4nc(c(-c5c(F)cccc5F)c5ccc2[nH]5)C=C4)C=C3)cc1)c1ccccc1Br
REMARK SMILES IDX 8 1 7 2 6 3 4 4 5 5 3 7 2 8 1 9 67 13 68 14 72 15 69 16
REMARK SMILES IDX 71 17 73 18 70 19 9 20 10 21 11 22 12 24 13 25 14 26 66 27
REMARK SMILES IDX 15 28 65 29 16 30 17 31 18 32 59 33 19 34 64 35 58 36 60 37
REMARK SMILES IDX 20 38 63 39 57 40 56 41 21 43 47 44 30 45 46 46 31 47 34 48
REMARK SMILES IDX 45 49 61 50 32 51 33 52 44 54 62 55 35 56 22 57 23 58 28 59
REMARK SMILES IDX 24 60 25 61 27 62 29 63 26 64 48 65 49 66 54 67 50 68 51 69
REMARK SMILES IDX 53 70 55 71 52 72 36 73 37 74 42 75 38 76 39 77 41 78 43 79
REMARK SMILES IDX 40 80
REMARK H PARENT 6 6 1 10 1 11 1 12 10 23 60 42 34 53
REMARK Flexibility Score: inf
ROOT
ATOM      1  C   UNL A   1      33.822  33.753  28.811  1.00  0.00     0.042 C 
ENDROOT
BRANCH   1   2
ATOM      2  C   UNL A   1      34.433  34.549  29.962  1.00  0.00     0.117 C 
BRANCH   2   3
ATOM      3  N   UNL A   1      33.894  34.198  31.267  1.00  0.00    -0.356 N 
ATOM      4  C   UNL A   1      34.229  33.187  32.121  1.00  0.00     0.226 C 
ATOM      5  O   UNL A   1      33.626  33.090  33.189  1.00  0.00    -0.275 OA
ATOM      6  H   UNL A   1      33.171  34.786  31.588  1.00  0.00     0.163 HD
BRANCH   4   7
ATOM      7  C   UNL A   1      35.287  32.183  31.718  1.00  0.00     0.170 C 
BRANCH   7   8
ATOM      8  C   UNL A   1      36.691  32.385  32.363  1.00  0.00     0.222 C 
BRANCH   8   9
ATOM      9  N   UNL A   1      37.249  31.124  32.844  1.00  0.00    -0.351 N 
ATOM     10  H   UNL A   1      36.847  30.898  33.754  1.00  0.00     0.345 HD
ATOM     11  H   UNL A   1      38.262  31.211  32.932  1.00  0.00     0.345 HD
ATOM     12  H   UNL A   1      37.029  30.380  32.181  1.00  0.00     0.345 HD
ENDBRANCH   8   9
BRANCH   8  13
ATOM     13  C   UNL A   1      37.645  33.194  31.455  1.00  0.00     0.024 A 
ATOM     14  C   UNL A   1      37.444  33.112  30.052  1.00  0.00     0.011 A 
ATOM     15  C   UNL A   1      38.665  34.075  31.879  1.00  0.00     0.027 A 
ATOM     16  C   UNL A   1      38.275  33.754  29.129  1.00  0.00     0.001 A 
ATOM     17  C   UNL A   1      39.499  34.718  30.944  1.00  0.00     0.016 A 
ATOM     18  Br  UNL A   1      39.015  34.575  33.685  1.00  0.00    -0.050 Br
ATOM     19  C   UNL A   1      39.319  34.545  29.577  1.00  0.00     0.001 A 
ENDBRANCH   8  13
ENDBRANCH   7   8
ENDBRANCH   4   7
ENDBRANCH   2   3
ENDBRANCH   1   2
BRANCH   1  20
ATOM     20  C   UNL A   1      34.730  32.664  28.240  1.00  0.00     0.118 C 
BRANCH  20  21
ATOM     21  N   UNL A   1      34.040  31.394  28.077  1.00  0.00    -0.352 N 
ATOM     22  C   UNL A   1      34.534  30.116  27.993  1.00  0.00     0.251 C 
ATOM     23  H   UNL A   1      33.059  31.461  28.017  1.00  0.00     0.163 HD
ATOM     24  O   UNL A   1      33.785  29.201  27.662  1.00  0.00    -0.269 OA
BRANCH  22  25
ATOM     25  C   UNL A   1      35.957  29.825  28.278  1.00  0.00     0.039 A 
ATOM     26  C   UNL A   1      36.304  29.381  29.558  1.00  0.00     0.014 A 
ATOM     27  C   UNL A   1      36.953  30.039  27.321  1.00  0.00     0.014 A 
ATOM     28  C   UNL A   1      37.638  29.092  29.860  1.00  0.00     0.010 A 
ATOM     29  C   UNL A   1      38.278  29.703  27.607  1.00  0.00     0.010 A 
ATOM     30  C   UNL A   1      38.631  29.221  28.876  1.00  0.00    -0.014 A 
BRANCH  30  31
ATOM     31  C   UNL A   1      40.036  28.825  29.152  1.00  0.00     0.031 A 
ATOM     32  C   UNL A   1      40.978  29.766  29.846  1.00  0.00     0.074 A 
ATOM     33  C   UNL A   1      40.481  27.629  28.723  1.00  0.00     0.049 A 
ATOM     34  N   UNL A   1      42.251  29.611  30.116  1.00  0.00    -0.248 NA
ATOM     35  C   UNL A   1      40.423  31.056  30.281  1.00  0.00     0.031 C 
ATOM     36  C   UNL A   1      39.675  26.634  28.013  1.00  0.00     0.029 A 
ATOM     37  N   UNL A   1      41.723  27.053  28.810  1.00  0.00    -0.354 N 
ATOM     38  C   UNL A   1      42.651  30.784  30.741  1.00  0.00     0.074 A 
ATOM     39  C   UNL A   1      41.496  31.657  30.778  1.00  0.00     0.031 C 
ATOM     40  C   UNL A   1      40.439  25.563  27.746  1.00  0.00     0.029 A 
ATOM     41  C   UNL A   1      41.794  25.811  28.230  1.00  0.00     0.049 A 
ATOM     42  H   UNL A   1      42.490  27.489  29.248  1.00  0.00     0.167 HD
ATOM     43  C   UNL A   1      43.866  31.100  31.251  1.00  0.00     0.037 A 
ATOM     44  C   UNL A   1      42.835  24.970  28.091  1.00  0.00     0.037 A 
ATOM     45  C   UNL A   1      45.012  30.229  31.229  1.00  0.00     0.049 A 
ATOM     46  C   UNL A   1      44.183  25.361  28.624  1.00  0.00     0.074 A 
ATOM     47  C   UNL A   1      46.262  30.432  31.791  1.00  0.00     0.029 A 
ATOM     48  N   UNL A   1      45.053  28.992  30.604  1.00  0.00    -0.354 N 
ATOM     49  N   UNL A   1      44.532  26.446  29.269  1.00  0.00    -0.248 NA
ATOM     50  C   UNL A   1      45.283  24.411  28.404  1.00  0.00     0.031 C 
ATOM     51  C   UNL A   1      47.072  29.338  31.467  1.00  0.00     0.029 A 
ATOM     52  C   UNL A   1      46.316  28.436  30.735  1.00  0.00     0.049 A 
ATOM     53  H   UNL A   1      44.296  28.571  30.135  1.00  0.00     0.167 HD
ATOM     54  C   UNL A   1      45.885  26.307  29.543  1.00  0.00     0.074 A 
ATOM     55  C   UNL A   1      46.293  25.025  29.007  1.00  0.00     0.031 C 
ATOM     56  C   UNL A   1      46.715  27.166  30.185  1.00  0.00     0.037 A 
BRANCH  43  57
ATOM     57  C   UNL A   1      44.017  32.456  31.876  1.00  0.00     0.057 A 
ATOM     58  C   UNL A   1      43.754  32.674  33.235  1.00  0.00     0.134 A 
ATOM     59  C   UNL A   1      44.453  33.548  31.117  1.00  0.00     0.134 A 
ATOM     60  F   UNL A   1      43.324  31.670  34.014  1.00  0.00    -0.206 F 
ATOM     61  C   UNL A   1      43.892  33.939  33.809  1.00  0.00     0.040 A 
ATOM     62  C   UNL A   1      44.617  34.812  31.686  1.00  0.00     0.040 A 
ATOM     63  F   UNL A   1      44.729  33.405  29.811  1.00  0.00    -0.206 F 
ATOM     64  C   UNL A   1      44.329  35.011  33.034  1.00  0.00     0.006 A 
ENDBRANCH  43  57
BRANCH  44  65
ATOM     65  C   UNL A   1      42.636  23.661  27.425  1.00  0.00     0.057 A 
ATOM     66  C   UNL A   1      42.808  23.527  26.043  1.00  0.00     0.134 A 
ATOM     67  C   UNL A   1      42.290  22.515  28.149  1.00  0.00     0.134 A 
ATOM     68  F   UNL A   1      43.120  24.597  25.297  1.00  0.00    -0.206 F 
ATOM     69  C   UNL A   1      42.640  22.300  25.402  1.00  0.00     0.040 A 
ATOM     70  C   UNL A   1      42.136  21.277  27.525  1.00  0.00     0.040 A 
ATOM     71  F   UNL A   1      42.114  22.580  29.477  1.00  0.00    -0.206 F 
ATOM     72  C   UNL A   1      42.309  21.168  26.146  1.00  0.00     0.006 A 
ENDBRANCH  44  65
BRANCH  56  73
ATOM     73  C   UNL A   1      48.143  26.743  30.346  1.00  0.00     0.057 A 
ATOM     74  C   UNL A   1      49.122  27.093  29.407  1.00  0.00     0.134 A 
ATOM     75  C   UNL A   1      48.553  26.007  31.464  1.00  0.00     0.134 A 
ATOM     76  F   UNL A   1      48.791  27.783  28.305  1.00  0.00    -0.206 F 
ATOM     77  C   UNL A   1      50.455  26.712  29.568  1.00  0.00     0.040 A 
ATOM     78  C   UNL A   1      49.886  25.639  31.647  1.00  0.00     0.040 A 
ATOM     79  F   UNL A   1      47.665  25.644  32.403  1.00  0.00    -0.206 F 
ATOM     80  C   UNL A   1      50.841  25.989  30.694  1.00  0.00     0.006 A 
ENDBRANCH  56  73
ENDBRANCH  30  31
ENDBRANCH  22  25
ENDBRANCH  20  21
ENDBRANCH   1  20
TORSDOF 13
ENDMDL
MODEL 3
REMARK VINA RESULT:     -10.8      0.460      1.754
REMARK SMILES [NH3+][C@H](CC(=O)NCCCNC(=O)c1ccc(-c2c3nc(c(-c4c(F)cccc4F)c4ccc([nH]4)c(-c4c(F)cccc4F)c4nc(c(-c5c(F)cccc5F)c5ccc2[nH]5)C=C4)C=C3)cc1)c1ccccc1Br
REMARK SMILES IDX 8 1 7 2 6 3 4 4 5 5 3 7 2 8 1 9 67 13 68 14 72 15 69 16
REMARK SMILES IDX 71 17 73 18 70 19 9 20 10 21 11 22 12 24 13 25 14 26 66 27
REMARK SMILES IDX 15 28 65 29 16 30 17 31 18 32 59 33 19 34 64 35 58 36 60 37
REMARK SMILES IDX 20 38 63 39 57 40 56 41 21 43 47 44 30 45 46 46 31 47 34 48
REMARK SMILES IDX 45 49 61 50 32 51 33 52 44 54 62 55 35 56 22 57 23 58 28 59
REMARK SMILES IDX 24 60 25 61 27 62 29 63 26 64 48 65 49 66 54 67 50 68 51 69
REMARK SMILES IDX 53 70 55 71 52 72 36 73 37 74 42 75 38 76 39 77 41 78 43 79
REMARK SMILES IDX 40 80
REMARK H PARENT 6 6 1 10 1 11 1 12 10 23 60 42 34 53
REMARK Flexibility Score: inf
ROOT
ATOM      1  C   UNL A   1      37.853  19.418  25.012  1.00  0.00     0.042 C 
ENDROOT
BRANCH   1   2
ATOM      2  C   UNL A   1      36.653  20.362  24.949  1.00  0.00     0.117 C 
BRANCH   2   3
ATOM      3  N   UNL A   1      35.369  19.680  24.991  1.00  0.00    -0.356 N 
ATOM      4  C   UNL A   1      34.099  20.182  24.986  1.00  0.00     0.226 C 
ATOM      5  O   UNL A   1      33.153  19.396  25.025  1.00  0.00    -0.275 OA
ATOM      6  H   UNL A   1      35.423  18.697  25.028  1.00  0.00     0.163 HD
BRANCH   4   7
ATOM      7  C   UNL A   1      33.883  21.679  24.987  1.00  0.00     0.170 C 
BRANCH   7   8
ATOM      8  C   UNL A   1      33.608  22.322  26.379  1.00  0.00     0.222 C 
BRANCH   8   9
ATOM      9  N   UNL A   1      34.742  22.153  27.284  1.00  0.00    -0.351 N 
ATOM     10  H   UNL A   1      34.592  21.329  27.867  1.00  0.00     0.345 HD
ATOM     11  H   UNL A   1      34.831  22.978  27.877  1.00  0.00     0.345 HD
ATOM     12  H   UNL A   1      35.597  22.033  26.740  1.00  0.00     0.345 HD
ENDBRANCH   8   9
BRANCH   8  13
ATOM     13  C   UNL A   1      33.101  23.778  26.265  1.00  0.00     0.024 A 
ATOM     14  C   UNL A   1      34.030  24.767  25.847  1.00  0.00     0.011 A 
ATOM     15  C   UNL A   1      31.776  24.225  26.465  1.00  0.00     0.027 A 
ATOM     16  C   UNL A   1      33.703  26.124  25.758  1.00  0.00     0.001 A 
ATOM     17  C   UNL A   1      31.454  25.593  26.376  1.00  0.00     0.016 A 
ATOM     18  Br  UNL A   1      30.268  23.107  26.797  1.00  0.00    -0.050 Br
ATOM     19  C   UNL A   1      32.415  26.541  26.043  1.00  0.00     0.001 A 
ENDBRANCH   8  13
ENDBRANCH   7   8
ENDBRANCH   4   7
ENDBRANCH   2   3
ENDBRANCH   1   2
BRANCH   1  20
ATOM     20  C   UNL A   1      39.102  20.022  25.653  1.00  0.00     0.118 C 
BRANCH  20  21
ATOM     21  N   UNL A   1      40.171  19.049  25.812  1.00  0.00    -0.352 N 
ATOM     22  C   UNL A   1      41.503  19.227  26.093  1.00  0.00     0.251 C 
ATOM     23  H   UNL A   1      39.895  18.110  25.702  1.00  0.00     0.163 HD
ATOM     24  O   UNL A   1      42.272  18.274  25.993  1.00  0.00    -0.269 OA
BRANCH  22  25
ATOM     25  C   UNL A   1      42.031  20.549  26.495  1.00  0.00     0.039 A 
ATOM     26  C   UNL A   1      42.526  21.400  25.502  1.00  0.00     0.014 A 
ATOM     27  C   UNL A   1      42.096  20.933  27.838  1.00  0.00     0.014 A 
ATOM     28  C   UNL A   1      43.026  22.659  25.846  1.00  0.00     0.010 A 
ATOM     29  C   UNL A   1      42.551  22.209  28.177  1.00  0.00     0.010 A 
ATOM     30  C   UNL A   1      43.014  23.085  27.183  1.00  0.00    -0.014 A 
BRANCH  30  31
ATOM     31  C   UNL A   1      43.452  24.456  27.552  1.00  0.00     0.031 A 
ATOM     32  C   UNL A   1      42.450  25.504  27.943  1.00  0.00     0.074 A 
ATOM     33  C   UNL A   1      44.758  24.773  27.481  1.00  0.00     0.049 A 
ATOM     34  N   UNL A   1      42.647  26.765  28.238  1.00  0.00    -0.248 NA
ATOM     35  C   UNL A   1      41.042  25.086  27.994  1.00  0.00     0.031 C 
ATOM     36  C   UNL A   1      45.830  23.855  27.090  1.00  0.00     0.029 A 
ATOM     37  N   UNL A   1      45.405  25.959  27.721  1.00  0.00    -0.354 N 
ATOM     38  C   UNL A   1      41.390  27.294  28.499  1.00  0.00     0.074 A 
ATOM     39  C   UNL A   1      40.433  26.226  28.292  1.00  0.00     0.031 C 
ATOM     40  C   UNL A   1      47.002  24.508  27.135  1.00  0.00     0.029 A 
ATOM     41  C   UNL A   1      46.762  25.895  27.520  1.00  0.00     0.049 A 
ATOM     42  H   UNL A   1      44.941  26.777  28.011  1.00  0.00     0.167 HD
ATOM     43  C   UNL A   1      41.064  28.549  28.890  1.00  0.00     0.037 A 
ATOM     44  C   UNL A   1      47.706  26.849  27.622  1.00  0.00     0.037 A 
ATOM     45  C   UNL A   1      42.014  29.609  29.111  1.00  0.00     0.049 A 
ATOM     46  C   UNL A   1      47.314  28.244  28.012  1.00  0.00     0.074 A 
ATOM     47  C   UNL A   1      41.783  30.890  29.584  1.00  0.00     0.029 A 
ATOM     48  N   UNL A   1      43.375  29.513  28.866  1.00  0.00    -0.354 N 
ATOM     49  N   UNL A   1      46.130  28.714  28.317  1.00  0.00    -0.248 NA
ATOM     50  C   UNL A   1      48.391  29.243  28.066  1.00  0.00     0.031 C 
ATOM     51  C   UNL A   1      42.998  31.584  29.581  1.00  0.00     0.029 A 
ATOM     52  C   UNL A   1      43.992  30.723  29.143  1.00  0.00     0.049 A 
ATOM     53  H   UNL A   1      43.834  28.705  28.541  1.00  0.00     0.167 HD
ATOM     54  C   UNL A   1      46.319  30.057  28.612  1.00  0.00     0.074 A 
ATOM     55  C   UNL A   1      47.734  30.325  28.462  1.00  0.00     0.031 C 
ATOM     56  C   UNL A   1      45.399  30.984  28.976  1.00  0.00     0.037 A 
BRANCH  43  57
ATOM     57  C   UNL A   1      39.608  28.846  29.100  1.00  0.00     0.057 A 
ATOM     58  C   UNL A   1      38.790  29.295  28.054  1.00  0.00     0.134 A 
ATOM     59  C   UNL A   1      39.013  28.658  30.352  1.00  0.00     0.134 A 
ATOM     60  F   UNL A   1      39.302  29.504  26.832  1.00  0.00    -0.206 F 
ATOM     61  C   UNL A   1      37.437  29.574  28.256  1.00  0.00     0.040 A 
ATOM     62  C   UNL A   1      37.656  28.911  30.561  1.00  0.00     0.040 A 
ATOM     63  F   UNL A   1      39.739  28.223  31.394  1.00  0.00    -0.206 F 
ATOM     64  C   UNL A   1      36.866  29.377  29.512  1.00  0.00     0.006 A 
ENDBRANCH  43  57
BRANCH  44  65
ATOM     65  C   UNL A   1      49.124  26.506  27.359  1.00  0.00     0.057 A 
ATOM     66  C   UNL A   1      49.971  26.114  28.402  1.00  0.00     0.134 A 
ATOM     67  C   UNL A   1      49.660  26.542  26.067  1.00  0.00     0.134 A 
ATOM     68  F   UNL A   1      49.516  26.080  29.662  1.00  0.00    -0.206 F 
ATOM     69  C   UNL A   1      51.303  25.772  28.170  1.00  0.00     0.040 A 
ATOM     70  C   UNL A   1      50.986  26.186  25.817  1.00  0.00     0.040 A 
ATOM     71  F   UNL A   1      48.896  26.907  25.027  1.00  0.00    -0.206 F 
ATOM     72  C   UNL A   1      51.812  25.802  26.872  1.00  0.00     0.006 A 
ENDBRANCH  44  65
BRANCH  56  73
ATOM     73  C   UNL A   1      45.897  32.371  29.243  1.00  0.00     0.057 A 
ATOM     74  C   UNL A   1      46.364  32.751  30.508  1.00  0.00     0.134 A 
ATOM     75  C   UNL A   1      45.939  33.329  28.223  1.00  0.00     0.134 A 
ATOM     76  F   UNL A   1      46.334  31.885  31.532  1.00  0.00    -0.206 F 
ATOM     77  C   UNL A   1      46.843  34.040  30.751  1.00  0.00     0.040 A 
ATOM     78  C   UNL A   1      46.435  34.614  28.449  1.00  0.00     0.040 A 
ATOM     79  F   UNL A   1      45.509  33.028  26.988  1.00  0.00    -0.206 F 
ATOM     80  C   UNL A   1      46.885  34.973  29.717  1.00  0.00     0.006 A 
ENDBRANCH  56  73
ENDBRANCH  30  31
ENDBRANCH  22  25
ENDBRANCH  20  21
ENDBRANCH   1  20
TORSDOF 13
ENDMDL
