MODEL 1
REMARK VINA RESULT:     -10.3      0.000      0.000
REMARK SMILES CC(C)Cc1noc(CCCCC(=O)NCCCNC(=O)c2ccc(-c3c4nc(c(-c5c(F)cccc5F)c5ccc([nH]5)c(-c5c(F)cccc5F)c5nc(c(-c6c(F)cccc6F)c6ccc3[nH]6)C=C5)C=C4)cc2)n1
REMARK SMILES IDX 13 1 14 2 15 3 12 5 11 6 10 7 9 8 8 9 5 10 6 11 76 12 7 13
REMARK SMILES IDX 4 14 2 15 1 16 3 17 16 18 17 19 18 20 19 21 20 22 21 24
REMARK SMILES IDX 22 25 23 26 75 27 24 28 74 29 25 30 26 31 27 32 68 33 28 34
REMARK SMILES IDX 73 35 67 36 69 37 29 38 72 39 66 40 65 41 30 43 56 44 39 45
REMARK SMILES IDX 55 46 40 47 43 48 54 49 70 50 41 51 42 52 53 54 71 55 44 56
REMARK SMILES IDX 31 57 32 58 37 59 33 60 34 61 36 62 38 63 35 64 57 65 58 66
REMARK SMILES IDX 63 67 59 68 60 69 62 70 64 71 61 72 45 73 46 74 51 75 47 76
REMARK SMILES IDX 48 77 50 78 52 79 49 80
REMARK H PARENT 15 4 19 23 69 42 43 53
REMARK Flexibility Score: inf
ROOT
ATOM      1  C   UNL A   1      32.861  29.273  24.786  1.00  0.00     0.219 C 
ATOM      2  O   UNL A   1      33.287  29.328  23.631  1.00  0.00    -0.275 OA
ATOM      3  N   UNL A   1      32.103  30.311  25.237  1.00  0.00    -0.356 N 
ATOM      4  H   UNL A   1      31.877  30.983  24.554  1.00  0.00     0.163 HD
ENDROOT
BRANCH   1   5
ATOM      5  C   UNL A   1      33.155  28.074  25.669  1.00  0.00     0.100 C 
BRANCH   5   6
ATOM      6  C   UNL A   1      32.436  26.788  25.250  1.00  0.00     0.010 C 
BRANCH   6   7
ATOM      7  C   UNL A   1      30.918  26.873  25.061  1.00  0.00     0.010 C 
BRANCH   7   8
ATOM      8  C   UNL A   1      30.418  26.974  23.618  1.00  0.00     0.100 C 
BRANCH   8   9
ATOM      9  C   UNL A   1      29.428  28.050  23.430  1.00  0.00     0.226 A 
ATOM     10  C   UNL A   1      28.343  29.818  23.309  1.00  0.00     0.172 A 
ATOM     11  N   UNL A   1      27.420  28.883  23.045  1.00  0.00    -0.063 NA
ATOM     12  N   UNL A   1      29.608  29.345  23.527  1.00  0.00    -0.196 NA
ATOM     13  O   UNL A   1      28.151  27.692  23.120  1.00  0.00    -0.339 OA
BRANCH  10  14
ATOM     14  C   UNL A   1      28.023  31.255  23.477  1.00  0.00     0.084 C 
BRANCH  14  15
ATOM     15  C   UNL A   1      28.811  32.151  22.504  1.00  0.00    -0.010 C 
ATOM     16  C   UNL A   1      28.190  32.187  21.102  1.00  0.00     0.008 C 
ATOM     17  C   UNL A   1      28.900  33.570  23.062  1.00  0.00     0.008 C 
ENDBRANCH  14  15
ENDBRANCH  10  14
ENDBRANCH   8   9
ENDBRANCH   7   8
ENDBRANCH   6   7
ENDBRANCH   5   6
ENDBRANCH   1   5
BRANCH   3  18
ATOM     18  C   UNL A   1      31.575  30.585  26.560  1.00  0.00     0.117 C 
BRANCH  18  19
ATOM     19  C   UNL A   1      31.386  32.083  26.775  1.00  0.00     0.042 C 
BRANCH  19  20
ATOM     20  C   UNL A   1      32.689  32.855  26.897  1.00  0.00     0.118 C 
BRANCH  20  21
ATOM     21  N   UNL A   1      32.530  34.087  27.649  1.00  0.00    -0.352 N 
ATOM     22  C   UNL A   1      33.190  34.538  28.766  1.00  0.00     0.251 C 
ATOM     23  H   UNL A   1      31.838  34.696  27.303  1.00  0.00     0.163 HD
ATOM     24  O   UNL A   1      32.765  35.534  29.342  1.00  0.00    -0.269 OA
BRANCH  22  25
ATOM     25  C   UNL A   1      34.384  33.835  29.297  1.00  0.00     0.039 A 
ATOM     26  C   UNL A   1      35.648  34.268  28.878  1.00  0.00     0.014 A 
ATOM     27  C   UNL A   1      34.286  32.734  30.151  1.00  0.00     0.014 A 
ATOM     28  C   UNL A   1      36.798  33.628  29.344  1.00  0.00     0.010 A 
ATOM     29  C   UNL A   1      35.434  32.160  30.693  1.00  0.00     0.010 A 
ATOM     30  C   UNL A   1      36.703  32.583  30.277  1.00  0.00    -0.014 A 
BRANCH  30  31
ATOM     31  C   UNL A   1      37.922  31.911  30.793  1.00  0.00     0.031 A 
ATOM     32  C   UNL A   1      38.474  32.264  32.148  1.00  0.00     0.074 A 
ATOM     33  C   UNL A   1      38.552  30.996  30.031  1.00  0.00     0.049 A 
ATOM     34  N   UNL A   1      39.509  31.765  32.777  1.00  0.00    -0.248 NA
ATOM     35  C   UNL A   1      37.792  33.340  32.883  1.00  0.00     0.031 C 
ATOM     36  C   UNL A   1      38.152  30.606  28.677  1.00  0.00     0.029 A 
ATOM     37  N   UNL A   1      39.652  30.220  30.291  1.00  0.00    -0.354 N 
ATOM     38  C   UNL A   1      39.606  32.472  33.970  1.00  0.00     0.074 A 
ATOM     39  C   UNL A   1      38.569  33.479  33.946  1.00  0.00     0.031 C 
ATOM     40  C   UNL A   1      38.962  29.625  28.247  1.00  0.00     0.029 A 
ATOM     41  C   UNL A   1      39.953  29.340  29.281  1.00  0.00     0.049 A 
ATOM     42  H   UNL A   1      40.176  30.288  31.121  1.00  0.00     0.167 HD
ATOM     43  C   UNL A   1      40.458  32.282  35.005  1.00  0.00     0.037 A 
ATOM     44  C   UNL A   1      40.908  28.394  29.205  1.00  0.00     0.037 A 
ATOM     45  C   UNL A   1      41.477  31.266  35.037  1.00  0.00     0.049 A 
ATOM     46  C   UNL A   1      41.838  28.195  30.367  1.00  0.00     0.074 A 
ATOM     47  C   UNL A   1      42.356  30.951  36.059  1.00  0.00     0.029 A 
ATOM     48  N   UNL A   1      41.755  30.398  33.991  1.00  0.00    -0.354 N 
ATOM     49  N   UNL A   1      41.872  28.822  31.517  1.00  0.00    -0.248 NA
ATOM     50  C   UNL A   1      42.858  27.148  30.219  1.00  0.00     0.031 C 
ATOM     51  C   UNL A   1      43.193  29.920  35.615  1.00  0.00     0.029 A 
ATOM     52  C   UNL A   1      42.806  29.561  34.334  1.00  0.00     0.049 A 
ATOM     53  H   UNL A   1      41.277  30.379  33.130  1.00  0.00     0.167 HD
ATOM     54  C   UNL A   1      42.901  28.233  32.240  1.00  0.00     0.074 A 
ATOM     55  C   UNL A   1      43.450  27.185  31.404  1.00  0.00     0.031 C 
ATOM     56  C   UNL A   1      43.349  28.531  33.485  1.00  0.00     0.037 A 
BRANCH  43  57
ATOM     57  C   UNL A   1      40.313  33.202  36.186  1.00  0.00     0.057 A 
ATOM     58  C   UNL A   1      39.381  32.956  37.204  1.00  0.00     0.134 A 
ATOM     59  C   UNL A   1      41.101  34.353  36.300  1.00  0.00     0.134 A 
ATOM     60  F   UNL A   1      38.584  31.878  37.150  1.00  0.00    -0.206 F 
ATOM     61  C   UNL A   1      39.208  33.843  38.269  1.00  0.00     0.040 A 
ATOM     62  C   UNL A   1      40.959  35.232  37.376  1.00  0.00     0.040 A 
ATOM     63  F   UNL A   1      42.017  34.648  35.365  1.00  0.00    -0.206 F 
ATOM     64  C   UNL A   1      40.001  34.984  38.358  1.00  0.00     0.006 A 
ENDBRANCH  43  57
BRANCH  44  65
ATOM     65  C   UNL A   1      40.985  27.521  28.008  1.00  0.00     0.057 A 
ATOM     66  C   UNL A   1      41.742  27.902  26.893  1.00  0.00     0.134 A 
ATOM     67  C   UNL A   1      40.329  26.286  27.952  1.00  0.00     0.134 A 
ATOM     68  F   UNL A   1      42.379  29.082  26.882  1.00  0.00    -0.206 F 
ATOM     69  C   UNL A   1      41.837  27.092  25.761  1.00  0.00     0.040 A 
ATOM     70  C   UNL A   1      40.433  25.456  26.835  1.00  0.00     0.040 A 
ATOM     71  F   UNL A   1      39.597  25.861  28.991  1.00  0.00    -0.206 F 
ATOM     72  C   UNL A   1      41.185  25.860  25.734  1.00  0.00     0.006 A 
ENDBRANCH  44  65
BRANCH  56  73
ATOM     73  C   UNL A   1      44.478  27.698  34.016  1.00  0.00     0.057 A 
ATOM     74  C   UNL A   1      44.253  26.489  34.689  1.00  0.00     0.134 A 
ATOM     75  C   UNL A   1      45.807  28.107  33.850  1.00  0.00     0.134 A 
ATOM     76  F   UNL A   1      43.002  26.049  34.894  1.00  0.00    -0.206 F 
ATOM     77  C   UNL A   1      45.307  25.736  35.207  1.00  0.00     0.040 A 
ATOM     78  C   UNL A   1      46.871  27.348  34.339  1.00  0.00     0.040 A 
ATOM     79  F   UNL A   1      46.094  29.250  33.208  1.00  0.00    -0.206 F 
ATOM     80  C   UNL A   1      46.622  26.164  35.028  1.00  0.00     0.006 A 
ENDBRANCH  56  73
ENDBRANCH  30  31
ENDBRANCH  22  25
ENDBRANCH  20  21
ENDBRANCH  19  20
ENDBRANCH  18  19
ENDBRANCH   3  18
TORSDOF 16
ENDMDL
MODEL 2
REMARK VINA RESULT:     -10.3      4.250      7.864
REMARK SMILES CC(C)Cc1noc(CCCCC(=O)NCCCNC(=O)c2ccc(-c3c4nc(c(-c5c(F)cccc5F)c5ccc([nH]5)c(-c5c(F)cccc5F)c5nc(c(-c6c(F)cccc6F)c6ccc3[nH]6)C=C5)C=C4)cc2)n1
REMARK SMILES IDX 13 1 14 2 15 3 12 5 11 6 10 7 9 8 8 9 5 10 6 11 76 12 7 13
REMARK SMILES IDX 4 14 2 15 1 16 3 17 16 18 17 19 18 20 19 21 20 22 21 24
REMARK SMILES IDX 22 25 23 26 75 27 24 28 74 29 25 30 26 31 27 32 68 33 28 34
REMARK SMILES IDX 73 35 67 36 69 37 29 38 72 39 66 40 65 41 30 43 56 44 39 45
REMARK SMILES IDX 55 46 40 47 43 48 54 49 70 50 41 51 42 52 53 54 71 55 44 56
REMARK SMILES IDX 31 57 32 58 37 59 33 60 34 61 36 62 38 63 35 64 57 65 58 66
REMARK SMILES IDX 63 67 59 68 60 69 62 70 64 71 61 72 45 73 46 74 51 75 47 76
REMARK SMILES IDX 48 77 50 78 52 79 49 80
REMARK H PARENT 15 4 19 23 69 42 43 53
REMARK Flexibility Score: inf
ROOT
ATOM      1  C   UNL A   1      35.636  33.840  34.739  1.00  0.00     0.219 C 
ATOM      2  O   UNL A   1      35.788  33.889  35.960  1.00  0.00    -0.275 OA
ATOM      3  N   UNL A   1      34.434  34.229  34.229  1.00  0.00    -0.356 N 
ATOM      4  H   UNL A   1      33.813  34.615  34.888  1.00  0.00     0.163 HD
ENDROOT
BRANCH   1   5
ATOM      5  C   UNL A   1      36.761  33.380  33.830  1.00  0.00     0.100 C 
BRANCH   5   6
ATOM      6  C   UNL A   1      37.409  32.056  34.245  1.00  0.00     0.010 C 
BRANCH   6   7
ATOM      7  C   UNL A   1      38.897  32.095  34.607  1.00  0.00     0.010 C 
BRANCH   7   8
ATOM      8  C   UNL A   1      39.327  31.242  35.803  1.00  0.00     0.100 C 
BRANCH   8   9
ATOM      9  C   UNL A   1      40.301  30.196  35.437  1.00  0.00     0.226 A 
ATOM     10  C   UNL A   1      41.609  28.585  35.317  1.00  0.00     0.172 A 
ATOM     11  N   UNL A   1      41.833  29.238  34.168  1.00  0.00    -0.063 NA
ATOM     12  N   UNL A   1      40.646  29.133  36.121  1.00  0.00    -0.196 NA
ATOM     13  O   UNL A   1      40.948  30.319  34.244  1.00  0.00    -0.339 OA
BRANCH  10  14
ATOM     14  C   UNL A   1      42.413  27.425  35.766  1.00  0.00     0.084 C 
BRANCH  14  15
ATOM     15  C   UNL A   1      41.601  26.115  35.773  1.00  0.00    -0.010 C 
ATOM     16  C   UNL A   1      42.388  24.932  35.197  1.00  0.00     0.008 C 
ATOM     17  C   UNL A   1      41.155  25.791  37.198  1.00  0.00     0.008 C 
ENDBRANCH  14  15
ENDBRANCH  10  14
ENDBRANCH   8   9
ENDBRANCH   7   8
ENDBRANCH   6   7
ENDBRANCH   5   6
ENDBRANCH   1   5
BRANCH   3  18
ATOM     18  C   UNL A   1      33.923  34.167  32.873  1.00  0.00     0.117 C 
BRANCH  18  19
ATOM     19  C   UNL A   1      33.057  35.383  32.558  1.00  0.00     0.042 C 
BRANCH  19  20
ATOM     20  C   UNL A   1      33.389  36.046  31.232  1.00  0.00     0.118 C 
BRANCH  20  21
ATOM     21  N   UNL A   1      32.757  35.377  30.109  1.00  0.00    -0.352 N 
ATOM     22  C   UNL A   1      33.254  34.434  29.243  1.00  0.00     0.251 C 
ATOM     23  H   UNL A   1      31.824  35.641  29.942  1.00  0.00     0.163 HD
ATOM     24  O   UNL A   1      32.596  34.137  28.251  1.00  0.00    -0.269 OA
BRANCH  22  25
ATOM     25  C   UNL A   1      34.571  33.789  29.471  1.00  0.00     0.039 A 
ATOM     26  C   UNL A   1      35.681  34.285  28.778  1.00  0.00     0.014 A 
ATOM     27  C   UNL A   1      34.725  32.681  30.309  1.00  0.00     0.014 A 
ATOM     28  C   UNL A   1      36.937  33.700  28.956  1.00  0.00     0.010 A 
ATOM     29  C   UNL A   1      35.993  32.162  30.561  1.00  0.00     0.010 A 
ATOM     30  C   UNL A   1      37.110  32.648  29.869  1.00  0.00    -0.014 A 
BRANCH  30  31
ATOM     31  C   UNL A   1      38.446  32.035  30.078  1.00  0.00     0.031 A 
ATOM     32  C   UNL A   1      39.478  32.724  30.930  1.00  0.00     0.074 A 
ATOM     33  C   UNL A   1      38.742  30.865  29.481  1.00  0.00     0.049 A 
ATOM     34  N   UNL A   1      40.686  32.329  31.250  1.00  0.00    -0.248 NA
ATOM     35  C   UNL A   1      39.119  34.044  31.470  1.00  0.00     0.031 C 
ATOM     36  C   UNL A   1      37.851  30.124  28.586  1.00  0.00     0.029 A 
ATOM     37  N   UNL A   1      39.870  30.087  29.547  1.00  0.00    -0.354 N 
ATOM     38  C   UNL A   1      41.229  33.354  32.015  1.00  0.00     0.074 A 
ATOM     39  C   UNL A   1      40.248  34.415  32.054  1.00  0.00     0.031 C 
ATOM     40  C   UNL A   1      38.445  28.973  28.231  1.00  0.00     0.029 A 
ATOM     41  C   UNL A   1      39.766  28.911  28.848  1.00  0.00     0.049 A 
ATOM     42  H   UNL A   1      40.676  30.348  30.048  1.00  0.00     0.167 HD
ATOM     43  C   UNL A   1      42.422  33.398  32.655  1.00  0.00     0.037 A 
ATOM     44  C   UNL A   1      40.632  27.886  28.733  1.00  0.00     0.037 A 
ATOM     45  C   UNL A   1      43.390  32.333  32.633  1.00  0.00     0.049 A 
ATOM     46  C   UNL A   1      41.947  27.951  29.456  1.00  0.00     0.074 A 
ATOM     47  C   UNL A   1      44.604  32.251  33.292  1.00  0.00     0.029 A 
ATOM     48  N   UNL A   1      43.252  31.159  31.906  1.00  0.00    -0.354 N 
ATOM     49  N   UNL A   1      42.418  28.894  30.234  1.00  0.00    -0.248 NA
ATOM     50  C   UNL A   1      42.846  26.801  29.289  1.00  0.00     0.031 C 
ATOM     51  C   UNL A   1      45.219  31.046  32.931  1.00  0.00     0.029 A 
ATOM     52  C   UNL A   1      44.368  30.356  32.084  1.00  0.00     0.049 A 
ATOM     53  H   UNL A   1      42.475  30.930  31.346  1.00  0.00     0.167 HD
ATOM     54  C   UNL A   1      43.658  28.445  30.668  1.00  0.00     0.074 A 
ATOM     55  C   UNL A   1      43.854  27.135  30.081  1.00  0.00     0.031 C 
ATOM     56  C   UNL A   1      44.553  29.059  31.481  1.00  0.00     0.037 A 
BRANCH  43  57
ATOM     57  C   UNL A   1      42.735  34.647  33.431  1.00  0.00     0.057 A 
ATOM     58  C   UNL A   1      42.480  34.746  34.807  1.00  0.00     0.134 A 
ATOM     59  C   UNL A   1      43.283  35.768  32.797  1.00  0.00     0.134 A 
ATOM     60  F   UNL A   1      41.942  33.713  35.475  1.00  0.00    -0.206 F 
ATOM     61  C   UNL A   1      42.717  35.927  35.513  1.00  0.00     0.040 A 
ATOM     62  C   UNL A   1      43.552  36.945  33.498  1.00  0.00     0.040 A 
ATOM     63  F   UNL A   1      43.558  35.743  31.484  1.00  0.00    -0.206 F 
ATOM     64  C   UNL A   1      43.257  37.031  34.858  1.00  0.00     0.006 A 
ENDBRANCH  43  57
BRANCH  44  65
ATOM     65  C   UNL A   1      40.250  26.684  27.953  1.00  0.00     0.057 A 
ATOM     66  C   UNL A   1      40.746  26.484  26.659  1.00  0.00     0.134 A 
ATOM     67  C   UNL A   1      39.404  25.701  28.479  1.00  0.00     0.134 A 
ATOM     68  F   UNL A   1      41.548  27.400  26.095  1.00  0.00    -0.206 F 
ATOM     69  C   UNL A   1      40.409  25.355  25.911  1.00  0.00     0.040 A 
ATOM     70  C   UNL A   1      39.075  24.556  27.751  1.00  0.00     0.040 A 
ATOM     71  F   UNL A   1      38.905  25.830  29.717  1.00  0.00    -0.206 F 
ATOM     72  C   UNL A   1      39.574  24.384  26.462  1.00  0.00     0.006 A 
ENDBRANCH  44  65
BRANCH  56  73
ATOM     73  C   UNL A   1      45.815  28.308  31.790  1.00  0.00     0.057 A 
ATOM     74  C   UNL A   1      45.903  27.426  32.876  1.00  0.00     0.134 A 
ATOM     75  C   UNL A   1      46.954  28.467  30.991  1.00  0.00     0.134 A 
ATOM     76  F   UNL A   1      44.852  27.241  33.688  1.00  0.00    -0.206 F 
ATOM     77  C   UNL A   1      47.090  26.755  33.174  1.00  0.00     0.040 A 
ATOM     78  C   UNL A   1      48.138  27.781  31.264  1.00  0.00     0.040 A 
ATOM     79  F   UNL A   1      46.935  29.291  29.932  1.00  0.00    -0.206 F 
ATOM     80  C   UNL A   1      48.211  26.929  32.364  1.00  0.00     0.006 A 
ENDBRANCH  56  73
ENDBRANCH  30  31
ENDBRANCH  22  25
ENDBRANCH  20  21
ENDBRANCH  19  20
ENDBRANCH  18  19
ENDBRANCH   3  18
TORSDOF 16
ENDMDL
MODEL 3
REMARK VINA RESULT:     -10.0      5.096      9.679
REMARK SMILES CC(C)Cc1noc(CCCCC(=O)NCCCNC(=O)c2ccc(-c3c4nc(c(-c5c(F)cccc5F)c5ccc([nH]5)c(-c5c(F)cccc5F)c5nc(c(-c6c(F)cccc6F)c6ccc3[nH]6)C=C5)C=C4)cc2)n1
REMARK SMILES IDX 13 1 14 2 15 3 12 5 11 6 10 7 9 8 8 9 5 10 6 11 76 12 7 13
REMARK SMILES IDX 4 14 2 15 1 16 3 17 16 18 17 19 18 20 19 21 20 22 21 24
REMARK SMILES IDX 22 25 23 26 75 27 24 28 74 29 25 30 26 31 27 32 68 33 28 34
REMARK SMILES IDX 73 35 67 36 69 37 29 38 72 39 66 40 65 41 30 43 56 44 39 45
REMARK SMILES IDX 55 46 40 47 43 48 54 49 70 50 41 51 42 52 53 54 71 55 44 56
REMARK SMILES IDX 31 57 32 58 37 59 33 60 34 61 36 62 38 63 35 64 57 65 58 66
REMARK SMILES IDX 63 67 59 68 60 69 62 70 64 71 61 72 45 73 46 74 51 75 47 76
REMARK SMILES IDX 48 77 50 78 52 79 49 80
REMARK H PARENT 15 4 19 23 69 42 43 53
REMARK Flexibility Score: inf
ROOT
ATOM      1  C   UNL A   1      33.958  19.679  24.888  1.00  0.00     0.219 C 
ATOM      2  O   UNL A   1      33.148  18.761  25.026  1.00  0.00    -0.275 OA
ATOM      3  N   UNL A   1      35.284  19.373  24.936  1.00  0.00    -0.356 N 
ATOM      4  H   UNL A   1      35.483  18.410  24.981  1.00  0.00     0.163 HD
ENDROOT
BRANCH   1   5
ATOM      5  C   UNL A   1      33.489  21.103  24.650  1.00  0.00     0.100 C 
BRANCH   5   6
ATOM      6  C   UNL A   1      32.499  21.258  23.492  1.00  0.00     0.010 C 
BRANCH   6   7
ATOM      7  C   UNL A   1      32.482  22.609  22.769  1.00  0.00     0.010 C 
BRANCH   7   8
ATOM      8  C   UNL A   1      33.842  23.272  22.539  1.00  0.00     0.100 C 
BRANCH   8   9
ATOM      9  C   UNL A   1      33.790  24.740  22.665  1.00  0.00     0.226 A 
ATOM     10  C   UNL A   1      33.700  26.730  23.259  1.00  0.00     0.172 A 
ATOM     11  N   UNL A   1      33.582  26.811  21.926  1.00  0.00    -0.063 NA
ATOM     12  N   UNL A   1      33.858  25.465  23.755  1.00  0.00    -0.196 NA
ATOM     13  O   UNL A   1      33.650  25.472  21.524  1.00  0.00    -0.339 OA
BRANCH  10  14
ATOM     14  C   UNL A   1      33.552  27.895  24.163  1.00  0.00     0.084 C 
BRANCH  14  15
ATOM     15  C   UNL A   1      33.431  27.481  25.641  1.00  0.00    -0.010 C 
ATOM     16  C   UNL A   1      34.121  28.469  26.588  1.00  0.00     0.008 C 
ATOM     17  C   UNL A   1      31.957  27.347  26.022  1.00  0.00     0.008 C 
ENDBRANCH  14  15
ENDBRANCH  10  14
ENDBRANCH   8   9
ENDBRANCH   7   8
ENDBRANCH   6   7
ENDBRANCH   5   6
ENDBRANCH   1   5
BRANCH   3  18
ATOM     18  C   UNL A   1      36.449  20.237  24.930  1.00  0.00     0.117 C 
BRANCH  18  19
ATOM     19  C   UNL A   1      37.737  19.420  24.942  1.00  0.00     0.042 C 
BRANCH  19  20
ATOM     20  C   UNL A   1      38.873  20.074  25.710  1.00  0.00     0.118 C 
BRANCH  20  21
ATOM     21  N   UNL A   1      40.064  19.244  25.744  1.00  0.00    -0.352 N 
ATOM     22  C   UNL A   1      41.364  19.567  26.047  1.00  0.00     0.251 C 
ATOM     23  H   UNL A   1      39.916  18.299  25.513  1.00  0.00     0.163 HD
ATOM     24  O   UNL A   1      42.244  18.739  25.836  1.00  0.00    -0.269 OA
BRANCH  22  25
ATOM     25  C   UNL A   1      41.723  20.897  26.601  1.00  0.00     0.039 A 
ATOM     26  C   UNL A   1      42.014  21.931  25.704  1.00  0.00     0.014 A 
ATOM     27  C   UNL A   1      41.830  21.131  27.974  1.00  0.00     0.014 A 
ATOM     28  C   UNL A   1      42.367  23.195  26.182  1.00  0.00     0.010 A 
ATOM     29  C   UNL A   1      42.085  22.415  28.451  1.00  0.00     0.010 A 
ATOM     30  C   UNL A   1      42.382  23.456  27.562  1.00  0.00    -0.014 A 
BRANCH  30  31
ATOM     31  C   UNL A   1      42.736  24.802  28.077  1.00  0.00     0.031 A 
ATOM     32  C   UNL A   1      44.177  25.195  28.264  1.00  0.00     0.074 A 
ATOM     33  C   UNL A   1      41.758  25.670  28.400  1.00  0.00     0.049 A 
ATOM     34  N   UNL A   1      44.679  26.333  28.674  1.00  0.00    -0.248 NA
ATOM     35  C   UNL A   1      45.187  24.164  27.983  1.00  0.00     0.031 C 
ATOM     36  C   UNL A   1      40.322  25.393  28.319  1.00  0.00     0.029 A 
ATOM     37  N   UNL A   1      41.822  26.964  28.849  1.00  0.00    -0.354 N 
ATOM     38  C   UNL A   1      46.056  26.149  28.709  1.00  0.00     0.074 A 
ATOM     39  C   UNL A   1      46.306  24.772  28.346  1.00  0.00     0.031 C 
ATOM     40  C   UNL A   1      39.642  26.502  28.653  1.00  0.00     0.029 A 
ATOM     41  C   UNL A   1      40.592  27.554  28.999  1.00  0.00     0.049 A 
ATOM     42  H   UNL A   1      42.670  27.425  29.046  1.00  0.00     0.167 HD
ATOM     43  C   UNL A   1      47.029  27.051  28.987  1.00  0.00     0.037 A 
ATOM     44  C   UNL A   1      40.266  28.811  29.356  1.00  0.00     0.037 A 
ATOM     45  C   UNL A   1      46.781  28.427  29.328  1.00  0.00     0.049 A 
ATOM     46  C   UNL A   1      41.359  29.797  29.653  1.00  0.00     0.074 A 
ATOM     47  C   UNL A   1      47.694  29.437  29.572  1.00  0.00     0.029 A 
ATOM     48  N   UNL A   1      45.519  28.986  29.477  1.00  0.00    -0.354 N 
ATOM     49  N   UNL A   1      42.658  29.630  29.612  1.00  0.00    -0.248 NA
ATOM     50  C   UNL A   1      40.936  31.150  30.037  1.00  0.00     0.031 C 
ATOM     51  C   UNL A   1      46.986  30.597  29.909  1.00  0.00     0.029 A 
ATOM     52  C   UNL A   1      45.630  30.322  29.830  1.00  0.00     0.049 A 
ATOM     53  H   UNL A   1      44.670  28.504  29.351  1.00  0.00     0.167 HD
ATOM     54  C   UNL A   1      43.210  30.860  29.944  1.00  0.00     0.074 A 
ATOM     55  C   UNL A   1      42.102  31.768  30.162  1.00  0.00     0.031 C 
ATOM     56  C   UNL A   1      44.516  31.208  30.056  1.00  0.00     0.037 A 
BRANCH  43  57
ATOM     57  C   UNL A   1      48.449  26.562  28.929  1.00  0.00     0.057 A 
ATOM     58  C   UNL A   1      49.105  26.060  30.062  1.00  0.00     0.134 A 
ATOM     59  C   UNL A   1      49.175  26.607  27.732  1.00  0.00     0.134 A 
ATOM     60  F   UNL A   1      48.473  26.003  31.244  1.00  0.00    -0.206 F 
ATOM     61  C   UNL A   1      50.443  25.662  30.017  1.00  0.00     0.040 A 
ATOM     62  C   UNL A   1      50.504  26.183  27.668  1.00  0.00     0.040 A 
ATOM     63  F   UNL A   1      48.609  27.070  26.607  1.00  0.00    -0.206 F 
ATOM     64  C   UNL A   1      51.145  25.720  28.816  1.00  0.00     0.006 A 
ENDBRANCH  43  57
BRANCH  44  65
ATOM     65  C   UNL A   1      38.841  29.221  29.386  1.00  0.00     0.057 A 
ATOM     66  C   UNL A   1      38.203  29.672  28.223  1.00  0.00     0.134 A 
ATOM     67  C   UNL A   1      38.079  29.156  30.557  1.00  0.00     0.134 A 
ATOM     68  F   UNL A   1      38.887  29.771  27.074  1.00  0.00    -0.206 F 
ATOM     69  C   UNL A   1      36.860  30.052  28.226  1.00  0.00     0.040 A 
ATOM     70  C   UNL A   1      36.729  29.513  30.569  1.00  0.00     0.040 A 
ATOM     71  F   UNL A   1      38.630  28.724  31.700  1.00  0.00    -0.206 F 
ATOM     72  C   UNL A   1      36.118  29.967  29.402  1.00  0.00     0.006 A 
ENDBRANCH  44  65
BRANCH  56  73
ATOM     73  C   UNL A   1      44.808  32.635  30.415  1.00  0.00     0.057 A 
ATOM     74  C   UNL A   1      44.982  33.042  31.746  1.00  0.00     0.134 A 
ATOM     75  C   UNL A   1      44.919  33.614  29.421  1.00  0.00     0.134 A 
ATOM     76  F   UNL A   1      44.872  32.155  32.746  1.00  0.00    -0.206 F 
ATOM     77  C   UNL A   1      45.222  34.377  32.074  1.00  0.00     0.040 A 
ATOM     78  C   UNL A   1      45.187  34.947  29.735  1.00  0.00     0.040 A 
ATOM     79  F   UNL A   1      44.772  33.292  28.126  1.00  0.00    -0.206 F 
ATOM     80  C   UNL A   1      45.329  35.333  31.066  1.00  0.00     0.006 A 
ENDBRANCH  56  73
ENDBRANCH  30  31
ENDBRANCH  22  25
ENDBRANCH  20  21
ENDBRANCH  19  20
ENDBRANCH  18  19
ENDBRANCH   3  18
TORSDOF 16
ENDMDL
