MODEL 1
REMARK VINA RESULT:     -11.1      0.000      0.000
REMARK SMILES O=C(NCCCNC(=O)[C@H]1CSC2(CCCCC2)[NH2+]1)c1ccc(-c2c3nc(c(-c4c(F)cccc4F)c4ccc([nH]4)c(-c4c(F)cccc4F)c4nc(c(-c5c(F)cccc5F)c5ccc2[nH]5)C=C4)C=C3)cc1
REMARK SMILES IDX 4 1 3 2 1 3 2 4 20 6 21 7 73 8 22 9 72 10 23 11 24 12 25 13
REMARK SMILES IDX 66 14 26 15 71 16 65 17 67 18 27 19 70 20 64 21 63 22 28 24
REMARK SMILES IDX 54 25 37 26 53 27 38 28 41 29 52 30 68 31 39 32 40 33 51 35
REMARK SMILES IDX 69 36 42 37 29 38 30 39 35 40 31 41 32 42 34 43 36 44 33 45
REMARK SMILES IDX 55 46 56 47 61 48 57 49 58 50 60 51 62 52 59 53 43 54 44 55
REMARK SMILES IDX 49 56 45 57 46 58 48 59 50 60 47 61 5 62 6 63 7 64 8 65 9 67
REMARK SMILES IDX 10 68 11 69 19 70 12 71 13 72 14 75 18 76 15 77 17 78 16 79
REMARK H PARENT 3 5 67 23 41 34 7 66 19 73 19 74
REMARK Flexibility Score: inf
ROOT
ATOM      1  C   UNL A   1      38.947  20.112  25.749  1.00  0.00     0.118 C 
ENDROOT
BRANCH   1   2
ATOM      2  N   UNL A   1      40.110  19.235  25.779  1.00  0.00    -0.352 N 
ATOM      3  O   UNL A   1      42.284  18.662  25.903  1.00  0.00    -0.269 OA
ATOM      4  C   UNL A   1      41.419  19.514  26.089  1.00  0.00     0.251 C 
ATOM      5  H   UNL A   1      39.929  18.297  25.540  1.00  0.00     0.163 HD
BRANCH   4   6
ATOM      6  C   UNL A   1      41.796  20.840  26.625  1.00  0.00     0.039 A 
ATOM      7  C   UNL A   1      41.738  21.105  27.993  1.00  0.00     0.014 A 
ATOM      8  C   UNL A   1      42.240  21.829  25.740  1.00  0.00     0.014 A 
ATOM      9  C   UNL A   1      41.978  22.392  28.460  1.00  0.00     0.010 A 
ATOM     10  C   UNL A   1      42.569  23.099  26.223  1.00  0.00     0.010 A 
ATOM     11  C   UNL A   1      42.410  23.400  27.583  1.00  0.00    -0.014 A 
BRANCH  11  12
ATOM     12  C   UNL A   1      42.749  24.739  28.128  1.00  0.00     0.031 A 
ATOM     13  C   UNL A   1      44.167  25.114  28.452  1.00  0.00     0.074 A 
ATOM     14  C   UNL A   1      41.757  25.632  28.306  1.00  0.00     0.049 A 
ATOM     15  N   UNL A   1      44.634  26.248  28.912  1.00  0.00    -0.248 NA
ATOM     16  C   UNL A   1      45.198  24.084  28.244  1.00  0.00     0.031 C 
ATOM     17  C   UNL A   1      40.338  25.376  28.046  1.00  0.00     0.029 A 
ATOM     18  N   UNL A   1      41.786  26.936  28.729  1.00  0.00    -0.354 N 
ATOM     19  C   UNL A   1      46.002  26.066  29.065  1.00  0.00     0.074 A 
ATOM     20  C   UNL A   1      46.290  24.703  28.671  1.00  0.00     0.031 C 
ATOM     21  C   UNL A   1      39.640  26.496  28.272  1.00  0.00     0.029 A 
ATOM     22  C   UNL A   1      40.550  27.533  28.747  1.00  0.00     0.049 A 
ATOM     23  H   UNL A   1      42.613  27.399  28.993  1.00  0.00     0.167 HD
ATOM     24  C   UNL A   1      46.930  26.957  29.489  1.00  0.00     0.037 A 
ATOM     25  C   UNL A   1      40.182  28.771  29.121  1.00  0.00     0.037 A 
ATOM     26  C   UNL A   1      46.641  28.318  29.863  1.00  0.00     0.049 A 
ATOM     27  C   UNL A   1      41.231  29.734  29.592  1.00  0.00     0.074 A 
ATOM     28  C   UNL A   1      47.522  29.309  30.261  1.00  0.00     0.029 A 
ATOM     29  N   UNL A   1      45.373  28.879  29.888  1.00  0.00    -0.354 N 
ATOM     30  N   UNL A   1      42.526  29.557  29.693  1.00  0.00    -0.248 NA
ATOM     31  C   UNL A   1      40.768  31.066  30.003  1.00  0.00     0.031 C 
ATOM     32  C   UNL A   1      46.782  30.456  30.569  1.00  0.00     0.029 A 
ATOM     33  C   UNL A   1      45.446  30.195  30.318  1.00  0.00     0.049 A 
ATOM     34  H   UNL A   1      44.543  28.412  29.638  1.00  0.00     0.167 HD
ATOM     35  C   UNL A   1      43.035  30.757  30.169  1.00  0.00     0.074 A 
ATOM     36  C   UNL A   1      41.912  31.661  30.314  1.00  0.00     0.031 C 
ATOM     37  C   UNL A   1      44.318  31.080  30.462  1.00  0.00     0.037 A 
BRANCH  24  38
ATOM     38  C   UNL A   1      48.354  26.488  29.587  1.00  0.00     0.057 A 
ATOM     39  C   UNL A   1      49.275  26.695  28.553  1.00  0.00     0.134 A 
ATOM     40  C   UNL A   1      48.821  25.870  30.755  1.00  0.00     0.134 A 
ATOM     41  F   UNL A   1      48.890  27.269  27.404  1.00  0.00    -0.206 F 
ATOM     42  C   UNL A   1      50.607  26.291  28.671  1.00  0.00     0.040 A 
ATOM     43  C   UNL A   1      50.155  25.483  30.894  1.00  0.00     0.040 A 
ATOM     44  F   UNL A   1      47.992  25.649  31.786  1.00  0.00    -0.206 F 
ATOM     45  C   UNL A   1      51.052  25.690  29.848  1.00  0.00     0.006 A 
ENDBRANCH  24  38
BRANCH  25  46
ATOM     46  C   UNL A   1      38.752  29.160  29.065  1.00  0.00     0.057 A 
ATOM     47  C   UNL A   1      38.167  29.603  27.874  1.00  0.00     0.134 A 
ATOM     48  C   UNL A   1      37.932  29.075  30.196  1.00  0.00     0.134 A 
ATOM     49  F   UNL A   1      38.906  29.721  26.761  1.00  0.00    -0.206 F 
ATOM     50  C   UNL A   1      36.819  29.959  27.812  1.00  0.00     0.040 A 
ATOM     51  C   UNL A   1      36.576  29.401  30.143  1.00  0.00     0.040 A 
ATOM     52  F   UNL A   1      38.432  28.647  31.364  1.00  0.00    -0.206 F 
ATOM     53  C   UNL A   1      36.018  29.850  28.948  1.00  0.00     0.006 A 
ENDBRANCH  25  46
BRANCH  37  54
ATOM     54  C   UNL A   1      44.572  32.473  30.951  1.00  0.00     0.057 A 
ATOM     55  C   UNL A   1      44.583  32.785  32.317  1.00  0.00     0.134 A 
ATOM     56  C   UNL A   1      44.831  33.512  30.048  1.00  0.00     0.134 A 
ATOM     57  F   UNL A   1      44.328  31.836  33.232  1.00  0.00    -0.206 F 
ATOM     58  C   UNL A   1      44.821  34.084  32.766  1.00  0.00     0.040 A 
ATOM     59  C   UNL A   1      45.093  34.809  30.486  1.00  0.00     0.040 A 
ATOM     60  F   UNL A   1      44.841  33.278  28.726  1.00  0.00    -0.206 F 
ATOM     61  C   UNL A   1      45.081  35.100  31.848  1.00  0.00     0.006 A 
ENDBRANCH  37  54
ENDBRANCH  11  12
ENDBRANCH   4   6
ENDBRANCH   1   2
BRANCH   1  62
ATOM     62  C   UNL A   1      37.773  19.523  24.977  1.00  0.00     0.042 C 
BRANCH  62  63
ATOM     63  C   UNL A   1      36.698  20.535  24.604  1.00  0.00     0.118 C 
BRANCH  63  64
ATOM     64  N   UNL A   1      35.692  20.665  25.644  1.00  0.00    -0.351 N 
ATOM     65  C   UNL A   1      34.419  21.160  25.580  1.00  0.00     0.279 C 
ATOM     66  H   UNL A   1      35.969  20.348  26.533  1.00  0.00     0.163 HD
ATOM     67  O   UNL A   1      33.743  21.111  26.607  1.00  0.00    -0.268 OA
BRANCH  65  68
ATOM     68  C   UNL A   1      33.913  21.752  24.248  1.00  0.00     0.283 C 
ATOM     69  C   UNL A   1      32.406  21.960  24.240  1.00  0.00     0.151 C 
ATOM     70  N   UNL A   1      34.612  23.022  23.933  1.00  0.00    -0.322 N 
ATOM     71  S   UNL A   1      32.175  23.609  24.907  1.00  0.00    -0.089 SA
ATOM     72  C   UNL A   1      33.810  24.192  24.342  1.00  0.00     0.143 C 
ATOM     73  H   UNL A   1      34.778  23.069  22.928  1.00  0.00     0.348 HD
ATOM     74  H   UNL A   1      35.493  23.040  24.445  1.00  0.00     0.348 HD
ATOM     75  C   UNL A   1      34.519  24.990  25.456  1.00  0.00     0.081 C 
ATOM     76  C   UNL A   1      33.634  25.087  23.096  1.00  0.00     0.081 C 
ATOM     77  C   UNL A   1      33.843  26.330  25.770  1.00  0.00     0.007 C 
ATOM     78  C   UNL A   1      32.945  26.422  23.399  1.00  0.00     0.007 C 
ATOM     79  C   UNL A   1      33.650  27.181  24.518  1.00  0.00     0.001 C 
ENDBRANCH  65  68
ENDBRANCH  63  64
ENDBRANCH  62  63
ENDBRANCH   1  62
TORSDOF 10
ENDMDL
MODEL 2
REMARK VINA RESULT:     -11.1      0.690      1.557
REMARK SMILES O=C(NCCCNC(=O)[C@H]1CSC2(CCCCC2)[NH2+]1)c1ccc(-c2c3nc(c(-c4c(F)cccc4F)c4ccc([nH]4)c(-c4c(F)cccc4F)c4nc(c(-c5c(F)cccc5F)c5ccc2[nH]5)C=C4)C=C3)cc1
REMARK SMILES IDX 4 1 3 2 1 3 2 4 20 6 21 7 73 8 22 9 72 10 23 11 24 12 25 13
REMARK SMILES IDX 66 14 26 15 71 16 65 17 67 18 27 19 70 20 64 21 63 22 28 24
REMARK SMILES IDX 54 25 37 26 53 27 38 28 41 29 52 30 68 31 39 32 40 33 51 35
REMARK SMILES IDX 69 36 42 37 29 38 30 39 35 40 31 41 32 42 34 43 36 44 33 45
REMARK SMILES IDX 55 46 56 47 61 48 57 49 58 50 60 51 62 52 59 53 43 54 44 55
REMARK SMILES IDX 49 56 45 57 46 58 48 59 50 60 47 61 5 62 6 63 7 64 8 65 9 67
REMARK SMILES IDX 10 68 11 69 19 70 12 71 13 72 14 75 18 76 15 77 17 78 16 79
REMARK H PARENT 3 5 67 23 41 34 7 66 19 73 19 74
REMARK Flexibility Score: inf
ROOT
ATOM      1  C   UNL A   1      38.956  20.101  25.770  1.00  0.00     0.118 C 
ENDROOT
BRANCH   1   2
ATOM      2  N   UNL A   1      40.089  19.189  25.846  1.00  0.00    -0.352 N 
ATOM      3  O   UNL A   1      42.245  18.553  25.988  1.00  0.00    -0.269 OA
ATOM      4  C   UNL A   1      41.410  19.444  26.127  1.00  0.00     0.251 C 
ATOM      5  H   UNL A   1      39.875  18.244  25.670  1.00  0.00     0.163 HD
BRANCH   4   6
ATOM      6  C   UNL A   1      41.836  20.788  26.572  1.00  0.00     0.039 A 
ATOM      7  C   UNL A   1      41.955  21.091  27.929  1.00  0.00     0.014 A 
ATOM      8  C   UNL A   1      42.147  21.756  25.610  1.00  0.00     0.014 A 
ATOM      9  C   UNL A   1      42.236  22.393  28.325  1.00  0.00     0.010 A 
ATOM     10  C   UNL A   1      42.519  23.042  26.011  1.00  0.00     0.010 A 
ATOM     11  C   UNL A   1      42.536  23.380  27.372  1.00  0.00    -0.014 A 
BRANCH  11  12
ATOM     12  C   UNL A   1      42.926  24.737  27.832  1.00  0.00     0.031 A 
ATOM     13  C   UNL A   1      44.368  25.152  27.908  1.00  0.00     0.074 A 
ATOM     14  C   UNL A   1      41.954  25.610  28.159  1.00  0.00     0.049 A 
ATOM     15  N   UNL A   1      44.874  26.306  28.265  1.00  0.00    -0.248 NA
ATOM     16  C   UNL A   1      45.376  24.143  27.546  1.00  0.00     0.031 C 
ATOM     17  C   UNL A   1      40.519  25.315  28.144  1.00  0.00     0.029 A 
ATOM     18  N   UNL A   1      42.018  26.922  28.550  1.00  0.00    -0.354 N 
ATOM     19  C   UNL A   1      46.253  26.159  28.190  1.00  0.00     0.074 A 
ATOM     20  C   UNL A   1      46.507  24.796  27.775  1.00  0.00     0.031 C 
ATOM     21  C   UNL A   1      39.838  26.424  28.466  1.00  0.00     0.029 A 
ATOM     22  C   UNL A   1      40.787  27.490  28.766  1.00  0.00     0.049 A 
ATOM     23  H   UNL A   1      42.865  27.410  28.665  1.00  0.00     0.167 HD
ATOM     24  C   UNL A   1      47.215  27.080  28.439  1.00  0.00     0.037 A 
ATOM     25  C   UNL A   1      40.453  28.727  29.176  1.00  0.00     0.037 A 
ATOM     26  C   UNL A   1      46.956  28.441  28.835  1.00  0.00     0.049 A 
ATOM     27  C   UNL A   1      41.541  29.723  29.450  1.00  0.00     0.074 A 
ATOM     28  C   UNL A   1      47.864  29.460  29.065  1.00  0.00     0.029 A 
ATOM     29  N   UNL A   1      45.695  28.972  29.063  1.00  0.00    -0.354 N 
ATOM     30  N   UNL A   1      42.839  29.579  29.336  1.00  0.00    -0.248 NA
ATOM     31  C   UNL A   1      41.117  31.051  29.913  1.00  0.00     0.031 C 
ATOM     32  C   UNL A   1      47.156  30.595  29.474  1.00  0.00     0.029 A 
ATOM     33  C   UNL A   1      45.804  30.297  29.454  1.00  0.00     0.049 A 
ATOM     34  H   UNL A   1      44.848  28.481  28.962  1.00  0.00     0.167 HD
ATOM     35  C   UNL A   1      43.388  30.800  29.701  1.00  0.00     0.074 A 
ATOM     36  C   UNL A   1      42.281  31.680  30.018  1.00  0.00     0.031 C 
ATOM     37  C   UNL A   1      44.693  31.158  29.770  1.00  0.00     0.037 A 
BRANCH  24  38
ATOM     38  C   UNL A   1      48.647  26.646  28.304  1.00  0.00     0.057 A 
ATOM     39  C   UNL A   1      49.349  26.066  29.367  1.00  0.00     0.134 A 
ATOM     40  C   UNL A   1      49.312  26.761  27.076  1.00  0.00     0.134 A 
ATOM     41  F   UNL A   1      48.775  25.937  30.572  1.00  0.00    -0.206 F 
ATOM     42  C   UNL A   1      50.667  25.629  29.218  1.00  0.00     0.040 A 
ATOM     43  C   UNL A   1      50.621  26.307  26.908  1.00  0.00     0.040 A 
ATOM     44  F   UNL A   1      48.693  27.301  26.015  1.00  0.00    -0.206 F 
ATOM     45  C   UNL A   1      51.304  25.742  27.983  1.00  0.00     0.006 A 
ENDBRANCH  24  38
BRANCH  25  46
ATOM     46  C   UNL A   1      39.025  29.081  29.354  1.00  0.00     0.057 A 
ATOM     47  C   UNL A   1      38.257  29.557  28.287  1.00  0.00     0.134 A 
ATOM     48  C   UNL A   1      38.388  28.928  30.591  1.00  0.00     0.134 A 
ATOM     49  F   UNL A   1      38.817  29.740  27.081  1.00  0.00    -0.206 F 
ATOM     50  C   UNL A   1      36.909  29.881  28.445  1.00  0.00     0.040 A 
ATOM     51  C   UNL A   1      37.034  29.221  30.758  1.00  0.00     0.040 A 
ATOM     52  F   UNL A   1      39.068  28.465  31.651  1.00  0.00    -0.206 F 
ATOM     53  C   UNL A   1      36.292  29.704  29.683  1.00  0.00     0.006 A 
ENDBRANCH  25  46
BRANCH  37  54
ATOM     54  C   UNL A   1      44.988  32.567  30.189  1.00  0.00     0.057 A 
ATOM     55  C   UNL A   1      45.038  33.617  29.262  1.00  0.00     0.134 A 
ATOM     56  C   UNL A   1      45.202  32.882  31.537  1.00  0.00     0.134 A 
ATOM     57  F   UNL A   1      44.855  33.377  27.955  1.00  0.00    -0.206 F 
ATOM     58  C   UNL A   1      45.313  34.925  29.659  1.00  0.00     0.040 A 
ATOM     59  C   UNL A   1      45.454  34.190  31.948  1.00  0.00     0.040 A 
ATOM     60  F   UNL A   1      45.161  31.923  32.475  1.00  0.00    -0.206 F 
ATOM     61  C   UNL A   1      45.518  35.216  31.006  1.00  0.00     0.006 A 
ENDBRANCH  37  54
ENDBRANCH  11  12
ENDBRANCH   4   6
ENDBRANCH   1   2
BRANCH   1  62
ATOM     62  C   UNL A   1      37.791  19.542  24.961  1.00  0.00     0.042 C 
BRANCH  62  63
ATOM     63  C   UNL A   1      36.729  20.571  24.599  1.00  0.00     0.118 C 
BRANCH  63  64
ATOM     64  N   UNL A   1      35.690  20.658  25.609  1.00  0.00    -0.351 N 
ATOM     65  C   UNL A   1      34.408  21.124  25.516  1.00  0.00     0.279 C 
ATOM     66  H   UNL A   1      35.949  20.330  26.501  1.00  0.00     0.163 HD
ATOM     67  O   UNL A   1      33.704  21.039  26.522  1.00  0.00    -0.268 OA
BRANCH  65  68
ATOM     68  C   UNL A   1      33.928  21.729  24.182  1.00  0.00     0.283 C 
ATOM     69  C   UNL A   1      32.423  21.953  24.153  1.00  0.00     0.151 C 
ATOM     70  N   UNL A   1      34.645  22.993  23.884  1.00  0.00    -0.322 N 
ATOM     71  S   UNL A   1      32.200  23.601  24.827  1.00  0.00    -0.089 SA
ATOM     72  C   UNL A   1      33.850  24.169  24.289  1.00  0.00     0.143 C 
ATOM     73  H   UNL A   1      34.826  23.045  22.881  1.00  0.00     0.348 HD
ATOM     74  H   UNL A   1      35.519  22.999  24.409  1.00  0.00     0.348 HD
ATOM     75  C   UNL A   1      34.552  24.953  25.417  1.00  0.00     0.081 C 
ATOM     76  C   UNL A   1      33.701  25.074  23.046  1.00  0.00     0.081 C 
ATOM     77  C   UNL A   1      33.885  26.299  25.730  1.00  0.00     0.007 C 
ATOM     78  C   UNL A   1      33.022  26.414  23.347  1.00  0.00     0.007 C 
ATOM     79  C   UNL A   1      33.720  27.159  24.480  1.00  0.00     0.001 C 
ENDBRANCH  65  68
ENDBRANCH  63  64
ENDBRANCH  62  63
ENDBRANCH   1  62
TORSDOF 10
ENDMDL
MODEL 3
REMARK VINA RESULT:     -11.1      4.845      9.537
REMARK SMILES O=C(NCCCNC(=O)[C@H]1CSC2(CCCCC2)[NH2+]1)c1ccc(-c2c3nc(c(-c4c(F)cccc4F)c4ccc([nH]4)c(-c4c(F)cccc4F)c4nc(c(-c5c(F)cccc5F)c5ccc2[nH]5)C=C4)C=C3)cc1
REMARK SMILES IDX 4 1 3 2 1 3 2 4 20 6 21 7 73 8 22 9 72 10 23 11 24 12 25 13
REMARK SMILES IDX 66 14 26 15 71 16 65 17 67 18 27 19 70 20 64 21 63 22 28 24
REMARK SMILES IDX 54 25 37 26 53 27 38 28 41 29 52 30 68 31 39 32 40 33 51 35
REMARK SMILES IDX 69 36 42 37 29 38 30 39 35 40 31 41 32 42 34 43 36 44 33 45
REMARK SMILES IDX 55 46 56 47 61 48 57 49 58 50 60 51 62 52 59 53 43 54 44 55
REMARK SMILES IDX 49 56 45 57 46 58 48 59 50 60 47 61 5 62 6 63 7 64 8 65 9 67
REMARK SMILES IDX 10 68 11 69 19 70 12 71 13 72 14 75 18 76 15 77 17 78 16 79
REMARK H PARENT 3 5 67 23 41 34 7 66 19 73 19 74
REMARK Flexibility Score: inf
ROOT
ATOM      1  C   UNL A   1      32.634  32.663  26.874  1.00  0.00     0.118 C 
ENDROOT
BRANCH   1   2
ATOM      2  N   UNL A   1      32.458  33.984  27.459  1.00  0.00    -0.352 N 
ATOM      3  O   UNL A   1      32.703  35.649  28.956  1.00  0.00    -0.269 OA
ATOM      4  C   UNL A   1      33.108  34.576  28.515  1.00  0.00     0.251 C 
ATOM      5  H   UNL A   1      31.767  34.540  27.031  1.00  0.00     0.163 HD
BRANCH   4   6
ATOM      6  C   UNL A   1      34.277  33.919  29.139  1.00  0.00     0.039 A 
ATOM      7  C   UNL A   1      35.577  34.307  28.814  1.00  0.00     0.014 A 
ATOM      8  C   UNL A   1      34.065  32.912  30.087  1.00  0.00     0.014 A 
ATOM      9  C   UNL A   1      36.659  33.594  29.318  1.00  0.00     0.010 A 
ATOM     10  C   UNL A   1      35.156  32.256  30.663  1.00  0.00     0.010 A 
ATOM     11  C   UNL A   1      36.462  32.571  30.259  1.00  0.00    -0.014 A 
BRANCH  11  12
ATOM     12  C   UNL A   1      37.644  31.893  30.850  1.00  0.00     0.031 A 
ATOM     13  C   UNL A   1      38.113  32.211  32.241  1.00  0.00     0.074 A 
ATOM     14  C   UNL A   1      38.281  30.957  30.121  1.00  0.00     0.049 A 
ATOM     15  N   UNL A   1      39.111  31.692  32.912  1.00  0.00    -0.248 NA
ATOM     16  C   UNL A   1      37.375  33.251  32.976  1.00  0.00     0.031 C 
ATOM     17  C   UNL A   1      37.930  30.576  28.750  1.00  0.00     0.029 A 
ATOM     18  N   UNL A   1      39.342  30.145  30.428  1.00  0.00    -0.354 N 
ATOM     19  C   UNL A   1      39.135  32.352  34.134  1.00  0.00     0.074 A 
ATOM     20  C   UNL A   1      38.065  33.326  34.106  1.00  0.00     0.031 C 
ATOM     21  C   UNL A   1      38.730  29.578  28.352  1.00  0.00     0.029 A 
ATOM     22  C   UNL A   1      39.686  29.287  29.414  1.00  0.00     0.049 A 
ATOM     23  H   UNL A   1      39.811  30.176  31.293  1.00  0.00     0.167 HD
ATOM     24  C   UNL A   1      39.969  32.156  35.183  1.00  0.00     0.037 A 
ATOM     25  C   UNL A   1      40.673  28.375  29.336  1.00  0.00     0.037 A 
ATOM     26  C   UNL A   1      41.021  31.172  35.213  1.00  0.00     0.049 A 
ATOM     27  C   UNL A   1      41.585  28.185  30.511  1.00  0.00     0.074 A 
ATOM     28  C   UNL A   1      41.889  30.868  36.248  1.00  0.00     0.029 A 
ATOM     29  N   UNL A   1      41.352  30.335  34.158  1.00  0.00    -0.354 N 
ATOM     30  N   UNL A   1      41.568  28.789  31.674  1.00  0.00    -0.248 NA
ATOM     31  C   UNL A   1      42.654  27.188  30.362  1.00  0.00     0.031 C 
ATOM     32  C   UNL A   1      42.772  29.877  35.805  1.00  0.00     0.029 A 
ATOM     33  C   UNL A   1      42.426  29.531  34.510  1.00  0.00     0.049 A 
ATOM     34  H   UNL A   1      40.893  30.314  33.287  1.00  0.00     0.167 HD
ATOM     35  C   UNL A   1      42.616  28.240  32.400  1.00  0.00     0.074 A 
ATOM     36  C   UNL A   1      43.232  27.237  31.555  1.00  0.00     0.031 C 
ATOM     37  C   UNL A   1      43.030  28.542  33.654  1.00  0.00     0.037 A 
BRANCH  24  38
ATOM     38  C   UNL A   1      39.791  33.032  36.390  1.00  0.00     0.057 A 
ATOM     39  C   UNL A   1      40.508  34.222  36.555  1.00  0.00     0.134 A 
ATOM     40  C   UNL A   1      38.845  32.706  37.372  1.00  0.00     0.134 A 
ATOM     41  F   UNL A   1      41.436  34.587  35.657  1.00  0.00    -0.206 F 
ATOM     42  C   UNL A   1      40.304  35.050  37.661  1.00  0.00     0.040 A 
ATOM     43  C   UNL A   1      38.616  33.536  38.471  1.00  0.00     0.040 A 
ATOM     44  F   UNL A   1      38.119  31.582  37.271  1.00  0.00    -0.206 F 
ATOM     45  C   UNL A   1      39.349  34.711  38.619  1.00  0.00     0.006 A 
ENDBRANCH  24  38
BRANCH  25  46
ATOM     46  C   UNL A   1      40.842  27.582  28.095  1.00  0.00     0.057 A 
ATOM     47  C   UNL A   1      41.649  28.039  27.048  1.00  0.00     0.134 A 
ATOM     48  C   UNL A   1      40.220  26.338  27.938  1.00  0.00     0.134 A 
ATOM     49  F   UNL A   1      42.258  29.231  27.134  1.00  0.00    -0.206 F 
ATOM     50  C   UNL A   1      41.823  27.291  25.882  1.00  0.00     0.040 A 
ATOM     51  C   UNL A   1      40.406  25.567  26.790  1.00  0.00     0.040 A 
ATOM     52  F   UNL A   1      39.442  25.842  28.911  1.00  0.00    -0.206 F 
ATOM     53  C   UNL A   1      41.206  26.047  25.755  1.00  0.00     0.006 A 
ENDBRANCH  25  46
BRANCH  37  54
ATOM     54  C   UNL A   1      44.195  27.765  34.189  1.00  0.00     0.057 A 
ATOM     55  C   UNL A   1      45.512  28.221  34.050  1.00  0.00     0.134 A 
ATOM     56  C   UNL A   1      43.996  26.557  34.870  1.00  0.00     0.134 A 
ATOM     57  F   UNL A   1      45.770  29.364  33.395  1.00  0.00    -0.206 F 
ATOM     58  C   UNL A   1      46.592  27.492  34.550  1.00  0.00     0.040 A 
ATOM     59  C   UNL A   1      45.066  25.832  35.395  1.00  0.00     0.040 A 
ATOM     60  F   UNL A   1      42.759  26.068  35.042  1.00  0.00    -0.206 F 
ATOM     61  C   UNL A   1      46.369  26.296  35.229  1.00  0.00     0.006 A 
ENDBRANCH  37  54
ENDBRANCH  11  12
ENDBRANCH   4   6
ENDBRANCH   1   2
BRANCH   1  62
ATOM     62  C   UNL A   1      31.316  31.993  26.502  1.00  0.00     0.042 C 
BRANCH  62  63
ATOM     63  C   UNL A   1      31.403  30.480  26.351  1.00  0.00     0.118 C 
BRANCH  63  64
ATOM     64  N   UNL A   1      31.969  30.094  25.070  1.00  0.00    -0.351 N 
ATOM     65  C   UNL A   1      31.837  28.930  24.365  1.00  0.00     0.279 C 
ATOM     66  H   UNL A   1      32.535  30.777  24.643  1.00  0.00     0.163 HD
ATOM     67  O   UNL A   1      32.385  28.874  23.265  1.00  0.00    -0.268 OA
BRANCH  65  68
ATOM     68  C   UNL A   1      31.031  27.769  24.981  1.00  0.00     0.283 C 
ATOM     69  C   UNL A   1      30.596  26.747  23.942  1.00  0.00     0.151 C 
ATOM     70  N   UNL A   1      31.798  27.109  26.066  1.00  0.00    -0.322 N 
ATOM     71  S   UNL A   1      31.957  25.581  23.858  1.00  0.00    -0.089 SA
ATOM     72  C   UNL A   1      32.484  25.896  25.578  1.00  0.00     0.143 C 
ATOM     73  H   UNL A   1      31.157  26.847  26.816  1.00  0.00     0.348 HD
ATOM     74  H   UNL A   1      32.503  27.762  26.407  1.00  0.00     0.348 HD
ATOM     75  C   UNL A   1      34.017  26.054  25.658  1.00  0.00     0.081 C 
ATOM     76  C   UNL A   1      32.037  24.722  26.474  1.00  0.00     0.081 C 
ATOM     77  C   UNL A   1      34.778  24.755  25.370  1.00  0.00     0.007 C 
ATOM     78  C   UNL A   1      32.783  23.415  26.183  1.00  0.00     0.007 C 
ATOM     79  C   UNL A   1      34.295  23.602  26.246  1.00  0.00     0.001 C 
ENDBRANCH  65  68
ENDBRANCH  63  64
ENDBRANCH  62  63
ENDBRANCH   1  62
TORSDOF 10
ENDMDL
