MODEL 1
REMARK VINA RESULT:     -12.3      0.000      0.000
REMARK SMILES COc1ccc(C(=O)Nc2cc(C(=O)NCCCNC(=O)c3ccc(-c4c5nc(c(-c6c(F)cccc6F)c6ccc([nH]6)c(-c6c(F)cccc6F)c6nc(c(-c7c(F)cccc7F)c7ccc4[nH]7)C=C6)C=C5)cc3)c(Cl)cc2Cl)cc1Cl
REMARK SMILES IDX 16 1 15 2 13 3 14 4 12 6 10 7 11 8 79 9 78 10 80 11 76 12
REMARK SMILES IDX 77 13 9 14 7 15 8 16 6 18 3 19 4 20 82 21 5 22 81 23 83 24
REMARK SMILES IDX 2 25 1 26 17 27 18 28 19 29 20 30 21 32 22 33 23 34 75 35
REMARK SMILES IDX 24 36 74 37 25 38 26 39 27 40 68 41 28 42 73 43 67 44 69 45
REMARK SMILES IDX 29 46 72 47 66 48 65 49 30 51 56 52 39 53 55 54 40 55 43 56
REMARK SMILES IDX 54 57 70 58 41 59 42 60 53 62 71 63 44 64 31 65 32 66 37 67
REMARK SMILES IDX 33 68 34 69 36 70 38 71 35 72 57 73 58 74 63 75 59 76 60 77
REMARK SMILES IDX 62 78 64 79 61 80 45 81 46 82 51 83 47 84 48 85 50 86 52 87
REMARK SMILES IDX 49 88
REMARK H PARENT 15 5 9 17 19 31 69 50 43 61
REMARK Flexibility Score: inf
ROOT
ATOM      1  C   UNL A   1      31.925  28.486  27.426  1.00  0.00     0.118 C 
ENDROOT
BRANCH   1   2
ATOM      2  N   UNL A   1      31.038  27.362  27.249  1.00  0.00    -0.352 N 
ATOM      3  C   UNL A   1      30.695  26.538  26.223  1.00  0.00     0.252 C 
ATOM      4  O   UNL A   1      29.864  25.678  26.546  1.00  0.00    -0.269 OA
ATOM      5  H   UNL A   1      30.561  27.135  28.080  1.00  0.00     0.163 HD
BRANCH   3   6
ATOM      6  C   UNL A   1      31.210  26.512  24.811  1.00  0.00     0.060 A 
ATOM      7  C   UNL A   1      31.780  24.876  23.047  1.00  0.00     0.061 A 
ATOM      8  C   UNL A   1      31.491  25.188  24.379  1.00  0.00     0.043 A 
ATOM      9  C   UNL A   1      32.092  25.908  22.169  1.00  0.00     0.066 A 
ATOM     10  C   UNL A   1      31.853  27.217  22.559  1.00  0.00     0.044 A 
ATOM     11  Cl  UNL A   1      32.566  25.602  20.538  1.00  0.00    -0.082 Cl
ATOM     12  C   UNL A   1      31.322  27.511  23.832  1.00  0.00     0.055 A 
ATOM     13  Cl  UNL A   1      30.668  29.100  23.899  1.00  0.00    -0.083 Cl
BRANCH   7  14
ATOM     14  N   UNL A   1      31.643  23.569  22.551  1.00  0.00    -0.321 N 
ATOM     15  C   UNL A   1      32.473  22.467  22.659  1.00  0.00     0.255 C 
ATOM     16  O   UNL A   1      32.185  21.461  22.008  1.00  0.00    -0.269 OA
ATOM     17  H   UNL A   1      30.817  23.411  22.039  1.00  0.00     0.170 HD
BRANCH  15  18
ATOM     18  C   UNL A   1      33.642  22.392  23.595  1.00  0.00     0.041 A 
ATOM     19  C   UNL A   1      35.916  22.394  25.303  1.00  0.00     0.137 A 
ATOM     20  C   UNL A   1      36.006  22.798  23.963  1.00  0.00     0.049 A 
ATOM     21  C   UNL A   1      34.678  21.941  25.769  1.00  0.00     0.083 A 
ATOM     22  C   UNL A   1      34.887  22.810  23.122  1.00  0.00     0.018 A 
ATOM     23  C   UNL A   1      33.579  21.872  24.892  1.00  0.00     0.038 A 
ATOM     24  Cl  UNL A   1      34.325  21.515  27.410  1.00  0.00    -0.080 Cl
BRANCH  19  25
ATOM     25  O   UNL A   1      37.104  22.543  25.961  1.00  0.00    -0.495 OA
ATOM     26  C   UNL A   1      37.685  23.831  26.080  1.00  0.00     0.278 C 
ENDBRANCH  19  25
ENDBRANCH  15  18
ENDBRANCH   7  14
ENDBRANCH   3   6
ENDBRANCH   1   2
BRANCH   1  27
ATOM     27  C   UNL A   1      33.353  28.105  27.030  1.00  0.00     0.042 C 
BRANCH  27  28
ATOM     28  C   UNL A   1      34.022  29.146  26.143  1.00  0.00     0.118 C 
BRANCH  28  29
ATOM     29  N   UNL A   1      33.904  30.484  26.712  1.00  0.00    -0.352 N 
ATOM     30  C   UNL A   1      34.584  31.052  27.759  1.00  0.00     0.251 C 
ATOM     31  H   UNL A   1      33.238  31.066  26.281  1.00  0.00     0.163 HD
ATOM     32  O   UNL A   1      34.160  32.083  28.280  1.00  0.00    -0.269 OA
BRANCH  30  33
ATOM     33  C   UNL A   1      35.823  30.427  28.255  1.00  0.00     0.039 A 
ATOM     34  C   UNL A   1      37.015  30.601  27.546  1.00  0.00     0.014 A 
ATOM     35  C   UNL A   1      35.797  29.649  29.413  1.00  0.00     0.014 A 
ATOM     36  C   UNL A   1      38.196  30.037  28.032  1.00  0.00     0.010 A 
ATOM     37  C   UNL A   1      36.984  29.165  29.943  1.00  0.00     0.010 A 
ATOM     38  C   UNL A   1      38.192  29.340  29.251  1.00  0.00    -0.014 A 
BRANCH  38  39
ATOM     39  C   UNL A   1      39.420  28.738  29.822  1.00  0.00     0.031 A 
ATOM     40  C   UNL A   1      40.051  29.373  31.032  1.00  0.00     0.074 A 
ATOM     41  C   UNL A   1      40.019  27.707  29.198  1.00  0.00     0.049 A 
ATOM     42  N   UNL A   1      41.214  29.136  31.580  1.00  0.00    -0.248 NA
ATOM     43  C   UNL A   1      39.286  30.447  31.686  1.00  0.00     0.031 C 
ATOM     44  C   UNL A   1      39.516  27.031  28.002  1.00  0.00     0.029 A 
ATOM     45  N   UNL A   1      41.201  27.067  29.470  1.00  0.00    -0.354 N 
ATOM     46  C   UNL A   1      41.333  30.053  32.616  1.00  0.00     0.074 A 
ATOM     47  C   UNL A   1      40.150  30.883  32.589  1.00  0.00     0.031 C 
ATOM     48  C   UNL A   1      40.376  26.060  27.652  1.00  0.00     0.029 A 
ATOM     49  C   UNL A   1      41.515  26.082  28.564  1.00  0.00     0.049 A 
ATOM     50  H   UNL A   1      41.770  27.290  30.242  1.00  0.00     0.167 HD
ATOM     51  C   UNL A   1      42.332  30.178  33.521  1.00  0.00     0.037 A 
ATOM     52  C   UNL A   1      42.609  25.303  28.471  1.00  0.00     0.037 A 
ATOM     53  C   UNL A   1      43.487  29.323  33.560  1.00  0.00     0.049 A 
ATOM     54  C   UNL A   1      43.712  25.468  29.482  1.00  0.00     0.074 A 
ATOM     55  C   UNL A   1      44.528  29.321  34.471  1.00  0.00     0.029 A 
ATOM     56  N   UNL A   1      43.749  28.312  32.646  1.00  0.00    -0.354 N 
ATOM     57  N   UNL A   1      43.792  26.305  30.489  1.00  0.00    -0.248 NA
ATOM     58  C   UNL A   1      44.876  24.582  29.347  1.00  0.00     0.031 C 
ATOM     59  C   UNL A   1      45.446  28.344  34.077  1.00  0.00     0.029 A 
ATOM     60  C   UNL A   1      44.947  27.694  32.960  1.00  0.00     0.049 A 
ATOM     61  H   UNL A   1      43.171  28.072  31.887  1.00  0.00     0.167 HD
ATOM     62  C   UNL A   1      44.987  26.014  31.134  1.00  0.00     0.074 A 
ATOM     63  C   UNL A   1      45.602  24.927  30.401  1.00  0.00     0.031 C 
ATOM     64  C   UNL A   1      45.524  26.590  32.236  1.00  0.00     0.037 A 
BRANCH  51  65
ATOM     65  C   UNL A   1      42.220  31.279  34.537  1.00  0.00     0.057 A 
ATOM     66  C   UNL A   1      42.759  32.552  34.315  1.00  0.00     0.134 A 
ATOM     67  C   UNL A   1      41.534  31.069  35.740  1.00  0.00     0.134 A 
ATOM     68  F   UNL A   1      43.438  32.818  33.189  1.00  0.00    -0.206 F 
ATOM     69  C   UNL A   1      42.648  33.569  35.265  1.00  0.00     0.040 A 
ATOM     70  C   UNL A   1      41.388  32.087  36.685  1.00  0.00     0.040 A 
ATOM     71  F   UNL A   1      40.988  29.876  36.017  1.00  0.00    -0.206 F 
ATOM     72  C   UNL A   1      41.954  33.339  36.452  1.00  0.00     0.006 A 
ENDBRANCH  51  65
BRANCH  52  73
ATOM     73  C   UNL A   1      42.711  24.283  27.396  1.00  0.00     0.057 A 
ATOM     74  C   UNL A   1      43.230  24.614  26.139  1.00  0.00     0.134 A 
ATOM     75  C   UNL A   1      42.284  22.964  27.588  1.00  0.00     0.134 A 
ATOM     76  F   UNL A   1      43.642  25.866  25.888  1.00  0.00    -0.206 F 
ATOM     77  C   UNL A   1      43.299  23.679  25.105  1.00  0.00     0.040 A 
ATOM     78  C   UNL A   1      42.372  22.011  26.572  1.00  0.00     0.040 A 
ATOM     79  F   UNL A   1      41.786  22.578  28.773  1.00  0.00    -0.206 F 
ATOM     80  C   UNL A   1      42.872  22.371  25.322  1.00  0.00     0.006 A 
ENDBRANCH  52  73
BRANCH  64  81
ATOM     81  C   UNL A   1      46.802  26.015  32.771  1.00  0.00     0.057 A 
ATOM     82  C   UNL A   1      46.818  24.978  33.711  1.00  0.00     0.134 A 
ATOM     83  C   UNL A   1      48.034  26.457  32.271  1.00  0.00     0.134 A 
ATOM     84  F   UNL A   1      45.673  24.518  34.238  1.00  0.00    -0.206 F 
ATOM     85  C   UNL A   1      48.017  24.407  34.142  1.00  0.00     0.040 A 
ATOM     86  C   UNL A   1      49.236  25.875  32.672  1.00  0.00     0.040 A 
ATOM     87  F   UNL A   1      48.086  27.441  31.360  1.00  0.00    -0.206 F 
ATOM     88  C   UNL A   1      49.229  24.848  33.614  1.00  0.00     0.006 A 
ENDBRANCH  64  81
ENDBRANCH  38  39
ENDBRANCH  30  33
ENDBRANCH  28  29
ENDBRANCH  27  28
ENDBRANCH   1  27
TORSDOF 13
ENDMDL
MODEL 2
REMARK VINA RESULT:     -12.2      3.671      7.649
REMARK SMILES COc1ccc(C(=O)Nc2cc(C(=O)NCCCNC(=O)c3ccc(-c4c5nc(c(-c6c(F)cccc6F)c6ccc([nH]6)c(-c6c(F)cccc6F)c6nc(c(-c7c(F)cccc7F)c7ccc4[nH]7)C=C6)C=C5)cc3)c(Cl)cc2Cl)cc1Cl
REMARK SMILES IDX 16 1 15 2 13 3 14 4 12 6 10 7 11 8 79 9 78 10 80 11 76 12
REMARK SMILES IDX 77 13 9 14 7 15 8 16 6 18 3 19 4 20 82 21 5 22 81 23 83 24
REMARK SMILES IDX 2 25 1 26 17 27 18 28 19 29 20 30 21 32 22 33 23 34 75 35
REMARK SMILES IDX 24 36 74 37 25 38 26 39 27 40 68 41 28 42 73 43 67 44 69 45
REMARK SMILES IDX 29 46 72 47 66 48 65 49 30 51 56 52 39 53 55 54 40 55 43 56
REMARK SMILES IDX 54 57 70 58 41 59 42 60 53 62 71 63 44 64 31 65 32 66 37 67
REMARK SMILES IDX 33 68 34 69 36 70 38 71 35 72 57 73 58 74 63 75 59 76 60 77
REMARK SMILES IDX 62 78 64 79 61 80 45 81 46 82 51 83 47 84 48 85 50 86 52 87
REMARK SMILES IDX 49 88
REMARK H PARENT 15 5 9 17 19 31 69 50 43 61
REMARK Flexibility Score: inf
ROOT
ATOM      1  C   UNL A   1      36.392  20.715  25.237  1.00  0.00     0.118 C 
ENDROOT
BRANCH   1   2
ATOM      2  N   UNL A   1      36.911  22.006  25.619  1.00  0.00    -0.352 N 
ATOM      3  C   UNL A   1      36.381  23.209  25.968  1.00  0.00     0.252 C 
ATOM      4  O   UNL A   1      37.240  24.062  26.228  1.00  0.00    -0.269 OA
ATOM      5  H   UNL A   1      37.896  22.019  25.629  1.00  0.00     0.163 HD
BRANCH   3   6
ATOM      6  C   UNL A   1      34.939  23.606  26.117  1.00  0.00     0.060 A 
ATOM      7  C   UNL A   1      33.298  25.146  25.094  1.00  0.00     0.061 A 
ATOM      8  C   UNL A   1      34.613  24.718  25.296  1.00  0.00     0.043 A 
ATOM      9  C   UNL A   1      32.300  24.669  25.938  1.00  0.00     0.066 A 
ATOM     10  C   UNL A   1      32.583  23.598  26.772  1.00  0.00     0.044 A 
ATOM     11  Cl  UNL A   1      30.672  25.228  25.828  1.00  0.00    -0.082 Cl
ATOM     12  C   UNL A   1      33.863  23.005  26.788  1.00  0.00     0.055 A 
ATOM     13  Cl  UNL A   1      33.833  21.441  27.499  1.00  0.00    -0.083 Cl
BRANCH   7  14
ATOM     14  N   UNL A   1      32.943  25.943  23.993  1.00  0.00    -0.321 N 
ATOM     15  C   UNL A   1      32.626  27.288  23.912  1.00  0.00     0.255 C 
ATOM     16  O   UNL A   1      32.212  27.719  22.835  1.00  0.00    -0.269 OA
ATOM     17  H   UNL A   1      32.915  25.464  23.134  1.00  0.00     0.170 HD
BRANCH  15  18
ATOM     18  C   UNL A   1      32.852  28.266  25.026  1.00  0.00     0.041 A 
ATOM     19  C   UNL A   1      33.444  30.109  27.110  1.00  0.00     0.137 A 
ATOM     20  C   UNL A   1      34.249  28.984  26.875  1.00  0.00     0.049 A 
ATOM     21  C   UNL A   1      32.306  30.277  26.316  1.00  0.00     0.083 A 
ATOM     22  C   UNL A   1      33.968  28.081  25.844  1.00  0.00     0.018 A 
ATOM     23  C   UNL A   1      31.982  29.316  25.339  1.00  0.00     0.038 A 
ATOM     24  Cl  UNL A   1      31.253  31.652  26.359  1.00  0.00    -0.080 Cl
BRANCH  19  25
ATOM     25  O   UNL A   1      33.948  30.898  28.104  1.00  0.00    -0.495 OA
ATOM     26  C   UNL A   1      34.601  32.114  27.775  1.00  0.00     0.278 C 
ENDBRANCH  19  25
ENDBRANCH  15  18
ENDBRANCH   7  14
ENDBRANCH   3   6
ENDBRANCH   1   2
BRANCH   1  27
ATOM     27  C   UNL A   1      37.538  19.734  24.982  1.00  0.00     0.042 C 
BRANCH  27  28
ATOM     28  C   UNL A   1      38.899  20.299  25.362  1.00  0.00     0.118 C 
BRANCH  28  29
ATOM     29  N   UNL A   1      39.841  19.237  25.700  1.00  0.00    -0.352 N 
ATOM     30  C   UNL A   1      41.165  19.318  26.042  1.00  0.00     0.251 C 
ATOM     31  H   UNL A   1      39.468  18.326  25.681  1.00  0.00     0.163 HD
ATOM     32  O   UNL A   1      41.869  18.309  26.017  1.00  0.00    -0.269 OA
BRANCH  30  33
ATOM     33  C   UNL A   1      41.743  20.614  26.441  1.00  0.00     0.039 A 
ATOM     34  C   UNL A   1      42.132  21.528  25.458  1.00  0.00     0.014 A 
ATOM     35  C   UNL A   1      41.920  20.913  27.793  1.00  0.00     0.014 A 
ATOM     36  C   UNL A   1      42.649  22.768  25.835  1.00  0.00     0.010 A 
ATOM     37  C   UNL A   1      42.349  22.177  28.167  1.00  0.00     0.010 A 
ATOM     38  C   UNL A   1      42.733  23.112  27.194  1.00  0.00    -0.014 A 
BRANCH  38  39
ATOM     39  C   UNL A   1      43.256  24.422  27.648  1.00  0.00     0.031 A 
ATOM     40  C   UNL A   1      42.286  25.482  28.094  1.00  0.00     0.074 A 
ATOM     41  C   UNL A   1      44.571  24.692  27.556  1.00  0.00     0.049 A 
ATOM     42  N   UNL A   1      42.499  26.747  28.348  1.00  0.00    -0.248 NA
ATOM     43  C   UNL A   1      40.879  25.071  28.232  1.00  0.00     0.031 C 
ATOM     44  C   UNL A   1      45.602  23.753  27.110  1.00  0.00     0.029 A 
ATOM     45  N   UNL A   1      45.263  25.850  27.807  1.00  0.00    -0.354 N 
ATOM     46  C   UNL A   1      41.252  27.285  28.639  1.00  0.00     0.074 A 
ATOM     47  C   UNL A   1      40.283  26.226  28.480  1.00  0.00     0.031 C 
ATOM     48  C   UNL A   1      46.796  24.368  27.132  1.00  0.00     0.029 A 
ATOM     49  C   UNL A   1      46.607  25.757  27.541  1.00  0.00     0.049 A 
ATOM     50  H   UNL A   1      44.835  26.670  28.146  1.00  0.00     0.167 HD
ATOM     51  C   UNL A   1      40.949  28.547  29.023  1.00  0.00     0.037 A 
ATOM     52  C   UNL A   1      47.573  26.694  27.601  1.00  0.00     0.037 A 
ATOM     53  C   UNL A   1      41.927  29.583  29.212  1.00  0.00     0.049 A 
ATOM     54  C   UNL A   1      47.208  28.092  28.019  1.00  0.00     0.074 A 
ATOM     55  C   UNL A   1      41.736  30.878  29.659  1.00  0.00     0.029 A 
ATOM     56  N   UNL A   1      43.285  29.437  28.968  1.00  0.00    -0.354 N 
ATOM     57  N   UNL A   1      46.033  28.579  28.341  1.00  0.00    -0.248 NA
ATOM     58  C   UNL A   1      48.301  29.073  28.085  1.00  0.00     0.031 C 
ATOM     59  C   UNL A   1      42.971  31.531  29.635  1.00  0.00     0.029 A 
ATOM     60  C   UNL A   1      43.941  30.626  29.236  1.00  0.00     0.049 A 
ATOM     61  H   UNL A   1      43.718  28.612  28.651  1.00  0.00     0.167 HD
ATOM     62  C   UNL A   1      46.252  29.905  28.693  1.00  0.00     0.074 A 
ATOM     63  C   UNL A   1      47.672  30.147  28.541  1.00  0.00     0.031 C 
ATOM     64  C   UNL A   1      45.361  30.835  29.110  1.00  0.00     0.037 A 
BRANCH  51  65
ATOM     65  C   UNL A   1      39.502  28.875  29.258  1.00  0.00     0.057 A 
ATOM     66  C   UNL A   1      38.675  29.364  28.239  1.00  0.00     0.134 A 
ATOM     67  C   UNL A   1      38.921  28.668  30.516  1.00  0.00     0.134 A 
ATOM     68  F   UNL A   1      39.170  29.597  27.014  1.00  0.00    -0.206 F 
ATOM     69  C   UNL A   1      37.331  29.664  28.468  1.00  0.00     0.040 A 
ATOM     70  C   UNL A   1      37.570  28.933  30.750  1.00  0.00     0.040 A 
ATOM     71  F   UNL A   1      39.652  28.196  31.537  1.00  0.00    -0.206 F 
ATOM     72  C   UNL A   1      36.774  29.442  29.726  1.00  0.00     0.006 A 
ENDBRANCH  51  65
BRANCH  52  73
ATOM     73  C   UNL A   1      48.979  26.340  27.276  1.00  0.00     0.057 A 
ATOM     74  C   UNL A   1      49.451  26.407  25.961  1.00  0.00     0.134 A 
ATOM     75  C   UNL A   1      49.879  25.917  28.262  1.00  0.00     0.134 A 
ATOM     76  F   UNL A   1      48.633  26.790  24.969  1.00  0.00    -0.206 F 
ATOM     77  C   UNL A   1      50.757  26.042  25.631  1.00  0.00     0.040 A 
ATOM     78  C   UNL A   1      51.196  25.575  27.952  1.00  0.00     0.040 A 
ATOM     79  F   UNL A   1      49.493  25.840  29.545  1.00  0.00    -0.206 F 
ATOM     80  C   UNL A   1      51.636  25.628  26.630  1.00  0.00     0.006 A 
ENDBRANCH  52  73
BRANCH  64  81
ATOM     81  C   UNL A   1      45.891  32.181  29.508  1.00  0.00     0.057 A 
ATOM     82  C   UNL A   1      45.954  33.254  28.611  1.00  0.00     0.134 A 
ATOM     83  C   UNL A   1      46.268  32.422  30.836  1.00  0.00     0.134 A 
ATOM     84  F   UNL A   1      45.619  33.085  27.323  1.00  0.00    -0.206 F 
ATOM     85  C   UNL A   1      46.382  34.518  29.020  1.00  0.00     0.040 A 
ATOM     86  C   UNL A   1      46.670  33.688  31.262  1.00  0.00     0.040 A 
ATOM     87  F   UNL A   1      46.221  31.438  31.748  1.00  0.00    -0.206 F 
ATOM     88  C   UNL A   1      46.730  34.740  30.351  1.00  0.00     0.006 A 
ENDBRANCH  64  81
ENDBRANCH  38  39
ENDBRANCH  30  33
ENDBRANCH  28  29
ENDBRANCH  27  28
ENDBRANCH   1  27
TORSDOF 13
ENDMDL
MODEL 3
REMARK VINA RESULT:     -12.1      2.704      7.252
REMARK SMILES COc1ccc(C(=O)Nc2cc(C(=O)NCCCNC(=O)c3ccc(-c4c5nc(c(-c6c(F)cccc6F)c6ccc([nH]6)c(-c6c(F)cccc6F)c6nc(c(-c7c(F)cccc7F)c7ccc4[nH]7)C=C6)C=C5)cc3)c(Cl)cc2Cl)cc1Cl
REMARK SMILES IDX 16 1 15 2 13 3 14 4 12 6 10 7 11 8 79 9 78 10 80 11 76 12
REMARK SMILES IDX 77 13 9 14 7 15 8 16 6 18 3 19 4 20 82 21 5 22 81 23 83 24
REMARK SMILES IDX 2 25 1 26 17 27 18 28 19 29 20 30 21 32 22 33 23 34 75 35
REMARK SMILES IDX 24 36 74 37 25 38 26 39 27 40 68 41 28 42 73 43 67 44 69 45
REMARK SMILES IDX 29 46 72 47 66 48 65 49 30 51 56 52 39 53 55 54 40 55 43 56
REMARK SMILES IDX 54 57 70 58 41 59 42 60 53 62 71 63 44 64 31 65 32 66 37 67
REMARK SMILES IDX 33 68 34 69 36 70 38 71 35 72 57 73 58 74 63 75 59 76 60 77
REMARK SMILES IDX 62 78 64 79 61 80 45 81 46 82 51 83 47 84 48 85 50 86 52 87
REMARK SMILES IDX 49 88
REMARK H PARENT 15 5 9 17 19 31 69 50 43 61
REMARK Flexibility Score: inf
ROOT
ATOM      1  C   UNL A   1      31.400  30.899  25.797  1.00  0.00     0.118 C 
ENDROOT
BRANCH   1   2
ATOM      2  N   UNL A   1      32.668  30.264  26.065  1.00  0.00    -0.352 N 
ATOM      3  C   UNL A   1      33.224  29.046  25.820  1.00  0.00     0.252 C 
ATOM      4  O   UNL A   1      34.382  28.946  26.245  1.00  0.00    -0.269 OA
ATOM      5  H   UNL A   1      33.285  30.861  26.546  1.00  0.00     0.163 HD
BRANCH   3   6
ATOM      6  C   UNL A   1      32.647  27.868  25.085  1.00  0.00     0.060 A 
ATOM      7  C   UNL A   1      31.676  25.646  25.564  1.00  0.00     0.061 A 
ATOM      8  C   UNL A   1      32.399  26.776  25.958  1.00  0.00     0.043 A 
ATOM      9  C   UNL A   1      31.440  25.439  24.209  1.00  0.00     0.066 A 
ATOM     10  C   UNL A   1      31.689  26.473  23.319  1.00  0.00     0.044 A 
ATOM     11  Cl  UNL A   1      30.652  24.018  23.630  1.00  0.00    -0.082 Cl
ATOM     12  C   UNL A   1      32.194  27.713  23.767  1.00  0.00     0.055 A 
ATOM     13  Cl  UNL A   1      31.956  28.955  22.603  1.00  0.00    -0.083 Cl
BRANCH   7  14
ATOM     14  N   UNL A   1      31.082  24.787  26.504  1.00  0.00    -0.321 N 
ATOM     15  C   UNL A   1      31.385  23.485  26.861  1.00  0.00     0.255 C 
ATOM     16  O   UNL A   1      30.614  22.901  27.625  1.00  0.00    -0.269 OA
ATOM     17  H   UNL A   1      30.321  25.178  26.991  1.00  0.00     0.170 HD
BRANCH  15  18
ATOM     18  C   UNL A   1      32.644  22.780  26.452  1.00  0.00     0.041 A 
ATOM     19  C   UNL A   1      35.097  21.485  25.824  1.00  0.00     0.137 A 
ATOM     20  C   UNL A   1      35.068  22.699  26.527  1.00  0.00     0.049 A 
ATOM     21  C   UNL A   1      33.880  20.946  25.395  1.00  0.00     0.083 A 
ATOM     22  C   UNL A   1      33.862  23.333  26.848  1.00  0.00     0.018 A 
ATOM     23  C   UNL A   1      32.679  21.637  25.645  1.00  0.00     0.038 A 
ATOM     24  Cl  UNL A   1      33.686  19.407  24.626  1.00  0.00    -0.080 Cl
BRANCH  19  25
ATOM     25  O   UNL A   1      36.368  21.001  25.696  1.00  0.00    -0.495 OA
ATOM     26  C   UNL A   1      37.346  21.767  25.010  1.00  0.00     0.278 C 
ENDBRANCH  19  25
ENDBRANCH  15  18
ENDBRANCH   7  14
ENDBRANCH   3   6
ENDBRANCH   1   2
BRANCH   1  27
ATOM     27  C   UNL A   1      31.280  32.202  26.589  1.00  0.00     0.042 C 
BRANCH  27  28
ATOM     28  C   UNL A   1      32.609  32.673  27.163  1.00  0.00     0.118 C 
BRANCH  28  29
ATOM     29  N   UNL A   1      32.526  34.054  27.628  1.00  0.00    -0.352 N 
ATOM     30  C   UNL A   1      33.201  34.675  28.647  1.00  0.00     0.251 C 
ATOM     31  H   UNL A   1      31.892  34.624  27.137  1.00  0.00     0.163 HD
ATOM     32  O   UNL A   1      32.803  35.757  29.078  1.00  0.00    -0.269 OA
BRANCH  30  33
ATOM     33  C   UNL A   1      34.405  34.048  29.220  1.00  0.00     0.039 A 
ATOM     34  C   UNL A   1      35.667  34.418  28.748  1.00  0.00     0.014 A 
ATOM     35  C   UNL A   1      34.280  33.074  30.212  1.00  0.00     0.014 A 
ATOM     36  C   UNL A   1      36.810  33.849  29.313  1.00  0.00     0.010 A 
ATOM     37  C   UNL A   1      35.414  32.576  30.834  1.00  0.00     0.010 A 
ATOM     38  C   UNL A   1      36.690  32.945  30.381  1.00  0.00    -0.014 A 
BRANCH  38  39
ATOM     39  C   UNL A   1      37.871  32.326  31.030  1.00  0.00     0.031 A 
ATOM     40  C   UNL A   1      38.581  31.199  30.332  1.00  0.00     0.074 A 
ATOM     41  C   UNL A   1      38.229  32.697  32.273  1.00  0.00     0.049 A 
ATOM     42  N   UNL A   1      39.504  30.393  30.787  1.00  0.00    -0.248 NA
ATOM     43  C   UNL A   1      38.164  30.914  28.948  1.00  0.00     0.031 C 
ATOM     44  C   UNL A   1      37.596  33.757  33.059  1.00  0.00     0.029 A 
ATOM     45  N   UNL A   1      39.199  32.200  33.105  1.00  0.00    -0.354 N 
ATOM     46  C   UNL A   1      39.750  29.488  29.762  1.00  0.00     0.074 A 
ATOM     47  C   UNL A   1      38.845  29.811  28.683  1.00  0.00     0.031 C 
ATOM     48  C   UNL A   1      38.204  33.841  34.254  1.00  0.00     0.029 A 
ATOM     49  C   UNL A   1      39.231  32.806  34.338  1.00  0.00     0.049 A 
ATOM     50  H   UNL A   1      39.816  31.478  32.844  1.00  0.00     0.167 HD
ATOM     51  C   UNL A   1      40.664  28.491  29.720  1.00  0.00     0.037 A 
ATOM     52  C   UNL A   1      39.989  32.540  35.419  1.00  0.00     0.037 A 
ATOM     53  C   UNL A   1      41.583  28.203  30.786  1.00  0.00     0.049 A 
ATOM     54  C   UNL A   1      40.989  31.418  35.351  1.00  0.00     0.074 A 
ATOM     55  C   UNL A   1      42.591  27.255  30.824  1.00  0.00     0.029 A 
ATOM     56  N   UNL A   1      41.607  28.865  32.005  1.00  0.00    -0.354 N 
ATOM     57  N   UNL A   1      41.249  30.601  34.359  1.00  0.00    -0.248 NA
ATOM     58  C   UNL A   1      41.803  31.181  36.551  1.00  0.00     0.031 C 
ATOM     59  C   UNL A   1      43.190  27.310  32.085  1.00  0.00     0.029 A 
ATOM     60  C   UNL A   1      42.600  28.334  32.810  1.00  0.00     0.049 A 
ATOM     61  H   UNL A   1      41.007  29.603  32.260  1.00  0.00     0.167 HD
ATOM     62  C   UNL A   1      42.286  29.787  34.796  1.00  0.00     0.074 A 
ATOM     63  C   UNL A   1      42.605  30.206  36.145  1.00  0.00     0.031 C 
ATOM     64  C   UNL A   1      42.922  28.788  34.138  1.00  0.00     0.037 A 
BRANCH  51  65
ATOM     65  C   UNL A   1      40.709  27.638  28.483  1.00  0.00     0.057 A 
ATOM     66  C   UNL A   1      39.975  26.450  28.373  1.00  0.00     0.134 A 
ATOM     67  C   UNL A   1      41.473  28.030  27.377  1.00  0.00     0.134 A 
ATOM     68  F   UNL A   1      39.232  26.010  29.399  1.00  0.00    -0.206 F 
ATOM     69  C   UNL A   1      40.023  25.666  27.219  1.00  0.00     0.040 A 
ATOM     70  C   UNL A   1      41.504  27.272  26.205  1.00  0.00     0.040 A 
ATOM     71  F   UNL A   1      42.196  29.160  27.411  1.00  0.00    -0.206 F 
ATOM     72  C   UNL A   1      40.784  26.081  26.127  1.00  0.00     0.006 A 
ENDBRANCH  51  65
BRANCH  52  73
ATOM     73  C   UNL A   1      39.848  33.360  36.650  1.00  0.00     0.057 A 
ATOM     74  C   UNL A   1      38.914  33.020  37.636  1.00  0.00     0.134 A 
ATOM     75  C   UNL A   1      40.627  34.502  36.868  1.00  0.00     0.134 A 
ATOM     76  F   UNL A   1      38.127  31.945  37.478  1.00  0.00    -0.206 F 
ATOM     77  C   UNL A   1      38.741  33.799  38.781  1.00  0.00     0.040 A 
ATOM     78  C   UNL A   1      40.484  35.276  38.022  1.00  0.00     0.040 A 
ATOM     79  F   UNL A   1      41.548  34.878  35.968  1.00  0.00    -0.206 F 
ATOM     80  C   UNL A   1      39.532  34.930  38.979  1.00  0.00     0.006 A 
ENDBRANCH  52  73
BRANCH  64  81
ATOM     81  C   UNL A   1      44.077  28.123  34.827  1.00  0.00     0.057 A 
ATOM     82  C   UNL A   1      45.377  28.638  34.771  1.00  0.00     0.134 A 
ATOM     83  C   UNL A   1      43.860  26.993  35.627  1.00  0.00     0.134 A 
ATOM     84  F   UNL A   1      45.653  29.710  34.013  1.00  0.00    -0.206 F 
ATOM     85  C   UNL A   1      46.424  28.045  35.479  1.00  0.00     0.040 A 
ATOM     86  C   UNL A   1      44.892  26.410  36.361  1.00  0.00     0.040 A 
ATOM     87  F   UNL A   1      42.634  26.457  35.732  1.00  0.00    -0.206 F 
ATOM     88  C   UNL A   1      46.180  26.935  36.286  1.00  0.00     0.006 A 
ENDBRANCH  64  81
ENDBRANCH  38  39
ENDBRANCH  30  33
ENDBRANCH  28  29
ENDBRANCH  27  28
ENDBRANCH   1  27
TORSDOF 13
ENDMDL
