MODEL 1
REMARK VINA RESULT:     -11.4      0.000      0.000
REMARK SMILES COc1ccc(S(=O)(=O)N[C@H]2C=C[C@@H](C(=O)NCCCNC(=O)c3ccc(-c4c5nc(c(-c6c(F)cccc6F)c6ccc([nH]6)c(-c6c(F)cccc6F)c6nc(c(-c7c(F)cccc7F)c7ccc4[nH]7)C=C6)C=C5)cc3)C2)cc1
REMARK SMILES IDX 18 1 17 2 15 3 16 4 14 6 11 7 12 8 78 9 13 10 10 11 7 13
REMARK SMILES IDX 8 14 9 15 6 16 3 17 4 18 80 19 5 20 79 21 2 22 1 23 19 24
REMARK SMILES IDX 20 25 21 26 22 27 23 29 24 30 25 31 77 32 26 33 76 34 27 35
REMARK SMILES IDX 28 36 29 37 70 38 30 39 75 40 69 41 71 42 31 43 74 44 68 45
REMARK SMILES IDX 67 46 32 48 58 49 41 50 57 51 42 52 45 53 56 54 72 55 43 56
REMARK SMILES IDX 44 57 55 59 73 60 46 61 33 62 34 63 39 64 35 65 36 66 38 67
REMARK SMILES IDX 40 68 37 69 59 70 60 71 65 72 61 73 62 74 64 75 66 76 63 77
REMARK SMILES IDX 47 78 48 79 53 80 49 81 50 82 52 83 54 84 51 85
REMARK H PARENT 17 5 10 12 21 28 71 47 45 58
REMARK Flexibility Score: inf
ROOT
ATOM      1  C   UNL A   1      32.278  29.077  27.247  1.00  0.00     0.117 C 
ENDROOT
BRANCH   1   2
ATOM      2  N   UNL A   1      32.040  27.641  27.263  1.00  0.00    -0.356 N 
ATOM      3  C   UNL A   1      31.514  26.745  26.386  1.00  0.00     0.226 C 
ATOM      4  O   UNL A   1      31.464  25.579  26.805  1.00  0.00    -0.274 OA
ATOM      5  H   UNL A   1      32.328  27.219  28.105  1.00  0.00     0.163 HD
BRANCH   3   6
ATOM      6  C   UNL A   1      30.925  27.053  24.998  1.00  0.00     0.103 C 
ATOM      7  C   UNL A   1      31.393  25.544  23.105  1.00  0.00     0.093 C 
ATOM      8  C   UNL A   1      29.945  25.540  23.505  1.00  0.00    -0.011 C 
ATOM      9  C   UNL A   1      31.897  26.797  23.827  1.00  0.00     0.042 C 
ATOM     10  C   UNL A   1      29.693  26.349  24.542  1.00  0.00    -0.016 C 
BRANCH   7  11
ATOM     11  N   UNL A   1      31.976  24.295  23.620  1.00  0.00    -0.204 NA
ATOM     12  H   UNL A   1      32.408  24.508  24.518  1.00  0.00     0.142 HD
BRANCH  11  13
ATOM     13  S   UNL A   1      33.147  23.513  22.667  1.00  0.00     0.241 S 
ATOM     14  O   UNL A   1      33.376  24.291  21.471  1.00  0.00    -0.207 OA
ATOM     15  O   UNL A   1      32.708  22.135  22.628  1.00  0.00    -0.207 OA
BRANCH  13  16
ATOM     16  C   UNL A   1      34.628  23.555  23.647  1.00  0.00     0.082 A 
ATOM     17  C   UNL A   1      36.903  23.536  25.285  1.00  0.00     0.118 A 
ATOM     18  C   UNL A   1      36.918  22.903  24.036  1.00  0.00     0.048 A 
ATOM     19  C   UNL A   1      35.759  24.210  25.691  1.00  0.00     0.048 A 
ATOM     20  C   UNL A   1      35.779  22.898  23.217  1.00  0.00     0.025 A 
ATOM     21  C   UNL A   1      34.632  24.203  24.877  1.00  0.00     0.025 A 
BRANCH  17  22
ATOM     22  O   UNL A   1      38.052  23.458  26.022  1.00  0.00    -0.497 OA
ATOM     23  C   UNL A   1      38.698  22.187  26.006  1.00  0.00     0.278 C 
ENDBRANCH  17  22
ENDBRANCH  13  16
ENDBRANCH  11  13
ENDBRANCH   7  11
ENDBRANCH   3   6
ENDBRANCH   1   2
BRANCH   1  24
ATOM     24  C   UNL A   1      33.612  29.473  26.603  1.00  0.00     0.042 C 
BRANCH  24  25
ATOM     25  C   UNL A   1      34.863  29.214  27.445  1.00  0.00     0.118 C 
BRANCH  25  26
ATOM     26  N   UNL A   1      34.932  30.085  28.607  1.00  0.00    -0.352 N 
ATOM     27  C   UNL A   1      35.979  30.320  29.468  1.00  0.00     0.251 C 
ATOM     28  H   UNL A   1      34.107  30.582  28.807  1.00  0.00     0.163 HD
ATOM     29  O   UNL A   1      35.769  30.915  30.522  1.00  0.00    -0.269 OA
BRANCH  27  30
ATOM     30  C   UNL A   1      37.357  29.870  29.152  1.00  0.00     0.039 A 
ATOM     31  C   UNL A   1      38.191  29.466  30.200  1.00  0.00     0.014 A 
ATOM     32  C   UNL A   1      37.866  29.927  27.852  1.00  0.00     0.014 A 
ATOM     33  C   UNL A   1      39.514  29.084  29.940  1.00  0.00     0.010 A 
ATOM     34  C   UNL A   1      39.170  29.496  27.584  1.00  0.00     0.010 A 
ATOM     35  C   UNL A   1      40.013  29.081  28.627  1.00  0.00    -0.014 A 
BRANCH  35  36
ATOM     36  C   UNL A   1      41.413  28.660  28.343  1.00  0.00     0.031 A 
ATOM     37  C   UNL A   1      41.732  27.228  28.006  1.00  0.00     0.074 A 
ATOM     38  C   UNL A   1      42.413  29.559  28.417  1.00  0.00     0.049 A 
ATOM     39  N   UNL A   1      42.894  26.675  27.758  1.00  0.00    -0.248 NA
ATOM     40  C   UNL A   1      40.600  26.291  27.962  1.00  0.00     0.031 C 
ATOM     41  C   UNL A   1      42.257  30.970  28.773  1.00  0.00     0.029 A 
ATOM     42  N   UNL A   1      43.763  29.416  28.208  1.00  0.00    -0.354 N 
ATOM     43  C   UNL A   1      42.635  25.327  27.537  1.00  0.00     0.074 A 
ATOM     44  C   UNL A   1      41.212  25.138  27.726  1.00  0.00     0.031 C 
ATOM     45  C   UNL A   1      43.459  31.564  28.746  1.00  0.00     0.029 A 
ATOM     46  C   UNL A   1      44.475  30.575  28.397  1.00  0.00     0.049 A 
ATOM     47  H   UNL A   1      44.180  28.564  27.947  1.00  0.00     0.167 HD
ATOM     48  C   UNL A   1      43.496  24.340  27.188  1.00  0.00     0.037 A 
ATOM     49  C   UNL A   1      45.797  30.817  28.307  1.00  0.00     0.037 A 
ATOM     50  C   UNL A   1      44.910  24.522  26.981  1.00  0.00     0.049 A 
ATOM     51  C   UNL A   1      46.735  29.708  27.916  1.00  0.00     0.074 A 
ATOM     52  C   UNL A   1      45.850  23.589  26.577  1.00  0.00     0.029 A 
ATOM     53  N   UNL A   1      45.589  25.716  27.165  1.00  0.00    -0.354 N 
ATOM     54  N   UNL A   1      46.464  28.454  27.651  1.00  0.00    -0.248 NA
ATOM     55  C   UNL A   1      48.160  30.053  27.803  1.00  0.00     0.031 C 
ATOM     56  C   UNL A   1      47.104  24.210  26.550  1.00  0.00     0.029 A 
ATOM     57  C   UNL A   1      46.938  25.540  26.898  1.00  0.00     0.049 A 
ATOM     58  H   UNL A   1      45.174  26.564  27.442  1.00  0.00     0.167 HD
ATOM     59  C   UNL A   1      47.679  27.864  27.324  1.00  0.00     0.074 A 
ATOM     60  C   UNL A   1      48.685  28.901  27.407  1.00  0.00     0.031 C 
ATOM     61  C   UNL A   1      47.934  26.577  26.984  1.00  0.00     0.037 A 
BRANCH  48  62
ATOM     62  C   UNL A   1      42.924  22.965  27.003  1.00  0.00     0.057 A 
ATOM     63  C   UNL A   1      42.712  22.421  25.729  1.00  0.00     0.134 A 
ATOM     64  C   UNL A   1      42.607  22.163  28.107  1.00  0.00     0.134 A 
ATOM     65  F   UNL A   1      42.986  23.140  24.630  1.00  0.00    -0.206 F 
ATOM     66  C   UNL A   1      42.176  21.143  25.559  1.00  0.00     0.040 A 
ATOM     67  C   UNL A   1      42.095  20.874  27.951  1.00  0.00     0.040 A 
ATOM     68  F   UNL A   1      42.795  22.618  29.356  1.00  0.00    -0.206 F 
ATOM     69  C   UNL A   1      41.870  20.363  26.673  1.00  0.00     0.006 A 
ENDBRANCH  48  62
BRANCH  49  70
ATOM     70  C   UNL A   1      46.313  32.181  28.577  1.00  0.00     0.057 A 
ATOM     71  C   UNL A   1      46.397  33.137  27.559  1.00  0.00     0.134 A 
ATOM     72  C   UNL A   1      46.720  32.564  29.860  1.00  0.00     0.134 A 
ATOM     73  F   UNL A   1      46.039  32.820  26.306  1.00  0.00    -0.206 F 
ATOM     74  C   UNL A   1      46.880  34.423  27.804  1.00  0.00     0.040 A 
ATOM     75  C   UNL A   1      47.184  33.854  30.124  1.00  0.00     0.040 A 
ATOM     76  F   UNL A   1      46.659  31.693  30.878  1.00  0.00    -0.206 F 
ATOM     77  C   UNL A   1      47.268  34.786  29.092  1.00  0.00     0.006 A 
ENDBRANCH  49  70
BRANCH  61  78
ATOM     78  C   UNL A   1      49.355  26.220  26.657  1.00  0.00     0.057 A 
ATOM     79  C   UNL A   1      50.214  25.668  27.614  1.00  0.00     0.134 A 
ATOM     80  C   UNL A   1      49.856  26.398  25.362  1.00  0.00     0.134 A 
ATOM     81  F   UNL A   1      49.799  25.485  28.877  1.00  0.00    -0.206 F 
ATOM     82  C   UNL A   1      51.531  25.323  27.299  1.00  0.00     0.040 A 
ATOM     83  C   UNL A   1      51.162  26.037  25.030  1.00  0.00     0.040 A 
ATOM     84  F   UNL A   1      49.082  26.917  24.396  1.00  0.00    -0.206 F 
ATOM     85  C   UNL A   1      52.006  25.501  26.001  1.00  0.00     0.006 A 
ENDBRANCH  61  78
ENDBRANCH  35  36
ENDBRANCH  27  30
ENDBRANCH  25  26
ENDBRANCH  24  25
ENDBRANCH   1  24
TORSDOF 14
ENDMDL
MODEL 2
REMARK VINA RESULT:     -11.3      2.446      6.769
REMARK SMILES COc1ccc(S(=O)(=O)N[C@H]2C=C[C@@H](C(=O)NCCCNC(=O)c3ccc(-c4c5nc(c(-c6c(F)cccc6F)c6ccc([nH]6)c(-c6c(F)cccc6F)c6nc(c(-c7c(F)cccc7F)c7ccc4[nH]7)C=C6)C=C5)cc3)C2)cc1
REMARK SMILES IDX 18 1 17 2 15 3 16 4 14 6 11 7 12 8 78 9 13 10 10 11 7 13
REMARK SMILES IDX 8 14 9 15 6 16 3 17 4 18 80 19 5 20 79 21 2 22 1 23 19 24
REMARK SMILES IDX 20 25 21 26 22 27 23 29 24 30 25 31 77 32 26 33 76 34 27 35
REMARK SMILES IDX 28 36 29 37 70 38 30 39 75 40 69 41 71 42 31 43 74 44 68 45
REMARK SMILES IDX 67 46 32 48 58 49 41 50 57 51 42 52 45 53 56 54 72 55 43 56
REMARK SMILES IDX 44 57 55 59 73 60 46 61 33 62 34 63 39 64 35 65 36 66 38 67
REMARK SMILES IDX 40 68 37 69 59 70 60 71 65 72 61 73 62 74 64 75 66 76 63 77
REMARK SMILES IDX 47 78 48 79 53 80 49 81 50 82 52 83 54 84 51 85
REMARK H PARENT 17 5 10 12 21 28 71 47 45 58
REMARK Flexibility Score: inf
ROOT
ATOM      1  C   UNL A   1      33.329  28.316  24.621  1.00  0.00     0.117 C 
ENDROOT
BRANCH   1   2
ATOM      2  N   UNL A   1      33.728  27.583  23.427  1.00  0.00    -0.356 N 
ATOM      3  C   UNL A   1      33.075  26.851  22.488  1.00  0.00     0.226 C 
ATOM      4  O   UNL A   1      33.807  26.355  21.617  1.00  0.00    -0.274 OA
ATOM      5  H   UNL A   1      34.698  27.631  23.262  1.00  0.00     0.163 HD
BRANCH   3   6
ATOM      6  C   UNL A   1      31.570  26.528  22.453  1.00  0.00     0.103 C 
ATOM      7  C   UNL A   1      30.563  25.183  24.257  1.00  0.00     0.093 C 
ATOM      8  C   UNL A   1      30.063  26.600  24.243  1.00  0.00    -0.011 C 
ATOM      9  C   UNL A   1      31.222  25.087  22.878  1.00  0.00     0.042 C 
ATOM     10  C   UNL A   1      30.620  27.334  23.272  1.00  0.00    -0.016 C 
BRANCH   7  11
ATOM     11  N   UNL A   1      31.518  25.084  25.373  1.00  0.00    -0.204 NA
ATOM     12  H   UNL A   1      32.420  25.415  25.032  1.00  0.00     0.142 HD
BRANCH  11  13
ATOM     13  S   UNL A   1      31.769  23.553  26.069  1.00  0.00     0.241 S 
ATOM     14  O   UNL A   1      31.055  22.563  25.299  1.00  0.00    -0.207 OA
ATOM     15  O   UNL A   1      31.529  23.765  27.480  1.00  0.00    -0.207 OA
BRANCH  13  16
ATOM     16  C   UNL A   1      33.510  23.253  25.882  1.00  0.00     0.082 A 
ATOM     17  C   UNL A   1      36.277  22.841  25.708  1.00  0.00     0.118 A 
ATOM     18  C   UNL A   1      35.406  21.762  25.904  1.00  0.00     0.048 A 
ATOM     19  C   UNL A   1      35.754  24.119  25.561  1.00  0.00     0.048 A 
ATOM     20  C   UNL A   1      34.022  21.963  26.004  1.00  0.00     0.025 A 
ATOM     21  C   UNL A   1      34.381  24.313  25.661  1.00  0.00     0.025 A 
BRANCH  17  22
ATOM     22  O   UNL A   1      37.612  22.546  25.655  1.00  0.00    -0.497 OA
ATOM     23  C   UNL A   1      37.924  21.229  25.208  1.00  0.00     0.278 C 
ENDBRANCH  17  22
ENDBRANCH  13  16
ENDBRANCH  11  13
ENDBRANCH   7  11
ENDBRANCH   3   6
ENDBRANCH   1   2
BRANCH   1  24
ATOM     24  C   UNL A   1      34.175  27.987  25.857  1.00  0.00     0.042 C 
BRANCH  24  25
ATOM     25  C   UNL A   1      33.532  28.303  27.209  1.00  0.00     0.118 C 
BRANCH  25  26
ATOM     26  N   UNL A   1      33.469  29.733  27.466  1.00  0.00    -0.352 N 
ATOM     27  C   UNL A   1      34.399  30.562  28.048  1.00  0.00     0.251 C 
ATOM     28  H   UNL A   1      32.637  30.173  27.180  1.00  0.00     0.163 HD
ATOM     29  O   UNL A   1      34.067  31.697  28.383  1.00  0.00    -0.269 OA
BRANCH  27  30
ATOM     30  C   UNL A   1      35.796  30.118  28.281  1.00  0.00     0.039 A 
ATOM     31  C   UNL A   1      36.157  29.666  29.554  1.00  0.00     0.014 A 
ATOM     32  C   UNL A   1      36.773  30.227  27.287  1.00  0.00     0.014 A 
ATOM     33  C   UNL A   1      37.479  29.288  29.819  1.00  0.00     0.010 A 
ATOM     34  C   UNL A   1      38.082  29.800  27.535  1.00  0.00     0.010 A 
ATOM     35  C   UNL A   1      38.453  29.337  28.808  1.00  0.00    -0.014 A 
BRANCH  35  36
ATOM     36  C   UNL A   1      39.857  28.920  29.079  1.00  0.00     0.031 A 
ATOM     37  C   UNL A   1      40.817  29.852  29.770  1.00  0.00     0.074 A 
ATOM     38  C   UNL A   1      40.288  27.709  28.675  1.00  0.00     0.049 A 
ATOM     39  N   UNL A   1      42.081  29.670  30.064  1.00  0.00    -0.248 NA
ATOM     40  C   UNL A   1      40.292  31.167  30.167  1.00  0.00     0.031 C 
ATOM     41  C   UNL A   1      39.481  26.722  27.958  1.00  0.00     0.029 A 
ATOM     42  N   UNL A   1      41.516  27.108  28.802  1.00  0.00    -0.354 N 
ATOM     43  C   UNL A   1      42.504  30.847  30.670  1.00  0.00     0.074 A 
ATOM     44  C   UNL A   1      41.375  31.752  30.660  1.00  0.00     0.031 C 
ATOM     45  C   UNL A   1      40.231  25.635  27.719  1.00  0.00     0.029 A 
ATOM     46  C   UNL A   1      41.577  25.856  28.241  1.00  0.00     0.049 A 
ATOM     47  H   UNL A   1      42.280  27.534  29.253  1.00  0.00     0.167 HD
ATOM     48  C   UNL A   1      43.714  31.143  31.205  1.00  0.00     0.037 A 
ATOM     49  C   UNL A   1      42.599  24.985  28.150  1.00  0.00     0.037 A 
ATOM     50  C   UNL A   1      44.839  30.242  31.235  1.00  0.00     0.049 A 
ATOM     51  C   UNL A   1      43.933  25.331  28.752  1.00  0.00     0.074 A 
ATOM     52  C   UNL A   1      46.087  30.439  31.801  1.00  0.00     0.029 A 
ATOM     53  N   UNL A   1      44.852  28.976  30.672  1.00  0.00    -0.354 N 
ATOM     54  N   UNL A   1      44.298  26.424  29.376  1.00  0.00    -0.248 NA
ATOM     55  C   UNL A   1      44.993  24.317  28.646  1.00  0.00     0.031 C 
ATOM     56  C   UNL A   1      46.868  29.305  31.550  1.00  0.00     0.029 A 
ATOM     57  C   UNL A   1      46.093  28.386  30.863  1.00  0.00     0.049 A 
ATOM     58  H   UNL A   1      44.093  28.556  30.206  1.00  0.00     0.167 HD
ATOM     59  C   UNL A   1      45.620  26.225  29.751  1.00  0.00     0.074 A 
ATOM     60  C   UNL A   1      45.989  24.900  29.299  1.00  0.00     0.031 C 
ATOM     61  C   UNL A   1      46.452  27.067  30.410  1.00  0.00     0.037 A 
BRANCH  48  62
ATOM     62  C   UNL A   1      43.882  32.506  31.810  1.00  0.00     0.057 A 
ATOM     63  C   UNL A   1      44.328  33.598  31.055  1.00  0.00     0.134 A 
ATOM     64  C   UNL A   1      43.568  32.738  33.156  1.00  0.00     0.134 A 
ATOM     65  F   UNL A   1      44.654  33.441  29.762  1.00  0.00    -0.206 F 
ATOM     66  C   UNL A   1      44.487  34.864  31.621  1.00  0.00     0.040 A 
ATOM     67  C   UNL A   1      43.698  34.005  33.728  1.00  0.00     0.040 A 
ATOM     68  F   UNL A   1      43.125  31.739  33.934  1.00  0.00    -0.206 F 
ATOM     69  C   UNL A   1      44.167  35.071  32.962  1.00  0.00     0.006 A 
ENDBRANCH  48  62
BRANCH  49  70
ATOM     70  C   UNL A   1      42.394  23.682  27.471  1.00  0.00     0.057 A 
ATOM     71  C   UNL A   1      42.544  23.558  26.085  1.00  0.00     0.134 A 
ATOM     72  C   UNL A   1      42.055  22.531  28.191  1.00  0.00     0.134 A 
ATOM     73  F   UNL A   1      42.849  24.631  25.341  1.00  0.00    -0.206 F 
ATOM     74  C   UNL A   1      42.355  22.337  25.437  1.00  0.00     0.040 A 
ATOM     75  C   UNL A   1      41.884  21.299  27.559  1.00  0.00     0.040 A 
ATOM     76  F   UNL A   1      41.901  22.586  29.522  1.00  0.00    -0.206 F 
ATOM     77  C   UNL A   1      42.030  21.201  26.176  1.00  0.00     0.006 A 
ENDBRANCH  49  70
BRANCH  61  78
ATOM     78  C   UNL A   1      47.840  26.574  30.703  1.00  0.00     0.057 A 
ATOM     79  C   UNL A   1      48.906  26.814  29.828  1.00  0.00     0.134 A 
ATOM     80  C   UNL A   1      48.117  25.884  31.889  1.00  0.00     0.134 A 
ATOM     81  F   UNL A   1      48.704  27.458  28.668  1.00  0.00    -0.206 F 
ATOM     82  C   UNL A   1      50.198  26.367  30.115  1.00  0.00     0.040 A 
ATOM     83  C   UNL A   1      49.408  25.452  32.196  1.00  0.00     0.040 A 
ATOM     84  F   UNL A   1      47.141  25.627  32.773  1.00  0.00    -0.206 F 
ATOM     85  C   UNL A   1      50.453  25.689  31.306  1.00  0.00     0.006 A 
ENDBRANCH  61  78
ENDBRANCH  35  36
ENDBRANCH  27  30
ENDBRANCH  25  26
ENDBRANCH  24  25
ENDBRANCH   1  24
TORSDOF 14
ENDMDL
MODEL 3
REMARK VINA RESULT:     -11.3      2.730      7.839
REMARK SMILES COc1ccc(S(=O)(=O)N[C@H]2C=C[C@@H](C(=O)NCCCNC(=O)c3ccc(-c4c5nc(c(-c6c(F)cccc6F)c6ccc([nH]6)c(-c6c(F)cccc6F)c6nc(c(-c7c(F)cccc7F)c7ccc4[nH]7)C=C6)C=C5)cc3)C2)cc1
REMARK SMILES IDX 18 1 17 2 15 3 16 4 14 6 11 7 12 8 78 9 13 10 10 11 7 13
REMARK SMILES IDX 8 14 9 15 6 16 3 17 4 18 80 19 5 20 79 21 2 22 1 23 19 24
REMARK SMILES IDX 20 25 21 26 22 27 23 29 24 30 25 31 77 32 26 33 76 34 27 35
REMARK SMILES IDX 28 36 29 37 70 38 30 39 75 40 69 41 71 42 31 43 74 44 68 45
REMARK SMILES IDX 67 46 32 48 58 49 41 50 57 51 42 52 45 53 56 54 72 55 43 56
REMARK SMILES IDX 44 57 55 59 73 60 46 61 33 62 34 63 39 64 35 65 36 66 38 67
REMARK SMILES IDX 40 68 37 69 59 70 60 71 65 72 61 73 62 74 64 75 66 76 63 77
REMARK SMILES IDX 47 78 48 79 53 80 49 81 50 82 52 83 54 84 51 85
REMARK H PARENT 17 5 10 12 21 28 71 47 45 58
REMARK Flexibility Score: inf
ROOT
ATOM      1  C   UNL A   1      36.291  19.799  25.012  1.00  0.00     0.117 C 
ENDROOT
BRANCH   1   2
ATOM      2  N   UNL A   1      35.839  20.981  25.733  1.00  0.00    -0.356 N 
ATOM      3  C   UNL A   1      35.113  22.082  25.411  1.00  0.00     0.226 C 
ATOM      4  O   UNL A   1      34.966  22.896  26.336  1.00  0.00    -0.274 OA
ATOM      5  H   UNL A   1      36.128  20.982  26.675  1.00  0.00     0.163 HD
BRANCH   3   6
ATOM      6  C   UNL A   1      34.540  22.434  24.026  1.00  0.00     0.103 C 
ATOM      7  C   UNL A   1      32.548  23.878  23.853  1.00  0.00     0.093 C 
ATOM      8  C   UNL A   1      33.783  24.525  23.293  1.00  0.00    -0.011 C 
ATOM      9  C   UNL A   1      32.998  22.418  23.955  1.00  0.00     0.042 C 
ATOM     10  C   UNL A   1      34.868  23.746  23.399  1.00  0.00    -0.016 C 
BRANCH   7  11
ATOM     11  N   UNL A   1      32.298  24.509  25.160  1.00  0.00    -0.204 NA
ATOM     12  H   UNL A   1      32.375  23.780  25.869  1.00  0.00     0.142 HD
BRANCH  11  13
ATOM     13  S   UNL A   1      30.805  25.287  25.392  1.00  0.00     0.241 S 
ATOM     14  O   UNL A   1      30.193  24.782  26.599  1.00  0.00    -0.207 OA
ATOM     15  O   UNL A   1      30.161  25.206  24.099  1.00  0.00    -0.207 OA
BRANCH  13  16
ATOM     16  C   UNL A   1      31.221  26.994  25.654  1.00  0.00     0.082 A 
ATOM     17  C   UNL A   1      31.744  29.717  26.065  1.00  0.00     0.118 A 
ATOM     18  C   UNL A   1      31.961  28.787  27.089  1.00  0.00     0.048 A 
ATOM     19  C   UNL A   1      31.303  29.273  24.825  1.00  0.00     0.048 A 
ATOM     20  C   UNL A   1      31.689  27.425  26.894  1.00  0.00     0.025 A 
ATOM     21  C   UNL A   1      31.036  27.922  24.636  1.00  0.00     0.025 A 
BRANCH  17  22
ATOM     22  O   UNL A   1      32.009  31.025  26.362  1.00  0.00    -0.497 OA
ATOM     23  C   UNL A   1      33.025  31.230  27.342  1.00  0.00     0.278 C 
ENDBRANCH  17  22
ENDBRANCH  13  16
ENDBRANCH  11  13
ENDBRANCH   7  11
ENDBRANCH   3   6
ENDBRANCH   1   2
BRANCH   1  24
ATOM     24  C   UNL A   1      37.780  19.830  24.648  1.00  0.00     0.042 C 
BRANCH  24  25
ATOM     25  C   UNL A   1      38.739  20.176  25.790  1.00  0.00     0.118 C 
BRANCH  25  26
ATOM     26  N   UNL A   1      39.889  19.288  25.827  1.00  0.00    -0.352 N 
ATOM     27  C   UNL A   1      41.215  19.577  26.051  1.00  0.00     0.251 C 
ATOM     28  H   UNL A   1      39.690  18.338  25.669  1.00  0.00     0.163 HD
ATOM     29  O   UNL A   1      42.065  18.722  25.815  1.00  0.00    -0.269 OA
BRANCH  27  30
ATOM     30  C   UNL A   1      41.643  20.900  26.571  1.00  0.00     0.039 A 
ATOM     31  C   UNL A   1      41.537  21.152  27.943  1.00  0.00     0.014 A 
ATOM     32  C   UNL A   1      42.060  21.922  25.715  1.00  0.00     0.014 A 
ATOM     33  C   UNL A   1      41.884  22.407  28.457  1.00  0.00     0.010 A 
ATOM     34  C   UNL A   1      42.457  23.160  26.234  1.00  0.00     0.010 A 
ATOM     35  C   UNL A   1      42.362  23.421  27.610  1.00  0.00    -0.014 A 
BRANCH  35  36
ATOM     36  C   UNL A   1      42.749  24.752  28.153  1.00  0.00     0.031 A 
ATOM     37  C   UNL A   1      41.713  25.820  28.384  1.00  0.00     0.074 A 
ATOM     38  C   UNL A   1      44.043  25.020  28.415  1.00  0.00     0.049 A 
ATOM     39  N   UNL A   1      41.870  27.044  28.824  1.00  0.00    -0.248 NA
ATOM     40  C   UNL A   1      40.322  25.472  28.059  1.00  0.00     0.031 C 
ATOM     41  C   UNL A   1      45.157  24.097  28.200  1.00  0.00     0.029 A 
ATOM     42  N   UNL A   1      44.640  26.155  28.907  1.00  0.00    -0.354 N 
ATOM     43  C   UNL A   1      40.602  27.615  28.821  1.00  0.00     0.074 A 
ATOM     44  C   UNL A   1      39.696  26.618  28.292  1.00  0.00     0.031 C 
ATOM     45  C   UNL A   1      46.299  24.696  28.571  1.00  0.00     0.029 A 
ATOM     46  C   UNL A   1      46.005  26.053  29.023  1.00  0.00     0.049 A 
ATOM     47  H   UNL A   1      44.137  26.964  29.155  1.00  0.00     0.167 HD
ATOM     48  C   UNL A   1      40.221  28.847  29.238  1.00  0.00     0.037 A 
ATOM     49  C   UNL A   1      46.919  26.950  29.440  1.00  0.00     0.037 A 
ATOM     50  C   UNL A   1      41.114  29.840  29.782  1.00  0.00     0.049 A 
ATOM     51  C   UNL A   1      46.475  28.311  29.901  1.00  0.00     0.074 A 
ATOM     52  C   UNL A   1      40.808  31.096  30.278  1.00  0.00     0.029 A 
ATOM     53  N   UNL A   1      42.486  29.689  29.899  1.00  0.00    -0.354 N 
ATOM     54  N   UNL A   1      45.266  28.811  29.949  1.00  0.00    -0.248 NA
ATOM     55  C   UNL A   1      47.524  29.225  30.375  1.00  0.00     0.031 C 
ATOM     56  C   UNL A   1      42.000  31.720  30.662  1.00  0.00     0.029 A 
ATOM     57  C   UNL A   1      43.043  30.837  30.443  1.00  0.00     0.049 A 
ATOM     58  H   UNL A   1      42.991  28.886  29.636  1.00  0.00     0.167 HD
ATOM     59  C   UNL A   1      45.404  30.091  30.473  1.00  0.00     0.074 A 
ATOM     60  C   UNL A   1      46.814  30.283  30.742  1.00  0.00     0.031 C 
ATOM     61  C   UNL A   1      44.448  31.020  30.708  1.00  0.00     0.037 A 
BRANCH  48  62
ATOM     62  C   UNL A   1      38.765  29.190  29.126  1.00  0.00     0.057 A 
ATOM     63  C   UNL A   1      38.187  29.563  27.905  1.00  0.00     0.134 A 
ATOM     64  C   UNL A   1      37.922  29.120  30.243  1.00  0.00     0.134 A 
ATOM     65  F   UNL A   1      38.941  29.657  26.799  1.00  0.00    -0.206 F 
ATOM     66  C   UNL A   1      36.833  29.885  27.804  1.00  0.00     0.040 A 
ATOM     67  C   UNL A   1      36.560  29.415  30.150  1.00  0.00     0.040 A 
ATOM     68  F   UNL A   1      38.407  28.760  31.441  1.00  0.00    -0.206 F 
ATOM     69  C   UNL A   1      36.014  29.807  28.929  1.00  0.00     0.006 A 
ENDBRANCH  48  62
BRANCH  49  70
ATOM     70  C   UNL A   1      48.355  26.579  29.455  1.00  0.00     0.057 A 
ATOM     71  C   UNL A   1      48.912  25.889  30.539  1.00  0.00     0.134 A 
ATOM     72  C   UNL A   1      49.200  26.892  28.385  1.00  0.00     0.134 A 
ATOM     73  F   UNL A   1      48.154  25.579  31.601  1.00  0.00    -0.206 F 
ATOM     74  C   UNL A   1      50.261  25.535  30.562  1.00  0.00     0.040 A 
ATOM     75  C   UNL A   1      50.546  26.524  28.385  1.00  0.00     0.040 A 
ATOM     76  F   UNL A   1      48.723  27.549  27.316  1.00  0.00    -0.206 F 
ATOM     77  C   UNL A   1      51.080  25.846  29.479  1.00  0.00     0.006 A 
ENDBRANCH  49  70
BRANCH  61  78
ATOM     78  C   UNL A   1      44.888  32.325  31.306  1.00  0.00     0.057 A 
ATOM     79  C   UNL A   1      45.236  33.421  30.507  1.00  0.00     0.134 A 
ATOM     80  C   UNL A   1      44.929  32.496  32.696  1.00  0.00     0.134 A 
ATOM     81  F   UNL A   1      45.231  33.317  29.170  1.00  0.00    -0.206 F 
ATOM     82  C   UNL A   1      45.629  34.637  31.071  1.00  0.00     0.040 A 
ATOM     83  C   UNL A   1      45.299  33.714  33.269  1.00  0.00     0.040 A 
ATOM     84  F   UNL A   1      44.601  31.488  33.517  1.00  0.00    -0.206 F 
ATOM     85  C   UNL A   1      45.654  34.788  32.456  1.00  0.00     0.006 A 
ENDBRANCH  61  78
ENDBRANCH  35  36
ENDBRANCH  27  30
ENDBRANCH  25  26
ENDBRANCH  24  25
ENDBRANCH   1  24
TORSDOF 14
ENDMDL
