MODEL 1
REMARK VINA RESULT:     -10.4      0.000      0.000
REMARK SMILES Cc1cc(C)cc(-c2ccc([C@@H](C)C(=O)NCCCNC(=O)c3ccc(-c4c5nc(c(-c6c(F)cccc6F)c6ccc([nH]6)c(-c6c(F)cccc6F)c6nc(c(-c7c(F)cccc7F)c7ccc4[nH]7)C=C6)C=C5)cc3)cc2F)c1
REMARK SMILES IDX 18 1 17 2 16 3 14 4 15 5 12 7 13 8 11 9 8 10 9 11 78 12
REMARK SMILES IDX 10 13 77 14 79 15 7 16 1 17 2 18 3 19 80 20 4 21 5 22 6 23
REMARK SMILES IDX 19 24 20 25 21 26 22 28 23 29 24 30 76 31 25 32 75 33 26 34
REMARK SMILES IDX 27 35 28 36 69 37 29 38 74 39 68 40 70 41 30 42 73 43 67 44
REMARK SMILES IDX 66 45 31 47 57 48 40 49 56 50 41 51 44 52 55 53 71 54 42 55
REMARK SMILES IDX 43 56 54 58 72 59 45 60 32 61 33 62 38 63 34 64 35 65 37 66
REMARK SMILES IDX 39 67 36 68 58 69 59 70 64 71 60 72 61 73 63 74 65 75 62 76
REMARK SMILES IDX 46 77 47 78 52 79 48 80 49 81 51 82 53 83 50 84
REMARK H PARENT 16 6 20 27 70 46 44 57
REMARK Flexibility Score: inf
ROOT
ATOM      1  C   UNL A   1      33.102  37.216  28.939  1.00  0.00     0.042 C 
ENDROOT
BRANCH   1   2
ATOM      2  C   UNL A   1      33.301  37.196  30.452  1.00  0.00     0.117 C 
BRANCH   2   3
ATOM      3  N   UNL A   1      32.324  36.360  31.119  1.00  0.00    -0.356 N 
ATOM      4  C   UNL A   1      32.327  35.736  32.328  1.00  0.00     0.227 C 
ATOM      5  O   UNL A   1      31.356  35.006  32.562  1.00  0.00    -0.274 OA
ATOM      6  H   UNL A   1      31.502  36.214  30.597  1.00  0.00     0.163 HD
BRANCH   4   7
ATOM      7  C   UNL A   1      33.434  35.896  33.382  1.00  0.00     0.105 C 
ATOM      8  C   UNL A   1      33.988  37.314  33.507  1.00  0.00     0.023 C 
BRANCH   7   9
ATOM      9  C   UNL A   1      34.475  34.789  33.341  1.00  0.00    -0.033 A 
ATOM     10  C   UNL A   1      36.388  32.663  33.455  1.00  0.00     0.017 A 
ATOM     11  C   UNL A   1      35.211  32.562  32.694  1.00  0.00     0.012 A 
ATOM     12  C   UNL A   1      36.597  33.874  34.128  1.00  0.00     0.131 A 
ATOM     13  C   UNL A   1      34.299  33.617  32.605  1.00  0.00     0.005 A 
ATOM     14  C   UNL A   1      35.657  34.911  34.089  1.00  0.00     0.044 A 
ATOM     15  F   UNL A   1      37.719  34.076  34.836  1.00  0.00    -0.206 F 
BRANCH  10  16
ATOM     16  C   UNL A   1      37.323  31.520  33.526  1.00  0.00    -0.015 A 
ATOM     17  C   UNL A   1      37.908  28.105  31.902  1.00  0.00     0.044 C 
ATOM     18  C   UNL A   1      38.095  29.327  32.753  1.00  0.00    -0.050 A 
ATOM     19  C   UNL A   1      39.216  29.426  33.585  1.00  0.00     0.006 A 
ATOM     20  C   UNL A   1      37.160  30.373  32.730  1.00  0.00     0.012 A 
ATOM     21  C   UNL A   1      39.406  30.551  34.392  1.00  0.00    -0.050 A 
ATOM     22  C   UNL A   1      40.617  30.659  35.271  1.00  0.00     0.044 C 
ATOM     23  C   UNL A   1      38.452  31.575  34.365  1.00  0.00     0.012 A 
ENDBRANCH  10  16
ENDBRANCH   7   9
ENDBRANCH   4   7
ENDBRANCH   2   3
ENDBRANCH   1   2
BRANCH   1  24
ATOM     24  C   UNL A   1      33.843  36.103  28.216  1.00  0.00     0.118 C 
BRANCH  24  25
ATOM     25  N   UNL A   1      32.991  34.944  27.973  1.00  0.00    -0.352 N 
ATOM     26  C   UNL A   1      33.313  33.611  27.903  1.00  0.00     0.251 C 
ATOM     27  H   UNL A   1      32.038  35.151  27.837  1.00  0.00     0.163 HD
ATOM     28  O   UNL A   1      32.492  32.810  27.469  1.00  0.00    -0.269 OA
BRANCH  26  29
ATOM     29  C   UNL A   1      34.645  33.138  28.339  1.00  0.00     0.039 A 
ATOM     30  C   UNL A   1      35.785  33.833  27.924  1.00  0.00     0.014 A 
ATOM     31  C   UNL A   1      34.776  31.994  29.129  1.00  0.00     0.014 A 
ATOM     32  C   UNL A   1      37.048  33.414  28.349  1.00  0.00     0.010 A 
ATOM     33  C   UNL A   1      36.022  31.633  29.627  1.00  0.00     0.010 A 
ATOM     34  C   UNL A   1      37.174  32.329  29.231  1.00  0.00    -0.014 A 
BRANCH  34  35
ATOM     35  C   UNL A   1      38.495  31.864  29.726  1.00  0.00     0.031 A 
ATOM     36  C   UNL A   1      39.023  30.526  29.280  1.00  0.00     0.074 A 
ATOM     37  C   UNL A   1      39.180  32.601  30.622  1.00  0.00     0.049 A 
ATOM     38  N   UNL A   1      40.069  29.868  29.703  1.00  0.00    -0.248 NA
ATOM     39  C   UNL A   1      38.254  29.823  28.237  1.00  0.00     0.031 C 
ATOM     40  C   UNL A   1      38.767  33.905  31.143  1.00  0.00     0.029 A 
ATOM     41  N   UNL A   1      40.367  32.349  31.265  1.00  0.00    -0.354 N 
ATOM     42  C   UNL A   1      40.075  28.674  28.993  1.00  0.00     0.074 A 
ATOM     43  C   UNL A   1      38.899  28.669  28.154  1.00  0.00     0.031 C 
ATOM     44  C   UNL A   1      39.696  34.350  32.003  1.00  0.00     0.029 A 
ATOM     45  C   UNL A   1      40.745  33.343  32.136  1.00  0.00     0.049 A 
ATOM     46  H   UNL A   1      40.898  31.534  31.115  1.00  0.00     0.167 HD
ATOM     47  C   UNL A   1      40.996  27.683  29.018  1.00  0.00     0.037 A 
ATOM     48  C   UNL A   1      41.809  33.424  32.960  1.00  0.00     0.037 A 
ATOM     49  C   UNL A   1      42.183  27.708  29.828  1.00  0.00     0.049 A 
ATOM     50  C   UNL A   1      42.796  32.288  32.996  1.00  0.00     0.074 A 
ATOM     51  C   UNL A   1      43.191  26.762  29.903  1.00  0.00     0.029 A 
ATOM     52  N   UNL A   1      42.529  28.737  30.690  1.00  0.00    -0.354 N 
ATOM     53  N   UNL A   1      42.800  31.175  32.304  1.00  0.00    -0.248 NA
ATOM     54  C   UNL A   1      43.926  32.416  33.929  1.00  0.00     0.031 C 
ATOM     55  C   UNL A   1      44.128  27.200  30.839  1.00  0.00     0.029 A 
ATOM     56  C   UNL A   1      43.733  28.443  31.306  1.00  0.00     0.049 A 
ATOM     57  H   UNL A   1      41.999  29.552  30.841  1.00  0.00     0.167 HD
ATOM     58  C   UNL A   1      43.950  30.494  32.682  1.00  0.00     0.074 A 
ATOM     59  C   UNL A   1      44.621  31.317  33.666  1.00  0.00     0.031 C 
ATOM     60  C   UNL A   1      44.408  29.295  32.252  1.00  0.00     0.037 A 
BRANCH  47  61
ATOM     61  C   UNL A   1      40.784  26.498  28.123  1.00  0.00     0.057 A 
ATOM     62  C   UNL A   1      39.857  25.503  28.457  1.00  0.00     0.134 A 
ATOM     63  C   UNL A   1      41.570  26.295  26.982  1.00  0.00     0.134 A 
ATOM     64  F   UNL A   1      39.077  25.633  29.541  1.00  0.00    -0.206 F 
ATOM     65  C   UNL A   1      39.737  24.336  27.700  1.00  0.00     0.040 A 
ATOM     66  C   UNL A   1      41.439  25.145  26.202  1.00  0.00     0.040 A 
ATOM     67  F   UNL A   1      42.467  27.216  26.601  1.00  0.00    -0.206 F 
ATOM     68  C   UNL A   1      40.530  24.154  26.570  1.00  0.00     0.006 A 
ENDBRANCH  47  61
BRANCH  48  69
ATOM     69  C   UNL A   1      42.016  34.634  33.798  1.00  0.00     0.057 A 
ATOM     70  C   UNL A   1      41.451  34.758  35.073  1.00  0.00     0.134 A 
ATOM     71  C   UNL A   1      42.801  35.699  33.338  1.00  0.00     0.134 A 
ATOM     72  F   UNL A   1      40.683  33.778  35.573  1.00  0.00    -0.206 F 
ATOM     73  C   UNL A   1      41.651  35.896  35.855  1.00  0.00     0.040 A 
ATOM     74  C   UNL A   1      43.034  36.830  34.121  1.00  0.00     0.040 A 
ATOM     75  F   UNL A   1      43.386  35.633  32.132  1.00  0.00    -0.206 F 
ATOM     76  C   UNL A   1      42.453  36.933  35.382  1.00  0.00     0.006 A 
ENDBRANCH  48  69
BRANCH  60  77
ATOM     77  C   UNL A   1      45.726  28.811  32.779  1.00  0.00     0.057 A 
ATOM     78  C   UNL A   1      45.781  28.072  33.969  1.00  0.00     0.134 A 
ATOM     79  C   UNL A   1      46.939  29.174  32.184  1.00  0.00     0.134 A 
ATOM     80  F   UNL A   1      44.653  27.705  34.596  1.00  0.00    -0.206 F 
ATOM     81  C   UNL A   1      46.998  27.734  34.562  1.00  0.00     0.040 A 
ATOM     82  C   UNL A   1      48.163  28.817  32.752  1.00  0.00     0.040 A 
ATOM     83  F   UNL A   1      46.952  29.875  31.039  1.00  0.00    -0.206 F 
ATOM     84  C   UNL A   1      48.193  28.107  33.953  1.00  0.00     0.006 A 
ENDBRANCH  60  77
ENDBRANCH  34  35
ENDBRANCH  26  29
ENDBRANCH  24  25
ENDBRANCH   1  24
TORSDOF 12
ENDMDL
MODEL 2
REMARK VINA RESULT:     -10.2      2.325      7.259
REMARK SMILES Cc1cc(C)cc(-c2ccc([C@@H](C)C(=O)NCCCNC(=O)c3ccc(-c4c5nc(c(-c6c(F)cccc6F)c6ccc([nH]6)c(-c6c(F)cccc6F)c6nc(c(-c7c(F)cccc7F)c7ccc4[nH]7)C=C6)C=C5)cc3)cc2F)c1
REMARK SMILES IDX 18 1 17 2 16 3 14 4 15 5 12 7 13 8 11 9 8 10 9 11 78 12
REMARK SMILES IDX 10 13 77 14 79 15 7 16 1 17 2 18 3 19 80 20 4 21 5 22 6 23
REMARK SMILES IDX 19 24 20 25 21 26 22 28 23 29 24 30 76 31 25 32 75 33 26 34
REMARK SMILES IDX 27 35 28 36 69 37 29 38 74 39 68 40 70 41 30 42 73 43 67 44
REMARK SMILES IDX 66 45 31 47 57 48 40 49 56 50 41 51 44 52 55 53 71 54 42 55
REMARK SMILES IDX 43 56 54 58 72 59 45 60 32 61 33 62 38 63 34 64 35 65 37 66
REMARK SMILES IDX 39 67 36 68 58 69 59 70 64 71 60 72 61 73 63 74 65 75 62 76
REMARK SMILES IDX 46 77 47 78 52 79 48 80 49 81 51 82 53 83 50 84
REMARK H PARENT 16 6 20 27 70 46 44 57
REMARK Flexibility Score: inf
ROOT
ATOM      1  C   UNL A   1      34.359  34.861  28.635  1.00  0.00     0.042 C 
ENDROOT
BRANCH   1   2
ATOM      2  C   UNL A   1      33.648  34.535  29.945  1.00  0.00     0.117 C 
BRANCH   2   3
ATOM      3  N   UNL A   1      34.111  35.367  31.037  1.00  0.00    -0.356 N 
ATOM      4  C   UNL A   1      34.980  35.137  32.058  1.00  0.00     0.227 C 
ATOM      5  O   UNL A   1      35.086  36.045  32.893  1.00  0.00    -0.274 OA
ATOM      6  H   UNL A   1      33.720  36.271  31.042  1.00  0.00     0.163 HD
BRANCH   4   7
ATOM      7  C   UNL A   1      35.811  33.854  32.215  1.00  0.00     0.105 C 
ATOM      8  C   UNL A   1      35.758  33.233  33.610  1.00  0.00     0.023 C 
BRANCH   7   9
ATOM      9  C   UNL A   1      37.196  33.948  31.595  1.00  0.00    -0.033 A 
ATOM     10  C   UNL A   1      39.857  33.966  30.541  1.00  0.00     0.017 A 
ATOM     11  C   UNL A   1      38.753  33.575  29.764  1.00  0.00     0.012 A 
ATOM     12  C   UNL A   1      39.584  34.383  31.851  1.00  0.00     0.131 A 
ATOM     13  C   UNL A   1      37.450  33.607  30.266  1.00  0.00     0.005 A 
ATOM     14  C   UNL A   1      38.286  34.360  32.377  1.00  0.00     0.044 A 
ATOM     15  F   UNL A   1      40.572  34.822  32.646  1.00  0.00    -0.206 F 
BRANCH  10  16
ATOM     16  C   UNL A   1      41.220  33.911  29.971  1.00  0.00    -0.015 A 
ATOM     17  C   UNL A   1      43.610  36.041  27.876  1.00  0.00     0.044 C 
ATOM     18  C   UNL A   1      43.063  34.923  28.715  1.00  0.00    -0.050 A 
ATOM     19  C   UNL A   1      43.880  33.830  29.029  1.00  0.00     0.006 A 
ATOM     20  C   UNL A   1      41.743  34.954  29.189  1.00  0.00     0.012 A 
ATOM     21  C   UNL A   1      43.389  32.774  29.801  1.00  0.00    -0.050 A 
ATOM     22  C   UNL A   1      44.273  31.612  30.147  1.00  0.00     0.044 C 
ATOM     23  C   UNL A   1      42.064  32.819  30.248  1.00  0.00     0.012 A 
ENDBRANCH  10  16
ENDBRANCH   7   9
ENDBRANCH   4   7
ENDBRANCH   2   3
ENDBRANCH   1   2
BRANCH   1  24
ATOM     24  C   UNL A   1      35.068  33.667  28.017  1.00  0.00     0.118 C 
BRANCH  24  25
ATOM     25  N   UNL A   1      34.154  32.560  27.759  1.00  0.00    -0.352 N 
ATOM     26  C   UNL A   1      34.382  31.205  27.773  1.00  0.00     0.251 C 
ATOM     27  H   UNL A   1      33.231  32.825  27.539  1.00  0.00     0.163 HD
ATOM     28  O   UNL A   1      33.539  30.443  27.312  1.00  0.00    -0.269 OA
BRANCH  26  29
ATOM     29  C   UNL A   1      35.639  30.663  28.333  1.00  0.00     0.039 A 
ATOM     30  C   UNL A   1      35.596  29.936  29.527  1.00  0.00     0.014 A 
ATOM     31  C   UNL A   1      36.863  30.897  27.704  1.00  0.00     0.014 A 
ATOM     32  C   UNL A   1      36.771  29.395  30.054  1.00  0.00     0.010 A 
ATOM     33  C   UNL A   1      38.016  30.281  28.178  1.00  0.00     0.010 A 
ATOM     34  C   UNL A   1      37.986  29.536  29.366  1.00  0.00    -0.014 A 
BRANCH  34  35
ATOM     35  C   UNL A   1      39.255  28.958  29.879  1.00  0.00     0.031 A 
ATOM     36  C   UNL A   1      39.912  29.572  31.087  1.00  0.00     0.074 A 
ATOM     37  C   UNL A   1      39.849  27.941  29.225  1.00  0.00     0.049 A 
ATOM     38  N   UNL A   1      41.087  29.325  31.603  1.00  0.00    -0.248 NA
ATOM     39  C   UNL A   1      39.158  30.624  31.790  1.00  0.00     0.031 C 
ATOM     40  C   UNL A   1      39.319  27.272  28.035  1.00  0.00     0.029 A 
ATOM     41  N   UNL A   1      41.038  27.299  29.464  1.00  0.00    -0.354 N 
ATOM     42  C   UNL A   1      41.216  30.196  32.677  1.00  0.00     0.074 A 
ATOM     43  C   UNL A   1      40.029  31.019  32.706  1.00  0.00     0.031 C 
ATOM     44  C   UNL A   1      40.166  26.298  27.664  1.00  0.00     0.029 A 
ATOM     45  C   UNL A   1      41.323  26.306  28.556  1.00  0.00     0.049 A 
ATOM     46  H   UNL A   1      41.632  27.527  30.215  1.00  0.00     0.167 HD
ATOM     47  C   UNL A   1      42.223  30.281  33.577  1.00  0.00     0.037 A 
ATOM     48  C   UNL A   1      42.401  25.505  28.447  1.00  0.00     0.037 A 
ATOM     49  C   UNL A   1      43.386  29.436  33.565  1.00  0.00     0.049 A 
ATOM     50  C   UNL A   1      43.525  25.650  29.438  1.00  0.00     0.074 A 
ATOM     51  C   UNL A   1      44.450  29.428  34.451  1.00  0.00     0.029 A 
ATOM     52  N   UNL A   1      43.629  28.440  32.632  1.00  0.00    -0.354 N 
ATOM     53  N   UNL A   1      43.624  26.464  30.461  1.00  0.00    -0.248 NA
ATOM     54  C   UNL A   1      44.688  24.768  29.261  1.00  0.00     0.031 C 
ATOM     55  C   UNL A   1      45.356  28.454  34.032  1.00  0.00     0.029 A 
ATOM     56  C   UNL A   1      44.831  27.818  32.918  1.00  0.00     0.049 A 
ATOM     57  H   UNL A   1      43.037  28.212  31.880  1.00  0.00     0.167 HD
ATOM     58  C   UNL A   1      44.834  26.163  31.073  1.00  0.00     0.074 A 
ATOM     59  C   UNL A   1      45.436  25.091  30.308  1.00  0.00     0.031 C 
ATOM     60  C   UNL A   1      45.395  26.723  32.170  1.00  0.00     0.037 A 
BRANCH  47  61
ATOM     61  C   UNL A   1      42.108  31.299  34.673  1.00  0.00     0.057 A 
ATOM     62  C   UNL A   1      41.506  30.974  35.895  1.00  0.00     0.134 A 
ATOM     63  C   UNL A   1      42.503  32.629  34.479  1.00  0.00     0.134 A 
ATOM     64  F   UNL A   1      41.099  29.719  36.142  1.00  0.00    -0.206 F 
ATOM     65  C   UNL A   1      41.280  31.940  36.876  1.00  0.00     0.040 A 
ATOM     66  C   UNL A   1      42.307  33.598  35.463  1.00  0.00     0.040 A 
ATOM     67  F   UNL A   1      43.096  33.002  33.335  1.00  0.00    -0.206 F 
ATOM     68  C   UNL A   1      41.680  33.257  36.661  1.00  0.00     0.006 A 
ENDBRANCH  47  61
BRANCH  48  69
ATOM     69  C   UNL A   1      42.462  24.474  27.379  1.00  0.00     0.057 A 
ATOM     70  C   UNL A   1      42.975  24.755  26.107  1.00  0.00     0.134 A 
ATOM     71  C   UNL A   1      42.013  23.168  27.616  1.00  0.00     0.134 A 
ATOM     72  F   UNL A   1      43.418  25.985  25.810  1.00  0.00    -0.206 F 
ATOM     73  C   UNL A   1      43.031  23.780  25.108  1.00  0.00     0.040 A 
ATOM     74  C   UNL A   1      42.090  22.177  26.637  1.00  0.00     0.040 A 
ATOM     75  F   UNL A   1      41.528  22.831  28.820  1.00  0.00    -0.206 F 
ATOM     76  C   UNL A   1      42.596  22.484  25.376  1.00  0.00     0.006 A 
ENDBRANCH  48  69
BRANCH  60  77
ATOM     77  C   UNL A   1      46.693  26.161  32.666  1.00  0.00     0.057 A 
ATOM     78  C   UNL A   1      47.904  26.568  32.090  1.00  0.00     0.134 A 
ATOM     79  C   UNL A   1      46.741  25.138  33.620  1.00  0.00     0.134 A 
ATOM     80  F   UNL A   1      47.925  27.535  31.159  1.00  0.00    -0.206 F 
ATOM     81  C   UNL A   1      49.113  25.960  32.426  1.00  0.00     0.040 A 
ATOM     82  C   UNL A   1      47.948  24.540  33.985  1.00  0.00     0.040 A 
ATOM     83  F   UNL A   1      45.615  24.709  34.214  1.00  0.00    -0.206 F 
ATOM     84  C   UNL A   1      49.137  24.942  33.376  1.00  0.00     0.006 A 
ENDBRANCH  60  77
ENDBRANCH  34  35
ENDBRANCH  26  29
ENDBRANCH  24  25
ENDBRANCH   1  24
TORSDOF 12
ENDMDL
MODEL 3
REMARK VINA RESULT:     -10.2      5.199     10.268
REMARK SMILES Cc1cc(C)cc(-c2ccc([C@@H](C)C(=O)NCCCNC(=O)c3ccc(-c4c5nc(c(-c6c(F)cccc6F)c6ccc([nH]6)c(-c6c(F)cccc6F)c6nc(c(-c7c(F)cccc7F)c7ccc4[nH]7)C=C6)C=C5)cc3)cc2F)c1
REMARK SMILES IDX 18 1 17 2 16 3 14 4 15 5 12 7 13 8 11 9 8 10 9 11 78 12
REMARK SMILES IDX 10 13 77 14 79 15 7 16 1 17 2 18 3 19 80 20 4 21 5 22 6 23
REMARK SMILES IDX 19 24 20 25 21 26 22 28 23 29 24 30 76 31 25 32 75 33 26 34
REMARK SMILES IDX 27 35 28 36 69 37 29 38 74 39 68 40 70 41 30 42 73 43 67 44
REMARK SMILES IDX 66 45 31 47 57 48 40 49 56 50 41 51 44 52 55 53 71 54 42 55
REMARK SMILES IDX 43 56 54 58 72 59 45 60 32 61 33 62 38 63 34 64 35 65 37 66
REMARK SMILES IDX 39 67 36 68 58 69 59 70 64 71 60 72 61 73 63 74 65 75 62 76
REMARK SMILES IDX 46 77 47 78 52 79 48 80 49 81 51 82 53 83 50 84
REMARK H PARENT 16 6 20 27 70 46 44 57
REMARK Flexibility Score: inf
ROOT
ATOM      1  C   UNL A   1      33.392  29.036  27.260  1.00  0.00     0.042 C 
ENDROOT
BRANCH   1   2
ATOM      2  C   UNL A   1      32.824  29.996  26.220  1.00  0.00     0.117 C 
BRANCH   2   3
ATOM      3  N   UNL A   1      31.901  29.337  25.318  1.00  0.00    -0.356 N 
ATOM      4  C   UNL A   1      32.095  28.541  24.231  1.00  0.00     0.227 C 
ATOM      5  O   UNL A   1      31.075  28.211  23.614  1.00  0.00    -0.274 OA
ATOM      6  H   UNL A   1      30.953  29.496  25.531  1.00  0.00     0.163 HD
BRANCH   4   7
ATOM      7  C   UNL A   1      33.470  28.044  23.756  1.00  0.00     0.105 C 
ATOM      8  C   UNL A   1      33.901  28.585  22.394  1.00  0.00     0.023 C 
BRANCH   7   9
ATOM      9  C   UNL A   1      33.683  26.554  23.965  1.00  0.00    -0.033 A 
ATOM     10  C   UNL A   1      34.255  23.764  24.251  1.00  0.00     0.017 A 
ATOM     11  C   UNL A   1      34.334  24.653  25.336  1.00  0.00     0.012 A 
ATOM     12  C   UNL A   1      33.844  24.307  23.026  1.00  0.00     0.131 A 
ATOM     13  C   UNL A   1      34.014  26.007  25.205  1.00  0.00     0.005 A 
ATOM     14  C   UNL A   1      33.580  25.673  22.876  1.00  0.00     0.044 A 
ATOM     15  F   UNL A   1      33.691  23.520  21.949  1.00  0.00    -0.206 F 
BRANCH  10  16
ATOM     16  C   UNL A   1      34.609  22.340  24.433  1.00  0.00    -0.015 A 
ATOM     17  C   UNL A   1      37.687  20.127  24.948  1.00  0.00     0.044 C 
ATOM     18  C   UNL A   1      36.260  20.571  24.813  1.00  0.00    -0.050 A 
ATOM     19  C   UNL A   1      35.229  19.631  24.931  1.00  0.00     0.006 A 
ATOM     20  C   UNL A   1      35.941  21.915  24.566  1.00  0.00     0.012 A 
ATOM     21  C   UNL A   1      33.894  20.020  24.799  1.00  0.00    -0.050 A 
ATOM     22  C   UNL A   1      32.792  19.013  24.941  1.00  0.00     0.044 C 
ATOM     23  C   UNL A   1      33.600  21.364  24.537  1.00  0.00     0.012 A 
ENDBRANCH  10  16
ENDBRANCH   7   9
ENDBRANCH   4   7
ENDBRANCH   2   3
ENDBRANCH   1   2
BRANCH   1  24
ATOM     24  C   UNL A   1      34.832  29.341  27.643  1.00  0.00     0.118 C 
BRANCH  24  25
ATOM     25  N   UNL A   1      34.917  30.300  28.739  1.00  0.00    -0.352 N 
ATOM     26  C   UNL A   1      35.956  30.569  29.597  1.00  0.00     0.251 C 
ATOM     27  H   UNL A   1      34.104  30.835  28.887  1.00  0.00     0.163 HD
ATOM     28  O   UNL A   1      35.756  31.255  30.594  1.00  0.00    -0.269 OA
BRANCH  26  29
ATOM     29  C   UNL A   1      37.307  30.031  29.330  1.00  0.00     0.039 A 
ATOM     30  C   UNL A   1      37.810  30.067  28.026  1.00  0.00     0.014 A 
ATOM     31  C   UNL A   1      38.067  29.463  30.354  1.00  0.00     0.014 A 
ATOM     32  C   UNL A   1      39.095  29.587  27.762  1.00  0.00     0.010 A 
ATOM     33  C   UNL A   1      39.379  29.072  30.110  1.00  0.00     0.010 A 
ATOM     34  C   UNL A   1      39.902  29.115  28.809  1.00  0.00    -0.014 A 
BRANCH  34  35
ATOM     35  C   UNL A   1      41.282  28.617  28.578  1.00  0.00     0.031 A 
ATOM     36  C   UNL A   1      42.435  29.584  28.624  1.00  0.00     0.074 A 
ATOM     37  C   UNL A   1      41.491  27.324  28.259  1.00  0.00     0.049 A 
ATOM     38  N   UNL A   1      43.688  29.392  28.304  1.00  0.00    -0.248 NA
ATOM     39  C   UNL A   1      42.133  30.958  29.060  1.00  0.00     0.031 C 
ATOM     40  C   UNL A   1      40.455  26.294  28.168  1.00  0.00     0.029 A 
ATOM     41  N   UNL A   1      42.648  26.659  27.939  1.00  0.00    -0.354 N 
ATOM     42  C   UNL A   1      44.315  30.618  28.487  1.00  0.00     0.074 A 
ATOM     43  C   UNL A   1      43.298  31.563  28.888  1.00  0.00     0.031 C 
ATOM     44  C   UNL A   1      41.026  25.124  27.842  1.00  0.00     0.029 A 
ATOM     45  C   UNL A   1      42.458  25.328  27.649  1.00  0.00     0.049 A 
ATOM     46  H   UNL A   1      43.531  27.093  27.920  1.00  0.00     0.167 HD
ATOM     47  C   UNL A   1      45.628  30.920  28.359  1.00  0.00     0.037 A 
ATOM     48  C   UNL A   1      43.339  24.386  27.258  1.00  0.00     0.037 A 
ATOM     49  C   UNL A   1      46.641  29.969  27.995  1.00  0.00     0.049 A 
ATOM     50  C   UNL A   1      44.786  24.761  27.086  1.00  0.00     0.074 A 
ATOM     51  C   UNL A   1      48.004  30.174  27.865  1.00  0.00     0.029 A 
ATOM     52  N   UNL A   1      46.405  28.631  27.718  1.00  0.00    -0.354 N 
ATOM     53  N   UNL A   1      45.369  25.919  27.282  1.00  0.00    -0.248 NA
ATOM     54  C   UNL A   1      45.701  23.701  26.635  1.00  0.00     0.031 C 
ATOM     55  C   UNL A   1      48.589  28.970  27.471  1.00  0.00     0.029 A 
ATOM     56  C   UNL A   1      47.598  28.002  27.410  1.00  0.00     0.049 A 
ATOM     57  H   UNL A   1      45.523  28.196  27.737  1.00  0.00     0.167 HD
ATOM     58  C   UNL A   1      46.718  25.717  27.024  1.00  0.00     0.074 A 
ATOM     59  C   UNL A   1      46.871  24.326  26.656  1.00  0.00     0.031 C 
ATOM     60  C   UNL A   1      47.738  26.605  27.087  1.00  0.00     0.037 A 
BRANCH  47  61
ATOM     61  C   UNL A   1      46.059  32.328  28.646  1.00  0.00     0.057 A 
ATOM     62  C   UNL A   1      46.107  33.287  27.625  1.00  0.00     0.134 A 
ATOM     63  C   UNL A   1      46.522  32.707  29.912  1.00  0.00     0.134 A 
ATOM     64  F   UNL A   1      45.685  32.987  26.388  1.00  0.00    -0.206 F 
ATOM     65  C   UNL A   1      46.624  34.564  27.849  1.00  0.00     0.040 A 
ATOM     66  C   UNL A   1      47.015  33.990  30.155  1.00  0.00     0.040 A 
ATOM     67  F   UNL A   1      46.492  31.839  30.935  1.00  0.00    -0.206 F 
ATOM     68  C   UNL A   1      47.080  34.918  29.117  1.00  0.00     0.006 A 
ENDBRANCH  47  61
BRANCH  48  69
ATOM     69  C   UNL A   1      42.887  22.989  27.031  1.00  0.00     0.057 A 
ATOM     70  C   UNL A   1      42.594  22.123  28.091  1.00  0.00     0.134 A 
ATOM     71  C   UNL A   1      42.728  22.489  25.732  1.00  0.00     0.134 A 
ATOM     72  F   UNL A   1      42.729  22.534  29.361  1.00  0.00    -0.206 F 
ATOM     73  C   UNL A   1      42.168  20.811  27.870  1.00  0.00     0.040 A 
ATOM     74  C   UNL A   1      42.275  21.190  25.496  1.00  0.00     0.040 A 
ATOM     75  F   UNL A   1      42.975  23.274  24.673  1.00  0.00    -0.206 F 
ATOM     76  C   UNL A   1      41.999  20.345  26.568  1.00  0.00     0.006 A 
ENDBRANCH  48  69
BRANCH  60  77
ATOM     77  C   UNL A   1      49.127  26.107  26.820  1.00  0.00     0.057 A 
ATOM     78  C   UNL A   1      49.906  25.594  27.867  1.00  0.00     0.134 A 
ATOM     79  C   UNL A   1      49.733  26.243  25.567  1.00  0.00     0.134 A 
ATOM     80  F   UNL A   1      49.386  25.451  29.095  1.00  0.00    -0.206 F 
ATOM     81  C   UNL A   1      51.247  25.258  27.681  1.00  0.00     0.040 A 
ATOM     82  C   UNL A   1      51.067  25.885  25.362  1.00  0.00     0.040 A 
ATOM     83  F   UNL A   1      49.038  26.720  24.522  1.00  0.00    -0.206 F 
ATOM     84  C   UNL A   1      51.831  25.404  26.425  1.00  0.00     0.006 A 
ENDBRANCH  60  77
ENDBRANCH  34  35
ENDBRANCH  26  29
ENDBRANCH  24  25
ENDBRANCH   1  24
TORSDOF 12
ENDMDL
