MODEL 1
REMARK VINA RESULT:     -14.1      0.000      0.000
REMARK SMILES O=C(CCOc1cccc(/C=C2\CCn3c2nc2cc(Cl)ccc2c3=O)c1)NCCCNC(=O)c1ccc(-c2c3nc(c(-c4c(F)cccc4F)c4ccc([nH]4)c(-c4c(F)cccc4F)c4nc(c(-c5c(F)cccc5F)c5ccc2[nH]5)C=C4)C=C3)cc1
REMARK SMILES IDX 29 1 28 2 1 3 2 4 3 6 4 7 5 8 6 9 7 10 27 11 8 12 10 13 9 14
REMARK SMILES IDX 11 15 12 16 13 17 16 18 14 19 15 20 17 21 25 22 18 23 24 24
REMARK SMILES IDX 26 25 19 26 23 27 20 28 22 29 21 30 30 31 31 32 32 33 33 34
REMARK SMILES IDX 34 36 35 37 36 38 88 39 37 40 87 41 38 42 39 43 40 44 81 45
REMARK SMILES IDX 41 46 86 47 80 48 82 49 42 50 85 51 79 52 78 53 43 55 69 56
REMARK SMILES IDX 52 57 68 58 53 59 56 60 67 61 83 62 54 63 55 64 66 66 84 67
REMARK SMILES IDX 57 68 44 69 45 70 50 71 46 72 47 73 49 74 51 75 48 76 70 77
REMARK SMILES IDX 71 78 76 79 72 80 73 81 75 82 77 83 74 84 58 85 59 86 64 87
REMARK SMILES IDX 60 88 61 89 63 90 65 91 62 92
REMARK H PARENT 28 5 32 35 82 54 56 65
REMARK Flexibility Score: inf
ROOT
ATOM      1  C   UNL A   1      34.423  32.563  28.428  1.00  0.00     0.117 C 
ENDROOT
BRANCH   1   2
ATOM      2  N   UNL A   1      33.439  31.848  27.659  1.00  0.00    -0.356 N 
ATOM      3  O   UNL A   1      34.731  29.970  27.348  1.00  0.00    -0.275 OA
ATOM      4  C   UNL A   1      33.645  30.537  27.302  1.00  0.00     0.223 C 
ATOM      5  H   UNL A   1      32.610  32.303  27.385  1.00  0.00     0.163 HD
BRANCH   4   6
ATOM      6  C   UNL A   1      32.363  29.808  27.011  1.00  0.00     0.141 C 
BRANCH   6   7
ATOM      7  C   UNL A   1      31.749  30.443  25.763  1.00  0.00     0.239 C 
BRANCH   7   8
ATOM      8  O   UNL A   1      31.115  29.455  24.944  1.00  0.00    -0.493 OA
BRANCH   8   9
ATOM      9  C   UNL A   1      31.820  28.328  24.602  1.00  0.00     0.119 A 
ATOM     10  C   UNL A   1      32.788  28.523  23.623  1.00  0.00     0.046 A 
ATOM     11  C   UNL A   1      31.495  27.016  24.989  1.00  0.00     0.054 A 
ATOM     12  C   UNL A   1      33.495  27.426  23.124  1.00  0.00     0.004 A 
ATOM     13  C   UNL A   1      31.986  25.887  24.281  1.00  0.00    -0.022 A 
ATOM     14  C   UNL A   1      33.115  26.112  23.475  1.00  0.00     0.008 A 
BRANCH  13  15
ATOM     15  C   UNL A   1      31.055  24.646  24.106  1.00  0.00     0.015 C 
ATOM     16  C   UNL A   1      30.872  23.711  25.107  1.00  0.00    -0.003 C 
ATOM     17  C   UNL A   1      31.138  24.142  26.508  1.00  0.00     0.061 C 
ATOM     18  C   UNL A   1      31.731  22.397  25.118  1.00  0.00     0.139 A 
ATOM     19  C   UNL A   1      32.684  24.163  26.553  1.00  0.00     0.132 C 
ATOM     20  N   UNL A   1      33.226  23.217  25.473  1.00  0.00    -0.292 N 
ATOM     21  N   UNL A   1      31.624  20.941  25.105  1.00  0.00    -0.230 NA
ATOM     22  C   UNL A   1      34.856  22.432  25.427  1.00  0.00     0.261 A 
ATOM     23  C   UNL A   1      33.087  19.819  25.093  1.00  0.00     0.080 A 
ATOM     24  C   UNL A   1      34.747  20.488  25.315  1.00  0.00     0.066 A 
ATOM     25  O   UNL A   1      35.873  23.104  25.526  1.00  0.00    -0.269 OA
ATOM     26  C   UNL A   1      32.983  18.545  24.602  1.00  0.00     0.049 A 
ATOM     27  C   UNL A   1      35.859  19.764  24.983  1.00  0.00     0.017 A 
ATOM     28  C   UNL A   1      34.218  17.939  24.257  1.00  0.00     0.043 A 
ATOM     29  C   UNL A   1      35.557  18.503  24.432  1.00  0.00     0.021 A 
ATOM     30  Cl  UNL A   1      34.138  16.414  23.425  1.00  0.00    -0.084 Cl
ENDBRANCH  13  15
ENDBRANCH   8   9
ENDBRANCH   7   8
ENDBRANCH   6   7
ENDBRANCH   4   6
ENDBRANCH   1   2
BRANCH   1  31
ATOM     31  C   UNL A   1      34.412  34.175  28.474  1.00  0.00     0.042 C 
BRANCH  31  32
ATOM     32  C   UNL A   1      33.052  35.825  29.002  1.00  0.00     0.118 C 
BRANCH  32  33
ATOM     33  N   UNL A   1      32.872  36.491  30.570  1.00  0.00    -0.352 N 
ATOM     34  C   UNL A   1      32.712  35.892  31.778  1.00  0.00     0.251 C 
ATOM     35  H   UNL A   1      32.888  37.475  30.599  1.00  0.00     0.163 HD
ATOM     36  O   UNL A   1      31.852  36.218  32.583  1.00  0.00    -0.269 OA
BRANCH  34  37
ATOM     37  C   UNL A   1      33.748  34.983  32.121  1.00  0.00     0.039 A 
ATOM     38  C   UNL A   1      33.439  33.735  32.642  1.00  0.00     0.014 A 
ATOM     39  C   UNL A   1      35.031  35.496  31.931  1.00  0.00     0.014 A 
ATOM     40  C   UNL A   1      34.499  32.941  32.991  1.00  0.00     0.010 A 
ATOM     41  C   UNL A   1      36.079  34.686  32.221  1.00  0.00     0.010 A 
ATOM     42  C   UNL A   1      35.797  33.435  32.783  1.00  0.00    -0.014 A 
BRANCH  42  43
ATOM     43  C   UNL A   1      36.950  32.689  33.239  1.00  0.00     0.031 A 
ATOM     44  C   UNL A   1      37.544  33.090  34.543  1.00  0.00     0.074 A 
ATOM     45  C   UNL A   1      37.472  31.812  32.377  1.00  0.00     0.049 A 
ATOM     46  N   UNL A   1      38.667  32.711  35.075  1.00  0.00    -0.248 NA
ATOM     47  C   UNL A   1      36.810  34.108  35.324  1.00  0.00     0.031 C 
ATOM     48  C   UNL A   1      36.922  31.487  31.056  1.00  0.00     0.029 A 
ATOM     49  N   UNL A   1      38.594  31.058  32.477  1.00  0.00    -0.354 N 
ATOM     50  C   UNL A   1      38.787  33.457  36.238  1.00  0.00     0.074 A 
ATOM     51  C   UNL A   1      37.665  34.361  36.302  1.00  0.00     0.031 C 
ATOM     52  C   UNL A   1      37.710  30.572  30.474  1.00  0.00     0.029 A 
ATOM     53  C   UNL A   1      38.820  30.286  31.370  1.00  0.00     0.049 A 
ATOM     54  H   UNL A   1      39.185  31.065  33.264  1.00  0.00     0.167 HD
ATOM     55  C   UNL A   1      39.753  33.353  37.174  1.00  0.00     0.037 A 
ATOM     56  C   UNL A   1      39.834  29.439  31.143  1.00  0.00     0.037 A 
ATOM     57  C   UNL A   1      40.828  32.407  37.054  1.00  0.00     0.049 A 
ATOM     58  C   UNL A   1      40.852  29.293  32.236  1.00  0.00     0.074 A 
ATOM     59  C   UNL A   1      41.852  32.137  37.937  1.00  0.00     0.029 A 
ATOM     60  N   UNL A   1      40.997  31.562  35.960  1.00  0.00    -0.354 N 
ATOM     61  N   UNL A   1      40.944  29.947  33.372  1.00  0.00    -0.248 NA
ATOM     62  C   UNL A   1      41.889  28.283  32.030  1.00  0.00     0.031 C 
ATOM     63  C   UNL A   1      42.657  31.144  37.364  1.00  0.00     0.029 A 
ATOM     64  C   UNL A   1      42.109  30.765  36.146  1.00  0.00     0.049 A 
ATOM     65  H   UNL A   1      40.410  31.536  35.170  1.00  0.00     0.167 HD
ATOM     66  C   UNL A   1      42.033  29.409  34.036  1.00  0.00     0.074 A 
ATOM     67  C   UNL A   1      42.555  28.362  33.173  1.00  0.00     0.031 C 
ATOM     68  C   UNL A   1      42.568  29.739  35.240  1.00  0.00     0.037 A 
BRANCH  55  69
ATOM     69  C   UNL A   1      39.662  34.261  38.362  1.00  0.00     0.057 A 
ATOM     70  C   UNL A   1      38.979  33.889  39.531  1.00  0.00     0.134 A 
ATOM     71  C   UNL A   1      40.237  35.538  38.334  1.00  0.00     0.134 A 
ATOM     72  F   UNL A   1      38.380  32.692  39.615  1.00  0.00    -0.206 F 
ATOM     73  C   UNL A   1      38.848  34.761  40.613  1.00  0.00     0.040 A 
ATOM     74  C   UNL A   1      40.138  36.407  39.422  1.00  0.00     0.040 A 
ATOM     75  F   UNL A   1      40.893  35.966  37.246  1.00  0.00    -0.206 F 
ATOM     76  C   UNL A   1      39.434  36.023  40.562  1.00  0.00     0.006 A 
ENDBRANCH  55  69
BRANCH  56  77
ATOM     77  C   UNL A   1      39.863  28.645  29.898  1.00  0.00     0.057 A 
ATOM     78  C   UNL A   1      40.565  29.102  28.777  1.00  0.00     0.134 A 
ATOM     79  C   UNL A   1      39.249  27.391  29.810  1.00  0.00     0.134 A 
ATOM     80  F   UNL A   1      41.186  30.291  28.809  1.00  0.00    -0.206 F 
ATOM     81  C   UNL A   1      40.628  28.356  27.600  1.00  0.00     0.040 A 
ATOM     82  C   UNL A   1      39.324  26.622  28.647  1.00  0.00     0.040 A 
ATOM     83  F   UNL A   1      38.594  26.880  30.863  1.00  0.00    -0.206 F 
ATOM     84  C   UNL A   1      40.008  27.109  27.535  1.00  0.00     0.006 A 
ENDBRANCH  56  77
BRANCH  68  85
ATOM     85  C   UNL A   1      43.745  28.927  35.677  1.00  0.00     0.057 A 
ATOM     86  C   UNL A   1      45.053  29.286  35.334  1.00  0.00     0.134 A 
ATOM     87  C   UNL A   1      43.561  27.787  36.469  1.00  0.00     0.134 A 
ATOM     88  F   UNL A   1      45.286  30.362  34.567  1.00  0.00    -0.206 F 
ATOM     89  C   UNL A   1      46.142  28.514  35.735  1.00  0.00     0.040 A 
ATOM     90  C   UNL A   1      44.645  27.027  36.902  1.00  0.00     0.040 A 
ATOM     91  F   UNL A   1      42.330  27.404  36.838  1.00  0.00    -0.206 F 
ATOM     92  C   UNL A   1      45.938  27.385  36.527  1.00  0.00     0.006 A 
ENDBRANCH  68  85
ENDBRANCH  42  43
ENDBRANCH  34  37
ENDBRANCH  32  33
ENDBRANCH  31  32
ENDBRANCH   1  31
TORSDOF 14
ENDMDL
MODEL 2
REMARK VINA RESULT:     -13.9      6.025     11.467
REMARK SMILES O=C(CCOc1cccc(/C=C2\CCn3c2nc2cc(Cl)ccc2c3=O)c1)NCCCNC(=O)c1ccc(-c2c3nc(c(-c4c(F)cccc4F)c4ccc([nH]4)c(-c4c(F)cccc4F)c4nc(c(-c5c(F)cccc5F)c5ccc2[nH]5)C=C4)C=C3)cc1
REMARK SMILES IDX 29 1 28 2 1 3 2 4 3 6 4 7 5 8 6 9 7 10 27 11 8 12 10 13 9 14
REMARK SMILES IDX 11 15 12 16 13 17 16 18 14 19 15 20 17 21 25 22 18 23 24 24
REMARK SMILES IDX 26 25 19 26 23 27 20 28 22 29 21 30 30 31 31 32 32 33 33 34
REMARK SMILES IDX 34 36 35 37 36 38 88 39 37 40 87 41 38 42 39 43 40 44 81 45
REMARK SMILES IDX 41 46 86 47 80 48 82 49 42 50 85 51 79 52 78 53 43 55 69 56
REMARK SMILES IDX 52 57 68 58 53 59 56 60 67 61 83 62 54 63 55 64 66 66 84 67
REMARK SMILES IDX 57 68 44 69 45 70 50 71 46 72 47 73 49 74 51 75 48 76 70 77
REMARK SMILES IDX 71 78 76 79 72 80 73 81 75 82 77 83 74 84 58 85 59 86 64 87
REMARK SMILES IDX 60 88 61 89 63 90 65 91 62 92
REMARK H PARENT 28 5 32 35 82 54 56 65
REMARK Flexibility Score: inf
ROOT
ATOM      1  C   UNL A   1      37.514  23.257  25.959  1.00  0.00     0.117 C 
ENDROOT
BRANCH   1   2
ATOM      2  N   UNL A   1      36.175  22.866  26.317  1.00  0.00    -0.356 N 
ATOM      3  O   UNL A   1      35.920  21.366  24.593  1.00  0.00    -0.275 OA
ATOM      4  C   UNL A   1      35.547  21.835  25.662  1.00  0.00     0.223 C 
ATOM      5  H   UNL A   1      35.705  23.343  27.040  1.00  0.00     0.163 HD
BRANCH   4   6
ATOM      6  C   UNL A   1      34.447  21.216  26.477  1.00  0.00     0.141 C 
BRANCH   6   7
ATOM      7  C   UNL A   1      33.635  20.318  25.543  1.00  0.00     0.239 C 
BRANCH   7   8
ATOM      8  O   UNL A   1      32.233  20.579  25.670  1.00  0.00    -0.493 OA
BRANCH   8   9
ATOM      9  C   UNL A   1      31.803  21.883  25.690  1.00  0.00     0.119 A 
ATOM     10  C   UNL A   1      30.966  22.203  26.752  1.00  0.00     0.046 A 
ATOM     11  C   UNL A   1      31.959  22.807  24.641  1.00  0.00     0.054 A 
ATOM     12  C   UNL A   1      30.387  23.472  26.815  1.00  0.00     0.004 A 
ATOM     13  C   UNL A   1      31.147  23.967  24.544  1.00  0.00    -0.022 A 
ATOM     14  C   UNL A   1      30.501  24.365  25.726  1.00  0.00     0.008 A 
BRANCH  13  15
ATOM     15  C   UNL A   1      30.700  24.456  23.130  1.00  0.00     0.015 C 
ATOM     16  C   UNL A   1      31.426  25.378  22.401  1.00  0.00    -0.003 C 
ATOM     17  C   UNL A   1      32.875  25.518  22.718  1.00  0.00     0.061 C 
ATOM     18  C   UNL A   1      31.044  26.899  22.461  1.00  0.00     0.139 A 
ATOM     19  C   UNL A   1      32.842  26.313  24.045  1.00  0.00     0.132 C 
ATOM     20  N   UNL A   1      31.523  27.094  24.125  1.00  0.00    -0.292 N 
ATOM     21  N   UNL A   1      30.652  28.031  21.626  1.00  0.00    -0.230 NA
ATOM     22  C   UNL A   1      31.185  28.567  25.118  1.00  0.00     0.261 A 
ATOM     23  C   UNL A   1      30.266  29.703  22.303  1.00  0.00     0.080 A 
ATOM     24  C   UNL A   1      30.568  30.071  24.041  1.00  0.00     0.066 A 
ATOM     25  O   UNL A   1      31.404  28.569  26.322  1.00  0.00    -0.269 OA
ATOM     26  C   UNL A   1      29.462  30.566  21.608  1.00  0.00     0.049 A 
ATOM     27  C   UNL A   1      29.999  31.155  24.652  1.00  0.00     0.017 A 
ATOM     28  C   UNL A   1      28.904  31.613  22.384  1.00  0.00     0.043 A 
ATOM     29  C   UNL A   1      29.151  31.890  23.800  1.00  0.00     0.021 A 
ATOM     30  Cl  UNL A   1      27.704  32.608  21.613  1.00  0.00    -0.084 Cl
ENDBRANCH  13  15
ENDBRANCH   8   9
ENDBRANCH   7   8
ENDBRANCH   6   7
ENDBRANCH   4   6
ENDBRANCH   1   2
BRANCH   1  31
ATOM     31  C   UNL A   1      38.729  22.201  26.062  1.00  0.00     0.042 C 
BRANCH  31  32
ATOM     32  C   UNL A   1      39.114  20.057  25.738  1.00  0.00     0.118 C 
BRANCH  32  33
ATOM     33  N   UNL A   1      40.491  19.207  26.300  1.00  0.00    -0.352 N 
ATOM     34  C   UNL A   1      41.815  19.414  26.082  1.00  0.00     0.251 C 
ATOM     35  H   UNL A   1      40.287  18.437  26.879  1.00  0.00     0.163 HD
ATOM     36  O   UNL A   1      42.591  18.530  25.751  1.00  0.00    -0.269 OA
BRANCH  34  37
ATOM     37  C   UNL A   1      42.274  20.705  26.459  1.00  0.00     0.039 A 
ATOM     38  C   UNL A   1      42.303  21.074  27.796  1.00  0.00     0.014 A 
ATOM     39  C   UNL A   1      42.616  21.518  25.378  1.00  0.00     0.014 A 
ATOM     40  C   UNL A   1      42.712  22.354  28.066  1.00  0.00     0.010 A 
ATOM     41  C   UNL A   1      43.078  22.763  25.651  1.00  0.00     0.010 A 
ATOM     42  C   UNL A   1      43.082  23.175  26.989  1.00  0.00    -0.014 A 
BRANCH  42  43
ATOM     43  C   UNL A   1      43.411  24.568  27.205  1.00  0.00     0.031 A 
ATOM     44  C   UNL A   1      44.842  24.954  27.081  1.00  0.00     0.074 A 
ATOM     45  C   UNL A   1      42.424  25.350  27.649  1.00  0.00     0.049 A 
ATOM     46  N   UNL A   1      45.411  26.077  27.401  1.00  0.00    -0.248 NA
ATOM     47  C   UNL A   1      45.773  23.912  26.597  1.00  0.00     0.031 C 
ATOM     48  C   UNL A   1      41.030  24.934  27.848  1.00  0.00     0.029 A 
ATOM     49  N   UNL A   1      42.452  26.649  28.037  1.00  0.00    -0.354 N 
ATOM     50  C   UNL A   1      46.765  25.873  27.179  1.00  0.00     0.074 A 
ATOM     51  C   UNL A   1      46.945  24.503  26.768  1.00  0.00     0.031 C 
ATOM     52  C   UNL A   1      40.328  25.980  28.307  1.00  0.00     0.029 A 
ATOM     53  C   UNL A   1      41.234  27.109  28.458  1.00  0.00     0.049 A 
ATOM     54  H   UNL A   1      43.265  27.204  28.019  1.00  0.00     0.167 HD
ATOM     55  C   UNL A   1      47.753  26.786  27.290  1.00  0.00     0.037 A 
ATOM     56  C   UNL A   1      40.920  28.331  28.909  1.00  0.00     0.037 A 
ATOM     57  C   UNL A   1      47.491  28.144  27.679  1.00  0.00     0.049 A 
ATOM     58  C   UNL A   1      42.027  29.343  28.950  1.00  0.00     0.074 A 
ATOM     59  C   UNL A   1      48.368  29.203  27.785  1.00  0.00     0.029 A 
ATOM     60  N   UNL A   1      46.229  28.623  28.020  1.00  0.00    -0.354 N 
ATOM     61  N   UNL A   1      43.304  29.182  28.682  1.00  0.00    -0.248 NA
ATOM     62  C   UNL A   1      41.653  30.704  29.332  1.00  0.00     0.031 C 
ATOM     63  C   UNL A   1      47.639  30.319  28.215  1.00  0.00     0.029 A 
ATOM     64  C   UNL A   1      46.301  29.965  28.334  1.00  0.00     0.049 A 
ATOM     65  H   UNL A   1      45.405  28.083  28.034  1.00  0.00     0.167 HD
ATOM     66  C   UNL A   1      43.886  30.429  28.833  1.00  0.00     0.074 A 
ATOM     67  C   UNL A   1      42.811  31.335  29.201  1.00  0.00     0.031 C 
ATOM     68  C   UNL A   1      45.183  30.806  28.691  1.00  0.00     0.037 A 
BRANCH  55  69
ATOM     69  C   UNL A   1      49.147  26.333  26.981  1.00  0.00     0.057 A 
ATOM     70  C   UNL A   1      50.024  25.896  27.985  1.00  0.00     0.134 A 
ATOM     71  C   UNL A   1      49.635  26.359  25.669  1.00  0.00     0.134 A 
ATOM     72  F   UNL A   1      49.632  25.874  29.268  1.00  0.00    -0.206 F 
ATOM     73  C   UNL A   1      51.341  25.529  27.701  1.00  0.00     0.040 A 
ATOM     74  C   UNL A   1      50.941  25.966  25.368  1.00  0.00     0.040 A 
ATOM     75  F   UNL A   1      48.857  26.777  24.661  1.00  0.00    -0.206 F 
ATOM     76  C   UNL A   1      51.800  25.558  26.386  1.00  0.00     0.006 A 
ENDBRANCH  55  69
BRANCH  56  77
ATOM     77  C   UNL A   1      39.520  28.649  29.258  1.00  0.00     0.057 A 
ATOM     78  C   UNL A   1      39.057  28.486  30.569  1.00  0.00     0.134 A 
ATOM     79  C   UNL A   1      38.627  29.175  28.318  1.00  0.00     0.134 A 
ATOM     80  F   UNL A   1      39.873  27.999  31.516  1.00  0.00    -0.206 F 
ATOM     81  C   UNL A   1      37.748  28.805  30.926  1.00  0.00     0.040 A 
ATOM     82  C   UNL A   1      37.321  29.521  28.666  1.00  0.00     0.040 A 
ATOM     83  F   UNL A   1      39.022  29.391  27.055  1.00  0.00    -0.206 F 
ATOM     84  C   UNL A   1      36.876  29.327  29.972  1.00  0.00     0.006 A 
ENDBRANCH  56  77
BRANCH  68  85
ATOM     85  C   UNL A   1      45.469  32.258  28.904  1.00  0.00     0.057 A 
ATOM     86  C   UNL A   1      45.837  32.758  30.159  1.00  0.00     0.134 A 
ATOM     87  C   UNL A   1      45.396  33.157  27.834  1.00  0.00     0.134 A 
ATOM     88  F   UNL A   1      45.910  31.943  31.222  1.00  0.00    -0.206 F 
ATOM     89  C   UNL A   1      46.087  34.115  30.350  1.00  0.00     0.040 A 
ATOM     90  C   UNL A   1      45.675  34.510  28.007  1.00  0.00     0.040 A 
ATOM     91  F   UNL A   1      45.060  32.731  26.607  1.00  0.00    -0.206 F 
ATOM     92  C   UNL A   1      46.012  34.993  29.270  1.00  0.00     0.006 A 
ENDBRANCH  68  85
ENDBRANCH  42  43
ENDBRANCH  34  37
ENDBRANCH  32  33
ENDBRANCH  31  32
ENDBRANCH   1  31
TORSDOF 14
ENDMDL
MODEL 3
REMARK VINA RESULT:     -13.7      1.179      1.949
REMARK SMILES O=C(CCOc1cccc(/C=C2\CCn3c2nc2cc(Cl)ccc2c3=O)c1)NCCCNC(=O)c1ccc(-c2c3nc(c(-c4c(F)cccc4F)c4ccc([nH]4)c(-c4c(F)cccc4F)c4nc(c(-c5c(F)cccc5F)c5ccc2[nH]5)C=C4)C=C3)cc1
REMARK SMILES IDX 29 1 28 2 1 3 2 4 3 6 4 7 5 8 6 9 7 10 27 11 8 12 10 13 9 14
REMARK SMILES IDX 11 15 12 16 13 17 16 18 14 19 15 20 17 21 25 22 18 23 24 24
REMARK SMILES IDX 26 25 19 26 23 27 20 28 22 29 21 30 30 31 31 32 32 33 33 34
REMARK SMILES IDX 34 36 35 37 36 38 88 39 37 40 87 41 38 42 39 43 40 44 81 45
REMARK SMILES IDX 41 46 86 47 80 48 82 49 42 50 85 51 79 52 78 53 43 55 69 56
REMARK SMILES IDX 52 57 68 58 53 59 56 60 67 61 83 62 54 63 55 64 66 66 84 67
REMARK SMILES IDX 57 68 44 69 45 70 50 71 46 72 47 73 49 74 51 75 48 76 70 77
REMARK SMILES IDX 71 78 76 79 72 80 73 81 75 82 77 83 74 84 58 85 59 86 64 87
REMARK SMILES IDX 60 88 61 89 63 90 65 91 62 92
REMARK H PARENT 28 5 32 35 82 54 56 65
REMARK Flexibility Score: inf
ROOT
ATOM      1  C   UNL A   1      34.475  32.633  29.167  1.00  0.00     0.117 C 
ENDROOT
BRANCH   1   2
ATOM      2  N   UNL A   1      34.029  31.457  28.466  1.00  0.00    -0.356 N 
ATOM      3  O   UNL A   1      36.080  30.962  27.551  1.00  0.00    -0.275 OA
ATOM      4  C   UNL A   1      34.928  30.642  27.822  1.00  0.00     0.223 C 
ATOM      5  H   UNL A   1      33.070  31.235  28.448  1.00  0.00     0.163 HD
BRANCH   4   6
ATOM      6  C   UNL A   1      34.410  29.245  27.633  1.00  0.00     0.141 C 
BRANCH   6   7
ATOM      7  C   UNL A   1      34.217  29.027  26.132  1.00  0.00     0.239 C 
BRANCH   7   8
ATOM      8  O   UNL A   1      32.856  28.696  25.832  1.00  0.00    -0.493 OA
BRANCH   8   9
ATOM      9  C   UNL A   1      32.512  27.374  25.699  1.00  0.00     0.119 A 
ATOM     10  C   UNL A   1      31.185  27.086  25.994  1.00  0.00     0.046 A 
ATOM     11  C   UNL A   1      33.416  26.312  25.514  1.00  0.00     0.054 A 
ATOM     12  C   UNL A   1      30.750  25.758  25.993  1.00  0.00     0.004 A 
ATOM     13  C   UNL A   1      33.057  24.969  25.804  1.00  0.00    -0.022 A 
ATOM     14  C   UNL A   1      31.680  24.702  25.868  1.00  0.00     0.008 A 
BRANCH  13  15
ATOM     15  C   UNL A   1      34.133  24.020  26.422  1.00  0.00     0.015 C 
ATOM     16  C   UNL A   1      35.085  23.380  25.653  1.00  0.00    -0.003 C 
ATOM     17  C   UNL A   1      35.419  23.980  24.331  1.00  0.00     0.061 C 
ATOM     18  C   UNL A   1      34.838  21.909  25.166  1.00  0.00     0.139 A 
ATOM     19  C   UNL A   1      34.191  23.585  23.476  1.00  0.00     0.132 C 
ATOM     20  N   UNL A   1      33.538  22.339  24.089  1.00  0.00    -0.292 N 
ATOM     21  N   UNL A   1      35.402  20.562  25.207  1.00  0.00    -0.230 NA
ATOM     22  C   UNL A   1      32.468  21.144  23.253  1.00  0.00     0.261 A 
ATOM     23  C   UNL A   1      34.594  19.102  24.424  1.00  0.00     0.080 A 
ATOM     24  C   UNL A   1      33.147  19.320  23.371  1.00  0.00     0.066 A 
ATOM     25  O   UNL A   1      31.475  21.518  22.644  1.00  0.00    -0.269 OA
ATOM     26  C   UNL A   1      34.860  17.836  24.873  1.00  0.00     0.049 A 
ATOM     27  C   UNL A   1      32.331  18.270  23.052  1.00  0.00     0.017 A 
ATOM     28  C   UNL A   1      33.899  16.861  24.503  1.00  0.00     0.043 A 
ATOM     29  C   UNL A   1      32.721  17.059  23.657  1.00  0.00     0.021 A 
ATOM     30  Cl  UNL A   1      34.061  15.287  25.224  1.00  0.00    -0.084 Cl
ENDBRANCH  13  15
ENDBRANCH   8   9
ENDBRANCH   7   8
ENDBRANCH   6   7
ENDBRANCH   4   6
ENDBRANCH   1   2
BRANCH   1  31
ATOM     31  C   UNL A   1      34.207  34.101  28.555  1.00  0.00     0.042 C 
BRANCH  31  32
ATOM     32  C   UNL A   1      33.431  36.062  29.190  1.00  0.00     0.118 C 
BRANCH  32  33
ATOM     33  N   UNL A   1      33.095  36.513  30.808  1.00  0.00    -0.352 N 
ATOM     34  C   UNL A   1      32.873  35.757  31.914  1.00  0.00     0.251 C 
ATOM     35  H   UNL A   1      33.056  37.485  30.961  1.00  0.00     0.163 HD
ATOM     36  O   UNL A   1      31.937  35.939  32.679  1.00  0.00    -0.269 OA
BRANCH  34  37
ATOM     37  C   UNL A   1      33.926  34.856  32.227  1.00  0.00     0.039 A 
ATOM     38  C   UNL A   1      33.641  33.571  32.663  1.00  0.00     0.014 A 
ATOM     39  C   UNL A   1      35.199  35.415  32.099  1.00  0.00     0.014 A 
ATOM     40  C   UNL A   1      34.715  32.786  32.990  1.00  0.00     0.010 A 
ATOM     41  C   UNL A   1      36.262  34.616  32.366  1.00  0.00     0.010 A 
ATOM     42  C   UNL A   1      36.003  33.326  32.843  1.00  0.00    -0.014 A 
BRANCH  42  43
ATOM     43  C   UNL A   1      37.166  32.585  33.282  1.00  0.00     0.031 A 
ATOM     44  C   UNL A   1      37.766  32.975  34.586  1.00  0.00     0.074 A 
ATOM     45  C   UNL A   1      37.689  31.724  32.405  1.00  0.00     0.049 A 
ATOM     46  N   UNL A   1      38.896  32.599  35.105  1.00  0.00    -0.248 NA
ATOM     47  C   UNL A   1      37.028  33.976  35.386  1.00  0.00     0.031 C 
ATOM     48  C   UNL A   1      37.132  31.411  31.083  1.00  0.00     0.029 A 
ATOM     49  N   UNL A   1      38.818  30.979  32.487  1.00  0.00    -0.354 N 
ATOM     50  C   UNL A   1      39.017  33.331  36.277  1.00  0.00     0.074 A 
ATOM     51  C   UNL A   1      37.888  34.224  36.361  1.00  0.00     0.031 C 
ATOM     52  C   UNL A   1      37.924  30.510  30.484  1.00  0.00     0.029 A 
ATOM     53  C   UNL A   1      39.043  30.223  31.368  1.00  0.00     0.049 A 
ATOM     54  H   UNL A   1      39.415  30.981  33.269  1.00  0.00     0.167 HD
ATOM     55  C   UNL A   1      39.992  33.223  37.205  1.00  0.00     0.037 A 
ATOM     56  C   UNL A   1      40.062  29.389  31.123  1.00  0.00     0.037 A 
ATOM     57  C   UNL A   1      41.074  32.289  37.064  1.00  0.00     0.049 A 
ATOM     58  C   UNL A   1      41.090  29.238  32.206  1.00  0.00     0.074 A 
ATOM     59  C   UNL A   1      42.107  32.017  37.936  1.00  0.00     0.029 A 
ATOM     60  N   UNL A   1      41.242  31.459  35.959  1.00  0.00    -0.354 N 
ATOM     61  N   UNL A   1      41.184  29.877  33.350  1.00  0.00    -0.248 NA
ATOM     62  C   UNL A   1      42.135  28.240  31.980  1.00  0.00     0.031 C 
ATOM     63  C   UNL A   1      42.916  31.038  37.345  1.00  0.00     0.029 A 
ATOM     64  C   UNL A   1      42.362  30.670  36.125  1.00  0.00     0.049 A 
ATOM     65  H   UNL A   1      40.649  31.439  35.172  1.00  0.00     0.167 HD
ATOM     66  C   UNL A   1      42.283  29.341  33.999  1.00  0.00     0.074 A 
ATOM     67  C   UNL A   1      42.808  28.309  33.119  1.00  0.00     0.031 C 
ATOM     68  C   UNL A   1      42.824  29.660  35.203  1.00  0.00     0.037 A 
BRANCH  55  69
ATOM     69  C   UNL A   1      39.902  34.116  38.405  1.00  0.00     0.057 A 
ATOM     70  C   UNL A   1      39.188  33.743  39.554  1.00  0.00     0.134 A 
ATOM     71  C   UNL A   1      40.509  35.377  38.407  1.00  0.00     0.134 A 
ATOM     72  F   UNL A   1      38.557  32.560  39.609  1.00  0.00    -0.206 F 
ATOM     73  C   UNL A   1      39.058  34.601  40.648  1.00  0.00     0.040 A 
ATOM     74  C   UNL A   1      40.411  36.232  39.507  1.00  0.00     0.040 A 
ATOM     75  F   UNL A   1      41.196  35.805  37.339  1.00  0.00    -0.206 F 
ATOM     76  C   UNL A   1      39.677  35.849  40.627  1.00  0.00     0.006 A 
ENDBRANCH  55  69
BRANCH  56  77
ATOM     77  C   UNL A   1      40.090  28.611  29.867  1.00  0.00     0.057 A 
ATOM     78  C   UNL A   1      39.374  27.414  29.753  1.00  0.00     0.134 A 
ATOM     79  C   UNL A   1      40.777  29.064  28.735  1.00  0.00     0.134 A 
ATOM     80  F   UNL A   1      38.684  26.939  30.802  1.00  0.00    -0.206 F 
ATOM     81  C   UNL A   1      39.365  26.678  28.569  1.00  0.00     0.040 A 
ATOM     82  C   UNL A   1      40.758  28.350  27.536  1.00  0.00     0.040 A 
ATOM     83  F   UNL A   1      41.451  30.222  28.769  1.00  0.00    -0.206 F 
ATOM     84  C   UNL A   1      40.058  27.148  27.454  1.00  0.00     0.006 A 
ENDBRANCH  56  77
BRANCH  68  85
ATOM     85  C   UNL A   1      44.011  28.853  35.622  1.00  0.00     0.057 A 
ATOM     86  C   UNL A   1      45.315  29.235  35.285  1.00  0.00     0.134 A 
ATOM     87  C   UNL A   1      43.843  27.694  36.388  1.00  0.00     0.134 A 
ATOM     88  F   UNL A   1      45.533  30.331  34.542  1.00  0.00    -0.206 F 
ATOM     89  C   UNL A   1      46.413  28.468  35.668  1.00  0.00     0.040 A 
ATOM     90  C   UNL A   1      44.936  26.937  36.803  1.00  0.00     0.040 A 
ATOM     91  F   UNL A   1      42.617  27.287  36.749  1.00  0.00    -0.206 F 
ATOM     92  C   UNL A   1      46.224  27.319  36.435  1.00  0.00     0.006 A 
ENDBRANCH  68  85
ENDBRANCH  42  43
ENDBRANCH  34  37
ENDBRANCH  32  33
ENDBRANCH  31  32
ENDBRANCH   1  31
TORSDOF 14
ENDMDL
