MODEL 1
REMARK VINA RESULT:     -11.5      0.000      0.000
REMARK SMILES Cc1cc(C)c2c(=O)n(CCCC(=O)NCCCNC(=O)c3ccc(-c4c5nc(c(-c6c(F)cccc6F)c6ccc([nH]6)c(-c6c(F)cccc6F)c6nc(c(-c7c(F)cccc7F)c7ccc4[nH]7)C=C6)C=C5)cc3)sc2n1
REMARK SMILES IDX 16 1 15 2 13 3 14 4 12 6 11 7 10 8 9 9 1 10 2 11 3 12 78 13
REMARK SMILES IDX 4 14 77 15 5 16 6 17 76 18 7 19 8 20 17 21 18 22 19 23 20 24
REMARK SMILES IDX 21 26 22 27 23 28 75 29 24 30 74 31 25 32 26 33 27 34 68 35
REMARK SMILES IDX 28 36 73 37 67 38 69 39 29 40 72 41 66 42 65 43 30 45 56 46
REMARK SMILES IDX 39 47 55 48 40 49 43 50 54 51 70 52 41 53 42 54 53 56 71 57
REMARK SMILES IDX 44 58 31 59 32 60 37 61 33 62 34 63 36 64 38 65 35 66 57 67
REMARK SMILES IDX 58 68 63 69 59 70 60 71 62 72 64 73 61 74 45 75 46 76 51 77
REMARK SMILES IDX 47 78 48 79 50 80 52 81 49 82
REMARK H PARENT 15 5 19 25 69 44 43 55
REMARK Flexibility Score: inf
ROOT
ATOM      1  C   UNL A   1      39.940  21.318  26.380  1.00  0.00     0.117 C 
ENDROOT
BRANCH   1   2
ATOM      2  N   UNL A   1      38.955  21.239  25.316  1.00  0.00    -0.356 N 
ATOM      3  C   UNL A   1      37.791  21.923  25.141  1.00  0.00     0.220 C 
ATOM      4  O   UNL A   1      37.056  21.588  24.211  1.00  0.00    -0.275 OA
ATOM      5  H   UNL A   1      39.161  20.585  24.609  1.00  0.00     0.163 HD
BRANCH   3   6
ATOM      6  C   UNL A   1      37.450  23.112  26.014  1.00  0.00     0.102 C 
BRANCH   6   7
ATOM      7  C   UNL A   1      36.405  24.102  25.490  1.00  0.00     0.033 C 
BRANCH   7   8
ATOM      8  C   UNL A   1      34.942  24.001  25.944  1.00  0.00     0.139 C 
BRANCH   8   9
ATOM      9  N   UNL A   1      34.168  22.786  25.746  1.00  0.00    -0.262 N 
ATOM     10  C   UNL A   1      32.451  16.951  25.142  1.00  0.00     0.067 C 
ATOM     11  C   UNL A   1      32.652  18.419  24.903  1.00  0.00     0.039 A 
ATOM     12  C   UNL A   1      32.256  19.007  23.693  1.00  0.00     0.027 A 
ATOM     13  N   UNL A   1      33.170  19.134  25.929  1.00  0.00    -0.241 NA
ATOM     14  C   UNL A   1      32.470  20.378  23.474  1.00  0.00    -0.033 A 
ATOM     15  C   UNL A   1      33.361  20.442  25.690  1.00  0.00     0.146 A 
ATOM     16  C   UNL A   1      32.011  21.032  22.208  1.00  0.00     0.045 C 
ATOM     17  C   UNL A   1      33.100  21.083  24.493  1.00  0.00     0.081 A 
ATOM     18  S   UNL A   1      33.954  21.569  26.924  1.00  0.00    -0.035 S 
ATOM     19  C   UNL A   1      33.621  22.468  24.501  1.00  0.00     0.270 A 
ATOM     20  O   UNL A   1      33.636  23.177  23.507  1.00  0.00    -0.268 OA
ENDBRANCH   8   9
ENDBRANCH   7   8
ENDBRANCH   6   7
ENDBRANCH   3   6
ENDBRANCH   1   2
BRANCH   1  21
ATOM     21  C   UNL A   1      40.662  19.981  26.566  1.00  0.00     0.042 C 
BRANCH  21  22
ATOM     22  C   UNL A   1      42.060  20.141  27.126  1.00  0.00     0.118 C 
BRANCH  22  23
ATOM     23  N   UNL A   1      43.104  19.666  26.225  1.00  0.00    -0.352 N 
ATOM     24  C   UNL A   1      43.880  20.439  25.371  1.00  0.00     0.251 C 
ATOM     25  H   UNL A   1      43.277  18.696  26.221  1.00  0.00     0.163 HD
ATOM     26  O   UNL A   1      44.480  19.954  24.438  1.00  0.00    -0.269 OA
BRANCH  24  27
ATOM     27  C   UNL A   1      43.916  21.893  25.630  1.00  0.00     0.039 A 
ATOM     28  C   UNL A   1      43.081  22.766  24.933  1.00  0.00     0.014 A 
ATOM     29  C   UNL A   1      44.698  22.345  26.687  1.00  0.00     0.014 A 
ATOM     30  C   UNL A   1      42.958  24.079  25.386  1.00  0.00     0.010 A 
ATOM     31  C   UNL A   1      44.443  23.582  27.231  1.00  0.00     0.010 A 
ATOM     32  C   UNL A   1      43.607  24.479  26.569  1.00  0.00    -0.014 A 
BRANCH  32  33
ATOM     33  C   UNL A   1      43.345  25.800  27.150  1.00  0.00     0.031 A 
ATOM     34  C   UNL A   1      44.316  26.875  26.796  1.00  0.00     0.074 A 
ATOM     35  C   UNL A   1      42.234  26.122  27.852  1.00  0.00     0.049 A 
ATOM     36  N   UNL A   1      45.167  27.449  27.583  1.00  0.00    -0.248 NA
ATOM     37  C   UNL A   1      44.416  27.312  25.394  1.00  0.00     0.031 C 
ATOM     38  C   UNL A   1      41.031  25.311  28.078  1.00  0.00     0.029 A 
ATOM     39  N   UNL A   1      41.916  27.303  28.462  1.00  0.00    -0.354 N 
ATOM     40  C   UNL A   1      45.781  28.448  26.832  1.00  0.00     0.074 A 
ATOM     41  C   UNL A   1      45.383  28.232  25.464  1.00  0.00     0.031 C 
ATOM     42  C   UNL A   1      40.037  26.087  28.562  1.00  0.00     0.029 A 
ATOM     43  C   UNL A   1      40.597  27.383  28.888  1.00  0.00     0.049 A 
ATOM     44  H   UNL A   1      42.564  28.033  28.588  1.00  0.00     0.167 HD
ATOM     45  C   UNL A   1      46.385  29.510  27.436  1.00  0.00     0.037 A 
ATOM     46  C   UNL A   1      39.996  28.410  29.525  1.00  0.00     0.037 A 
ATOM     47  C   UNL A   1      46.519  29.305  28.852  1.00  0.00     0.049 A 
ATOM     48  C   UNL A   1      41.041  29.184  30.220  1.00  0.00     0.074 A 
ATOM     49  C   UNL A   1      47.376  28.643  29.702  1.00  0.00     0.029 A 
ATOM     50  N   UNL A   1      45.389  29.604  29.562  1.00  0.00    -0.354 N 
ATOM     51  N   UNL A   1      41.731  28.721  31.224  1.00  0.00    -0.248 NA
ATOM     52  C   UNL A   1      41.544  30.417  29.626  1.00  0.00     0.031 C 
ATOM     53  C   UNL A   1      46.638  28.394  30.900  1.00  0.00     0.029 A 
ATOM     54  C   UNL A   1      45.362  28.929  30.754  1.00  0.00     0.049 A 
ATOM     55  H   UNL A   1      44.686  30.221  29.256  1.00  0.00     0.167 HD
ATOM     56  C   UNL A   1      42.954  29.345  31.105  1.00  0.00     0.074 A 
ATOM     57  C   UNL A   1      42.721  30.499  30.249  1.00  0.00     0.031 C 
ATOM     58  C   UNL A   1      44.106  28.694  31.427  1.00  0.00     0.037 A 
BRANCH  45  59
ATOM     59  C   UNL A   1      46.467  30.904  26.863  1.00  0.00     0.057 A 
ATOM     60  C   UNL A   1      47.695  31.592  26.870  1.00  0.00     0.134 A 
ATOM     61  C   UNL A   1      45.336  31.700  26.596  1.00  0.00     0.134 A 
ATOM     62  F   UNL A   1      48.841  30.950  27.147  1.00  0.00    -0.206 F 
ATOM     63  C   UNL A   1      47.785  32.975  26.662  1.00  0.00     0.040 A 
ATOM     64  C   UNL A   1      45.418  33.073  26.340  1.00  0.00     0.040 A 
ATOM     65  F   UNL A   1      44.092  31.210  26.675  1.00  0.00    -0.206 F 
ATOM     66  C   UNL A   1      46.643  33.721  26.397  1.00  0.00     0.006 A 
ENDBRANCH  45  59
BRANCH  46  67
ATOM     67  C   UNL A   1      38.593  28.858  29.477  1.00  0.00     0.057 A 
ATOM     68  C   UNL A   1      37.801  28.870  30.630  1.00  0.00     0.134 A 
ATOM     69  C   UNL A   1      38.109  29.579  28.373  1.00  0.00     0.134 A 
ATOM     70  F   UNL A   1      38.193  28.216  31.734  1.00  0.00    -0.206 F 
ATOM     71  C   UNL A   1      36.621  29.616  30.710  1.00  0.00     0.040 A 
ATOM     72  C   UNL A   1      36.929  30.326  28.437  1.00  0.00     0.040 A 
ATOM     73  F   UNL A   1      38.816  29.658  27.236  1.00  0.00    -0.206 F 
ATOM     74  C   UNL A   1      36.195  30.366  29.617  1.00  0.00     0.006 A 
ENDBRANCH  46  67
BRANCH  58  75
ATOM     75  C   UNL A   1      44.002  27.552  32.386  1.00  0.00     0.057 A 
ATOM     76  C   UNL A   1      44.023  26.200  32.017  1.00  0.00     0.134 A 
ATOM     77  C   UNL A   1      43.925  27.838  33.753  1.00  0.00     0.134 A 
ATOM     78  F   UNL A   1      44.161  25.833  30.737  1.00  0.00    -0.206 F 
ATOM     79  C   UNL A   1      43.931  25.180  32.969  1.00  0.00     0.040 A 
ATOM     80  C   UNL A   1      43.862  26.829  34.715  1.00  0.00     0.040 A 
ATOM     81  F   UNL A   1      43.937  29.112  34.177  1.00  0.00    -0.206 F 
ATOM     82  C   UNL A   1      43.854  25.493  34.323  1.00  0.00     0.006 A 
ENDBRANCH  58  75
ENDBRANCH  32  33
ENDBRANCH  24  27
ENDBRANCH  22  23
ENDBRANCH  21  22
ENDBRANCH   1  21
TORSDOF 13
ENDMDL
MODEL 2
REMARK VINA RESULT:     -11.4      4.281      8.882
REMARK SMILES Cc1cc(C)c2c(=O)n(CCCC(=O)NCCCNC(=O)c3ccc(-c4c5nc(c(-c6c(F)cccc6F)c6ccc([nH]6)c(-c6c(F)cccc6F)c6nc(c(-c7c(F)cccc7F)c7ccc4[nH]7)C=C6)C=C5)cc3)sc2n1
REMARK SMILES IDX 16 1 15 2 13 3 14 4 12 6 11 7 10 8 9 9 1 10 2 11 3 12 78 13
REMARK SMILES IDX 4 14 77 15 5 16 6 17 76 18 7 19 8 20 17 21 18 22 19 23 20 24
REMARK SMILES IDX 21 26 22 27 23 28 75 29 24 30 74 31 25 32 26 33 27 34 68 35
REMARK SMILES IDX 28 36 73 37 67 38 69 39 29 40 72 41 66 42 65 43 30 45 56 46
REMARK SMILES IDX 39 47 55 48 40 49 43 50 54 51 70 52 41 53 42 54 53 56 71 57
REMARK SMILES IDX 44 58 31 59 32 60 37 61 33 62 34 63 36 64 38 65 35 66 57 67
REMARK SMILES IDX 58 68 63 69 59 70 60 71 62 72 64 73 61 74 45 75 46 76 51 77
REMARK SMILES IDX 47 78 48 79 50 80 52 81 49 82
REMARK H PARENT 15 5 19 25 69 44 43 55
REMARK Flexibility Score: inf
ROOT
ATOM      1  C   UNL A   1      33.105  29.944  26.460  1.00  0.00     0.117 C 
ENDROOT
BRANCH   1   2
ATOM      2  N   UNL A   1      32.109  29.003  26.942  1.00  0.00    -0.356 N 
ATOM      3  C   UNL A   1      32.051  27.648  26.828  1.00  0.00     0.220 C 
ATOM      4  O   UNL A   1      31.031  27.077  27.218  1.00  0.00    -0.275 OA
ATOM      5  H   UNL A   1      31.355  29.411  27.428  1.00  0.00     0.163 HD
BRANCH   3   6
ATOM      6  C   UNL A   1      33.236  26.861  26.313  1.00  0.00     0.102 C 
BRANCH   6   7
ATOM      7  C   UNL A   1      33.144  26.284  24.897  1.00  0.00     0.033 C 
BRANCH   7   8
ATOM      8  C   UNL A   1      31.792  25.836  24.325  1.00  0.00     0.139 C 
BRANCH   8   9
ATOM      9  N   UNL A   1      30.953  26.744  23.561  1.00  0.00    -0.262 N 
ATOM     10  C   UNL A   1      28.417  31.736  21.110  1.00  0.00     0.067 C 
ATOM     11  C   UNL A   1      28.612  30.423  21.810  1.00  0.00     0.039 A 
ATOM     12  C   UNL A   1      27.541  29.794  22.459  1.00  0.00     0.027 A 
ATOM     13  N   UNL A   1      29.844  29.868  21.724  1.00  0.00    -0.241 NA
ATOM     14  C   UNL A   1      27.742  28.575  23.129  1.00  0.00    -0.033 A 
ATOM     15  C   UNL A   1      30.005  28.704  22.373  1.00  0.00     0.146 A 
ATOM     16  C   UNL A   1      26.600  27.865  23.787  1.00  0.00     0.045 C 
ATOM     17  C   UNL A   1      29.036  28.067  23.125  1.00  0.00     0.081 A 
ATOM     18  S   UNL A   1      31.514  27.775  22.322  1.00  0.00    -0.035 S 
ATOM     19  C   UNL A   1      29.604  26.924  23.875  1.00  0.00     0.270 A 
ATOM     20  O   UNL A   1      28.971  26.302  24.715  1.00  0.00    -0.268 OA
ENDBRANCH   8   9
ENDBRANCH   7   8
ENDBRANCH   6   7
ENDBRANCH   3   6
ENDBRANCH   1   2
BRANCH   1  21
ATOM     21  C   UNL A   1      33.056  31.255  27.251  1.00  0.00     0.042 C 
BRANCH  21  22
ATOM     22  C   UNL A   1      34.431  31.750  27.651  1.00  0.00     0.118 C 
BRANCH  22  23
ATOM     23  N   UNL A   1      34.465  32.359  28.977  1.00  0.00    -0.352 N 
ATOM     24  C   UNL A   1      35.266  31.978  30.045  1.00  0.00     0.251 C 
ATOM     25  H   UNL A   1      33.857  33.118  29.130  1.00  0.00     0.163 HD
ATOM     26  O   UNL A   1      35.012  32.305  31.182  1.00  0.00    -0.269 OA
BRANCH  24  27
ATOM     27  C   UNL A   1      36.432  31.124  29.738  1.00  0.00     0.039 A 
ATOM     28  C   UNL A   1      37.684  31.684  29.487  1.00  0.00     0.014 A 
ATOM     29  C   UNL A   1      36.276  29.747  29.852  1.00  0.00     0.014 A 
ATOM     30  C   UNL A   1      38.799  30.847  29.464  1.00  0.00     0.010 A 
ATOM     31  C   UNL A   1      37.390  28.954  30.000  1.00  0.00     0.010 A 
ATOM     32  C   UNL A   1      38.659  29.479  29.767  1.00  0.00    -0.014 A 
BRANCH  32  33
ATOM     33  C   UNL A   1      39.843  28.627  29.919  1.00  0.00     0.031 A 
ATOM     34  C   UNL A   1      40.374  28.487  31.305  1.00  0.00     0.074 A 
ATOM     35  C   UNL A   1      40.381  27.878  28.930  1.00  0.00     0.049 A 
ATOM     36  N   UNL A   1      41.488  28.955  31.766  1.00  0.00    -0.248 NA
ATOM     37  C   UNL A   1      39.544  27.822  32.323  1.00  0.00     0.031 C 
ATOM     38  C   UNL A   1      39.861  27.647  27.575  1.00  0.00     0.029 A 
ATOM     39  N   UNL A   1      41.497  27.088  28.959  1.00  0.00    -0.354 N 
ATOM     40  C   UNL A   1      41.596  28.489  33.075  1.00  0.00     0.074 A 
ATOM     41  C   UNL A   1      40.318  27.915  33.408  1.00  0.00     0.031 C 
ATOM     42  C   UNL A   1      40.515  26.613  27.003  1.00  0.00     0.029 A 
ATOM     43  C   UNL A   1      41.636  26.264  27.852  1.00  0.00     0.049 A 
ATOM     44  H   UNL A   1      42.144  27.104  29.701  1.00  0.00     0.167 HD
ATOM     45  C   UNL A   1      42.807  28.411  33.695  1.00  0.00     0.037 A 
ATOM     46  C   UNL A   1      42.630  25.387  27.595  1.00  0.00     0.037 A 
ATOM     47  C   UNL A   1      43.828  29.092  32.946  1.00  0.00     0.049 A 
ATOM     48  C   UNL A   1      43.825  25.831  28.336  1.00  0.00     0.074 A 
ATOM     49  C   UNL A   1      44.267  30.386  32.779  1.00  0.00     0.029 A 
ATOM     50  N   UNL A   1      44.354  28.347  31.928  1.00  0.00    -0.354 N 
ATOM     51  N   UNL A   1      44.472  26.929  28.069  1.00  0.00    -0.248 NA
ATOM     52  C   UNL A   1      44.173  25.187  29.598  1.00  0.00     0.031 C 
ATOM     53  C   UNL A   1      44.929  30.423  31.514  1.00  0.00     0.029 A 
ATOM     54  C   UNL A   1      44.894  29.149  30.957  1.00  0.00     0.049 A 
ATOM     55  H   UNL A   1      44.346  27.363  31.896  1.00  0.00     0.167 HD
ATOM     56  C   UNL A   1      44.970  27.330  29.289  1.00  0.00     0.074 A 
ATOM     57  C   UNL A   1      44.930  26.146  30.135  1.00  0.00     0.031 C 
ATOM     58  C   UNL A   1      45.054  28.651  29.611  1.00  0.00     0.037 A 
BRANCH  45  59
ATOM     59  C   UNL A   1      43.188  27.380  34.729  1.00  0.00     0.057 A 
ATOM     60  C   UNL A   1      43.401  26.044  34.338  1.00  0.00     0.134 A 
ATOM     61  C   UNL A   1      43.049  27.583  36.115  1.00  0.00     0.134 A 
ATOM     62  F   UNL A   1      43.513  25.716  33.042  1.00  0.00    -0.206 F 
ATOM     63  C   UNL A   1      43.436  24.987  35.259  1.00  0.00     0.040 A 
ATOM     64  C   UNL A   1      43.130  26.543  37.047  1.00  0.00     0.040 A 
ATOM     65  F   UNL A   1      42.724  28.779  36.625  1.00  0.00    -0.206 F 
ATOM     66  C   UNL A   1      43.299  25.235  36.619  1.00  0.00     0.006 A 
ENDBRANCH  45  59
BRANCH  46  67
ATOM     67  C   UNL A   1      42.596  24.114  26.855  1.00  0.00     0.057 A 
ATOM     68  C   UNL A   1      43.141  24.012  25.570  1.00  0.00     0.134 A 
ATOM     69  C   UNL A   1      42.321  22.907  27.519  1.00  0.00     0.134 A 
ATOM     70  F   UNL A   1      43.445  25.114  24.869  1.00  0.00    -0.206 F 
ATOM     71  C   UNL A   1      43.461  22.777  24.998  1.00  0.00     0.040 A 
ATOM     72  C   UNL A   1      42.632  21.666  26.957  1.00  0.00     0.040 A 
ATOM     73  F   UNL A   1      41.834  22.903  28.769  1.00  0.00    -0.206 F 
ATOM     74  C   UNL A   1      43.228  21.600  25.703  1.00  0.00     0.006 A 
ENDBRANCH  46  67
BRANCH  58  75
ATOM     75  C   UNL A   1      45.121  29.628  28.481  1.00  0.00     0.057 A 
ATOM     76  C   UNL A   1      44.011  30.282  27.930  1.00  0.00     0.134 A 
ATOM     77  C   UNL A   1      46.377  29.957  27.962  1.00  0.00     0.134 A 
ATOM     78  F   UNL A   1      42.778  30.077  28.408  1.00  0.00    -0.206 F 
ATOM     79  C   UNL A   1      44.145  31.193  26.878  1.00  0.00     0.040 A 
ATOM     80  C   UNL A   1      46.528  30.887  26.932  1.00  0.00     0.040 A 
ATOM     81  F   UNL A   1      47.485  29.395  28.470  1.00  0.00    -0.206 F 
ATOM     82  C   UNL A   1      45.408  31.501  26.378  1.00  0.00     0.006 A 
ENDBRANCH  58  75
ENDBRANCH  32  33
ENDBRANCH  24  27
ENDBRANCH  22  23
ENDBRANCH  21  22
ENDBRANCH   1  21
TORSDOF 13
ENDMDL
MODEL 3
REMARK VINA RESULT:     -11.3      3.053      7.356
REMARK SMILES Cc1cc(C)c2c(=O)n(CCCC(=O)NCCCNC(=O)c3ccc(-c4c5nc(c(-c6c(F)cccc6F)c6ccc([nH]6)c(-c6c(F)cccc6F)c6nc(c(-c7c(F)cccc7F)c7ccc4[nH]7)C=C6)C=C5)cc3)sc2n1
REMARK SMILES IDX 16 1 15 2 13 3 14 4 12 6 11 7 10 8 9 9 1 10 2 11 3 12 78 13
REMARK SMILES IDX 4 14 77 15 5 16 6 17 76 18 7 19 8 20 17 21 18 22 19 23 20 24
REMARK SMILES IDX 21 26 22 27 23 28 75 29 24 30 74 31 25 32 26 33 27 34 68 35
REMARK SMILES IDX 28 36 73 37 67 38 69 39 29 40 72 41 66 42 65 43 30 45 56 46
REMARK SMILES IDX 39 47 55 48 40 49 43 50 54 51 70 52 41 53 42 54 53 56 71 57
REMARK SMILES IDX 44 58 31 59 32 60 37 61 33 62 34 63 36 64 38 65 35 66 57 67
REMARK SMILES IDX 58 68 63 69 59 70 60 71 62 72 64 73 61 74 45 75 46 76 51 77
REMARK SMILES IDX 47 78 48 79 50 80 52 81 49 82
REMARK H PARENT 15 5 19 25 69 44 43 55
REMARK Flexibility Score: inf
ROOT
ATOM      1  C   UNL A   1      33.502  29.020  25.379  1.00  0.00     0.117 C 
ENDROOT
BRANCH   1   2
ATOM      2  N   UNL A   1      32.243  29.613  24.962  1.00  0.00    -0.356 N 
ATOM      3  C   UNL A   1      31.175  29.056  24.328  1.00  0.00     0.220 C 
ATOM      4  O   UNL A   1      30.262  29.800  23.966  1.00  0.00    -0.275 OA
ATOM      5  H   UNL A   1      32.147  30.570  25.170  1.00  0.00     0.163 HD
BRANCH   3   6
ATOM      6  C   UNL A   1      31.076  27.556  24.145  1.00  0.00     0.102 C 
BRANCH   6   7
ATOM      7  C   UNL A   1      30.649  26.719  25.355  1.00  0.00     0.033 C 
BRANCH   7   8
ATOM      8  C   UNL A   1      31.659  25.809  26.067  1.00  0.00     0.139 C 
BRANCH   8   9
ATOM      9  N   UNL A   1      31.939  24.466  25.589  1.00  0.00    -0.262 N 
ATOM     10  C   UNL A   1      32.844  18.431  25.229  1.00  0.00     0.067 C 
ATOM     11  C   UNL A   1      33.018  19.917  25.110  1.00  0.00     0.039 A 
ATOM     12  C   UNL A   1      34.223  20.460  24.642  1.00  0.00     0.027 A 
ATOM     13  N   UNL A   1      31.941  20.679  25.416  1.00  0.00    -0.241 NA
ATOM     14  C   UNL A   1      34.380  21.853  24.556  1.00  0.00    -0.033 A 
ATOM     15  C   UNL A   1      32.122  22.007  25.323  1.00  0.00     0.146 A 
ATOM     16  C   UNL A   1      35.642  22.450  24.015  1.00  0.00     0.045 C 
ATOM     17  C   UNL A   1      33.306  22.630  24.974  1.00  0.00     0.081 A 
ATOM     18  S   UNL A   1      30.820  23.177  25.603  1.00  0.00    -0.035 S 
ATOM     19  C   UNL A   1      33.221  24.094  25.175  1.00  0.00     0.270 A 
ATOM     20  O   UNL A   1      34.187  24.835  25.072  1.00  0.00    -0.268 OA
ENDBRANCH   8   9
ENDBRANCH   7   8
ENDBRANCH   6   7
ENDBRANCH   3   6
ENDBRANCH   1   2
BRANCH   1  21
ATOM     21  C   UNL A   1      33.681  29.113  26.897  1.00  0.00     0.042 C 
BRANCH  21  22
ATOM     22  C   UNL A   1      35.129  29.282  27.308  1.00  0.00     0.118 C 
BRANCH  22  23
ATOM     23  N   UNL A   1      35.297  30.033  28.547  1.00  0.00    -0.352 N 
ATOM     24  C   UNL A   1      36.345  29.919  29.452  1.00  0.00     0.251 C 
ATOM     25  H   UNL A   1      34.596  30.688  28.766  1.00  0.00     0.163 HD
ATOM     26  O   UNL A   1      36.254  30.323  30.589  1.00  0.00    -0.269 OA
BRANCH  24  27
ATOM     27  C   UNL A   1      37.573  29.250  28.975  1.00  0.00     0.039 A 
ATOM     28  C   UNL A   1      38.233  29.696  27.830  1.00  0.00     0.014 A 
ATOM     29  C   UNL A   1      38.128  28.262  29.780  1.00  0.00     0.014 A 
ATOM     30  C   UNL A   1      39.515  29.213  27.567  1.00  0.00     0.010 A 
ATOM     31  C   UNL A   1      39.451  27.923  29.613  1.00  0.00     0.010 A 
ATOM     32  C   UNL A   1      40.147  28.356  28.487  1.00  0.00    -0.014 A 
BRANCH  32  33
ATOM     33  C   UNL A   1      41.555  27.985  28.309  1.00  0.00     0.031 A 
ATOM     34  C   UNL A   1      41.809  26.713  27.574  1.00  0.00     0.074 A 
ATOM     35  C   UNL A   1      42.604  28.772  28.642  1.00  0.00     0.049 A 
ATOM     36  N   UNL A   1      42.284  25.612  28.058  1.00  0.00    -0.248 NA
ATOM     37  C   UNL A   1      41.419  26.618  26.158  1.00  0.00     0.031 C 
ATOM     38  C   UNL A   1      42.586  30.164  29.114  1.00  0.00     0.029 A 
ATOM     39  N   UNL A   1      43.942  28.505  28.553  1.00  0.00    -0.354 N 
ATOM     40  C   UNL A   1      42.432  24.743  26.980  1.00  0.00     0.074 A 
ATOM     41  C   UNL A   1      41.762  25.361  25.864  1.00  0.00     0.031 C 
ATOM     42  C   UNL A   1      43.829  30.687  29.045  1.00  0.00     0.029 A 
ATOM     43  C   UNL A   1      44.754  29.613  28.746  1.00  0.00     0.049 A 
ATOM     44  H   UNL A   1      44.297  27.606  28.370  1.00  0.00     0.167 HD
ATOM     45  C   UNL A   1      43.296  23.690  27.039  1.00  0.00     0.037 A 
ATOM     46  C   UNL A   1      46.103  29.662  28.727  1.00  0.00     0.037 A 
ATOM     47  C   UNL A   1      43.775  23.477  28.378  1.00  0.00     0.049 A 
ATOM     48  C   UNL A   1      46.607  28.315  29.054  1.00  0.00     0.074 A 
ATOM     49  C   UNL A   1      43.328  22.864  29.527  1.00  0.00     0.029 A 
ATOM     50  N   UNL A   1      44.817  24.290  28.727  1.00  0.00    -0.354 N 
ATOM     51  N   UNL A   1      46.457  27.754  30.220  1.00  0.00    -0.248 NA
ATOM     52  C   UNL A   1      47.058  27.432  27.984  1.00  0.00     0.031 C 
ATOM     53  C   UNL A   1      44.025  23.485  30.608  1.00  0.00     0.029 A 
ATOM     54  C   UNL A   1      44.892  24.440  30.086  1.00  0.00     0.049 A 
ATOM     55  H   UNL A   1      45.431  24.713  28.085  1.00  0.00     0.167 HD
ATOM     56  C   UNL A   1      46.375  26.409  29.936  1.00  0.00     0.074 A 
ATOM     57  C   UNL A   1      46.940  26.256  28.603  1.00  0.00     0.031 C 
ATOM     58  C   UNL A   1      45.557  25.590  30.654  1.00  0.00     0.037 A 
BRANCH  45  59
ATOM     59  C   UNL A   1      44.054  23.121  25.865  1.00  0.00     0.057 A 
ATOM     60  C   UNL A   1      44.004  21.737  25.606  1.00  0.00     0.134 A 
ATOM     61  C   UNL A   1      45.065  23.822  25.181  1.00  0.00     0.134 A 
ATOM     62  F   UNL A   1      43.109  20.953  26.224  1.00  0.00    -0.206 F 
ATOM     63  C   UNL A   1      44.917  21.099  24.755  1.00  0.00     0.040 A 
ATOM     64  C   UNL A   1      45.951  23.203  24.293  1.00  0.00     0.040 A 
ATOM     65  F   UNL A   1      45.310  25.118  25.418  1.00  0.00    -0.206 F 
ATOM     66  C   UNL A   1      45.896  21.832  24.096  1.00  0.00     0.006 A 
ENDBRANCH  45  59
BRANCH  46  67
ATOM     67  C   UNL A   1      47.002  30.756  28.320  1.00  0.00     0.057 A 
ATOM     68  C   UNL A   1      46.978  31.259  27.014  1.00  0.00     0.134 A 
ATOM     69  C   UNL A   1      47.665  31.533  29.282  1.00  0.00     0.134 A 
ATOM     70  F   UNL A   1      46.357  30.586  26.035  1.00  0.00    -0.206 F 
ATOM     71  C   UNL A   1      47.525  32.505  26.692  1.00  0.00     0.040 A 
ATOM     72  C   UNL A   1      48.220  32.779  28.973  1.00  0.00     0.040 A 
ATOM     73  F   UNL A   1      47.708  31.152  30.567  1.00  0.00    -0.206 F 
ATOM     74  C   UNL A   1      48.127  33.280  27.679  1.00  0.00     0.006 A 
ENDBRANCH  46  67
BRANCH  58  75
ATOM     75  C   UNL A   1      45.190  26.029  32.035  1.00  0.00     0.057 A 
ATOM     76  C   UNL A   1      46.015  25.888  33.159  1.00  0.00     0.134 A 
ATOM     77  C   UNL A   1      43.961  26.669  32.224  1.00  0.00     0.134 A 
ATOM     78  F   UNL A   1      47.236  25.347  33.059  1.00  0.00    -0.206 F 
ATOM     79  C   UNL A   1      45.614  26.330  34.423  1.00  0.00     0.040 A 
ATOM     80  C   UNL A   1      43.560  27.141  33.474  1.00  0.00     0.040 A 
ATOM     81  F   UNL A   1      43.138  26.869  31.182  1.00  0.00    -0.206 F 
ATOM     82  C   UNL A   1      44.383  26.963  34.583  1.00  0.00     0.006 A 
ENDBRANCH  58  75
ENDBRANCH  32  33
ENDBRANCH  24  27
ENDBRANCH  22  23
ENDBRANCH  21  22
ENDBRANCH   1  21
TORSDOF 13
ENDMDL
