MODEL 1
REMARK VINA RESULT:      -8.5      0.000      0.000
REMARK SMILES CCCCCCCCNC(=O)Oc1cccc(-c2ccc([C@@H](C)C(=O)NCCCNC(=O)c3ccc(-c4c5nc(c(-c6c(F)cccc6F)c6ccc([nH]6)c(-c6c(F)cccc6F)c6nc(c(-c7c(F)cccc7F)c7ccc4[nH]7)C=C6)C=C5)cc3)cc2F)c1
REMARK SMILES IDX 13 1 14 2 15 3 16 4 17 5 90 6 12 7 10 8 9 9 11 11 8 12 7 13
REMARK SMILES IDX 6 14 5 15 4 16 3 17 2 18 1 19 18 20 19 21 88 22 20 23 87 24
REMARK SMILES IDX 89 25 21 26 22 27 23 28 24 29 25 30 26 31 27 33 28 34 29 35
REMARK SMILES IDX 30 36 31 37 32 39 33 40 34 41 86 42 35 43 85 44 36 45 37 46
REMARK SMILES IDX 38 47 79 48 39 49 84 50 78 51 80 52 40 53 83 54 77 55 76 56
REMARK SMILES IDX 41 58 67 59 50 60 66 61 51 62 54 63 65 64 81 65 52 66 53 67
REMARK SMILES IDX 64 69 82 70 55 71 42 72 43 73 48 74 44 75 45 76 47 77 49 78
REMARK SMILES IDX 46 79 68 80 69 81 74 82 70 83 71 84 73 85 75 86 72 87 56 88
REMARK SMILES IDX 57 89 62 90 58 91 59 92 61 93 63 94 60 95
REMARK H PARENT 9 10 26 32 30 38 80 57 54 68
REMARK Flexibility Score: inf
ROOT
ATOM      1  C   UNL A   1      41.133  24.537  28.293  1.00  0.00     0.133 A 
ATOM      2  C   UNL A   1      42.478  24.523  28.643  1.00  0.00     0.047 A 
ATOM      3  C   UNL A   1      43.040  25.663  29.205  1.00  0.00     0.004 A 
ATOM      4  C   UNL A   1      42.248  26.796  29.428  1.00  0.00     0.009 A 
ATOM      5  C   UNL A   1      40.882  26.828  29.081  1.00  0.00    -0.012 A 
ATOM      6  C   UNL A   1      40.341  25.667  28.504  1.00  0.00     0.056 A 
ENDROOT
BRANCH   1   7
ATOM      7  O   UNL A   1      40.572  23.322  27.871  1.00  0.00    -0.410 OA
BRANCH   7   8
ATOM      8  C   UNL A   1      40.027  23.240  26.599  1.00  0.00     0.412 C 
ATOM      9  N   UNL A   1      40.659  22.314  25.815  1.00  0.00    -0.321 N 
ATOM     10  H   UNL A   1      40.360  22.246  24.879  1.00  0.00     0.167 HD
ATOM     11  O   UNL A   1      39.091  23.903  26.171  1.00  0.00    -0.224 OA
BRANCH   9  12
ATOM     12  C   UNL A   1      41.724  21.421  26.228  1.00  0.00     0.119 C 
BRANCH  12  13
ATOM     13  C   UNL A   1      43.100  21.952  25.828  1.00  0.00     0.021 C 
BRANCH  13  14
ATOM     14  C   UNL A   1      43.079  23.287  25.073  1.00  0.00     0.002 C 
BRANCH  14  15
ATOM     15  C   UNL A   1      43.949  24.393  25.679  1.00  0.00     0.000 C 
BRANCH  15  16
ATOM     16  C   UNL A   1      43.609  25.812  25.212  1.00  0.00    -0.000 C 
BRANCH  16  17
ATOM     17  C   UNL A   1      44.712  26.851  25.440  1.00  0.00    -0.000 C 
BRANCH  17  18
ATOM     18  C   UNL A   1      44.239  28.192  26.008  1.00  0.00    -0.003 C 
ATOM     19  C   UNL A   1      42.727  28.296  26.133  1.00  0.00     0.004 C 
ENDBRANCH  17  18
ENDBRANCH  16  17
ENDBRANCH  15  16
ENDBRANCH  14  15
ENDBRANCH  13  14
ENDBRANCH  12  13
ENDBRANCH   9  12
ENDBRANCH   7   8
ENDBRANCH   1   7
BRANCH   5  20
ATOM     20  C   UNL A   1      40.051  28.035  29.298  1.00  0.00     0.018 A 
ATOM     21  C   UNL A   1      40.393  29.265  28.709  1.00  0.00     0.012 A 
ATOM     22  C   UNL A   1      38.877  28.021  30.067  1.00  0.00     0.131 A 
ATOM     23  C   UNL A   1      39.594  30.406  28.866  1.00  0.00     0.005 A 
ATOM     24  C   UNL A   1      38.049  29.140  30.182  1.00  0.00     0.044 A 
ATOM     25  F   UNL A   1      38.505  26.912  30.727  1.00  0.00    -0.206 F 
ATOM     26  C   UNL A   1      38.385  30.351  29.563  1.00  0.00    -0.033 A 
BRANCH  26  27
ATOM     27  C   UNL A   1      37.414  31.517  29.638  1.00  0.00     0.105 C 
ATOM     28  C   UNL A   1      37.917  32.840  29.061  1.00  0.00     0.023 C 
BRANCH  27  29
ATOM     29  C   UNL A   1      35.981  31.142  29.229  1.00  0.00     0.227 C 
ATOM     30  O   UNL A   1      35.794  30.298  28.345  1.00  0.00    -0.274 OA
ATOM     31  N   UNL A   1      34.863  31.687  29.782  1.00  0.00    -0.356 N 
ATOM     32  H   UNL A   1      34.021  31.297  29.451  1.00  0.00     0.163 HD
BRANCH  31  33
ATOM     33  C   UNL A   1      34.679  32.734  30.766  1.00  0.00     0.117 C 
BRANCH  33  34
ATOM     34  C   UNL A   1      35.237  32.351  32.133  1.00  0.00     0.042 C 
BRANCH  34  35
ATOM     35  C   UNL A   1      36.240  33.349  32.694  1.00  0.00     0.118 C 
BRANCH  35  36
ATOM     36  N   UNL A   1      36.394  33.222  34.137  1.00  0.00    -0.352 N 
ATOM     37  C   UNL A   1      37.296  32.505  34.882  1.00  0.00     0.251 C 
ATOM     38  H   UNL A   1      35.740  33.736  34.666  1.00  0.00     0.163 HD
ATOM     39  O   UNL A   1      37.101  32.378  36.089  1.00  0.00    -0.269 OA
BRANCH  37  40
ATOM     40  C   UNL A   1      38.491  31.882  34.265  1.00  0.00     0.039 A 
ATOM     41  C   UNL A   1      39.733  32.505  34.432  1.00  0.00     0.014 A 
ATOM     42  C   UNL A   1      38.395  30.742  33.463  1.00  0.00     0.014 A 
ATOM     43  C   UNL A   1      40.875  31.968  33.830  1.00  0.00     0.010 A 
ATOM     44  C   UNL A   1      39.544  30.160  32.933  1.00  0.00     0.010 A 
ATOM     45  C   UNL A   1      40.793  30.779  33.091  1.00  0.00    -0.014 A 
BRANCH  45  46
ATOM     46  C   UNL A   1      41.987  30.195  32.427  1.00  0.00     0.031 A 
ATOM     47  C   UNL A   1      42.608  30.897  31.250  1.00  0.00     0.074 A 
ATOM     48  C   UNL A   1      42.482  29.015  32.846  1.00  0.00     0.049 A 
ATOM     49  N   UNL A   1      43.596  30.514  30.481  1.00  0.00    -0.248 NA
ATOM     50  C   UNL A   1      42.023  32.193  30.868  1.00  0.00     0.031 C 
ATOM     51  C   UNL A   1      41.949  28.216  33.951  1.00  0.00     0.029 A 
ATOM     52  N   UNL A   1      43.541  28.274  32.381  1.00  0.00    -0.354 N 
ATOM     53  C   UNL A   1      43.732  31.504  29.515  1.00  0.00     0.074 A 
ATOM     54  C   UNL A   1      42.695  32.482  29.764  1.00  0.00     0.031 C 
ATOM     55  C   UNL A   1      42.696  27.108  34.092  1.00  0.00     0.029 A 
ATOM     56  C   UNL A   1      43.736  27.101  33.068  1.00  0.00     0.049 A 
ATOM     57  H   UNL A   1      44.106  28.559  31.628  1.00  0.00     0.167 HD
ATOM     58  C   UNL A   1      44.651  31.605  28.526  1.00  0.00     0.037 A 
ATOM     59  C   UNL A   1      44.647  26.127  32.886  1.00  0.00     0.037 A 
ATOM     60  C   UNL A   1      45.703  30.650  28.300  1.00  0.00     0.049 A 
ATOM     61  C   UNL A   1      45.662  26.266  31.785  1.00  0.00     0.074 A 
ATOM     62  C   UNL A   1      46.711  30.683  27.352  1.00  0.00     0.029 A 
ATOM     63  N   UNL A   1      45.885  29.490  29.038  1.00  0.00    -0.354 N 
ATOM     64  N   UNL A   1      45.808  27.232  30.910  1.00  0.00    -0.248 NA
ATOM     65  C   UNL A   1      46.646  25.182  31.652  1.00  0.00     0.031 C 
ATOM     66  C   UNL A   1      47.487  29.529  27.499  1.00  0.00     0.029 A 
ATOM     67  C   UNL A   1      46.986  28.797  28.564  1.00  0.00     0.049 A 
ATOM     68  H   UNL A   1      45.317  29.203  29.789  1.00  0.00     0.167 HD
ATOM     69  C   UNL A   1      46.917  26.891  30.147  1.00  0.00     0.074 A 
ATOM     70  C   UNL A   1      47.412  25.633  30.670  1.00  0.00     0.031 C 
ATOM     71  C   UNL A   1      47.477  27.558  29.109  1.00  0.00     0.037 A 
BRANCH  58  72
ATOM     72  C   UNL A   1      44.562  32.798  27.619  1.00  0.00     0.057 A 
ATOM     73  C   UNL A   1      45.074  34.048  27.992  1.00  0.00     0.134 A 
ATOM     74  C   UNL A   1      43.983  32.692  26.348  1.00  0.00     0.134 A 
ATOM     75  F   UNL A   1      45.630  34.222  29.201  1.00  0.00    -0.206 F 
ATOM     76  C   UNL A   1      44.988  35.155  27.146  1.00  0.00     0.040 A 
ATOM     77  C   UNL A   1      43.916  33.785  25.482  1.00  0.00     0.040 A 
ATOM     78  F   UNL A   1      43.479  31.524  25.924  1.00  0.00    -0.206 F 
ATOM     79  C   UNL A   1      44.414  35.023  25.884  1.00  0.00     0.006 A 
ENDBRANCH  58  72
BRANCH  59  80
ATOM     80  C   UNL A   1      44.665  24.945  33.785  1.00  0.00     0.057 A 
ATOM     81  C   UNL A   1      45.194  25.034  35.077  1.00  0.00     0.134 A 
ATOM     82  C   UNL A   1      44.173  23.702  33.373  1.00  0.00     0.134 A 
ATOM     83  F   UNL A   1      45.698  26.195  35.522  1.00  0.00    -0.206 F 
ATOM     84  C   UNL A   1      45.253  23.924  35.921  1.00  0.00     0.040 A 
ATOM     85  C   UNL A   1      44.204  22.589  34.214  1.00  0.00     0.040 A 
ATOM     86  F   UNL A   1      43.649  23.553  32.148  1.00  0.00    -0.206 F 
ATOM     87  C   UNL A   1      44.754  22.697  35.491  1.00  0.00     0.006 A 
ENDBRANCH  59  80
BRANCH  71  88
ATOM     88  C   UNL A   1      48.716  26.969  28.504  1.00  0.00     0.057 A 
ATOM     89  C   UNL A   1      49.996  27.318  28.950  1.00  0.00     0.134 A 
ATOM     90  C   UNL A   1      48.622  26.014  27.484  1.00  0.00     0.134 A 
ATOM     91  F   UNL A   1      50.154  28.234  29.917  1.00  0.00    -0.206 F 
ATOM     92  C   UNL A   1      51.142  26.754  28.385  1.00  0.00     0.040 A 
ATOM     93  C   UNL A   1      49.758  25.427  26.929  1.00  0.00     0.040 A 
ATOM     94  F   UNL A   1      47.424  25.631  27.017  1.00  0.00    -0.206 F 
ATOM     95  C   UNL A   1      51.024  25.801  27.376  1.00  0.00     0.006 A 
ENDBRANCH  71  88
ENDBRANCH  45  46
ENDBRANCH  37  40
ENDBRANCH  35  36
ENDBRANCH  34  35
ENDBRANCH  33  34
ENDBRANCH  31  33
ENDBRANCH  27  29
ENDBRANCH  26  27
ENDBRANCH   5  20
TORSDOF 21
ENDMDL
MODEL 2
REMARK VINA RESULT:      -8.0      2.804     10.618
REMARK SMILES CCCCCCCCNC(=O)Oc1cccc(-c2ccc([C@@H](C)C(=O)NCCCNC(=O)c3ccc(-c4c5nc(c(-c6c(F)cccc6F)c6ccc([nH]6)c(-c6c(F)cccc6F)c6nc(c(-c7c(F)cccc7F)c7ccc4[nH]7)C=C6)C=C5)cc3)cc2F)c1
REMARK SMILES IDX 13 1 14 2 15 3 16 4 17 5 90 6 12 7 10 8 9 9 11 11 8 12 7 13
REMARK SMILES IDX 6 14 5 15 4 16 3 17 2 18 1 19 18 20 19 21 88 22 20 23 87 24
REMARK SMILES IDX 89 25 21 26 22 27 23 28 24 29 25 30 26 31 27 33 28 34 29 35
REMARK SMILES IDX 30 36 31 37 32 39 33 40 34 41 86 42 35 43 85 44 36 45 37 46
REMARK SMILES IDX 38 47 79 48 39 49 84 50 78 51 80 52 40 53 83 54 77 55 76 56
REMARK SMILES IDX 41 58 67 59 50 60 66 61 51 62 54 63 65 64 81 65 52 66 53 67
REMARK SMILES IDX 64 69 82 70 55 71 42 72 43 73 48 74 44 75 45 76 47 77 49 78
REMARK SMILES IDX 46 79 68 80 69 81 74 82 70 83 71 84 73 85 75 86 72 87 56 88
REMARK SMILES IDX 57 89 62 90 58 91 59 92 61 93 63 94 60 95
REMARK H PARENT 9 10 26 32 30 38 80 57 54 68
REMARK Flexibility Score: inf
ROOT
ATOM      1  C   UNL A   1      39.569  31.858  31.399  1.00  0.00     0.133 A 
ATOM      2  C   UNL A   1      39.372  31.555  32.742  1.00  0.00     0.047 A 
ATOM      3  C   UNL A   1      39.373  30.223  33.138  1.00  0.00     0.004 A 
ATOM      4  C   UNL A   1      39.590  29.212  32.194  1.00  0.00     0.009 A 
ATOM      5  C   UNL A   1      39.793  29.501  30.829  1.00  0.00    -0.012 A 
ATOM      6  C   UNL A   1      39.776  30.854  30.452  1.00  0.00     0.056 A 
ENDROOT
BRANCH   1   7
ATOM      7  O   UNL A   1      39.710  33.215  31.068  1.00  0.00    -0.410 OA
BRANCH   7   8
ATOM      8  C   UNL A   1      38.714  34.104  31.441  1.00  0.00     0.412 C 
ATOM      9  N   UNL A   1      37.911  34.463  30.394  1.00  0.00    -0.321 N 
ATOM     10  H   UNL A   1      37.219  35.139  30.577  1.00  0.00     0.167 HD
ATOM     11  O   UNL A   1      38.533  34.554  32.565  1.00  0.00    -0.224 OA
BRANCH   9  12
ATOM     12  C   UNL A   1      37.978  33.945  29.042  1.00  0.00     0.119 C 
BRANCH  12  13
ATOM     13  C   UNL A   1      37.064  32.735  28.848  1.00  0.00     0.021 C 
BRANCH  13  14
ATOM     14  C   UNL A   1      35.834  32.994  27.969  1.00  0.00     0.002 C 
BRANCH  14  15
ATOM     15  C   UNL A   1      34.987  34.206  28.373  1.00  0.00     0.000 C 
BRANCH  15  16
ATOM     16  C   UNL A   1      34.377  34.130  29.776  1.00  0.00    -0.000 C 
BRANCH  16  17
ATOM     17  C   UNL A   1      34.462  32.754  30.446  1.00  0.00    -0.000 C 
BRANCH  17  18
ATOM     18  C   UNL A   1      34.830  32.773  31.932  1.00  0.00    -0.003 C 
ATOM     19  C   UNL A   1      35.870  31.730  32.311  1.00  0.00     0.004 C 
ENDBRANCH  17  18
ENDBRANCH  16  17
ENDBRANCH  15  16
ENDBRANCH  14  15
ENDBRANCH  13  14
ENDBRANCH  12  13
ENDBRANCH   9  12
ENDBRANCH   7   8
ENDBRANCH   1   7
BRANCH   5  20
ATOM     20  C   UNL A   1      40.001  28.429  29.828  1.00  0.00     0.018 A 
ATOM     21  C   UNL A   1      41.174  27.654  29.830  1.00  0.00     0.012 A 
ATOM     22  C   UNL A   1      39.046  28.106  28.851  1.00  0.00     0.131 A 
ATOM     23  C   UNL A   1      41.369  26.606  28.919  1.00  0.00     0.005 A 
ATOM     24  C   UNL A   1      39.211  27.028  27.977  1.00  0.00     0.044 A 
ATOM     25  F   UNL A   1      37.925  28.835  28.723  1.00  0.00    -0.206 F 
ATOM     26  C   UNL A   1      40.371  26.244  28.011  1.00  0.00    -0.033 A 
BRANCH  26  27
ATOM     27  C   UNL A   1      40.471  25.028  27.106  1.00  0.00     0.105 C 
ATOM     28  C   UNL A   1      39.162  24.286  26.842  1.00  0.00     0.023 C 
BRANCH  27  29
ATOM     29  C   UNL A   1      41.336  25.268  25.859  1.00  0.00     0.227 C 
ATOM     30  O   UNL A   1      41.188  26.302  25.196  1.00  0.00    -0.274 OA
ATOM     31  N   UNL A   1      42.284  24.402  25.409  1.00  0.00    -0.356 N 
ATOM     32  H   UNL A   1      42.791  24.729  24.632  1.00  0.00     0.163 HD
BRANCH  31  33
ATOM     33  C   UNL A   1      42.686  23.085  25.861  1.00  0.00     0.117 C 
BRANCH  33  34
ATOM     34  C   UNL A   1      44.135  22.766  25.505  1.00  0.00     0.042 C 
BRANCH  34  35
ATOM     35  C   UNL A   1      45.157  23.604  26.263  1.00  0.00     0.118 C 
BRANCH  35  36
ATOM     36  N   UNL A   1      46.016  24.365  25.367  1.00  0.00    -0.352 N 
ATOM     37  C   UNL A   1      46.246  25.715  25.277  1.00  0.00     0.251 C 
ATOM     38  H   UNL A   1      46.516  23.819  24.717  1.00  0.00     0.163 HD
ATOM     39  O   UNL A   1      46.851  26.150  24.300  1.00  0.00    -0.269 OA
BRANCH  37  40
ATOM     40  C   UNL A   1      45.777  26.653  26.324  1.00  0.00     0.039 A 
ATOM     41  C   UNL A   1      46.686  27.074  27.302  1.00  0.00     0.014 A 
ATOM     42  C   UNL A   1      44.444  27.061  26.403  1.00  0.00     0.014 A 
ATOM     43  C   UNL A   1      46.269  27.927  28.329  1.00  0.00     0.010 A 
ATOM     44  C   UNL A   1      44.048  27.977  27.376  1.00  0.00     0.010 A 
ATOM     45  C   UNL A   1      44.950  28.401  28.363  1.00  0.00    -0.014 A 
BRANCH  45  46
ATOM     46  C   UNL A   1      44.475  29.294  29.451  1.00  0.00     0.031 A 
ATOM     47  C   UNL A   1      44.152  28.720  30.805  1.00  0.00     0.074 A 
ATOM     48  C   UNL A   1      44.288  30.606  29.213  1.00  0.00     0.049 A 
ATOM     49  N   UNL A   1      43.646  29.311  31.858  1.00  0.00    -0.248 NA
ATOM     50  C   UNL A   1      44.406  27.282  30.991  1.00  0.00     0.031 C 
ATOM     51  C   UNL A   1      44.528  31.279  27.936  1.00  0.00     0.029 A 
ATOM     52  N   UNL A   1      43.837  31.608  30.037  1.00  0.00    -0.354 N 
ATOM     53  C   UNL A   1      43.499  28.316  32.817  1.00  0.00     0.074 A 
ATOM     54  C   UNL A   1      43.922  27.074  32.206  1.00  0.00     0.031 C 
ATOM     55  C   UNL A   1      44.243  32.585  28.067  1.00  0.00     0.029 A 
ATOM     56  C   UNL A   1      43.768  32.835  29.424  1.00  0.00     0.049 A 
ATOM     57  H   UNL A   1      43.589  31.460  30.977  1.00  0.00     0.167 HD
ATOM     58  C   UNL A   1      43.074  28.428  34.098  1.00  0.00     0.037 A 
ATOM     59  C   UNL A   1      43.359  34.025  29.903  1.00  0.00     0.037 A 
ATOM     60  C   UNL A   1      42.685  29.667  34.715  1.00  0.00     0.049 A 
ATOM     61  C   UNL A   1      42.899  34.125  31.331  1.00  0.00     0.074 A 
ATOM     62  C   UNL A   1      42.282  29.894  36.019  1.00  0.00     0.029 A 
ATOM     63  N   UNL A   1      42.659  30.894  34.068  1.00  0.00    -0.354 N 
ATOM     64  N   UNL A   1      42.812  33.184  32.240  1.00  0.00    -0.248 NA
ATOM     65  C   UNL A   1      42.490  35.455  31.802  1.00  0.00     0.031 C 
ATOM     66  C   UNL A   1      41.984  31.254  36.154  1.00  0.00     0.029 A 
ATOM     67  C   UNL A   1      42.241  31.880  34.945  1.00  0.00     0.049 A 
ATOM     68  H   UNL A   1      42.903  31.042  33.126  1.00  0.00     0.167 HD
ATOM     69  C   UNL A   1      42.371  33.813  33.398  1.00  0.00     0.074 A 
ATOM     70  C   UNL A   1      42.220  35.218  33.078  1.00  0.00     0.031 C 
ATOM     71  C   UNL A   1      42.116  33.277  34.616  1.00  0.00     0.037 A 
BRANCH  58  72
ATOM     72  C   UNL A   1      43.017  27.172  34.919  1.00  0.00     0.057 A 
ATOM     73  C   UNL A   1      41.858  26.386  34.985  1.00  0.00     0.134 A 
ATOM     74  C   UNL A   1      44.139  26.727  35.629  1.00  0.00     0.134 A 
ATOM     75  F   UNL A   1      40.744  26.762  34.339  1.00  0.00    -0.206 F 
ATOM     76  C   UNL A   1      41.809  25.220  35.750  1.00  0.00     0.040 A 
ATOM     77  C   UNL A   1      44.110  25.547  36.376  1.00  0.00     0.040 A 
ATOM     78  F   UNL A   1      45.283  27.426  35.604  1.00  0.00    -0.206 F 
ATOM     79  C   UNL A   1      42.940  24.794  36.443  1.00  0.00     0.006 A 
ENDBRANCH  58  72
BRANCH  59  80
ATOM     80  C   UNL A   1      43.395  35.230  29.035  1.00  0.00     0.057 A 
ATOM     81  C   UNL A   1      44.589  35.930  28.827  1.00  0.00     0.134 A 
ATOM     82  C   UNL A   1      42.243  35.718  28.410  1.00  0.00     0.134 A 
ATOM     83  F   UNL A   1      45.723  35.521  29.415  1.00  0.00    -0.206 F 
ATOM     84  C   UNL A   1      44.632  37.086  28.045  1.00  0.00     0.040 A 
ATOM     85  C   UNL A   1      42.276  36.859  27.606  1.00  0.00     0.040 A 
ATOM     86  F   UNL A   1      41.069  35.089  28.565  1.00  0.00    -0.206 F 
ATOM     87  C   UNL A   1      43.473  37.551  27.429  1.00  0.00     0.006 A 
ENDBRANCH  59  80
BRANCH  71  88
ATOM     88  C   UNL A   1      41.698  34.219  35.705  1.00  0.00     0.057 A 
ATOM     89  C   UNL A   1      42.630  34.955  36.446  1.00  0.00     0.134 A 
ATOM     90  C   UNL A   1      40.341  34.415  35.990  1.00  0.00     0.134 A 
ATOM     91  F   UNL A   1      43.945  34.805  36.228  1.00  0.00    -0.206 F 
ATOM     92  C   UNL A   1      42.227  35.837  37.451  1.00  0.00     0.040 A 
ATOM     93  C   UNL A   1      39.926  35.310  36.975  1.00  0.00     0.040 A 
ATOM     94  F   UNL A   1      39.398  33.745  35.311  1.00  0.00    -0.206 F 
ATOM     95  C   UNL A   1      40.871  36.021  37.713  1.00  0.00     0.006 A 
ENDBRANCH  71  88
ENDBRANCH  45  46
ENDBRANCH  37  40
ENDBRANCH  35  36
ENDBRANCH  34  35
ENDBRANCH  33  34
ENDBRANCH  31  33
ENDBRANCH  27  29
ENDBRANCH  26  27
ENDBRANCH   5  20
TORSDOF 21
ENDMDL
MODEL 3
REMARK VINA RESULT:      -7.9      3.573      9.349
REMARK SMILES CCCCCCCCNC(=O)Oc1cccc(-c2ccc([C@@H](C)C(=O)NCCCNC(=O)c3ccc(-c4c5nc(c(-c6c(F)cccc6F)c6ccc([nH]6)c(-c6c(F)cccc6F)c6nc(c(-c7c(F)cccc7F)c7ccc4[nH]7)C=C6)C=C5)cc3)cc2F)c1
REMARK SMILES IDX 13 1 14 2 15 3 16 4 17 5 90 6 12 7 10 8 9 9 11 11 8 12 7 13
REMARK SMILES IDX 6 14 5 15 4 16 3 17 2 18 1 19 18 20 19 21 88 22 20 23 87 24
REMARK SMILES IDX 89 25 21 26 22 27 23 28 24 29 25 30 26 31 27 33 28 34 29 35
REMARK SMILES IDX 30 36 31 37 32 39 33 40 34 41 86 42 35 43 85 44 36 45 37 46
REMARK SMILES IDX 38 47 79 48 39 49 84 50 78 51 80 52 40 53 83 54 77 55 76 56
REMARK SMILES IDX 41 58 67 59 50 60 66 61 51 62 54 63 65 64 81 65 52 66 53 67
REMARK SMILES IDX 64 69 82 70 55 71 42 72 43 73 48 74 44 75 45 76 47 77 49 78
REMARK SMILES IDX 46 79 68 80 69 81 74 82 70 83 71 84 73 85 75 86 72 87 56 88
REMARK SMILES IDX 57 89 62 90 58 91 59 92 61 93 63 94 60 95
REMARK H PARENT 9 10 26 32 30 38 80 57 54 68
REMARK Flexibility Score: inf
ROOT
ATOM      1  C   UNL A   1      33.613  34.908  30.420  1.00  0.00     0.133 A 
ATOM      2  C   UNL A   1      32.992  35.260  29.227  1.00  0.00     0.047 A 
ATOM      3  C   UNL A   1      33.510  34.778  28.031  1.00  0.00     0.004 A 
ATOM      4  C   UNL A   1      34.627  33.934  28.041  1.00  0.00     0.009 A 
ATOM      5  C   UNL A   1      35.268  33.565  29.241  1.00  0.00    -0.012 A 
ATOM      6  C   UNL A   1      34.733  34.075  30.436  1.00  0.00     0.056 A 
ENDROOT
BRANCH   1   7
ATOM      7  O   UNL A   1      32.971  35.291  31.608  1.00  0.00    -0.410 OA
BRANCH   7   8
ATOM      8  C   UNL A   1      33.305  36.505  32.188  1.00  0.00     0.412 C 
ATOM      9  N   UNL A   1      33.954  36.355  33.383  1.00  0.00    -0.321 N 
ATOM     10  H   UNL A   1      34.168  37.179  33.878  1.00  0.00     0.167 HD
ATOM     11  O   UNL A   1      33.063  37.614  31.730  1.00  0.00    -0.224 OA
BRANCH   9  12
ATOM     12  C   UNL A   1      34.360  35.103  33.989  1.00  0.00     0.119 C 
BRANCH  12  13
ATOM     13  C   UNL A   1      35.776  34.701  33.576  1.00  0.00     0.021 C 
BRANCH  13  14
ATOM     14  C   UNL A   1      36.221  33.319  34.071  1.00  0.00     0.002 C 
BRANCH  14  15
ATOM     15  C   UNL A   1      36.633  32.334  32.972  1.00  0.00     0.000 C 
BRANCH  15  16
ATOM     16  C   UNL A   1      37.660  31.280  33.399  1.00  0.00    -0.000 C 
BRANCH  16  17
ATOM     17  C   UNL A   1      38.932  31.840  34.046  1.00  0.00    -0.000 C 
BRANCH  17  18
ATOM     18  C   UNL A   1      40.146  31.942  33.119  1.00  0.00    -0.003 C 
ATOM     19  C   UNL A   1      40.783  33.323  33.106  1.00  0.00     0.004 C 
ENDBRANCH  17  18
ENDBRANCH  16  17
ENDBRANCH  15  16
ENDBRANCH  14  15
ENDBRANCH  13  14
ENDBRANCH  12  13
ENDBRANCH   9  12
ENDBRANCH   7   8
ENDBRANCH   1   7
BRANCH   5  20
ATOM     20  C   UNL A   1      36.464  32.690  29.249  1.00  0.00     0.018 A 
ATOM     21  C   UNL A   1      37.723  33.189  29.623  1.00  0.00     0.012 A 
ATOM     22  C   UNL A   1      36.410  31.327  28.916  1.00  0.00     0.131 A 
ATOM     23  C   UNL A   1      38.856  32.365  29.680  1.00  0.00     0.005 A 
ATOM     24  C   UNL A   1      37.523  30.490  29.024  1.00  0.00     0.044 A 
ATOM     25  F   UNL A   1      35.267  30.775  28.477  1.00  0.00    -0.206 F 
ATOM     26  C   UNL A   1      38.766  30.994  29.429  1.00  0.00    -0.033 A 
BRANCH  26  27
ATOM     27  C   UNL A   1      39.929  30.035  29.620  1.00  0.00     0.105 C 
ATOM     28  C   UNL A   1      41.249  30.669  30.054  1.00  0.00     0.023 C 
BRANCH  27  29
ATOM     29  C   UNL A   1      39.546  28.760  30.386  1.00  0.00     0.227 C 
ATOM     30  O   UNL A   1      39.500  28.775  31.622  1.00  0.00    -0.274 OA
ATOM     31  N   UNL A   1      39.244  27.573  29.792  1.00  0.00    -0.356 N 
ATOM     32  H   UNL A   1      38.962  26.870  30.420  1.00  0.00     0.163 HD
BRANCH  31  33
ATOM     33  C   UNL A   1      39.261  27.152  28.406  1.00  0.00     0.117 C 
BRANCH  33  34
ATOM     34  C   UNL A   1      39.627  25.679  28.251  1.00  0.00     0.042 C 
BRANCH  34  35
ATOM     35  C   UNL A   1      39.628  25.190  26.809  1.00  0.00     0.118 C 
BRANCH  35  36
ATOM     36  N   UNL A   1      40.341  23.929  26.657  1.00  0.00    -0.352 N 
ATOM     37  C   UNL A   1      41.662  23.675  26.385  1.00  0.00     0.251 C 
ATOM     38  H   UNL A   1      39.783  23.126  26.768  1.00  0.00     0.163 HD
ATOM     39  O   UNL A   1      41.997  22.529  26.090  1.00  0.00    -0.269 OA
BRANCH  37  40
ATOM     40  C   UNL A   1      42.685  24.745  26.434  1.00  0.00     0.039 A 
ATOM     41  C   UNL A   1      43.026  25.401  25.245  1.00  0.00     0.014 A 
ATOM     42  C   UNL A   1      43.368  25.058  27.612  1.00  0.00     0.014 A 
ATOM     43  C   UNL A   1      44.016  26.388  25.245  1.00  0.00     0.010 A 
ATOM     44  C   UNL A   1      44.294  26.099  27.629  1.00  0.00     0.010 A 
ATOM     45  C   UNL A   1      44.645  26.759  26.443  1.00  0.00    -0.014 A 
BRANCH  45  46
ATOM     46  C   UNL A   1      45.712  27.792  26.470  1.00  0.00     0.031 A 
ATOM     47  C   UNL A   1      45.347  29.242  26.649  1.00  0.00     0.074 A 
ATOM     48  C   UNL A   1      46.998  27.438  26.285  1.00  0.00     0.049 A 
ATOM     49  N   UNL A   1      46.116  30.302  26.615  1.00  0.00    -0.248 NA
ATOM     50  C   UNL A   1      43.924  29.543  26.868  1.00  0.00     0.031 C 
ATOM     51  C   UNL A   1      47.479  26.074  26.064  1.00  0.00     0.029 A 
ATOM     52  N   UNL A   1      48.138  28.204  26.241  1.00  0.00    -0.354 N 
ATOM     53  C   UNL A   1      45.268  31.390  26.783  1.00  0.00     0.074 A 
ATOM     54  C   UNL A   1      43.922  30.868  26.869  1.00  0.00     0.031 C 
ATOM     55  C   UNL A   1      48.816  26.096  25.929  1.00  0.00     0.029 A 
ATOM     56  C   UNL A   1      49.281  27.476  26.018  1.00  0.00     0.049 A 
ATOM     57  H   UNL A   1      48.134  29.180  26.358  1.00  0.00     0.167 HD
ATOM     58  C   UNL A   1      45.582  32.703  26.882  1.00  0.00     0.037 A 
ATOM     59  C   UNL A   1      50.559  27.880  25.893  1.00  0.00     0.037 A 
ATOM     60  C   UNL A   1      46.924  33.219  26.831  1.00  0.00     0.049 A 
ATOM     61  C   UNL A   1      50.883  29.343  26.014  1.00  0.00     0.074 A 
ATOM     62  C   UNL A   1      47.352  34.528  26.965  1.00  0.00     0.029 A 
ATOM     63  N   UNL A   1      48.058  32.445  26.636  1.00  0.00    -0.354 N 
ATOM     64  N   UNL A   1      50.076  30.356  26.222  1.00  0.00    -0.248 NA
ATOM     65  C   UNL A   1      52.299  29.718  25.894  1.00  0.00     0.031 C 
ATOM     66  C   UNL A   1      48.743  34.550  26.823  1.00  0.00     0.029 A 
ATOM     67  C   UNL A   1      49.185  33.249  26.641  1.00  0.00     0.049 A 
ATOM     68  H   UNL A   1      48.061  31.468  26.513  1.00  0.00     0.167 HD
ATOM     69  C   UNL A   1      50.887  31.481  26.290  1.00  0.00     0.074 A 
ATOM     70  C   UNL A   1      52.251  31.025  26.113  1.00  0.00     0.031 C 
ATOM     71  C   UNL A   1      50.536  32.775  26.484  1.00  0.00     0.037 A 
BRANCH  58  72
ATOM     72  C   UNL A   1      44.451  33.673  27.065  1.00  0.00     0.057 A 
ATOM     73  C   UNL A   1      43.933  33.972  28.333  1.00  0.00     0.134 A 
ATOM     74  C   UNL A   1      43.889  34.336  25.967  1.00  0.00     0.134 A 
ATOM     75  F   UNL A   1      44.417  33.361  29.425  1.00  0.00    -0.206 F 
ATOM     76  C   UNL A   1      42.880  34.873  28.498  1.00  0.00     0.040 A 
ATOM     77  C   UNL A   1      42.854  35.260  26.123  1.00  0.00     0.040 A 
ATOM     78  F   UNL A   1      44.340  34.103  24.726  1.00  0.00    -0.206 F 
ATOM     79  C   UNL A   1      42.342  35.525  27.392  1.00  0.00     0.006 A 
ENDBRANCH  58  72
BRANCH  59  80
ATOM     80  C   UNL A   1      51.637  26.884  25.670  1.00  0.00     0.057 A 
ATOM     81  C   UNL A   1      52.203  26.185  26.742  1.00  0.00     0.134 A 
ATOM     82  C   UNL A   1      52.137  26.618  24.390  1.00  0.00     0.134 A 
ATOM     83  F   UNL A   1      51.779  26.410  27.994  1.00  0.00    -0.206 F 
ATOM     84  C   UNL A   1      53.243  25.273  26.554  1.00  0.00     0.040 A 
ATOM     85  C   UNL A   1      53.161  25.691  24.184  1.00  0.00     0.040 A 
ATOM     86  F   UNL A   1      51.634  27.251  23.321  1.00  0.00    -0.206 F 
ATOM     87  C   UNL A   1      53.723  25.022  25.270  1.00  0.00     0.006 A 
ENDBRANCH  59  80
BRANCH  71  88
ATOM     88  C   UNL A   1      51.645  33.781  26.566  1.00  0.00     0.057 A 
ATOM     89  C   UNL A   1      52.266  34.102  27.779  1.00  0.00     0.134 A 
ATOM     90  C   UNL A   1      52.117  34.412  25.408  1.00  0.00     0.134 A 
ATOM     91  F   UNL A   1      51.852  33.541  28.925  1.00  0.00    -0.206 F 
ATOM     92  C   UNL A   1      53.305  35.033  27.840  1.00  0.00     0.040 A 
ATOM     93  C   UNL A   1      53.170  35.326  25.454  1.00  0.00     0.040 A 
ATOM     94  F   UNL A   1      51.570  34.142  24.214  1.00  0.00    -0.206 F 
ATOM     95  C   UNL A   1      53.764  35.643  26.675  1.00  0.00     0.006 A 
ENDBRANCH  71  88
ENDBRANCH  45  46
ENDBRANCH  37  40
ENDBRANCH  35  36
ENDBRANCH  34  35
ENDBRANCH  33  34
ENDBRANCH  31  33
ENDBRANCH  27  29
ENDBRANCH  26  27
ENDBRANCH   5  20
TORSDOF 21
ENDMDL
