MODEL 1
REMARK VINA RESULT:     -12.5      0.000      0.000
REMARK SMILES CC[NH+]1CC[NH+]([C@@H]2CC(=O)N(c3ccc(C(=O)NCCCNC(=O)c4ccc(-c5c6nc(c(-c7c(F)cccc7F)c7ccc([nH]7)c(-c7c(F)cccc7F)c7nc(c(-c8c(F)cccc8F)c8ccc5[nH]8)C=C7)C=C6)cc4)cc3)C2=O)CC1
REMARK SMILES IDX 19 1 18 2 16 3 17 4 15 6 12 7 13 8 80 9 14 10 79 11 11 12
REMARK SMILES IDX 7 13 8 14 81 15 9 16 82 17 10 18 6 19 3 20 4 21 84 22 5 24
REMARK SMILES IDX 83 25 2 27 1 28 20 29 21 30 22 31 23 32 24 34 25 35 26 36
REMARK SMILES IDX 78 37 27 38 77 39 28 40 29 41 30 42 71 43 31 44 76 45 70 46
REMARK SMILES IDX 72 47 32 48 75 49 69 50 68 51 33 53 59 54 42 55 58 56 43 57
REMARK SMILES IDX 46 58 57 59 73 60 44 61 45 62 56 64 74 65 47 66 34 67 35 68
REMARK SMILES IDX 40 69 36 70 37 71 39 72 41 73 38 74 60 75 61 76 66 77 62 78
REMARK SMILES IDX 63 79 65 80 67 81 64 82 48 83 49 84 54 85 50 86 51 87 53 88
REMARK SMILES IDX 55 89 52 90
REMARK H PARENT 18 5 3 23 6 26 22 33 72 52 46 63
REMARK Flexibility Score: inf
ROOT
ATOM      1  C   UNL A   1      36.633  20.146  25.001  1.00  0.00     0.118 C 
ENDROOT
BRANCH   1   2
ATOM      2  N   UNL A   1      35.432  19.331  24.977  1.00  0.00    -0.352 N 
ATOM      3  C   UNL A   1      34.100  19.656  25.004  1.00  0.00     0.251 C 
ATOM      4  O   UNL A   1      33.289  18.733  24.931  1.00  0.00    -0.269 OA
ATOM      5  H   UNL A   1      35.607  18.364  24.934  1.00  0.00     0.163 HD
BRANCH   3   6
ATOM      6  C   UNL A   1      33.603  21.059  25.072  1.00  0.00     0.039 A 
ATOM      7  C   UNL A   1      32.641  23.705  25.028  1.00  0.00     0.052 A 
ATOM      8  C   UNL A   1      32.148  22.765  24.119  1.00  0.00     0.027 A 
ATOM      9  C   UNL A   1      33.580  23.310  25.979  1.00  0.00     0.027 A 
ATOM     10  C   UNL A   1      32.652  21.458  24.122  1.00  0.00     0.016 A 
ATOM     11  C   UNL A   1      34.003  21.987  26.035  1.00  0.00     0.016 A 
BRANCH   7  12
ATOM     12  N   UNL A   1      32.195  25.036  25.025  1.00  0.00    -0.245 N 
ATOM     13  C   UNL A   1      32.008  27.314  24.508  1.00  0.00     0.285 C 
ATOM     14  C   UNL A   1      30.927  26.930  25.513  1.00  0.00     0.176 C 
ATOM     15  C   UNL A   1      32.638  25.979  24.130  1.00  0.00     0.292 C 
ATOM     16  C   UNL A   1      31.211  25.504  25.854  1.00  0.00     0.240 C 
ATOM     17  O   UNL A   1      33.393  25.805  23.183  1.00  0.00    -0.267 OA
ATOM     18  O   UNL A   1      30.621  24.905  26.746  1.00  0.00    -0.274 OA
BRANCH  13  19
ATOM     19  N   UNL A   1      33.048  28.296  24.868  1.00  0.00    -0.315 N 
ATOM     20  N   UNL A   1      32.896  29.829  27.459  1.00  0.00    -0.326 N 
ATOM     21  C   UNL A   1      32.099  30.219  26.275  1.00  0.00     0.324 C 
ATOM     22  C   UNL A   1      33.268  28.405  27.382  1.00  0.00     0.324 C 
ATOM     23  H   UNL A   1      32.326  29.939  28.298  1.00  0.00     0.348 HD
ATOM     24  C   UNL A   1      32.598  29.694  24.903  1.00  0.00     0.325 C 
ATOM     25  C   UNL A   1      33.885  27.988  26.035  1.00  0.00     0.325 C 
ATOM     26  H   UNL A   1      33.664  28.187  24.063  1.00  0.00     0.349 HD
BRANCH  20  27
ATOM     27  C   UNL A   1      34.054  30.718  27.626  1.00  0.00     0.259 C 
ATOM     28  C   UNL A   1      33.662  32.189  27.727  1.00  0.00     0.071 C 
ENDBRANCH  20  27
ENDBRANCH  13  19
ENDBRANCH   7  12
ENDBRANCH   3   6
ENDBRANCH   1   2
BRANCH   1  29
ATOM     29  C   UNL A   1      37.887  19.271  24.979  1.00  0.00     0.042 C 
BRANCH  29  30
ATOM     30  C   UNL A   1      39.056  19.902  25.719  1.00  0.00     0.118 C 
BRANCH  30  31
ATOM     31  N   UNL A   1      40.147  18.956  25.895  1.00  0.00    -0.352 N 
ATOM     32  C   UNL A   1      41.486  19.185  26.068  1.00  0.00     0.251 C 
ATOM     33  H   UNL A   1      39.883  18.008  25.887  1.00  0.00     0.163 HD
ATOM     34  O   UNL A   1      42.281  18.259  25.935  1.00  0.00    -0.269 OA
BRANCH  32  35
ATOM     35  C   UNL A   1      41.976  20.534  26.413  1.00  0.00     0.039 A 
ATOM     36  C   UNL A   1      42.284  21.422  25.380  1.00  0.00     0.014 A 
ATOM     37  C   UNL A   1      42.179  20.908  27.745  1.00  0.00     0.014 A 
ATOM     38  C   UNL A   1      42.765  22.695  25.682  1.00  0.00     0.010 A 
ATOM     39  C   UNL A   1      42.579  22.206  28.047  1.00  0.00     0.010 A 
ATOM     40  C   UNL A   1      42.894  23.105  27.019  1.00  0.00    -0.014 A 
BRANCH  40  41
ATOM     41  C   UNL A   1      43.383  24.462  27.363  1.00  0.00     0.031 A 
ATOM     42  C   UNL A   1      42.415  25.517  27.819  1.00  0.00     0.074 A 
ATOM     43  C   UNL A   1      44.689  24.755  27.211  1.00  0.00     0.049 A 
ATOM     44  N   UNL A   1      42.636  26.776  28.101  1.00  0.00    -0.248 NA
ATOM     45  C   UNL A   1      41.005  25.113  27.948  1.00  0.00     0.031 C 
ATOM     46  C   UNL A   1      45.715  23.826  26.736  1.00  0.00     0.029 A 
ATOM     47  N   UNL A   1      45.374  25.922  27.431  1.00  0.00    -0.354 N 
ATOM     48  C   UNL A   1      41.396  27.314  28.425  1.00  0.00     0.074 A 
ATOM     49  C   UNL A   1      40.419  26.262  28.249  1.00  0.00     0.031 C 
ATOM     50  C   UNL A   1      46.902  24.452  26.722  1.00  0.00     0.029 A 
ATOM     51  C   UNL A   1      46.714  25.835  27.146  1.00  0.00     0.049 A 
ATOM     52  H   UNL A   1      44.945  26.745  27.761  1.00  0.00     0.167 HD
ATOM     53  C   UNL A   1      41.103  28.565  28.852  1.00  0.00     0.037 A 
ATOM     54  C   UNL A   1      47.680  26.770  27.211  1.00  0.00     0.037 A 
ATOM     55  C   UNL A   1      42.084  29.600  29.045  1.00  0.00     0.049 A 
ATOM     56  C   UNL A   1      47.326  28.155  27.677  1.00  0.00     0.074 A 
ATOM     57  C   UNL A   1      41.899  30.884  29.528  1.00  0.00     0.029 A 
ATOM     58  N   UNL A   1      43.435  29.469  28.759  1.00  0.00    -0.354 N 
ATOM     59  N   UNL A   1      46.161  28.632  28.045  1.00  0.00    -0.248 NA
ATOM     60  C   UNL A   1      48.422  29.131  27.743  1.00  0.00     0.031 C 
ATOM     61  C   UNL A   1      43.130  31.546  29.485  1.00  0.00     0.029 A 
ATOM     62  C   UNL A   1      44.092  30.657  29.032  1.00  0.00     0.049 A 
ATOM     63  H   UNL A   1      43.864  28.653  28.414  1.00  0.00     0.167 HD
ATOM     64  C   UNL A   1      46.389  29.952  28.416  1.00  0.00     0.074 A 
ATOM     65  C   UNL A   1      47.808  30.194  28.242  1.00  0.00     0.031 C 
ATOM     66  C   UNL A   1      45.506  30.878  28.862  1.00  0.00     0.037 A 
BRANCH  53  67
ATOM     67  C   UNL A   1      39.663  28.879  29.140  1.00  0.00     0.057 A 
ATOM     68  C   UNL A   1      39.115  28.740  30.424  1.00  0.00     0.134 A 
ATOM     69  C   UNL A   1      38.819  29.358  28.130  1.00  0.00     0.134 A 
ATOM     70  F   UNL A   1      39.863  28.275  31.435  1.00  0.00    -0.206 F 
ATOM     71  C   UNL A   1      37.775  29.034  30.683  1.00  0.00     0.040 A 
ATOM     72  C   UNL A   1      37.486  29.686  28.384  1.00  0.00     0.040 A 
ATOM     73  F   UNL A   1      39.278  29.523  26.880  1.00  0.00    -0.206 F 
ATOM     74  C   UNL A   1      36.959  29.517  29.662  1.00  0.00     0.006 A 
ENDBRANCH  53  67
BRANCH  54  75
ATOM     75  C   UNL A   1      49.077  26.424  26.846  1.00  0.00     0.057 A 
ATOM     76  C   UNL A   1      49.537  26.567  25.532  1.00  0.00     0.134 A 
ATOM     77  C   UNL A   1      49.984  25.936  27.795  1.00  0.00     0.134 A 
ATOM     78  F   UNL A   1      48.711  27.014  24.573  1.00  0.00    -0.206 F 
ATOM     79  C   UNL A   1      50.837  26.215  25.168  1.00  0.00     0.040 A 
ATOM     80  C   UNL A   1      51.296  25.607  27.452  1.00  0.00     0.040 A 
ATOM     81  F   UNL A   1      49.610  25.787  29.074  1.00  0.00    -0.206 F 
ATOM     82  C   UNL A   1      51.723  25.737  26.132  1.00  0.00     0.006 A 
ENDBRANCH  54  75
BRANCH  66  83
ATOM     83  C   UNL A   1      46.054  32.225  29.234  1.00  0.00     0.057 A 
ATOM     84  C   UNL A   1      46.113  33.283  28.317  1.00  0.00     0.134 A 
ATOM     85  C   UNL A   1      46.490  32.478  30.542  1.00  0.00     0.134 A 
ATOM     86  F   UNL A   1      45.724  33.103  27.046  1.00  0.00    -0.206 F 
ATOM     87  C   UNL A   1      46.612  34.535  28.681  1.00  0.00     0.040 A 
ATOM     88  C   UNL A   1      46.960  33.734  30.924  1.00  0.00     0.040 A 
ATOM     89  F   UNL A   1      46.449  31.512  31.472  1.00  0.00    -0.206 F 
ATOM     90  C   UNL A   1      47.028  34.766  29.991  1.00  0.00     0.006 A 
ENDBRANCH  66  83
ENDBRANCH  40  41
ENDBRANCH  32  35
ENDBRANCH  30  31
ENDBRANCH  29  30
ENDBRANCH   1  29
TORSDOF 13
ENDMDL
MODEL 2
REMARK VINA RESULT:     -12.4      1.900      6.544
REMARK SMILES CC[NH+]1CC[NH+]([C@@H]2CC(=O)N(c3ccc(C(=O)NCCCNC(=O)c4ccc(-c5c6nc(c(-c7c(F)cccc7F)c7ccc([nH]7)c(-c7c(F)cccc7F)c7nc(c(-c8c(F)cccc8F)c8ccc5[nH]8)C=C7)C=C6)cc4)cc3)C2=O)CC1
REMARK SMILES IDX 19 1 18 2 16 3 17 4 15 6 12 7 13 8 80 9 14 10 79 11 11 12
REMARK SMILES IDX 7 13 8 14 81 15 9 16 82 17 10 18 6 19 3 20 4 21 84 22 5 24
REMARK SMILES IDX 83 25 2 27 1 28 20 29 21 30 22 31 23 32 24 34 25 35 26 36
REMARK SMILES IDX 78 37 27 38 77 39 28 40 29 41 30 42 71 43 31 44 76 45 70 46
REMARK SMILES IDX 72 47 32 48 75 49 69 50 68 51 33 53 59 54 42 55 58 56 43 57
REMARK SMILES IDX 46 58 57 59 73 60 44 61 45 62 56 64 74 65 47 66 34 67 35 68
REMARK SMILES IDX 40 69 36 70 37 71 39 72 41 73 38 74 60 75 61 76 66 77 62 78
REMARK SMILES IDX 63 79 65 80 67 81 64 82 48 83 49 84 54 85 50 86 51 87 53 88
REMARK SMILES IDX 55 89 52 90
REMARK H PARENT 18 5 3 23 6 26 22 33 72 52 46 63
REMARK Flexibility Score: inf
ROOT
ATOM      1  C   UNL A   1      37.345  20.518  24.887  1.00  0.00     0.118 C 
ENDROOT
BRANCH   1   2
ATOM      2  N   UNL A   1      36.059  19.851  24.972  1.00  0.00    -0.352 N 
ATOM      3  C   UNL A   1      34.773  20.325  24.930  1.00  0.00     0.251 C 
ATOM      4  O   UNL A   1      33.861  19.500  24.988  1.00  0.00    -0.269 OA
ATOM      5  H   UNL A   1      36.123  18.875  25.080  1.00  0.00     0.163 HD
BRANCH   3   6
ATOM      6  C   UNL A   1      34.439  21.769  24.774  1.00  0.00     0.039 A 
ATOM      7  C   UNL A   1      33.732  24.457  24.329  1.00  0.00     0.052 A 
ATOM      8  C   UNL A   1      32.893  23.430  23.887  1.00  0.00     0.027 A 
ATOM      9  C   UNL A   1      34.895  24.139  25.025  1.00  0.00     0.027 A 
ATOM     10  C   UNL A   1      33.265  22.093  24.080  1.00  0.00     0.016 A 
ATOM     11  C   UNL A   1      35.207  22.811  25.296  1.00  0.00     0.016 A 
BRANCH   7  12
ATOM     12  N   UNL A   1      33.417  25.807  24.111  1.00  0.00    -0.245 N 
ATOM     13  C   UNL A   1      32.700  28.008  24.480  1.00  0.00     0.285 C 
ATOM     14  C   UNL A   1      33.199  27.870  23.046  1.00  0.00     0.176 C 
ATOM     15  C   UNL A   1      33.064  26.673  25.118  1.00  0.00     0.292 C 
ATOM     16  C   UNL A   1      33.518  26.420  22.890  1.00  0.00     0.240 C 
ATOM     17  O   UNL A   1      33.045  26.444  26.320  1.00  0.00    -0.267 OA
ATOM     18  O   UNL A   1      33.815  25.917  21.812  1.00  0.00    -0.274 OA
BRANCH  13  19
ATOM     19  N   UNL A   1      31.291  28.347  24.751  1.00  0.00    -0.315 N 
ATOM     20  N   UNL A   1      29.304  28.613  22.499  1.00  0.00    -0.326 N 
ATOM     21  C   UNL A   1      30.249  29.701  22.838  1.00  0.00     0.324 C 
ATOM     22  C   UNL A   1      29.822  27.317  22.974  1.00  0.00     0.324 C 
ATOM     23  H   UNL A   1      29.222  28.543  21.486  1.00  0.00     0.348 HD
ATOM     24  C   UNL A   1      30.862  29.664  24.263  1.00  0.00     0.325 C 
ATOM     25  C   UNL A   1      30.284  27.323  24.441  1.00  0.00     0.325 C 
ATOM     26  H   UNL A   1      31.323  28.388  25.770  1.00  0.00     0.349 HD
BRANCH  20  27
ATOM     27  C   UNL A   1      27.957  28.914  23.004  1.00  0.00     0.259 C 
ATOM     28  C   UNL A   1      27.632  30.405  22.971  1.00  0.00     0.071 C 
ENDBRANCH  20  27
ENDBRANCH  13  19
ENDBRANCH   7  12
ENDBRANCH   3   6
ENDBRANCH   1   2
BRANCH   1  29
ATOM     29  C   UNL A   1      38.490  19.505  24.933  1.00  0.00     0.042 C 
BRANCH  29  30
ATOM     30  C   UNL A   1      39.425  19.730  26.112  1.00  0.00     0.118 C 
BRANCH  30  31
ATOM     31  N   UNL A   1      40.706  19.072  25.908  1.00  0.00    -0.352 N 
ATOM     32  C   UNL A   1      41.970  19.598  25.897  1.00  0.00     0.251 C 
ATOM     33  H   UNL A   1      40.656  18.101  25.753  1.00  0.00     0.163 HD
ATOM     34  O   UNL A   1      42.900  18.933  25.448  1.00  0.00    -0.269 OA
BRANCH  32  35
ATOM     35  C   UNL A   1      42.219  20.955  26.421  1.00  0.00     0.039 A 
ATOM     36  C   UNL A   1      42.167  21.162  27.802  1.00  0.00     0.014 A 
ATOM     37  C   UNL A   1      42.453  22.030  25.558  1.00  0.00     0.014 A 
ATOM     38  C   UNL A   1      42.382  22.440  28.318  1.00  0.00     0.010 A 
ATOM     39  C   UNL A   1      42.750  23.285  26.078  1.00  0.00     0.010 A 
ATOM     40  C   UNL A   1      42.698  23.506  27.461  1.00  0.00    -0.014 A 
BRANCH  40  41
ATOM     41  C   UNL A   1      42.950  24.868  27.991  1.00  0.00     0.031 A 
ATOM     42  C   UNL A   1      44.341  25.271  28.398  1.00  0.00     0.074 A 
ATOM     43  C   UNL A   1      41.919  25.719  28.156  1.00  0.00     0.049 A 
ATOM     44  N   UNL A   1      44.752  26.388  28.942  1.00  0.00    -0.248 NA
ATOM     45  C   UNL A   1      45.406  24.277  28.192  1.00  0.00     0.031 C 
ATOM     46  C   UNL A   1      40.521  25.425  27.837  1.00  0.00     0.029 A 
ATOM     47  N   UNL A   1      41.887  27.000  28.643  1.00  0.00    -0.354 N 
ATOM     48  C   UNL A   1      46.115  26.224  29.156  1.00  0.00     0.074 A 
ATOM     49  C   UNL A   1      46.451  24.881  28.737  1.00  0.00     0.031 C 
ATOM     50  C   UNL A   1      39.771  26.503  28.114  1.00  0.00     0.029 A 
ATOM     51  C   UNL A   1      40.627  27.546  28.670  1.00  0.00     0.049 A 
ATOM     52  H   UNL A   1      42.690  27.482  28.946  1.00  0.00     0.167 HD
ATOM     53  C   UNL A   1      47.009  27.120  29.636  1.00  0.00     0.037 A 
ATOM     54  C   UNL A   1      40.210  28.751  29.102  1.00  0.00     0.037 A 
ATOM     55  C   UNL A   1      46.671  28.462  30.031  1.00  0.00     0.049 A 
ATOM     56  C   UNL A   1      41.221  29.723  29.643  1.00  0.00     0.074 A 
ATOM     57  C   UNL A   1      47.511  29.467  30.478  1.00  0.00     0.029 A 
ATOM     58  N   UNL A   1      45.386  28.984  30.030  1.00  0.00    -0.354 N 
ATOM     59  N   UNL A   1      42.518  29.580  29.777  1.00  0.00    -0.248 NA
ATOM     60  C   UNL A   1      40.713  31.028  30.087  1.00  0.00     0.031 C 
ATOM     61  C   UNL A   1      46.727  30.580  30.796  1.00  0.00     0.029 A 
ATOM     62  C   UNL A   1      45.406  30.289  30.492  1.00  0.00     0.049 A 
ATOM     63  H   UNL A   1      44.579  28.499  29.743  1.00  0.00     0.167 HD
ATOM     64  C   UNL A   1      42.984  30.784  30.289  1.00  0.00     0.074 A 
ATOM     65  C   UNL A   1      41.831  31.651  30.428  1.00  0.00     0.031 C 
ATOM     66  C   UNL A   1      44.251  31.141  30.614  1.00  0.00     0.037 A 
BRANCH  53  67
ATOM     67  C   UNL A   1      48.439  26.675  29.759  1.00  0.00     0.057 A 
ATOM     68  C   UNL A   1      49.385  26.933  28.757  1.00  0.00     0.134 A 
ATOM     69  C   UNL A   1      48.884  26.008  30.907  1.00  0.00     0.134 A 
ATOM     70  F   UNL A   1      49.025  27.557  27.626  1.00  0.00    -0.206 F 
ATOM     71  C   UNL A   1      50.712  26.517  28.879  1.00  0.00     0.040 A 
ATOM     72  C   UNL A   1      50.216  25.614  31.055  1.00  0.00     0.040 A 
ATOM     73  F   UNL A   1      48.035  25.734  31.910  1.00  0.00    -0.206 F 
ATOM     74  C   UNL A   1      51.132  25.862  30.036  1.00  0.00     0.006 A 
ENDBRANCH  53  67
BRANCH  54  75
ATOM     75  C   UNL A   1      38.772  29.113  29.024  1.00  0.00     0.057 A 
ATOM     76  C   UNL A   1      38.205  29.563  27.826  1.00  0.00     0.134 A 
ATOM     77  C   UNL A   1      37.932  29.025  30.141  1.00  0.00     0.134 A 
ATOM     78  F   UNL A   1      38.961  29.684  26.724  1.00  0.00    -0.206 F 
ATOM     79  C   UNL A   1      36.863  29.937  27.747  1.00  0.00     0.040 A 
ATOM     80  C   UNL A   1      36.582  29.369  30.069  1.00  0.00     0.040 A 
ATOM     81  F   UNL A   1      38.411  28.590  31.316  1.00  0.00    -0.206 F 
ATOM     82  C   UNL A   1      36.046  29.836  28.871  1.00  0.00     0.006 A 
ENDBRANCH  54  75
BRANCH  66  83
ATOM     83  C   UNL A   1      44.463  32.542  31.110  1.00  0.00     0.057 A 
ATOM     84  C   UNL A   1      44.443  32.859  32.475  1.00  0.00     0.134 A 
ATOM     85  C   UNL A   1      44.733  33.581  30.209  1.00  0.00     0.134 A 
ATOM     86  F   UNL A   1      44.178  31.914  33.388  1.00  0.00    -0.206 F 
ATOM     87  C   UNL A   1      44.657  34.164  32.923  1.00  0.00     0.040 A 
ATOM     88  C   UNL A   1      44.980  34.882  30.647  1.00  0.00     0.040 A 
ATOM     89  F   UNL A   1      44.778  33.343  28.890  1.00  0.00    -0.206 F 
ATOM     90  C   UNL A   1      44.935  35.178  32.008  1.00  0.00     0.006 A 
ENDBRANCH  66  83
ENDBRANCH  40  41
ENDBRANCH  32  35
ENDBRANCH  30  31
ENDBRANCH  29  30
ENDBRANCH   1  29
TORSDOF 13
ENDMDL
MODEL 3
REMARK VINA RESULT:     -12.3      4.781     10.433
REMARK SMILES CC[NH+]1CC[NH+]([C@@H]2CC(=O)N(c3ccc(C(=O)NCCCNC(=O)c4ccc(-c5c6nc(c(-c7c(F)cccc7F)c7ccc([nH]7)c(-c7c(F)cccc7F)c7nc(c(-c8c(F)cccc8F)c8ccc5[nH]8)C=C7)C=C6)cc4)cc3)C2=O)CC1
REMARK SMILES IDX 19 1 18 2 16 3 17 4 15 6 12 7 13 8 80 9 14 10 79 11 11 12
REMARK SMILES IDX 7 13 8 14 81 15 9 16 82 17 10 18 6 19 3 20 4 21 84 22 5 24
REMARK SMILES IDX 83 25 2 27 1 28 20 29 21 30 22 31 23 32 24 34 25 35 26 36
REMARK SMILES IDX 78 37 27 38 77 39 28 40 29 41 30 42 71 43 31 44 76 45 70 46
REMARK SMILES IDX 72 47 32 48 75 49 69 50 68 51 33 53 59 54 42 55 58 56 43 57
REMARK SMILES IDX 46 58 57 59 73 60 44 61 45 62 56 64 74 65 47 66 34 67 35 68
REMARK SMILES IDX 40 69 36 70 37 71 39 72 41 73 38 74 60 75 61 76 66 77 62 78
REMARK SMILES IDX 63 79 65 80 67 81 64 82 48 83 49 84 54 85 50 86 51 87 53 88
REMARK SMILES IDX 55 89 52 90
REMARK H PARENT 18 5 3 23 6 26 22 33 72 52 46 63
REMARK Flexibility Score: inf
ROOT
ATOM      1  C   UNL A   1      31.403  30.851  25.820  1.00  0.00     0.118 C 
ENDROOT
BRANCH   1   2
ATOM      2  N   UNL A   1      30.559  30.749  24.645  1.00  0.00    -0.352 N 
ATOM      3  C   UNL A   1      30.367  29.740  23.737  1.00  0.00     0.251 C 
ATOM      4  O   UNL A   1      29.539  29.929  22.845  1.00  0.00    -0.269 OA
ATOM      5  H   UNL A   1      30.025  31.556  24.466  1.00  0.00     0.163 HD
BRANCH   3   6
ATOM      6  C   UNL A   1      31.072  28.430  23.809  1.00  0.00     0.039 A 
ATOM      7  C   UNL A   1      32.269  25.891  24.035  1.00  0.00     0.052 A 
ATOM      8  C   UNL A   1      30.881  26.003  23.920  1.00  0.00     0.027 A 
ATOM      9  C   UNL A   1      33.054  27.042  23.995  1.00  0.00     0.027 A 
ATOM     10  C   UNL A   1      30.286  27.269  23.841  1.00  0.00     0.016 A 
ATOM     11  C   UNL A   1      32.460  28.287  23.821  1.00  0.00     0.016 A 
BRANCH   7  12
ATOM     12  N   UNL A   1      32.898  24.644  24.164  1.00  0.00    -0.245 N 
ATOM     13  C   UNL A   1      33.751  22.672  25.102  1.00  0.00     0.285 C 
ATOM     14  C   UNL A   1      33.987  22.661  23.596  1.00  0.00     0.176 C 
ATOM     15  C   UNL A   1      32.880  23.904  25.321  1.00  0.00     0.292 C 
ATOM     16  C   UNL A   1      33.515  23.998  23.125  1.00  0.00     0.240 C 
ATOM     17  O   UNL A   1      32.275  24.158  26.354  1.00  0.00    -0.267 OA
ATOM     18  O   UNL A   1      33.684  24.395  21.978  1.00  0.00    -0.274 OA
BRANCH  13  19
ATOM     19  N   UNL A   1      34.891  22.669  26.037  1.00  0.00    -0.315 N 
ATOM     20  N   UNL A   1      37.723  22.484  25.020  1.00  0.00    -0.326 N 
ATOM     21  C   UNL A   1      36.858  21.289  25.140  1.00  0.00     0.324 C 
ATOM     22  C   UNL A   1      36.903  23.703  24.913  1.00  0.00     0.324 C 
ATOM     23  H   UNL A   1      38.267  22.419  24.161  1.00  0.00     0.348 HD
ATOM     24  C   UNL A   1      35.643  21.409  26.098  1.00  0.00     0.325 C 
ATOM     25  C   UNL A   1      35.804  23.819  25.984  1.00  0.00     0.325 C 
ATOM     26  H   UNL A   1      34.385  22.772  26.917  1.00  0.00     0.349 HD
BRANCH  20  27
ATOM     27  C   UNL A   1      38.694  22.538  26.122  1.00  0.00     0.259 C 
ATOM     28  C   UNL A   1      39.653  21.351  26.126  1.00  0.00     0.071 C 
ENDBRANCH  20  27
ENDBRANCH  13  19
ENDBRANCH   7  12
ENDBRANCH   3   6
ENDBRANCH   1   2
BRANCH   1  29
ATOM     29  C   UNL A   1      31.242  32.216  26.492  1.00  0.00     0.042 C 
BRANCH  29  30
ATOM     30  C   UNL A   1      32.491  32.652  27.244  1.00  0.00     0.118 C 
BRANCH  30  31
ATOM     31  N   UNL A   1      32.419  34.054  27.626  1.00  0.00    -0.352 N 
ATOM     32  C   UNL A   1      33.069  34.723  28.628  1.00  0.00     0.251 C 
ATOM     33  H   UNL A   1      31.810  34.604  27.082  1.00  0.00     0.163 HD
ATOM     34  O   UNL A   1      32.682  35.840  28.961  1.00  0.00    -0.269 OA
BRANCH  32  35
ATOM     35  C   UNL A   1      34.228  34.111  29.306  1.00  0.00     0.039 A 
ATOM     36  C   UNL A   1      35.512  34.409  28.843  1.00  0.00     0.014 A 
ATOM     37  C   UNL A   1      34.054  33.209  30.360  1.00  0.00     0.014 A 
ATOM     38  C   UNL A   1      36.622  33.828  29.457  1.00  0.00     0.010 A 
ATOM     39  C   UNL A   1      35.163  32.696  31.025  1.00  0.00     0.010 A 
ATOM     40  C   UNL A   1      36.456  32.986  30.568  1.00  0.00    -0.014 A 
BRANCH  40  41
ATOM     41  C   UNL A   1      37.623  32.375  31.249  1.00  0.00     0.031 A 
ATOM     42  C   UNL A   1      38.330  31.204  30.623  1.00  0.00     0.074 A 
ATOM     43  C   UNL A   1      38.009  32.840  32.452  1.00  0.00     0.049 A 
ATOM     44  N   UNL A   1      39.324  30.493  31.091  1.00  0.00    -0.248 NA
ATOM     45  C   UNL A   1      37.837  30.755  29.311  1.00  0.00     0.031 C 
ATOM     46  C   UNL A   1      37.373  33.942  33.177  1.00  0.00     0.029 A 
ATOM     47  N   UNL A   1      39.021  32.436  33.283  1.00  0.00    -0.354 N 
ATOM     48  C   UNL A   1      39.563  29.508  30.140  1.00  0.00     0.074 A 
ATOM     49  C   UNL A   1      38.575  29.676  29.098  1.00  0.00     0.031 C 
ATOM     50  C   UNL A   1      38.026  34.141  34.332  1.00  0.00     0.029 A 
ATOM     51  C   UNL A   1      39.096  33.157  34.450  1.00  0.00     0.049 A 
ATOM     52  H   UNL A   1      39.637  31.699  33.065  1.00  0.00     0.167 HD
ATOM     53  C   UNL A   1      40.533  28.564  30.127  1.00  0.00     0.037 A 
ATOM     54  C   UNL A   1      39.928  33.029  35.500  1.00  0.00     0.037 A 
ATOM     55  C   UNL A   1      41.527  28.416  31.158  1.00  0.00     0.049 A 
ATOM     56  C   UNL A   1      40.989  31.964  35.466  1.00  0.00     0.074 A 
ATOM     57  C   UNL A   1      42.587  27.528  31.213  1.00  0.00     0.029 A 
ATOM     58  N   UNL A   1      41.578  29.175  32.318  1.00  0.00    -0.354 N 
ATOM     59  N   UNL A   1      41.247  31.083  34.530  1.00  0.00    -0.248 NA
ATOM     60  C   UNL A   1      41.880  31.881  36.632  1.00  0.00     0.031 C 
ATOM     61  C   UNL A   1      43.248  27.715  32.431  1.00  0.00     0.029 A 
ATOM     62  C   UNL A   1      42.637  28.758  33.108  1.00  0.00     0.049 A 
ATOM     63  H   UNL A   1      40.954  29.901  32.547  1.00  0.00     0.167 HD
ATOM     64  C   UNL A   1      42.347  30.362  34.979  1.00  0.00     0.074 A 
ATOM     65  C   UNL A   1      42.715  30.921  36.264  1.00  0.00     0.031 C 
ATOM     66  C   UNL A   1      42.995  29.332  34.380  1.00  0.00     0.037 A 
BRANCH  53  67
ATOM     67  C   UNL A   1      40.565  27.618  28.960  1.00  0.00     0.057 A 
ATOM     68  C   UNL A   1      39.733  26.492  28.895  1.00  0.00     0.134 A 
ATOM     69  C   UNL A   1      41.415  27.853  27.872  1.00  0.00     0.134 A 
ATOM     70  F   UNL A   1      38.903  26.201  29.908  1.00  0.00    -0.206 F 
ATOM     71  C   UNL A   1      39.768  25.618  27.807  1.00  0.00     0.040 A 
ATOM     72  C   UNL A   1      41.437  27.004  26.764  1.00  0.00     0.040 A 
ATOM     73  F   UNL A   1      42.234  28.916  27.863  1.00  0.00    -0.206 F 
ATOM     74  C   UNL A   1      40.617  25.878  26.733  1.00  0.00     0.006 A 
ENDBRANCH  53  67
BRANCH  54  75
ATOM     75  C   UNL A   1      39.806  33.946  36.662  1.00  0.00     0.057 A 
ATOM     76  C   UNL A   1      39.053  33.591  37.786  1.00  0.00     0.134 A 
ATOM     77  C   UNL A   1      40.432  35.199  36.676  1.00  0.00     0.134 A 
ATOM     78  F   UNL A   1      38.416  32.410  37.826  1.00  0.00    -0.206 F 
ATOM     79  C   UNL A   1      38.903  34.456  38.871  1.00  0.00     0.040 A 
ATOM     80  C   UNL A   1      40.315  36.062  37.766  1.00  0.00     0.040 A 
ATOM     81  F   UNL A   1      41.179  35.594  35.634  1.00  0.00    -0.206 F 
ATOM     82  C   UNL A   1      39.540  35.695  38.864  1.00  0.00     0.006 A 
ENDBRANCH  54  75
BRANCH  66  83
ATOM     83  C   UNL A   1      44.194  28.771  35.088  1.00  0.00     0.057 A 
ATOM     84  C   UNL A   1      45.482  29.286  34.891  1.00  0.00     0.134 A 
ATOM     85  C   UNL A   1      44.049  27.728  36.013  1.00  0.00     0.134 A 
ATOM     86  F   UNL A   1      45.691  30.276  34.011  1.00  0.00    -0.206 F 
ATOM     87  C   UNL A   1      46.586  28.763  35.568  1.00  0.00     0.040 A 
ATOM     88  C   UNL A   1      45.140  27.220  36.717  1.00  0.00     0.040 A 
ATOM     89  F   UNL A   1      42.841  27.197  36.257  1.00  0.00    -0.206 F 
ATOM     90  C   UNL A   1      46.415  27.733  36.491  1.00  0.00     0.006 A 
ENDBRANCH  66  83
ENDBRANCH  40  41
ENDBRANCH  32  35
ENDBRANCH  30  31
ENDBRANCH  29  30
ENDBRANCH   1  29
TORSDOF 13
ENDMDL
