MODEL 1
REMARK VINA RESULT:     -13.3      0.000      0.000
REMARK SMILES COc1ccc(CCN2/C(=[NH+]/C(=O)CCC(=O)NCCCNC(=O)c3ccc(-c4c5nc(c(-c6c(F)cccc6F)c6ccc([nH]6)c(-c6c(F)cccc6F)c6nc(c(-c7c(F)cccc7F)c7ccc4[nH]7)C=C6)C=C5)cc3)S[C@@H]3CS(=O)(=O)C[C@@H]32)cc1
REMARK SMILES IDX 16 1 17 2 18 3 15 5 14 6 12 7 9 8 10 9 86 10 11 11 79 12
REMARK SMILES IDX 80 13 85 14 81 16 82 17 13 18 83 19 84 20 8 21 7 22 6 23
REMARK SMILES IDX 3 24 4 25 88 26 5 27 87 28 2 29 1 30 19 31 20 32 21 33 22 34
REMARK SMILES IDX 23 35 24 37 25 38 26 39 78 40 27 41 77 42 28 43 29 44 30 45
REMARK SMILES IDX 71 46 31 47 76 48 70 49 72 50 32 51 75 52 69 53 68 54 33 56
REMARK SMILES IDX 59 57 42 58 58 59 43 60 46 61 57 62 73 63 44 64 45 65 56 67
REMARK SMILES IDX 74 68 47 69 34 70 35 71 40 72 36 73 37 74 39 75 41 76 38 77
REMARK SMILES IDX 60 78 61 79 66 80 62 81 63 82 65 83 67 84 64 85 48 86 49 87
REMARK SMILES IDX 54 88 50 89 51 90 53 91 55 92 52 93
REMARK H PARENT 18 4 11 15 22 36 72 55 46 66
REMARK Flexibility Score: inf
ROOT
ATOM      1  C   UNL A   1      38.060  22.841  25.943  1.00  0.00     0.220 C 
ATOM      2  O   UNL A   1      38.068  24.062  26.115  1.00  0.00    -0.275 OA
ATOM      3  N   UNL A   1      39.248  22.177  26.010  1.00  0.00    -0.356 N 
ATOM      4  H   UNL A   1      40.028  22.769  26.107  1.00  0.00     0.163 HD
ENDROOT
BRANCH   1   5
ATOM      5  C   UNL A   1      36.767  22.115  25.665  1.00  0.00     0.112 C 
BRANCH   5   6
ATOM      6  C   UNL A   1      36.621  21.877  24.162  1.00  0.00     0.138 C 
BRANCH   6   7
ATOM      7  C   UNL A   1      35.729  22.966  23.649  1.00  0.00     0.308 C 
ATOM      8  N   UNL A   1      32.403  24.087  24.559  1.00  0.00    -0.251 N 
ATOM      9  C   UNL A   1      33.557  23.760  23.810  1.00  0.00     0.314 C 
ATOM     10  C   UNL A   1      31.779  25.437  23.960  1.00  0.00     0.206 C 
ATOM     11  N   UNL A   1      34.469  22.933  24.198  1.00  0.00    -0.205 N 
ATOM     12  S   UNL A   1      33.676  24.721  22.330  1.00  0.00    -0.030 SA
ATOM     13  C   UNL A   1      32.895  26.107  23.104  1.00  0.00     0.120 C 
ATOM     14  C   UNL A   1      31.330  26.781  24.640  1.00  0.00     0.187 C 
ATOM     15  H   UNL A   1      34.258  22.270  24.895  1.00  0.00     0.316 HD
ATOM     16  C   UNL A   1      33.808  26.967  23.994  1.00  0.00     0.156 C 
ATOM     17  S   UNL A   1      32.689  27.804  25.071  1.00  0.00     0.155 S 
ATOM     18  O   UNL A   1      36.247  23.899  23.035  1.00  0.00    -0.247 OA
ATOM     19  O   UNL A   1      33.049  27.598  26.467  1.00  0.00    -0.229 OA
ATOM     20  O   UNL A   1      32.432  29.129  24.569  1.00  0.00    -0.229 OA
BRANCH   8  21
ATOM     21  C   UNL A   1      31.719  22.787  25.402  1.00  0.00     0.242 C 
BRANCH  21  22
ATOM     22  C   UNL A   1      31.860  20.950  25.259  1.00  0.00     0.081 C 
BRANCH  22  23
ATOM     23  C   UNL A   1      32.769  19.837  24.476  1.00  0.00    -0.044 A 
ATOM     24  C   UNL A   1      33.861  17.263  23.785  1.00  0.00     0.118 A 
ATOM     25  C   UNL A   1      34.599  18.121  24.571  1.00  0.00     0.046 A 
ATOM     26  C   UNL A   1      32.764  17.799  23.107  1.00  0.00     0.046 A 
ATOM     27  C   UNL A   1      34.113  19.443  24.786  1.00  0.00     0.007 A 
ATOM     28  C   UNL A   1      32.213  19.062  23.451  1.00  0.00     0.007 A 
BRANCH  24  29
ATOM     29  O   UNL A   1      33.908  15.899  23.821  1.00  0.00    -0.497 OA
ATOM     30  C   UNL A   1      33.591  15.207  25.015  1.00  0.00     0.278 C 
ENDBRANCH  24  29
ENDBRANCH  22  23
ENDBRANCH  21  22
ENDBRANCH   8  21
ENDBRANCH   6   7
ENDBRANCH   5   6
ENDBRANCH   1   5
BRANCH   3  31
ATOM     31  C   UNL A   1      39.590  20.753  25.966  1.00  0.00     0.117 C 
BRANCH  31  32
ATOM     32  C   UNL A   1      40.907  20.319  26.687  1.00  0.00     0.042 C 
BRANCH  32  33
ATOM     33  C   UNL A   1      42.163  20.621  25.849  1.00  0.00     0.118 C 
BRANCH  33  34
ATOM     34  N   UNL A   1      42.620  22.079  25.212  1.00  0.00    -0.352 N 
ATOM     35  C   UNL A   1      43.250  23.431  25.503  1.00  0.00     0.251 C 
ATOM     36  H   UNL A   1      42.389  22.065  24.255  1.00  0.00     0.163 HD
ATOM     37  O   UNL A   1      44.032  23.798  24.606  1.00  0.00    -0.269 OA
BRANCH  35  38
ATOM     38  C   UNL A   1      42.778  24.736  26.313  1.00  0.00     0.039 A 
ATOM     39  C   UNL A   1      41.658  24.570  27.174  1.00  0.00     0.014 A 
ATOM     40  C   UNL A   1      43.194  26.068  26.273  1.00  0.00     0.014 A 
ATOM     41  C   UNL A   1      41.275  25.500  28.181  1.00  0.00     0.010 A 
ATOM     42  C   UNL A   1      42.894  26.992  27.325  1.00  0.00     0.010 A 
ATOM     43  C   UNL A   1      41.961  26.701  28.332  1.00  0.00    -0.014 A 
BRANCH  43  44
ATOM     44  C   UNL A   1      41.575  27.732  29.359  1.00  0.00     0.031 A 
ATOM     45  C   UNL A   1      42.313  27.728  30.676  1.00  0.00     0.074 A 
ATOM     46  C   UNL A   1      40.567  28.618  29.178  1.00  0.00     0.049 A 
ATOM     47  N   UNL A   1      42.066  28.373  31.789  1.00  0.00    -0.248 NA
ATOM     48  C   UNL A   1      43.477  26.831  30.751  1.00  0.00     0.031 C 
ATOM     49  C   UNL A   1      39.765  28.756  27.963  1.00  0.00     0.029 A 
ATOM     50  N   UNL A   1      40.018  29.556  30.033  1.00  0.00    -0.354 N 
ATOM     51  C   UNL A   1      43.016  27.923  32.702  1.00  0.00     0.074 A 
ATOM     52  C   UNL A   1      43.807  26.920  32.028  1.00  0.00     0.031 C 
ATOM     53  C   UNL A   1      38.819  29.696  28.154  1.00  0.00     0.029 A 
ATOM     54  C   UNL A   1      38.919  30.215  29.517  1.00  0.00     0.049 A 
ATOM     55  H   UNL A   1      40.378  29.738  30.931  1.00  0.00     0.167 HD
ATOM     56  C   UNL A   1      43.222  28.315  33.983  1.00  0.00     0.037 A 
ATOM     57  C   UNL A   1      38.080  31.113  30.083  1.00  0.00     0.037 A 
ATOM     58  C   UNL A   1      42.446  29.331  34.641  1.00  0.00     0.049 A 
ATOM     59  C   UNL A   1      38.311  31.528  31.520  1.00  0.00     0.074 A 
ATOM     60  C   UNL A   1      42.590  29.837  35.921  1.00  0.00     0.029 A 
ATOM     61  N   UNL A   1      41.374  29.996  34.063  1.00  0.00    -0.354 N 
ATOM     62  N   UNL A   1      39.234  31.118  32.357  1.00  0.00    -0.248 NA
ATOM     63  C   UNL A   1      37.391  32.526  32.092  1.00  0.00     0.031 C 
ATOM     64  C   UNL A   1      41.574  30.774  36.133  1.00  0.00     0.029 A 
ATOM     65  C   UNL A   1      40.837  30.897  34.964  1.00  0.00     0.049 A 
ATOM     66  H   UNL A   1      41.045  29.849  33.147  1.00  0.00     0.167 HD
ATOM     67  C   UNL A   1      39.033  31.831  33.534  1.00  0.00     0.074 A 
ATOM     68  C   UNL A   1      37.900  32.703  33.304  1.00  0.00     0.031 C 
ATOM     69  C   UNL A   1      39.725  31.774  34.698  1.00  0.00     0.037 A 
BRANCH  56  70
ATOM     70  C   UNL A   1      44.318  27.626  34.751  1.00  0.00     0.057 A 
ATOM     71  C   UNL A   1      45.631  28.119  34.778  1.00  0.00     0.134 A 
ATOM     72  C   UNL A   1      44.063  26.448  35.466  1.00  0.00     0.134 A 
ATOM     73  F   UNL A   1      45.953  29.234  34.104  1.00  0.00    -0.206 F 
ATOM     74  C   UNL A   1      46.655  27.444  35.448  1.00  0.00     0.040 A 
ATOM     75  C   UNL A   1      45.070  25.784  36.169  1.00  0.00     0.040 A 
ATOM     76  F   UNL A   1      42.829  25.921  35.493  1.00  0.00    -0.206 F 
ATOM     77  C   UNL A   1      46.373  26.275  36.149  1.00  0.00     0.006 A 
ENDBRANCH  56  70
BRANCH  57  78
ATOM     78  C   UNL A   1      36.941  31.694  29.309  1.00  0.00     0.057 A 
ATOM     79  C   UNL A   1      35.767  30.963  29.078  1.00  0.00     0.134 A 
ATOM     80  C   UNL A   1      37.002  32.980  28.758  1.00  0.00     0.134 A 
ATOM     81  F   UNL A   1      35.650  29.710  29.545  1.00  0.00    -0.206 F 
ATOM     82  C   UNL A   1      34.704  31.482  28.331  1.00  0.00     0.040 A 
ATOM     83  C   UNL A   1      35.937  33.524  28.029  1.00  0.00     0.040 A 
ATOM     84  F   UNL A   1      38.097  33.737  28.924  1.00  0.00    -0.206 F 
ATOM     85  C   UNL A   1      34.785  32.771  27.811  1.00  0.00     0.006 A 
ENDBRANCH  57  78
BRANCH  69  86
ATOM     86  C   UNL A   1      39.327  32.717  35.797  1.00  0.00     0.057 A 
ATOM     87  C   UNL A   1      38.483  32.327  36.843  1.00  0.00     0.134 A 
ATOM     88  C   UNL A   1      39.882  34.003  35.855  1.00  0.00     0.134 A 
ATOM     89  F   UNL A   1      37.914  31.113  36.841  1.00  0.00    -0.206 F 
ATOM     90  C   UNL A   1      38.198  33.187  37.905  1.00  0.00     0.040 A 
ATOM     91  C   UNL A   1      39.628  34.861  36.925  1.00  0.00     0.040 A 
ATOM     92  F   UNL A   1      40.709  34.431  34.889  1.00  0.00    -0.206 F 
ATOM     93  C   UNL A   1      38.783  34.453  37.954  1.00  0.00     0.006 A 
ENDBRANCH  69  86
ENDBRANCH  43  44
ENDBRANCH  35  38
ENDBRANCH  33  34
ENDBRANCH  32  33
ENDBRANCH  31  32
ENDBRANCH   3  31
TORSDOF 16
ENDMDL
MODEL 2
REMARK VINA RESULT:     -13.3      4.401     10.304
REMARK SMILES COc1ccc(CCN2/C(=[NH+]/C(=O)CCC(=O)NCCCNC(=O)c3ccc(-c4c5nc(c(-c6c(F)cccc6F)c6ccc([nH]6)c(-c6c(F)cccc6F)c6nc(c(-c7c(F)cccc7F)c7ccc4[nH]7)C=C6)C=C5)cc3)S[C@@H]3CS(=O)(=O)C[C@@H]32)cc1
REMARK SMILES IDX 16 1 17 2 18 3 15 5 14 6 12 7 9 8 10 9 86 10 11 11 79 12
REMARK SMILES IDX 80 13 85 14 81 16 82 17 13 18 83 19 84 20 8 21 7 22 6 23
REMARK SMILES IDX 3 24 4 25 88 26 5 27 87 28 2 29 1 30 19 31 20 32 21 33 22 34
REMARK SMILES IDX 23 35 24 37 25 38 26 39 78 40 27 41 77 42 28 43 29 44 30 45
REMARK SMILES IDX 71 46 31 47 76 48 70 49 72 50 32 51 75 52 69 53 68 54 33 56
REMARK SMILES IDX 59 57 42 58 58 59 43 60 46 61 57 62 73 63 44 64 45 65 56 67
REMARK SMILES IDX 74 68 47 69 34 70 35 71 40 72 36 73 37 74 39 75 41 76 38 77
REMARK SMILES IDX 60 78 61 79 66 80 62 81 63 82 65 83 67 84 64 85 48 86 49 87
REMARK SMILES IDX 54 88 50 89 51 90 53 91 55 92 52 93
REMARK H PARENT 18 4 11 15 22 36 72 55 46 66
REMARK Flexibility Score: inf
ROOT
ATOM      1  C   UNL A   1      34.583  30.998  27.594  1.00  0.00     0.220 C 
ATOM      2  O   UNL A   1      35.594  30.317  27.409  1.00  0.00    -0.275 OA
ATOM      3  N   UNL A   1      34.742  32.276  28.038  1.00  0.00    -0.356 N 
ATOM      4  H   UNL A   1      35.675  32.507  28.255  1.00  0.00     0.163 HD
ENDROOT
BRANCH   1   5
ATOM      5  C   UNL A   1      33.213  30.420  27.337  1.00  0.00     0.112 C 
BRANCH   5   6
ATOM      6  C   UNL A   1      33.164  29.812  25.936  1.00  0.00     0.138 C 
BRANCH   6   7
ATOM      7  C   UNL A   1      32.962  28.339  26.123  1.00  0.00     0.308 C 
ATOM      8  N   UNL A   1      32.290  25.612  23.829  1.00  0.00    -0.251 N 
ATOM      9  C   UNL A   1      32.292  26.439  24.978  1.00  0.00     0.314 C 
ATOM     10  C   UNL A   1      32.331  24.082  24.310  1.00  0.00     0.206 C 
ATOM     11  N   UNL A   1      32.576  27.697  24.970  1.00  0.00    -0.205 N 
ATOM     12  S   UNL A   1      31.991  25.514  26.455  1.00  0.00    -0.030 SA
ATOM     13  C   UNL A   1      32.805  24.089  25.793  1.00  0.00     0.120 C 
ATOM     14  C   UNL A   1      33.249  22.875  23.899  1.00  0.00     0.187 C 
ATOM     15  H   UNL A   1      32.514  28.204  24.128  1.00  0.00     0.316 HD
ATOM     16  C   UNL A   1      34.341  24.115  25.865  1.00  0.00     0.156 C 
ATOM     17  S   UNL A   1      34.844  22.965  24.624  1.00  0.00     0.155 S 
ATOM     18  O   UNL A   1      33.397  27.820  27.151  1.00  0.00    -0.247 OA
ATOM     19  O   UNL A   1      35.785  23.574  23.693  1.00  0.00    -0.229 OA
ATOM     20  O   UNL A   1      35.135  21.692  25.231  1.00  0.00    -0.229 OA
BRANCH   8  21
ATOM     21  C   UNL A   1      31.696  26.356  22.429  1.00  0.00     0.242 C 
BRANCH  21  22
ATOM     22  C   UNL A   1      30.387  27.619  22.104  1.00  0.00     0.081 C 
BRANCH  22  23
ATOM     23  C   UNL A   1      29.583  28.799  22.902  1.00  0.00    -0.044 A 
ATOM     24  C   UNL A   1      28.441  31.390  23.429  1.00  0.00     0.118 A 
ATOM     25  C   UNL A   1      29.640  31.047  24.016  1.00  0.00     0.046 A 
ATOM     26  C   UNL A   1      27.688  30.359  22.864  1.00  0.00     0.046 A 
ATOM     27  C   UNL A   1      30.122  29.715  23.865  1.00  0.00     0.007 A 
ATOM     28  C   UNL A   1      28.248  29.083  22.589  1.00  0.00     0.007 A 
BRANCH  24  29
ATOM     29  O   UNL A   1      28.045  32.651  23.087  1.00  0.00    -0.497 OA
ATOM     30  C   UNL A   1      28.958  33.731  23.171  1.00  0.00     0.278 C 
ENDBRANCH  24  29
ENDBRANCH  22  23
ENDBRANCH  21  22
ENDBRANCH   8  21
ENDBRANCH   6   7
ENDBRANCH   5   6
ENDBRANCH   1   5
BRANCH   3  31
ATOM     31  C   UNL A   1      33.797  33.374  28.256  1.00  0.00     0.117 C 
BRANCH  31  32
ATOM     32  C   UNL A   1      34.305  34.588  29.099  1.00  0.00     0.042 C 
BRANCH  32  33
ATOM     33  C   UNL A   1      33.939  34.464  30.590  1.00  0.00     0.118 C 
BRANCH  33  34
ATOM     34  N   UNL A   1      34.453  33.308  31.658  1.00  0.00    -0.352 N 
ATOM     35  C   UNL A   1      35.657  32.672  32.333  1.00  0.00     0.251 C 
ATOM     36  H   UNL A   1      33.652  32.843  31.992  1.00  0.00     0.163 HD
ATOM     37  O   UNL A   1      35.459  32.433  33.538  1.00  0.00    -0.269 OA
BRANCH  35  38
ATOM     38  C   UNL A   1      36.853  31.725  31.829  1.00  0.00     0.039 A 
ATOM     39  C   UNL A   1      37.016  31.614  30.420  1.00  0.00     0.014 A 
ATOM     40  C   UNL A   1      37.736  30.884  32.509  1.00  0.00     0.014 A 
ATOM     41  C   UNL A   1      38.171  31.077  29.786  1.00  0.00     0.010 A 
ATOM     42  C   UNL A   1      38.949  30.410  31.914  1.00  0.00     0.010 A 
ATOM     43  C   UNL A   1      39.210  30.546  30.542  1.00  0.00    -0.014 A 
BRANCH  43  44
ATOM     44  C   UNL A   1      40.439  29.936  29.919  1.00  0.00     0.031 A 
ATOM     45  C   UNL A   1      41.627  30.834  29.674  1.00  0.00     0.074 A 
ATOM     46  C   UNL A   1      40.503  28.644  29.520  1.00  0.00     0.049 A 
ATOM     47  N   UNL A   1      42.726  30.620  28.996  1.00  0.00    -0.248 NA
ATOM     48  C   UNL A   1      41.533  32.185  30.250  1.00  0.00     0.031 C 
ATOM     49  C   UNL A   1      39.447  27.647  29.693  1.00  0.00     0.029 A 
ATOM     50  N   UNL A   1      41.495  27.948  28.853  1.00  0.00    -0.354 N 
ATOM     51  C   UNL A   1      43.427  31.823  29.028  1.00  0.00     0.074 A 
ATOM     52  C   UNL A   1      42.608  32.769  29.750  1.00  0.00     0.031 C 
ATOM     53  C   UNL A   1      39.831  26.484  29.131  1.00  0.00     0.029 A 
ATOM     54  C   UNL A   1      41.152  26.650  28.526  1.00  0.00     0.049 A 
ATOM     55  H   UNL A   1      42.369  28.342  28.630  1.00  0.00     0.167 HD
ATOM     56  C   UNL A   1      44.648  32.113  28.518  1.00  0.00     0.037 A 
ATOM     57  C   UNL A   1      41.814  25.715  27.806  1.00  0.00     0.037 A 
ATOM     58  C   UNL A   1      45.470  31.161  27.822  1.00  0.00     0.049 A 
ATOM     59  C   UNL A   1      43.168  26.060  27.225  1.00  0.00     0.074 A 
ATOM     60  C   UNL A   1      46.738  31.331  27.297  1.00  0.00     0.029 A 
ATOM     61  N   UNL A   1      45.096  29.851  27.554  1.00  0.00    -0.354 N 
ATOM     62  N   UNL A   1      43.831  27.190  27.296  1.00  0.00    -0.248 NA
ATOM     63  C   UNL A   1      43.867  25.007  26.468  1.00  0.00     0.031 C 
ATOM     64  C   UNL A   1      47.112  30.138  26.668  1.00  0.00     0.029 A 
ATOM     65  C   UNL A   1      46.102  29.207  26.858  1.00  0.00     0.049 A 
ATOM     66  H   UNL A   1      44.241  29.442  27.821  1.00  0.00     0.167 HD
ATOM     67  C   UNL A   1      45.034  26.974  26.632  1.00  0.00     0.074 A 
ATOM     68  C   UNL A   1      45.012  25.604  26.165  1.00  0.00     0.031 C 
ATOM     69  C   UNL A   1      46.065  27.831  26.430  1.00  0.00     0.037 A 
BRANCH  56  70
ATOM     70  C   UNL A   1      45.152  33.523  28.683  1.00  0.00     0.057 A 
ATOM     71  C   UNL A   1      44.881  34.525  27.740  1.00  0.00     0.134 A 
ATOM     72  C   UNL A   1      45.928  33.881  29.793  1.00  0.00     0.134 A 
ATOM     73  F   UNL A   1      44.157  34.251  26.644  1.00  0.00    -0.206 F 
ATOM     74  C   UNL A   1      45.398  35.816  27.873  1.00  0.00     0.040 A 
ATOM     75  C   UNL A   1      46.421  35.178  29.954  1.00  0.00     0.040 A 
ATOM     76  F   UNL A   1      46.222  32.978  30.740  1.00  0.00    -0.206 F 
ATOM     77  C   UNL A   1      46.168  36.146  28.986  1.00  0.00     0.006 A 
ENDBRANCH  56  70
BRANCH  57  78
ATOM     78  C   UNL A   1      41.225  24.360  27.583  1.00  0.00     0.057 A 
ATOM     79  C   UNL A   1      40.174  24.159  26.677  1.00  0.00     0.134 A 
ATOM     80  C   UNL A   1      41.677  23.234  28.284  1.00  0.00     0.134 A 
ATOM     81  F   UNL A   1      39.665  25.197  25.995  1.00  0.00    -0.206 F 
ATOM     82  C   UNL A   1      39.594  22.902  26.479  1.00  0.00     0.040 A 
ATOM     83  C   UNL A   1      41.124  21.964  28.079  1.00  0.00     0.040 A 
ATOM     84  F   UNL A   1      42.671  23.346  29.177  1.00  0.00    -0.206 F 
ATOM     85  C   UNL A   1      40.076  21.797  27.176  1.00  0.00     0.006 A 
ENDBRANCH  57  78
BRANCH  69  86
ATOM     86  C   UNL A   1      47.285  27.305  25.731  1.00  0.00     0.057 A 
ATOM     87  C   UNL A   1      47.522  27.539  24.371  1.00  0.00     0.134 A 
ATOM     88  C   UNL A   1      48.283  26.641  26.458  1.00  0.00     0.134 A 
ATOM     89  F   UNL A   1      46.604  28.162  23.618  1.00  0.00    -0.206 F 
ATOM     90  C   UNL A   1      48.706  27.125  23.758  1.00  0.00     0.040 A 
ATOM     91  C   UNL A   1      49.481  26.247  25.864  1.00  0.00     0.040 A 
ATOM     92  F   UNL A   1      48.120  26.398  27.768  1.00  0.00    -0.206 F 
ATOM     93  C   UNL A   1      49.695  26.488  24.509  1.00  0.00     0.006 A 
ENDBRANCH  69  86
ENDBRANCH  43  44
ENDBRANCH  35  38
ENDBRANCH  33  34
ENDBRANCH  32  33
ENDBRANCH  31  32
ENDBRANCH   3  31
TORSDOF 16
ENDMDL
MODEL 3
REMARK VINA RESULT:     -12.5      4.826     10.543
REMARK SMILES COc1ccc(CCN2/C(=[NH+]/C(=O)CCC(=O)NCCCNC(=O)c3ccc(-c4c5nc(c(-c6c(F)cccc6F)c6ccc([nH]6)c(-c6c(F)cccc6F)c6nc(c(-c7c(F)cccc7F)c7ccc4[nH]7)C=C6)C=C5)cc3)S[C@@H]3CS(=O)(=O)C[C@@H]32)cc1
REMARK SMILES IDX 16 1 17 2 18 3 15 5 14 6 12 7 9 8 10 9 86 10 11 11 79 12
REMARK SMILES IDX 80 13 85 14 81 16 82 17 13 18 83 19 84 20 8 21 7 22 6 23
REMARK SMILES IDX 3 24 4 25 88 26 5 27 87 28 2 29 1 30 19 31 20 32 21 33 22 34
REMARK SMILES IDX 23 35 24 37 25 38 26 39 78 40 27 41 77 42 28 43 29 44 30 45
REMARK SMILES IDX 71 46 31 47 76 48 70 49 72 50 32 51 75 52 69 53 68 54 33 56
REMARK SMILES IDX 59 57 42 58 58 59 43 60 46 61 57 62 73 63 44 64 45 65 56 67
REMARK SMILES IDX 74 68 47 69 34 70 35 71 40 72 36 73 37 74 39 75 41 76 38 77
REMARK SMILES IDX 60 78 61 79 66 80 62 81 63 82 65 83 67 84 64 85 48 86 49 87
REMARK SMILES IDX 54 88 50 89 51 90 53 91 55 92 52 93
REMARK H PARENT 18 4 11 15 22 36 72 55 46 66
REMARK Flexibility Score: inf
ROOT
ATOM      1  C   UNL A   1      34.175  29.907  27.166  1.00  0.00     0.220 C 
ATOM      2  O   UNL A   1      34.971  28.989  27.377  1.00  0.00    -0.275 OA
ATOM      3  N   UNL A   1      34.371  31.087  27.818  1.00  0.00    -0.356 N 
ATOM      4  H   UNL A   1      35.102  31.060  28.477  1.00  0.00     0.163 HD
ENDROOT
BRANCH   1   5
ATOM      5  C   UNL A   1      33.019  29.715  26.216  1.00  0.00     0.112 C 
BRANCH   5   6
ATOM      6  C   UNL A   1      31.789  29.238  26.988  1.00  0.00     0.138 C 
BRANCH   6   7
ATOM      7  C   UNL A   1      31.771  27.745  26.867  1.00  0.00     0.308 C 
ATOM      8  N   UNL A   1      32.236  25.473  24.078  1.00  0.00    -0.251 N 
ATOM      9  C   UNL A   1      31.772  26.052  25.283  1.00  0.00     0.314 C 
ATOM     10  C   UNL A   1      32.370  23.890  24.299  1.00  0.00     0.206 C 
ATOM     11  N   UNL A   1      31.846  27.309  25.564  1.00  0.00    -0.205 N 
ATOM     12  S   UNL A   1      31.195  24.828  26.422  1.00  0.00    -0.030 SA
ATOM     13  C   UNL A   1      32.378  23.649  25.838  1.00  0.00     0.120 C 
ATOM     14  C   UNL A   1      33.544  22.884  24.016  1.00  0.00     0.187 C 
ATOM     15  H   UNL A   1      31.958  27.964  24.837  1.00  0.00     0.316 HD
ATOM     16  C   UNL A   1      33.802  23.811  26.397  1.00  0.00     0.156 C 
ATOM     17  S   UNL A   1      34.820  22.985  25.215  1.00  0.00     0.155 S 
ATOM     18  O   UNL A   1      31.959  27.078  27.884  1.00  0.00    -0.247 OA
ATOM     19  O   UNL A   1      35.887  23.856  24.741  1.00  0.00    -0.229 OA
ATOM     20  O   UNL A   1      35.113  21.652  25.675  1.00  0.00    -0.229 OA
BRANCH   8  21
ATOM     21  C   UNL A   1      31.973  26.417  22.697  1.00  0.00     0.242 C 
BRANCH  21  22
ATOM     22  C   UNL A   1      30.662  27.620  22.196  1.00  0.00     0.081 C 
BRANCH  22  23
ATOM     23  C   UNL A   1      29.697  28.751  22.877  1.00  0.00    -0.044 A 
ATOM     24  C   UNL A   1      28.226  31.211  23.160  1.00  0.00     0.118 A 
ATOM     25  C   UNL A   1      29.445  31.076  23.790  1.00  0.00     0.046 A 
ATOM     26  C   UNL A   1      27.622  30.047  22.680  1.00  0.00     0.046 A 
ATOM     27  C   UNL A   1      30.094  29.808  23.762  1.00  0.00     0.007 A 
ATOM     28  C   UNL A   1      28.345  28.835  22.525  1.00  0.00     0.007 A 
BRANCH  24  29
ATOM     29  O   UNL A   1      27.681  32.377  22.703  1.00  0.00    -0.497 OA
ATOM     30  C   UNL A   1      27.878  32.773  21.358  1.00  0.00     0.278 C 
ENDBRANCH  24  29
ENDBRANCH  22  23
ENDBRANCH  21  22
ENDBRANCH   8  21
ENDBRANCH   6   7
ENDBRANCH   5   6
ENDBRANCH   1   5
BRANCH   3  31
ATOM     31  C   UNL A   1      33.706  32.390  27.729  1.00  0.00     0.117 C 
BRANCH  31  32
ATOM     32  C   UNL A   1      33.940  33.386  28.910  1.00  0.00     0.042 C 
BRANCH  32  33
ATOM     33  C   UNL A   1      35.162  33.006  29.767  1.00  0.00     0.118 C 
BRANCH  33  34
ATOM     34  N   UNL A   1      35.509  31.526  30.424  1.00  0.00    -0.352 N 
ATOM     35  C   UNL A   1      36.567  30.675  31.106  1.00  0.00     0.251 C 
ATOM     36  H   UNL A   1      34.701  30.972  30.335  1.00  0.00     0.163 HD
ATOM     37  O   UNL A   1      36.104  29.991  32.037  1.00  0.00    -0.269 OA
BRANCH  35  38
ATOM     38  C   UNL A   1      37.938  29.991  30.621  1.00  0.00     0.039 A 
ATOM     39  C   UNL A   1      38.201  30.030  29.224  1.00  0.00     0.014 A 
ATOM     40  C   UNL A   1      38.912  29.256  31.300  1.00  0.00     0.014 A 
ATOM     41  C   UNL A   1      39.466  29.752  28.637  1.00  0.00     0.010 A 
ATOM     42  C   UNL A   1      40.222  29.047  30.762  1.00  0.00     0.010 A 
ATOM     43  C   UNL A   1      40.536  29.342  29.426  1.00  0.00    -0.014 A 
BRANCH  43  44
ATOM     44  C   UNL A   1      41.887  29.004  28.851  1.00  0.00     0.031 A 
ATOM     45  C   UNL A   1      42.116  27.593  28.367  1.00  0.00     0.074 A 
ATOM     46  C   UNL A   1      42.913  29.886  28.801  1.00  0.00     0.049 A 
ATOM     47  N   UNL A   1      43.220  26.989  28.005  1.00  0.00    -0.248 NA
ATOM     48  C   UNL A   1      40.924  26.731  28.330  1.00  0.00     0.031 C 
ATOM     49  C   UNL A   1      42.851  31.287  29.219  1.00  0.00     0.029 A 
ATOM     50  N   UNL A   1      44.228  29.728  28.405  1.00  0.00    -0.354 N 
ATOM     51  C   UNL A   1      42.858  25.670  27.741  1.00  0.00     0.074 A 
ATOM     52  C   UNL A   1      41.448  25.554  28.032  1.00  0.00     0.031 C 
ATOM     53  C   UNL A   1      44.066  31.850  29.082  1.00  0.00     0.029 A 
ATOM     54  C   UNL A   1      45.013  30.849  28.593  1.00  0.00     0.049 A 
ATOM     55  H   UNL A   1      44.575  28.890  28.022  1.00  0.00     0.167 HD
ATOM     56  C   UNL A   1      43.624  24.650  27.286  1.00  0.00     0.037 A 
ATOM     57  C   UNL A   1      46.341  31.038  28.415  1.00  0.00     0.037 A 
ATOM     58  C   UNL A   1      45.021  24.777  26.975  1.00  0.00     0.049 A 
ATOM     59  C   UNL A   1      47.187  29.884  27.924  1.00  0.00     0.074 A 
ATOM     60  C   UNL A   1      45.887  23.823  26.470  1.00  0.00     0.029 A 
ATOM     61  N   UNL A   1      45.759  25.941  27.143  1.00  0.00    -0.354 N 
ATOM     62  N   UNL A   1      46.822  28.654  27.647  1.00  0.00    -0.248 NA
ATOM     63  C   UNL A   1      48.624  30.138  27.720  1.00  0.00     0.031 C 
ATOM     64  C   UNL A   1      47.160  24.397  26.379  1.00  0.00     0.029 A 
ATOM     65  C   UNL A   1      47.072  25.725  26.767  1.00  0.00     0.049 A 
ATOM     66  H   UNL A   1      45.399  26.794  27.479  1.00  0.00     0.167 HD
ATOM     67  C   UNL A   1      47.967  28.003  27.201  1.00  0.00     0.074 A 
ATOM     68  C   UNL A   1      49.041  28.972  27.242  1.00  0.00     0.031 C 
ATOM     69  C   UNL A   1      48.116  26.719  26.791  1.00  0.00     0.037 A 
BRANCH  56  70
ATOM     70  C   UNL A   1      42.962  23.308  27.118  1.00  0.00     0.057 A 
ATOM     71  C   UNL A   1      42.717  22.456  28.205  1.00  0.00     0.134 A 
ATOM     72  C   UNL A   1      42.573  22.855  25.850  1.00  0.00     0.134 A 
ATOM     73  F   UNL A   1      43.075  22.818  29.446  1.00  0.00    -0.206 F 
ATOM     74  C   UNL A   1      42.152  21.190  28.032  1.00  0.00     0.040 A 
ATOM     75  C   UNL A   1      41.976  21.605  25.669  1.00  0.00     0.040 A 
ATOM     76  F   UNL A   1      42.769  23.617  24.763  1.00  0.00    -0.206 F 
ATOM     77  C   UNL A   1      41.777  20.764  26.761  1.00  0.00     0.006 A 
ENDBRANCH  56  70
BRANCH  57  78
ATOM     78  C   UNL A   1      46.972  32.364  28.694  1.00  0.00     0.057 A 
ATOM     79  C   UNL A   1      47.447  32.693  29.972  1.00  0.00     0.134 A 
ATOM     80  C   UNL A   1      47.094  33.348  27.704  1.00  0.00     0.134 A 
ATOM     81  F   UNL A   1      47.331  31.815  30.980  1.00  0.00    -0.206 F 
ATOM     82  C   UNL A   1      48.013  33.941  30.255  1.00  0.00     0.040 A 
ATOM     83  C   UNL A   1      47.681  34.592  27.965  1.00  0.00     0.040 A 
ATOM     84  F   UNL A   1      46.652  33.113  26.459  1.00  0.00    -0.206 F 
ATOM     85  C   UNL A   1      48.139  34.892  29.246  1.00  0.00     0.006 A 
ENDBRANCH  57  78
BRANCH  69  86
ATOM     86  C   UNL A   1      49.467  26.296  26.291  1.00  0.00     0.057 A 
ATOM     87  C   UNL A   1      49.918  26.617  25.005  1.00  0.00     0.134 A 
ATOM     88  C   UNL A   1      50.362  25.643  27.150  1.00  0.00     0.134 A 
ATOM     89  F   UNL A   1      49.107  27.233  24.134  1.00  0.00    -0.206 F 
ATOM     90  C   UNL A   1      51.212  26.297  24.589  1.00  0.00     0.040 A 
ATOM     91  C   UNL A   1      51.666  25.344  26.756  1.00  0.00     0.040 A 
ATOM     92  F   UNL A   1      49.993  25.320  28.399  1.00  0.00    -0.206 F 
ATOM     93  C   UNL A   1      52.094  25.671  25.471  1.00  0.00     0.006 A 
ENDBRANCH  69  86
ENDBRANCH  43  44
ENDBRANCH  35  38
ENDBRANCH  33  34
ENDBRANCH  32  33
ENDBRANCH  31  32
ENDBRANCH   3  31
TORSDOF 16
ENDMDL
