MODEL 1
REMARK VINA RESULT:     -12.9      0.000      0.000
REMARK SMILES COc1ccc(/C=C2/C(=O)N(c3ccccc3)C(=O)[NH+]=C2NCCCNC(=O)c2ccc(-c3c4nc(c(-c5c(F)cccc5F)c5ccc([nH]5)c(-c5c(F)cccc5F)c5nc(c(-c6c(F)cccc6F)c6ccc3[nH]6)C=C5)C=C4)cc2)cc1C(=O)[O-]
REMARK SMILES IDX 24 1 23 2 22 3 7 4 8 5 9 6 21 7 10 8 11 9 20 10 18 11 19 14
REMARK SMILES IDX 6 15 3 16 4 17 84 18 5 19 83 20 2 21 1 22 85 23 86 24 87 25
REMARK SMILES IDX 12 26 13 27 17 28 14 29 16 30 15 31 25 32 26 33 27 34 28 36
REMARK SMILES IDX 29 37 30 38 82 39 31 40 81 41 32 42 33 43 34 44 75 45 35 46
REMARK SMILES IDX 80 47 74 48 76 49 36 50 79 51 73 52 72 53 37 55 63 56 46 57
REMARK SMILES IDX 62 58 47 59 50 60 61 61 77 62 48 63 49 64 60 66 78 67 51 68
REMARK SMILES IDX 38 69 39 70 44 71 40 72 41 73 43 74 45 75 42 76 64 77 65 78
REMARK SMILES IDX 70 79 66 80 67 81 69 82 71 83 68 84 52 85 53 86 58 87 54 88
REMARK SMILES IDX 55 89 57 90 59 91 56 92
REMARK H PARENT 20 12 22 13 26 35 76 54 50 65
REMARK Flexibility Score: inf
ROOT
ATOM      1  C   UNL A   1      36.723  20.857  24.648  1.00  0.00     0.059 C 
ENDROOT
BRANCH   1   2
ATOM      2  C   UNL A   1      35.462  21.199  25.410  1.00  0.00     0.195 C 
BRANCH   2   3
ATOM      3  N   UNL A   1      35.299  22.592  25.684  1.00  0.00    -0.305 N 
ATOM      4  C   UNL A   1      32.355  22.082  24.238  1.00  0.00     0.030 C 
ATOM      5  C   UNL A   1      33.040  23.216  24.531  1.00  0.00     0.129 C 
ATOM      6  C   UNL A   1      32.429  24.457  23.923  1.00  0.00     0.328 C 
ATOM      7  C   UNL A   1      34.302  23.458  25.310  1.00  0.00     0.236 C 
ATOM      8  O   UNL A   1      31.606  24.349  23.009  1.00  0.00    -0.249 OA
ATOM      9  N   UNL A   1      32.883  25.671  24.422  1.00  0.00    -0.155 N 
ATOM     10  N   UNL A   1      34.612  24.661  25.703  1.00  0.00    -0.209 N 
ATOM     11  C   UNL A   1      33.834  25.749  25.439  1.00  0.00     0.448 C 
ATOM     12  H   UNL A   1      35.444  24.790  26.214  1.00  0.00     0.270 HD
ATOM     13  H   UNL A   1      36.015  22.995  26.226  1.00  0.00     0.256 HD
ATOM     14  O   UNL A   1      33.990  26.761  26.120  1.00  0.00    -0.212 OA
BRANCH   4  15
ATOM     15  C   UNL A   1      32.557  20.661  24.567  1.00  0.00    -0.024 A 
ATOM     16  C   UNL A   1      33.350  18.019  25.116  1.00  0.00     0.127 A 
ATOM     17  C   UNL A   1      32.969  18.876  26.153  1.00  0.00     0.048 A 
ATOM     18  C   UNL A   1      33.126  18.410  23.794  1.00  0.00     0.040 A 
ATOM     19  C   UNL A   1      32.535  20.182  25.878  1.00  0.00     0.012 A 
ATOM     20  C   UNL A   1      32.777  19.745  23.522  1.00  0.00     0.022 A 
BRANCH  16  21
ATOM     21  O   UNL A   1      33.925  16.833  25.492  1.00  0.00    -0.496 OA
ATOM     22  C   UNL A   1      32.952  15.831  25.807  1.00  0.00     0.278 C 
ENDBRANCH  16  21
BRANCH  18  23
ATOM     23  C   UNL A   1      33.213  17.476  22.647  1.00  0.00     0.075 C 
ATOM     24  O   UNL A   1      34.093  16.671  22.453  1.00  0.00    -0.545 OA
ATOM     25  O   UNL A   1      32.220  17.675  21.758  1.00  0.00    -0.545 OA
ENDBRANCH  18  23
ENDBRANCH   4  15
BRANCH   9  26
ATOM     26  C   UNL A   1      32.304  26.900  23.948  1.00  0.00     0.111 A 
ATOM     27  C   UNL A   1      32.980  27.681  22.994  1.00  0.00     0.044 A 
ATOM     28  C   UNL A   1      31.072  27.361  24.431  1.00  0.00     0.044 A 
ATOM     29  C   UNL A   1      32.440  28.887  22.539  1.00  0.00     0.004 A 
ATOM     30  C   UNL A   1      30.546  28.582  23.996  1.00  0.00     0.004 A 
ATOM     31  C   UNL A   1      31.228  29.343  23.049  1.00  0.00     0.000 A 
ENDBRANCH   9  26
ENDBRANCH   2   3
ENDBRANCH   1   2
BRANCH   1  32
ATOM     32  C   UNL A   1      38.005  21.104  25.431  1.00  0.00     0.119 C 
BRANCH  32  33
ATOM     33  N   UNL A   1      38.932  19.968  25.476  1.00  0.00    -0.352 N 
ATOM     34  C   UNL A   1      40.236  19.828  25.900  1.00  0.00     0.251 C 
ATOM     35  H   UNL A   1      38.542  19.132  25.133  1.00  0.00     0.163 HD
ATOM     36  O   UNL A   1      40.810  18.755  25.739  1.00  0.00    -0.269 OA
BRANCH  34  37
ATOM     37  C   UNL A   1      40.972  20.966  26.488  1.00  0.00     0.039 A 
ATOM     38  C   UNL A   1      41.594  21.903  25.652  1.00  0.00     0.014 A 
ATOM     39  C   UNL A   1      41.023  21.138  27.864  1.00  0.00     0.014 A 
ATOM     40  C   UNL A   1      42.118  23.080  26.194  1.00  0.00     0.010 A 
ATOM     41  C   UNL A   1      41.409  22.359  28.388  1.00  0.00     0.010 A 
ATOM     42  C   UNL A   1      41.967  23.344  27.562  1.00  0.00    -0.014 A 
BRANCH  42  43
ATOM     43  C   UNL A   1      42.423  24.602  28.199  1.00  0.00     0.031 A 
ATOM     44  C   UNL A   1      41.420  25.698  28.438  1.00  0.00     0.074 A 
ATOM     45  C   UNL A   1      43.735  24.814  28.422  1.00  0.00     0.049 A 
ATOM     46  N   UNL A   1      41.617  26.950  28.755  1.00  0.00    -0.248 NA
ATOM     47  C   UNL A   1      40.003  25.346  28.228  1.00  0.00     0.031 C 
ATOM     48  C   UNL A   1      44.809  23.850  28.179  1.00  0.00     0.029 A 
ATOM     49  N   UNL A   1      44.390  25.930  28.878  1.00  0.00    -0.354 N 
ATOM     50  C   UNL A   1      40.359  27.540  28.736  1.00  0.00     0.074 A 
ATOM     51  C   UNL A   1      39.418  26.530  28.309  1.00  0.00     0.031 C 
ATOM     52  C   UNL A   1      45.986  24.411  28.504  1.00  0.00     0.029 A 
ATOM     53  C   UNL A   1      45.755  25.786  28.933  1.00  0.00     0.049 A 
ATOM     54  H   UNL A   1      43.924  26.757  29.141  1.00  0.00     0.167 HD
ATOM     55  C   UNL A   1      40.013  28.802  29.078  1.00  0.00     0.037 A 
ATOM     56  C   UNL A   1      46.708  26.671  29.278  1.00  0.00     0.037 A 
ATOM     57  C   UNL A   1      40.948  29.781  29.557  1.00  0.00     0.049 A 
ATOM     58  C   UNL A   1      46.299  28.065  29.675  1.00  0.00     0.074 A 
ATOM     59  C   UNL A   1      40.699  31.064  30.010  1.00  0.00     0.029 A 
ATOM     60  N   UNL A   1      42.316  29.577  29.657  1.00  0.00    -0.354 N 
ATOM     61  N   UNL A   1      45.100  28.593  29.717  1.00  0.00    -0.248 NA
ATOM     62  C   UNL A   1      47.374  28.982  30.076  1.00  0.00     0.031 C 
ATOM     63  C   UNL A   1      41.923  31.649  30.348  1.00  0.00     0.029 A 
ATOM     64  C   UNL A   1      42.927  30.715  30.149  1.00  0.00     0.049 A 
ATOM     65  H   UNL A   1      42.783  28.745  29.412  1.00  0.00     0.167 HD
ATOM     66  C   UNL A   1      45.272  29.892  30.177  1.00  0.00     0.074 A 
ATOM     67  C   UNL A   1      46.690  30.068  30.411  1.00  0.00     0.031 C 
ATOM     68  C   UNL A   1      44.342  30.856  30.387  1.00  0.00     0.037 A 
BRANCH  55  69
ATOM     69  C   UNL A   1      38.564  29.176  28.958  1.00  0.00     0.057 A 
ATOM     70  C   UNL A   1      37.688  29.102  30.050  1.00  0.00     0.134 A 
ATOM     71  C   UNL A   1      38.038  29.620  27.740  1.00  0.00     0.134 A 
ATOM     72  F   UNL A   1      38.123  28.668  31.243  1.00  0.00    -0.206 F 
ATOM     73  C   UNL A   1      36.335  29.419  29.926  1.00  0.00     0.040 A 
ATOM     74  C   UNL A   1      36.692  29.971  27.610  1.00  0.00     0.040 A 
ATOM     75  F   UNL A   1      38.820  29.719  26.654  1.00  0.00    -0.206 F 
ATOM     76  C   UNL A   1      35.835  29.861  28.702  1.00  0.00     0.006 A 
ENDBRANCH  55  69
BRANCH  56  77
ATOM     77  C   UNL A   1      48.137  26.267  29.292  1.00  0.00     0.057 A 
ATOM     78  C   UNL A   1      48.934  26.409  28.149  1.00  0.00     0.134 A 
ATOM     79  C   UNL A   1      48.741  25.722  30.432  1.00  0.00     0.134 A 
ATOM     80  F   UNL A   1      48.408  26.909  27.020  1.00  0.00    -0.206 F 
ATOM     81  C   UNL A   1      50.270  26.006  28.131  1.00  0.00     0.040 A 
ATOM     82  C   UNL A   1      50.083  25.337  30.436  1.00  0.00     0.040 A 
ATOM     83  F   UNL A   1      48.037  25.568  31.562  1.00  0.00    -0.206 F 
ATOM     84  C   UNL A   1      50.850  25.471  29.279  1.00  0.00     0.006 A 
ENDBRANCH  56  77
BRANCH  68  85
ATOM     85  C   UNL A   1      44.821  32.167  30.934  1.00  0.00     0.057 A 
ATOM     86  C   UNL A   1      44.938  32.395  32.309  1.00  0.00     0.134 A 
ATOM     87  C   UNL A   1      45.226  33.191  30.068  1.00  0.00     0.134 A 
ATOM     88  F   UNL A   1      44.556  31.459  33.189  1.00  0.00    -0.206 F 
ATOM     89  C   UNL A   1      45.428  33.604  32.806  1.00  0.00     0.040 A 
ATOM     90  C   UNL A   1      45.742  34.392  30.551  1.00  0.00     0.040 A 
ATOM     91  F   UNL A   1      45.147  33.030  28.737  1.00  0.00    -0.206 F 
ATOM     92  C   UNL A   1      45.840  34.603  31.925  1.00  0.00     0.006 A 
ENDBRANCH  68  85
ENDBRANCH  42  43
ENDBRANCH  34  37
ENDBRANCH  32  33
ENDBRANCH   1  32
TORSDOF 13
ENDMDL
MODEL 2
REMARK VINA RESULT:     -12.7      3.535      8.870
REMARK SMILES COc1ccc(/C=C2/C(=O)N(c3ccccc3)C(=O)[NH+]=C2NCCCNC(=O)c2ccc(-c3c4nc(c(-c5c(F)cccc5F)c5ccc([nH]5)c(-c5c(F)cccc5F)c5nc(c(-c6c(F)cccc6F)c6ccc3[nH]6)C=C5)C=C4)cc2)cc1C(=O)[O-]
REMARK SMILES IDX 24 1 23 2 22 3 7 4 8 5 9 6 21 7 10 8 11 9 20 10 18 11 19 14
REMARK SMILES IDX 6 15 3 16 4 17 84 18 5 19 83 20 2 21 1 22 85 23 86 24 87 25
REMARK SMILES IDX 12 26 13 27 17 28 14 29 16 30 15 31 25 32 26 33 27 34 28 36
REMARK SMILES IDX 29 37 30 38 82 39 31 40 81 41 32 42 33 43 34 44 75 45 35 46
REMARK SMILES IDX 80 47 74 48 76 49 36 50 79 51 73 52 72 53 37 55 63 56 46 57
REMARK SMILES IDX 62 58 47 59 50 60 61 61 77 62 48 63 49 64 60 66 78 67 51 68
REMARK SMILES IDX 38 69 39 70 44 71 40 72 41 73 43 74 45 75 42 76 64 77 65 78
REMARK SMILES IDX 70 79 66 80 67 81 69 82 71 83 68 84 52 85 53 86 58 87 54 88
REMARK SMILES IDX 55 89 57 90 59 91 56 92
REMARK H PARENT 20 12 22 13 26 35 76 54 50 65
REMARK Flexibility Score: inf
ROOT
ATOM      1  C   UNL A   1      31.482  27.206  27.164  1.00  0.00     0.059 C 
ENDROOT
BRANCH   1   2
ATOM      2  C   UNL A   1      31.224  25.910  26.429  1.00  0.00     0.195 C 
BRANCH   2   3
ATOM      3  N   UNL A   1      32.025  24.812  26.872  1.00  0.00    -0.305 N 
ATOM      4  C   UNL A   1      31.843  23.957  23.669  1.00  0.00     0.030 C 
ATOM      5  C   UNL A   1      32.218  23.266  24.777  1.00  0.00     0.129 C 
ATOM      6  C   UNL A   1      32.410  21.789  24.521  1.00  0.00     0.328 C 
ATOM      7  C   UNL A   1      32.437  23.688  26.201  1.00  0.00     0.236 C 
ATOM      8  O   UNL A   1      31.946  21.279  23.497  1.00  0.00    -0.249 OA
ATOM      9  N   UNL A   1      33.080  21.080  25.508  1.00  0.00    -0.155 N 
ATOM     10  N   UNL A   1      33.074  22.908  27.028  1.00  0.00    -0.209 N 
ATOM     11  C   UNL A   1      33.567  21.690  26.663  1.00  0.00     0.448 C 
ATOM     12  H   UNL A   1      33.206  23.211  27.955  1.00  0.00     0.270 HD
ATOM     13  H   UNL A   1      32.330  24.872  27.806  1.00  0.00     0.256 HD
ATOM     14  O   UNL A   1      34.439  21.177  27.364  1.00  0.00    -0.212 OA
BRANCH   4  15
ATOM     15  C   UNL A   1      31.521  25.371  23.418  1.00  0.00    -0.024 A 
ATOM     16  C   UNL A   1      30.967  27.983  22.530  1.00  0.00     0.127 A 
ATOM     17  C   UNL A   1      29.937  27.156  22.990  1.00  0.00     0.048 A 
ATOM     18  C   UNL A   1      32.292  27.586  22.719  1.00  0.00     0.040 A 
ATOM     19  C   UNL A   1      30.216  25.866  23.470  1.00  0.00     0.012 A 
ATOM     20  C   UNL A   1      32.565  26.265  23.116  1.00  0.00     0.022 A 
BRANCH  16  21
ATOM     21  O   UNL A   1      30.580  29.146  21.919  1.00  0.00    -0.496 OA
ATOM     22  C   UNL A   1      29.373  29.679  22.476  1.00  0.00     0.278 C 
ENDBRANCH  16  21
BRANCH  18  23
ATOM     23  C   UNL A   1      33.444  28.502  22.545  1.00  0.00     0.075 C 
ATOM     24  O   UNL A   1      34.311  28.402  21.708  1.00  0.00    -0.545 OA
ATOM     25  O   UNL A   1      33.484  29.449  23.502  1.00  0.00    -0.545 OA
ENDBRANCH  18  23
ENDBRANCH   4  15
BRANCH   9  26
ATOM     26  C   UNL A   1      33.368  19.683  25.315  1.00  0.00     0.111 A 
ATOM     27  C   UNL A   1      34.509  19.286  24.597  1.00  0.00     0.044 A 
ATOM     28  C   UNL A   1      32.518  18.686  25.816  1.00  0.00     0.044 A 
ATOM     29  C   UNL A   1      34.790  17.933  24.385  1.00  0.00     0.004 A 
ATOM     30  C   UNL A   1      32.786  17.334  25.579  1.00  0.00     0.004 A 
ATOM     31  C   UNL A   1      33.922  16.958  24.866  1.00  0.00     0.000 A 
ENDBRANCH   9  26
ENDBRANCH   2   3
ENDBRANCH   1   2
BRANCH   1  32
ATOM     32  C   UNL A   1      32.397  28.169  26.419  1.00  0.00     0.119 C 
BRANCH  32  33
ATOM     33  N   UNL A   1      31.999  29.579  26.488  1.00  0.00    -0.352 N 
ATOM     34  C   UNL A   1      32.640  30.722  26.915  1.00  0.00     0.251 C 
ATOM     35  H   UNL A   1      31.086  29.744  26.160  1.00  0.00     0.163 HD
ATOM     36  O   UNL A   1      32.024  31.784  26.941  1.00  0.00    -0.269 OA
BRANCH  34  37
ATOM     37  C   UNL A   1      34.035  30.677  27.400  1.00  0.00     0.039 A 
ATOM     38  C   UNL A   1      34.732  31.871  27.631  1.00  0.00     0.014 A 
ATOM     39  C   UNL A   1      34.652  29.463  27.664  1.00  0.00     0.014 A 
ATOM     40  C   UNL A   1      35.974  31.839  28.272  1.00  0.00     0.010 A 
ATOM     41  C   UNL A   1      35.808  29.433  28.423  1.00  0.00     0.010 A 
ATOM     42  C   UNL A   1      36.487  30.619  28.733  1.00  0.00    -0.014 A 
BRANCH  42  43
ATOM     43  C   UNL A   1      37.756  30.509  29.491  1.00  0.00     0.031 A 
ATOM     44  C   UNL A   1      38.889  29.718  28.894  1.00  0.00     0.074 A 
ATOM     45  C   UNL A   1      37.840  30.982  30.749  1.00  0.00     0.049 A 
ATOM     46  N   UNL A   1      39.988  29.288  29.454  1.00  0.00    -0.248 NA
ATOM     47  C   UNL A   1      38.728  29.302  27.488  1.00  0.00     0.031 C 
ATOM     48  C   UNL A   1      36.790  31.716  31.458  1.00  0.00     0.029 A 
ATOM     49  N   UNL A   1      38.854  30.885  31.669  1.00  0.00    -0.354 N 
ATOM     50  C   UNL A   1      40.621  28.518  28.487  1.00  0.00     0.074 A 
ATOM     51  C   UNL A   1      39.753  28.480  27.333  1.00  0.00     0.031 C 
ATOM     52  C   UNL A   1      37.222  32.017  32.695  1.00  0.00     0.029 A 
ATOM     53  C   UNL A   1      38.556  31.458  32.882  1.00  0.00     0.049 A 
ATOM     54  H   UNL A   1      39.714  30.446  31.478  1.00  0.00     0.167 HD
ATOM     55  C   UNL A   1      41.834  27.922  28.542  1.00  0.00     0.037 A 
ATOM     56  C   UNL A   1      39.276  31.512  34.018  1.00  0.00     0.037 A 
ATOM     57  C   UNL A   1      42.715  28.015  29.673  1.00  0.00     0.049 A 
ATOM     58  C   UNL A   1      40.633  30.860  34.051  1.00  0.00     0.074 A 
ATOM     59  C   UNL A   1      44.000  27.521  29.809  1.00  0.00     0.029 A 
ATOM     60  N   UNL A   1      42.401  28.657  30.861  1.00  0.00    -0.354 N 
ATOM     61  N   UNL A   1      41.251  30.189  33.108  1.00  0.00    -0.248 NA
ATOM     62  C   UNL A   1      41.394  30.976  35.302  1.00  0.00     0.031 C 
ATOM     63  C   UNL A   1      44.449  27.833  31.096  1.00  0.00     0.029 A 
ATOM     64  C   UNL A   1      43.462  28.559  31.743  1.00  0.00     0.049 A 
ATOM     65  H   UNL A   1      41.550  29.113  31.049  1.00  0.00     0.167 HD
ATOM     66  C   UNL A   1      42.483  29.830  33.640  1.00  0.00     0.074 A 
ATOM     67  C   UNL A   1      42.528  30.368  34.985  1.00  0.00     0.031 C 
ATOM     68  C   UNL A   1      43.486  29.120  33.071  1.00  0.00     0.037 A 
BRANCH  55  69
ATOM     69  C   UNL A   1      42.274  27.139  27.339  1.00  0.00     0.057 A 
ATOM     70  C   UNL A   1      42.945  27.744  26.267  1.00  0.00     0.134 A 
ATOM     71  C   UNL A   1      42.028  25.764  27.251  1.00  0.00     0.134 A 
ATOM     72  F   UNL A   1      43.197  29.062  26.279  1.00  0.00    -0.206 F 
ATOM     73  C   UNL A   1      43.321  27.018  25.136  1.00  0.00     0.040 A 
ATOM     74  C   UNL A   1      42.429  25.020  26.139  1.00  0.00     0.040 A 
ATOM     75  F   UNL A   1      41.394  25.119  28.242  1.00  0.00    -0.206 F 
ATOM     76  C   UNL A   1      43.068  25.650  25.073  1.00  0.00     0.006 A 
ENDBRANCH  55  69
BRANCH  56  77
ATOM     77  C   UNL A   1      38.749  32.227  35.207  1.00  0.00     0.057 A 
ATOM     78  C   UNL A   1      38.853  33.620  35.310  1.00  0.00     0.134 A 
ATOM     79  C   UNL A   1      38.140  31.548  36.270  1.00  0.00     0.134 A 
ATOM     80  F   UNL A   1      39.442  34.325  34.333  1.00  0.00    -0.206 F 
ATOM     81  C   UNL A   1      38.392  34.309  36.434  1.00  0.00     0.040 A 
ATOM     82  C   UNL A   1      37.653  32.227  37.388  1.00  0.00     0.040 A 
ATOM     83  F   UNL A   1      38.000  30.215  36.229  1.00  0.00    -0.206 F 
ATOM     84  C   UNL A   1      37.786  33.612  37.476  1.00  0.00     0.006 A 
ENDBRANCH  56  77
BRANCH  68  85
ATOM     85  C   UNL A   1      44.732  28.918  33.880  1.00  0.00     0.057 A 
ATOM     86  C   UNL A   1      45.773  29.853  33.878  1.00  0.00     0.134 A 
ATOM     87  C   UNL A   1      44.862  27.803  34.718  1.00  0.00     0.134 A 
ATOM     88  F   UNL A   1      45.713  30.935  33.089  1.00  0.00    -0.206 F 
ATOM     89  C   UNL A   1      46.909  29.677  34.670  1.00  0.00     0.040 A 
ATOM     90  C   UNL A   1      45.979  27.630  35.533  1.00  0.00     0.040 A 
ATOM     91  F   UNL A   1      43.893  26.875  34.772  1.00  0.00    -0.206 F 
ATOM     92  C   UNL A   1      47.009  28.568  35.508  1.00  0.00     0.006 A 
ENDBRANCH  68  85
ENDBRANCH  42  43
ENDBRANCH  34  37
ENDBRANCH  32  33
ENDBRANCH   1  32
TORSDOF 13
ENDMDL
MODEL 3
REMARK VINA RESULT:     -12.4      4.094      9.458
REMARK SMILES COc1ccc(/C=C2/C(=O)N(c3ccccc3)C(=O)[NH+]=C2NCCCNC(=O)c2ccc(-c3c4nc(c(-c5c(F)cccc5F)c5ccc([nH]5)c(-c5c(F)cccc5F)c5nc(c(-c6c(F)cccc6F)c6ccc3[nH]6)C=C5)C=C4)cc2)cc1C(=O)[O-]
REMARK SMILES IDX 24 1 23 2 22 3 7 4 8 5 9 6 21 7 10 8 11 9 20 10 18 11 19 14
REMARK SMILES IDX 6 15 3 16 4 17 84 18 5 19 83 20 2 21 1 22 85 23 86 24 87 25
REMARK SMILES IDX 12 26 13 27 17 28 14 29 16 30 15 31 25 32 26 33 27 34 28 36
REMARK SMILES IDX 29 37 30 38 82 39 31 40 81 41 32 42 33 43 34 44 75 45 35 46
REMARK SMILES IDX 80 47 74 48 76 49 36 50 79 51 73 52 72 53 37 55 63 56 46 57
REMARK SMILES IDX 62 58 47 59 50 60 61 61 77 62 48 63 49 64 60 66 78 67 51 68
REMARK SMILES IDX 38 69 39 70 44 71 40 72 41 73 43 74 45 75 42 76 64 77 65 78
REMARK SMILES IDX 70 79 66 80 67 81 69 82 71 83 68 84 52 85 53 86 58 87 54 88
REMARK SMILES IDX 55 89 57 90 59 91 56 92
REMARK H PARENT 20 12 22 13 26 35 76 54 50 65
REMARK Flexibility Score: inf
ROOT
ATOM      1  C   UNL A   1      32.048  30.026  25.551  1.00  0.00     0.059 C 
ENDROOT
BRANCH   1   2
ATOM      2  C   UNL A   1      31.475  28.637  25.382  1.00  0.00     0.195 C 
BRANCH   2   3
ATOM      3  N   UNL A   1      32.405  27.582  25.634  1.00  0.00    -0.305 N 
ATOM      4  C   UNL A   1      30.647  26.060  23.265  1.00  0.00     0.030 C 
ATOM      5  C   UNL A   1      31.537  25.595  24.178  1.00  0.00     0.129 C 
ATOM      6  C   UNL A   1      31.595  24.086  24.241  1.00  0.00     0.328 C 
ATOM      7  C   UNL A   1      32.438  26.297  25.154  1.00  0.00     0.236 C 
ATOM      8  O   UNL A   1      30.686  23.417  23.741  1.00  0.00    -0.249 OA
ATOM      9  N   UNL A   1      32.681  23.543  24.914  1.00  0.00    -0.155 N 
ATOM     10  N   UNL A   1      33.416  25.652  25.726  1.00  0.00    -0.209 N 
ATOM     11  C   UNL A   1      33.675  24.336  25.485  1.00  0.00     0.448 C 
ATOM     12  H   UNL A   1      33.993  26.138  26.360  1.00  0.00     0.270 HD
ATOM     13  H   UNL A   1      33.138  27.813  26.249  1.00  0.00     0.256 HD
ATOM     14  O   UNL A   1      34.788  23.896  25.771  1.00  0.00    -0.212 OA
BRANCH   4  15
ATOM     15  C   UNL A   1      30.222  27.409  22.859  1.00  0.00    -0.024 A 
ATOM     16  C   UNL A   1      29.510  30.104  22.476  1.00  0.00     0.127 A 
ATOM     17  C   UNL A   1      30.666  29.584  21.885  1.00  0.00     0.048 A 
ATOM     18  C   UNL A   1      28.600  29.229  23.074  1.00  0.00     0.040 A 
ATOM     19  C   UNL A   1      31.002  28.230  22.042  1.00  0.00     0.012 A 
ATOM     20  C   UNL A   1      28.979  27.896  23.306  1.00  0.00     0.022 A 
BRANCH  16  21
ATOM     21  O   UNL A   1      29.361  31.465  22.418  1.00  0.00    -0.496 OA
ATOM     22  C   UNL A   1      28.699  31.889  21.221  1.00  0.00     0.278 C 
ENDBRANCH  16  21
BRANCH  18  23
ATOM     23  C   UNL A   1      27.226  29.630  23.459  1.00  0.00     0.075 C 
ATOM     24  O   UNL A   1      26.887  30.725  23.842  1.00  0.00    -0.545 OA
ATOM     25  O   UNL A   1      26.370  28.590  23.423  1.00  0.00    -0.545 OA
ENDBRANCH  18  23
ENDBRANCH   4  15
BRANCH   9  26
ATOM     26  C   UNL A   1      32.852  22.115  24.961  1.00  0.00     0.111 A 
ATOM     27  C   UNL A   1      32.968  21.455  26.197  1.00  0.00     0.044 A 
ATOM     28  C   UNL A   1      32.924  21.348  23.790  1.00  0.00     0.044 A 
ATOM     29  C   UNL A   1      33.153  20.071  26.259  1.00  0.00     0.004 A 
ATOM     30  C   UNL A   1      33.138  19.968  23.852  1.00  0.00     0.004 A 
ATOM     31  C   UNL A   1      33.250  19.329  25.085  1.00  0.00     0.000 A 
ENDBRANCH   9  26
ENDBRANCH   2   3
ENDBRANCH   1   2
BRANCH   1  32
ATOM     32  C   UNL A   1      31.954  30.566  26.972  1.00  0.00     0.119 C 
BRANCH  32  33
ATOM     33  N   UNL A   1      31.970  32.029  27.081  1.00  0.00    -0.352 N 
ATOM     34  C   UNL A   1      32.906  32.932  27.536  1.00  0.00     0.251 C 
ATOM     35  H   UNL A   1      31.141  32.453  26.764  1.00  0.00     0.163 HD
ATOM     36  O   UNL A   1      32.615  34.123  27.595  1.00  0.00    -0.269 OA
BRANCH  34  37
ATOM     37  C   UNL A   1      34.231  32.482  28.009  1.00  0.00     0.039 A 
ATOM     38  C   UNL A   1      35.283  33.402  28.116  1.00  0.00     0.014 A 
ATOM     39  C   UNL A   1      34.436  31.162  28.385  1.00  0.00     0.014 A 
ATOM     40  C   UNL A   1      36.474  33.027  28.747  1.00  0.00     0.010 A 
ATOM     41  C   UNL A   1      35.551  30.828  29.133  1.00  0.00     0.010 A 
ATOM     42  C   UNL A   1      36.586  31.753  29.320  1.00  0.00    -0.014 A 
BRANCH  42  43
ATOM     43  C   UNL A   1      37.783  31.307  30.072  1.00  0.00     0.031 A 
ATOM     44  C   UNL A   1      38.717  30.319  29.427  1.00  0.00     0.074 A 
ATOM     45  C   UNL A   1      37.949  31.664  31.360  1.00  0.00     0.049 A 
ATOM     46  N   UNL A   1      39.678  29.613  29.961  1.00  0.00    -0.248 NA
ATOM     47  C   UNL A   1      38.492  30.043  27.996  1.00  0.00     0.031 C 
ATOM     48  C   UNL A   1      37.080  32.571  32.114  1.00  0.00     0.029 A 
ATOM     49  N   UNL A   1      38.896  31.279  32.276  1.00  0.00    -0.354 N 
ATOM     50  C   UNL A   1      40.138  28.783  28.946  1.00  0.00     0.074 A 
ATOM     51  C   UNL A   1      39.306  29.021  27.788  1.00  0.00     0.031 C 
ATOM     52  C   UNL A   1      37.545  32.685  33.369  1.00  0.00     0.029 A 
ATOM     53  C   UNL A   1      38.713  31.824  33.523  1.00  0.00     0.049 A 
ATOM     54  H   UNL A   1      39.636  30.668  32.058  1.00  0.00     0.167 HD
ATOM     55  C   UNL A   1      41.181  27.924  28.965  1.00  0.00     0.037 A 
ATOM     56  C   UNL A   1      39.405  31.637  34.662  1.00  0.00     0.037 A 
ATOM     57  C   UNL A   1      42.039  27.739  30.102  1.00  0.00     0.049 A 
ATOM     58  C   UNL A   1      40.577  30.692  34.656  1.00  0.00     0.074 A 
ATOM     59  C   UNL A   1      43.175  26.957  30.209  1.00  0.00     0.029 A 
ATOM     60  N   UNL A   1      41.857  28.356  31.331  1.00  0.00    -0.354 N 
ATOM     61  N   UNL A   1      41.043  29.961  33.672  1.00  0.00    -0.248 NA
ATOM     62  C   UNL A   1      41.320  30.549  35.915  1.00  0.00     0.031 C 
ATOM     63  C   UNL A   1      43.659  27.073  31.516  1.00  0.00     0.029 A 
ATOM     64  C   UNL A   1      42.851  27.962  32.207  1.00  0.00     0.049 A 
ATOM     65  H   UNL A   1      41.128  28.982  31.546  1.00  0.00     0.167 HD
ATOM     66  C   UNL A   1      42.150  29.296  34.183  1.00  0.00     0.074 A 
ATOM     67  C   UNL A   1      42.292  29.720  35.561  1.00  0.00     0.031 C 
ATOM     68  C   UNL A   1      42.976  28.414  33.570  1.00  0.00     0.037 A 
BRANCH  55  69
ATOM     69  C   UNL A   1      41.454  27.142  27.713  1.00  0.00     0.057 A 
ATOM     70  C   UNL A   1      40.926  25.858  27.511  1.00  0.00     0.134 A 
ATOM     71  C   UNL A   1      42.252  27.676  26.695  1.00  0.00     0.134 A 
ATOM     72  F   UNL A   1      40.167  25.280  28.455  1.00  0.00    -0.206 F 
ATOM     73  C   UNL A   1      41.211  25.122  26.362  1.00  0.00     0.040 A 
ATOM     74  C   UNL A   1      42.519  26.962  25.524  1.00  0.00     0.040 A 
ATOM     75  F   UNL A   1      42.788  28.899  26.819  1.00  0.00    -0.206 F 
ATOM     76  C   UNL A   1      42.006  25.677  25.361  1.00  0.00     0.006 A 
ENDBRANCH  55  69
BRANCH  56  77
ATOM     77  C   UNL A   1      39.032  32.375  35.896  1.00  0.00     0.057 A 
ATOM     78  C   UNL A   1      39.506  33.673  36.126  1.00  0.00     0.134 A 
ATOM     79  C   UNL A   1      38.207  31.809  36.876  1.00  0.00     0.134 A 
ATOM     80  F   UNL A   1      40.314  34.263  35.232  1.00  0.00    -0.206 F 
ATOM     81  C   UNL A   1      39.193  34.372  37.293  1.00  0.00     0.040 A 
ATOM     82  C   UNL A   1      37.866  32.506  38.037  1.00  0.00     0.040 A 
ATOM     83  F   UNL A   1      37.712  30.574  36.712  1.00  0.00    -0.206 F 
ATOM     84  C   UNL A   1      38.367  33.789  38.251  1.00  0.00     0.006 A 
ENDBRANCH  56  77
BRANCH  68  85
ATOM     85  C   UNL A   1      44.128  27.880  34.369  1.00  0.00     0.057 A 
ATOM     86  C   UNL A   1      45.353  28.554  34.439  1.00  0.00     0.134 A 
ATOM     87  C   UNL A   1      43.986  26.709  35.124  1.00  0.00     0.134 A 
ATOM     88  F   UNL A   1      45.554  29.674  33.729  1.00  0.00    -0.206 F 
ATOM     89  C   UNL A   1      46.403  28.072  35.221  1.00  0.00     0.040 A 
ATOM     90  C   UNL A   1      45.018  26.232  35.930  1.00  0.00     0.040 A 
ATOM     91  F   UNL A   1      42.833  26.022  35.107  1.00  0.00    -0.206 F 
ATOM     92  C   UNL A   1      46.234  26.912  35.977  1.00  0.00     0.006 A 
ENDBRANCH  68  85
ENDBRANCH  42  43
ENDBRANCH  34  37
ENDBRANCH  32  33
ENDBRANCH   1  32
TORSDOF 13
ENDMDL
