MODEL 1
REMARK VINA RESULT:     -11.1      0.000      0.000
REMARK SMILES COc1ccc(C(=O)NCCCNC(=O)c2ccc(-c3c4nc(c(-c5c(F)cccc5F)c5ccc([nH]5)c(-c5c(F)cccc5F)c5nc(c(-c6c(F)cccc6F)c6ccc3[nH]6)C=C5)C=C4)cc2)cc1Oc1nc(C(C)(C)C)ns1
REMARK SMILES IDX 10 1 9 2 7 3 8 4 6 6 3 7 4 8 71 9 5 10 70 11 2 12 1 13 72 14
REMARK SMILES IDX 73 15 74 16 81 17 75 18 80 19 76 20 77 21 78 22 79 23 11 24
REMARK SMILES IDX 12 25 13 26 14 27 15 29 16 30 17 31 69 32 18 33 68 34 19 35
REMARK SMILES IDX 20 36 21 37 62 38 22 39 67 40 61 41 63 42 23 43 66 44 60 45
REMARK SMILES IDX 59 46 24 48 50 49 33 50 49 51 34 52 37 53 48 54 64 55 35 56
REMARK SMILES IDX 36 57 47 59 65 60 38 61 25 62 26 63 31 64 27 65 28 66 30 67
REMARK SMILES IDX 32 68 29 69 51 70 52 71 57 72 53 73 54 74 56 75 58 76 55 77
REMARK SMILES IDX 39 78 40 79 45 80 41 81 42 82 44 83 46 84 43 85
REMARK H PARENT 9 5 13 28 63 47 37 58
REMARK Flexibility Score: inf
ROOT
ATOM      1  C   UNL A   1      36.116  20.239  25.004  1.00  0.00     0.118 C 
ENDROOT
BRANCH   1   2
ATOM      2  N   UNL A   1      35.062  19.241  24.993  1.00  0.00    -0.352 N 
ATOM      3  C   UNL A   1      33.707  19.301  24.812  1.00  0.00     0.251 C 
ATOM      4  O   UNL A   1      33.096  18.232  24.853  1.00  0.00    -0.269 OA
ATOM      5  H   UNL A   1      35.392  18.327  25.151  1.00  0.00     0.163 HD
BRANCH   3   6
ATOM      6  C   UNL A   1      32.948  20.550  24.521  1.00  0.00     0.043 A 
ATOM      7  C   UNL A   1      31.541  22.857  23.737  1.00  0.00     0.161 A 
ATOM      8  C   UNL A   1      31.813  21.857  22.806  1.00  0.00     0.051 A 
ATOM      9  C   UNL A   1      31.910  22.689  25.077  1.00  0.00     0.173 A 
ATOM     10  C   UNL A   1      32.523  20.720  23.193  1.00  0.00     0.018 A 
ATOM     11  C   UNL A   1      32.599  21.525  25.462  1.00  0.00     0.065 A 
BRANCH   7  12
ATOM     12  O   UNL A   1      30.848  23.954  23.304  1.00  0.00    -0.493 OA
ATOM     13  C   UNL A   1      31.709  24.829  22.571  1.00  0.00     0.278 C 
ENDBRANCH   7  12
BRANCH   9  14
ATOM     14  O   UNL A   1      31.724  23.608  26.087  1.00  0.00    -0.426 OA
BRANCH  14  15
ATOM     15  C   UNL A   1      32.355  24.779  26.097  1.00  0.00     0.298 A 
ATOM     16  N   UNL A   1      31.744  25.911  26.371  1.00  0.00    -0.185 NA
ATOM     17  S   UNL A   1      33.984  25.005  25.626  1.00  0.00     0.025 S 
ATOM     18  C   UNL A   1      32.681  26.943  26.280  1.00  0.00     0.151 A 
ATOM     19  N   UNL A   1      33.919  26.660  25.855  1.00  0.00    -0.172 NA
BRANCH  18  20
ATOM     20  C   UNL A   1      32.276  28.370  26.617  1.00  0.00     0.023 C 
ATOM     21  C   UNL A   1      31.579  29.008  25.403  1.00  0.00     0.019 C 
ATOM     22  C   UNL A   1      31.302  28.390  27.814  1.00  0.00     0.019 C 
ATOM     23  C   UNL A   1      33.497  29.234  26.998  1.00  0.00     0.019 C 
ENDBRANCH  18  20
ENDBRANCH  14  15
ENDBRANCH   9  14
ENDBRANCH   3   6
ENDBRANCH   1   2
BRANCH   1  24
ATOM     24  C   UNL A   1      37.471  19.602  24.699  1.00  0.00     0.042 C 
BRANCH  24  25
ATOM     25  C   UNL A   1      38.624  20.223  25.493  1.00  0.00     0.118 C 
BRANCH  25  26
ATOM     26  N   UNL A   1      39.698  19.267  25.727  1.00  0.00    -0.352 N 
ATOM     27  C   UNL A   1      41.001  19.476  26.098  1.00  0.00     0.251 C 
ATOM     28  H   UNL A   1      39.450  18.324  25.597  1.00  0.00     0.163 HD
ATOM     29  O   UNL A   1      41.806  18.548  26.021  1.00  0.00    -0.269 OA
BRANCH  27  30
ATOM     30  C   UNL A   1      41.456  20.795  26.588  1.00  0.00     0.039 A 
ATOM     31  C   UNL A   1      41.870  21.750  25.655  1.00  0.00     0.014 A 
ATOM     32  C   UNL A   1      41.547  21.072  27.955  1.00  0.00     0.014 A 
ATOM     33  C   UNL A   1      42.333  22.995  26.087  1.00  0.00     0.010 A 
ATOM     34  C   UNL A   1      41.960  22.333  28.386  1.00  0.00     0.010 A 
ATOM     35  C   UNL A   1      42.363  23.305  27.456  1.00  0.00    -0.014 A 
BRANCH  35  36
ATOM     36  C   UNL A   1      42.818  24.635  27.930  1.00  0.00     0.031 A 
ATOM     37  C   UNL A   1      41.818  25.704  28.269  1.00  0.00     0.074 A 
ATOM     38  C   UNL A   1      44.136  24.900  28.000  1.00  0.00     0.049 A 
ATOM     39  N   UNL A   1      42.024  26.947  28.628  1.00  0.00    -0.248 NA
ATOM     40  C   UNL A   1      40.397  25.336  28.170  1.00  0.00     0.031 C 
ATOM     41  C   UNL A   1      45.207  23.961  27.661  1.00  0.00     0.029 A 
ATOM     42  N   UNL A   1      44.800  26.043  28.367  1.00  0.00    -0.354 N 
ATOM     43  C   UNL A   1      40.764  27.512  28.779  1.00  0.00     0.074 A 
ATOM     44  C   UNL A   1      39.799  26.489  28.436  1.00  0.00     0.031 C 
ATOM     45  C   UNL A   1      46.393  24.562  27.849  1.00  0.00     0.029 A 
ATOM     46  C   UNL A   1      46.167  25.934  28.290  1.00  0.00     0.049 A 
ATOM     47  H   UNL A   1      44.340  26.864  28.659  1.00  0.00     0.167 HD
ATOM     48  C   UNL A   1      40.440  28.764  29.183  1.00  0.00     0.037 A 
ATOM     49  C   UNL A   1      47.130  26.841  28.541  1.00  0.00     0.037 A 
ATOM     50  C   UNL A   1      41.399  29.773  29.551  1.00  0.00     0.049 A 
ATOM     51  C   UNL A   1      46.745  28.219  28.998  1.00  0.00     0.074 A 
ATOM     52  C   UNL A   1      41.167  31.052  30.028  1.00  0.00     0.029 A 
ATOM     53  N   UNL A   1      42.775  29.614  29.486  1.00  0.00    -0.354 N 
ATOM     54  N   UNL A   1      45.550  28.722  29.188  1.00  0.00    -0.248 NA
ATOM     55  C   UNL A   1      47.844  29.154  29.281  1.00  0.00     0.031 C 
ATOM     56  C   UNL A   1      42.403  31.678  30.222  1.00  0.00     0.029 A 
ATOM     57  C   UNL A   1      43.405  30.776  29.901  1.00  0.00     0.049 A 
ATOM     58  H   UNL A   1      43.236  28.796  29.189  1.00  0.00     0.167 HD
ATOM     59  C   UNL A   1      45.751  30.021  29.636  1.00  0.00     0.074 A 
ATOM     60  C   UNL A   1      47.184  30.225  29.700  1.00  0.00     0.031 C 
ATOM     61  C   UNL A   1      44.831  30.960  29.964  1.00  0.00     0.037 A 
BRANCH  48  62
ATOM     62  C   UNL A   1      38.982  29.112  29.250  1.00  0.00     0.057 A 
ATOM     63  C   UNL A   1      38.275  29.546  28.121  1.00  0.00     0.134 A 
ATOM     64  C   UNL A   1      38.268  28.981  30.448  1.00  0.00     0.134 A 
ATOM     65  F   UNL A   1      38.903  29.705  26.946  1.00  0.00    -0.206 F 
ATOM     66  C   UNL A   1      36.917  29.862  28.186  1.00  0.00     0.040 A 
ATOM     67  C   UNL A   1      36.905  29.270  30.520  1.00  0.00     0.040 A 
ATOM     68  F   UNL A   1      38.882  28.563  31.564  1.00  0.00    -0.206 F 
ATOM     69  C   UNL A   1      36.226  29.718  29.388  1.00  0.00     0.006 A 
ENDBRANCH  48  62
BRANCH  49  70
ATOM     70  C   UNL A   1      48.557  26.465  28.386  1.00  0.00     0.057 A 
ATOM     71  C   UNL A   1      49.229  26.677  27.178  1.00  0.00     0.134 A 
ATOM     72  C   UNL A   1      49.280  25.893  29.439  1.00  0.00     0.134 A 
ATOM     73  F   UNL A   1      48.583  27.206  26.129  1.00  0.00    -0.206 F 
ATOM     74  C   UNL A   1      50.568  26.318  27.015  1.00  0.00     0.040 A 
ATOM     75  C   UNL A   1      50.625  25.548  29.297  1.00  0.00     0.040 A 
ATOM     76  F   UNL A   1      48.692  25.673  30.623  1.00  0.00    -0.206 F 
ATOM     77  C   UNL A   1      51.271  25.756  28.079  1.00  0.00     0.006 A 
ENDBRANCH  49  70
BRANCH  61  78
ATOM     78  C   UNL A   1      45.347  32.281  30.451  1.00  0.00     0.057 A 
ATOM     79  C   UNL A   1      45.625  32.511  31.804  1.00  0.00     0.134 A 
ATOM     80  C   UNL A   1      45.600  33.323  29.551  1.00  0.00     0.134 A 
ATOM     81  F   UNL A   1      45.390  31.556  32.717  1.00  0.00    -0.206 F 
ATOM     82  C   UNL A   1      46.118  33.739  32.247  1.00  0.00     0.040 A 
ATOM     83  C   UNL A   1      46.114  34.547  29.979  1.00  0.00     0.040 A 
ATOM     84  F   UNL A   1      45.360  33.164  28.240  1.00  0.00    -0.206 F 
ATOM     85  C   UNL A   1      46.370  34.759  31.331  1.00  0.00     0.006 A 
ENDBRANCH  61  78
ENDBRANCH  35  36
ENDBRANCH  27  30
ENDBRANCH  25  26
ENDBRANCH  24  25
ENDBRANCH   1  24
TORSDOF 14
ENDMDL
MODEL 2
REMARK VINA RESULT:     -11.1      1.447      1.906
REMARK SMILES COc1ccc(C(=O)NCCCNC(=O)c2ccc(-c3c4nc(c(-c5c(F)cccc5F)c5ccc([nH]5)c(-c5c(F)cccc5F)c5nc(c(-c6c(F)cccc6F)c6ccc3[nH]6)C=C5)C=C4)cc2)cc1Oc1nc(C(C)(C)C)ns1
REMARK SMILES IDX 10 1 9 2 7 3 8 4 6 6 3 7 4 8 71 9 5 10 70 11 2 12 1 13 72 14
REMARK SMILES IDX 73 15 74 16 81 17 75 18 80 19 76 20 77 21 78 22 79 23 11 24
REMARK SMILES IDX 12 25 13 26 14 27 15 29 16 30 17 31 69 32 18 33 68 34 19 35
REMARK SMILES IDX 20 36 21 37 62 38 22 39 67 40 61 41 63 42 23 43 66 44 60 45
REMARK SMILES IDX 59 46 24 48 50 49 33 50 49 51 34 52 37 53 48 54 64 55 35 56
REMARK SMILES IDX 36 57 47 59 65 60 38 61 25 62 26 63 31 64 27 65 28 66 30 67
REMARK SMILES IDX 32 68 29 69 51 70 52 71 57 72 53 73 54 74 56 75 58 76 55 77
REMARK SMILES IDX 39 78 40 79 45 80 41 81 42 82 44 83 46 84 43 85
REMARK H PARENT 9 5 13 28 63 47 37 58
REMARK Flexibility Score: inf
ROOT
ATOM      1  C   UNL A   1      37.334  20.894  24.556  1.00  0.00     0.118 C 
ENDROOT
BRANCH   1   2
ATOM      2  N   UNL A   1      37.877  22.105  25.142  1.00  0.00    -0.352 N 
ATOM      3  C   UNL A   1      37.314  23.256  25.623  1.00  0.00     0.251 C 
ATOM      4  O   UNL A   1      38.086  24.103  26.075  1.00  0.00    -0.269 OA
ATOM      5  H   UNL A   1      38.859  22.098  25.206  1.00  0.00     0.163 HD
BRANCH   3   6
ATOM      6  C   UNL A   1      35.848  23.520  25.680  1.00  0.00     0.043 A 
ATOM      7  C   UNL A   1      33.065  23.834  25.942  1.00  0.00     0.161 A 
ATOM      8  C   UNL A   1      33.761  23.023  26.836  1.00  0.00     0.051 A 
ATOM      9  C   UNL A   1      33.755  24.545  24.953  1.00  0.00     0.173 A 
ATOM     10  C   UNL A   1      35.139  22.857  26.695  1.00  0.00     0.018 A 
ATOM     11  C   UNL A   1      35.148  24.393  24.840  1.00  0.00     0.065 A 
BRANCH   7  12
ATOM     12  O   UNL A   1      31.714  23.957  26.120  1.00  0.00    -0.493 OA
ATOM     13  C   UNL A   1      31.027  22.885  25.472  1.00  0.00     0.278 C 
ENDBRANCH   7  12
BRANCH   9  14
ATOM     14  O   UNL A   1      33.185  25.357  23.996  1.00  0.00    -0.426 OA
BRANCH  14  15
ATOM     15  C   UNL A   1      33.038  26.666  24.183  1.00  0.00     0.298 A 
ATOM     16  N   UNL A   1      32.751  27.188  25.355  1.00  0.00    -0.185 NA
ATOM     17  S   UNL A   1      33.057  27.831  22.929  1.00  0.00     0.025 S 
ATOM     18  C   UNL A   1      32.653  28.573  25.202  1.00  0.00     0.151 A 
ATOM     19  N   UNL A   1      32.743  29.098  23.973  1.00  0.00    -0.172 NA
BRANCH  18  20
ATOM     20  C   UNL A   1      32.399  29.456  26.414  1.00  0.00     0.023 C 
ATOM     21  C   UNL A   1      31.596  30.697  25.988  1.00  0.00     0.019 C 
ATOM     22  C   UNL A   1      31.594  28.690  27.485  1.00  0.00     0.019 C 
ATOM     23  C   UNL A   1      33.717  29.919  27.068  1.00  0.00     0.019 C 
ENDBRANCH  18  20
ENDBRANCH  14  15
ENDBRANCH   9  14
ENDBRANCH   3   6
ENDBRANCH   1   2
BRANCH   1  24
ATOM     24  C   UNL A   1      38.231  19.694  24.857  1.00  0.00     0.042 C 
BRANCH  24  25
ATOM     25  C   UNL A   1      39.194  19.935  26.023  1.00  0.00     0.118 C 
BRANCH  25  26
ATOM     26  N   UNL A   1      40.395  19.119  25.912  1.00  0.00    -0.352 N 
ATOM     27  C   UNL A   1      41.716  19.477  25.994  1.00  0.00     0.251 C 
ATOM     28  H   UNL A   1      40.234  18.162  25.752  1.00  0.00     0.163 HD
ATOM     29  O   UNL A   1      42.581  18.674  25.646  1.00  0.00    -0.269 OA
BRANCH  27  30
ATOM     30  C   UNL A   1      42.120  20.810  26.491  1.00  0.00     0.039 A 
ATOM     31  C   UNL A   1      42.464  21.796  25.561  1.00  0.00     0.014 A 
ATOM     32  C   UNL A   1      42.232  21.073  27.859  1.00  0.00     0.014 A 
ATOM     33  C   UNL A   1      42.878  23.056  25.999  1.00  0.00     0.010 A 
ATOM     34  C   UNL A   1      42.595  22.347  28.297  1.00  0.00     0.010 A 
ATOM     35  C   UNL A   1      42.927  23.349  27.371  1.00  0.00    -0.014 A 
BRANCH  35  36
ATOM     36  C   UNL A   1      43.330  24.694  27.853  1.00  0.00     0.031 A 
ATOM     37  C   UNL A   1      42.289  25.724  28.191  1.00  0.00     0.074 A 
ATOM     38  C   UNL A   1      44.637  25.007  27.931  1.00  0.00     0.049 A 
ATOM     39  N   UNL A   1      42.447  26.971  28.556  1.00  0.00    -0.248 NA
ATOM     40  C   UNL A   1      40.883  25.303  28.083  1.00  0.00     0.031 C 
ATOM     41  C   UNL A   1      45.744  24.110  27.595  1.00  0.00     0.029 A 
ATOM     42  N   UNL A   1      45.255  26.173  28.306  1.00  0.00    -0.354 N 
ATOM     43  C   UNL A   1      41.166  27.488  28.702  1.00  0.00     0.074 A 
ATOM     44  C   UNL A   1      40.241  26.432  28.350  1.00  0.00     0.031 C 
ATOM     45  C   UNL A   1      46.906  24.754  27.791  1.00  0.00     0.029 A 
ATOM     46  C   UNL A   1      46.627  26.115  28.236  1.00  0.00     0.049 A 
ATOM     47  H   UNL A   1      44.765  26.975  28.598  1.00  0.00     0.167 HD
ATOM     48  C   UNL A   1      40.793  28.726  29.109  1.00  0.00     0.037 A 
ATOM     49  C   UNL A   1      47.553  27.057  28.495  1.00  0.00     0.037 A 
ATOM     50  C   UNL A   1      41.712  29.768  29.487  1.00  0.00     0.049 A 
ATOM     51  C   UNL A   1      47.115  28.417  28.956  1.00  0.00     0.074 A 
ATOM     52  C   UNL A   1      41.430  31.036  29.967  1.00  0.00     0.029 A 
ATOM     53  N   UNL A   1      43.093  29.661  29.428  1.00  0.00    -0.354 N 
ATOM     54  N   UNL A   1      45.901  28.875  29.142  1.00  0.00    -0.248 NA
ATOM     55  C   UNL A   1      48.177  29.391  29.248  1.00  0.00     0.031 C 
ATOM     56  C   UNL A   1      42.641  31.707  30.170  1.00  0.00     0.029 A 
ATOM     57  C   UNL A   1      43.677  30.844  29.850  1.00  0.00     0.049 A 
ATOM     58  H   UNL A   1      43.586  28.862  29.130  1.00  0.00     0.167 HD
ATOM     59  C   UNL A   1      46.051  30.178  29.595  1.00  0.00     0.074 A 
ATOM     60  C   UNL A   1      47.475  30.436  29.667  1.00  0.00     0.031 C 
ATOM     61  C   UNL A   1      45.095  31.081  29.922  1.00  0.00     0.037 A 
BRANCH  48  62
ATOM     62  C   UNL A   1      39.323  29.019  29.170  1.00  0.00     0.057 A 
ATOM     63  C   UNL A   1      38.613  29.463  28.047  1.00  0.00     0.134 A 
ATOM     64  C   UNL A   1      38.602  28.825  30.355  1.00  0.00     0.134 A 
ATOM     65  F   UNL A   1      39.247  29.681  26.885  1.00  0.00    -0.206 F 
ATOM     66  C   UNL A   1      37.244  29.728  28.105  1.00  0.00     0.040 A 
ATOM     67  C   UNL A   1      37.228  29.062  30.420  1.00  0.00     0.040 A 
ATOM     68  F   UNL A   1      39.219  28.394  31.465  1.00  0.00    -0.206 F 
ATOM     69  C   UNL A   1      36.546  29.521  29.295  1.00  0.00     0.006 A 
ENDBRANCH  48  62
BRANCH  49  70
ATOM     70  C   UNL A   1      48.994  26.735  28.346  1.00  0.00     0.057 A 
ATOM     71  C   UNL A   1      49.649  26.916  27.124  1.00  0.00     0.134 A 
ATOM     72  C   UNL A   1      49.748  26.246  29.419  1.00  0.00     0.134 A 
ATOM     73  F   UNL A   1      48.973  27.365  26.055  1.00  0.00    -0.206 F 
ATOM     74  C   UNL A   1      51.001  26.606  26.966  1.00  0.00     0.040 A 
ATOM     75  C   UNL A   1      51.106  25.952  29.282  1.00  0.00     0.040 A 
ATOM     76  F   UNL A   1      49.178  26.059  30.618  1.00  0.00    -0.206 F 
ATOM     77  C   UNL A   1      51.735  26.127  28.051  1.00  0.00     0.006 A 
ENDBRANCH  49  70
BRANCH  61  78
ATOM     78  C   UNL A   1      45.559  32.419  30.416  1.00  0.00     0.057 A 
ATOM     79  C   UNL A   1      45.820  32.654  31.772  1.00  0.00     0.134 A 
ATOM     80  C   UNL A   1      45.779  33.473  29.521  1.00  0.00     0.134 A 
ATOM     81  F   UNL A   1      45.614  31.688  32.681  1.00  0.00    -0.206 F 
ATOM     82  C   UNL A   1      46.265  33.897  32.223  1.00  0.00     0.040 A 
ATOM     83  C   UNL A   1      46.245  34.713  29.957  1.00  0.00     0.040 A 
ATOM     84  F   UNL A   1      45.554  33.309  28.208  1.00  0.00    -0.206 F 
ATOM     85  C   UNL A   1      46.485  34.929  31.312  1.00  0.00     0.006 A 
ENDBRANCH  61  78
ENDBRANCH  35  36
ENDBRANCH  27  30
ENDBRANCH  25  26
ENDBRANCH  24  25
ENDBRANCH   1  24
TORSDOF 14
ENDMDL
MODEL 3
REMARK VINA RESULT:     -11.1      4.542      9.611
REMARK SMILES COc1ccc(C(=O)NCCCNC(=O)c2ccc(-c3c4nc(c(-c5c(F)cccc5F)c5ccc([nH]5)c(-c5c(F)cccc5F)c5nc(c(-c6c(F)cccc6F)c6ccc3[nH]6)C=C5)C=C4)cc2)cc1Oc1nc(C(C)(C)C)ns1
REMARK SMILES IDX 10 1 9 2 7 3 8 4 6 6 3 7 4 8 71 9 5 10 70 11 2 12 1 13 72 14
REMARK SMILES IDX 73 15 74 16 81 17 75 18 80 19 76 20 77 21 78 22 79 23 11 24
REMARK SMILES IDX 12 25 13 26 14 27 15 29 16 30 17 31 69 32 18 33 68 34 19 35
REMARK SMILES IDX 20 36 21 37 62 38 22 39 67 40 61 41 63 42 23 43 66 44 60 45
REMARK SMILES IDX 59 46 24 48 50 49 33 50 49 51 34 52 37 53 48 54 64 55 35 56
REMARK SMILES IDX 36 57 47 59 65 60 38 61 25 62 26 63 31 64 27 65 28 66 30 67
REMARK SMILES IDX 32 68 29 69 51 70 52 71 57 72 53 73 54 74 56 75 58 76 55 77
REMARK SMILES IDX 39 78 40 79 45 80 41 81 42 82 44 83 46 84 43 85
REMARK H PARENT 9 5 13 28 63 47 37 58
REMARK Flexibility Score: inf
ROOT
ATOM      1  C   UNL A   1      31.747  30.563  26.874  1.00  0.00     0.118 C 
ENDROOT
BRANCH   1   2
ATOM      2  N   UNL A   1      33.138  30.288  27.182  1.00  0.00    -0.352 N 
ATOM      3  C   UNL A   1      34.019  29.320  26.783  1.00  0.00     0.251 C 
ATOM      4  O   UNL A   1      35.161  29.390  27.239  1.00  0.00    -0.269 OA
ATOM      5  H   UNL A   1      33.530  30.934  27.812  1.00  0.00     0.163 HD
BRANCH   3   6
ATOM      6  C   UNL A   1      33.702  28.239  25.807  1.00  0.00     0.043 A 
ATOM      7  C   UNL A   1      33.094  26.368  23.796  1.00  0.00     0.161 A 
ATOM      8  C   UNL A   1      33.464  27.666  23.451  1.00  0.00     0.051 A 
ATOM      9  C   UNL A   1      33.085  25.973  25.139  1.00  0.00     0.173 A 
ATOM     10  C   UNL A   1      33.752  28.596  24.449  1.00  0.00     0.018 A 
ATOM     11  C   UNL A   1      33.407  26.912  26.136  1.00  0.00     0.065 A 
BRANCH   7  12
ATOM     12  O   UNL A   1      32.815  25.497  22.778  1.00  0.00    -0.493 OA
ATOM     13  C   UNL A   1      31.790  26.028  21.936  1.00  0.00     0.278 C 
ENDBRANCH   7  12
BRANCH   9  14
ATOM     14  O   UNL A   1      32.715  24.733  25.614  1.00  0.00    -0.426 OA
BRANCH  14  15
ATOM     15  C   UNL A   1      33.607  23.772  25.838  1.00  0.00     0.298 A 
ATOM     16  N   UNL A   1      34.682  23.615  25.096  1.00  0.00    -0.185 NA
ATOM     17  S   UNL A   1      33.424  22.533  27.004  1.00  0.00     0.025 S 
ATOM     18  C   UNL A   1      35.391  22.516  25.585  1.00  0.00     0.151 A 
ATOM     19  N   UNL A   1      34.856  21.786  26.573  1.00  0.00    -0.172 NA
BRANCH  18  20
ATOM     20  C   UNL A   1      36.726  22.135  24.966  1.00  0.00     0.023 C 
ATOM     21  C   UNL A   1      36.778  22.630  23.509  1.00  0.00     0.019 C 
ATOM     22  C   UNL A   1      37.891  22.777  25.748  1.00  0.00     0.019 C 
ATOM     23  C   UNL A   1      36.946  20.607  24.977  1.00  0.00     0.019 C 
ENDBRANCH  18  20
ENDBRANCH  14  15
ENDBRANCH   9  14
ENDBRANCH   3   6
ENDBRANCH   1   2
BRANCH   1  24
ATOM     24  C   UNL A   1      31.479  32.068  26.866  1.00  0.00     0.042 C 
BRANCH  24  25
ATOM     25  C   UNL A   1      32.757  32.911  26.901  1.00  0.00     0.118 C 
BRANCH  25  26
ATOM     26  N   UNL A   1      32.554  34.175  27.596  1.00  0.00    -0.352 N 
ATOM     27  C   UNL A   1      33.149  34.665  28.729  1.00  0.00     0.251 C 
ATOM     28  H   UNL A   1      31.884  34.770  27.189  1.00  0.00     0.163 HD
ATOM     29  O   UNL A   1      32.673  35.657  29.280  1.00  0.00    -0.269 OA
BRANCH  27  30
ATOM     30  C   UNL A   1      34.352  34.022  29.302  1.00  0.00     0.039 A 
ATOM     31  C   UNL A   1      34.186  33.068  30.311  1.00  0.00     0.014 A 
ATOM     32  C   UNL A   1      35.638  34.402  28.907  1.00  0.00     0.014 A 
ATOM     33  C   UNL A   1      35.303  32.465  30.894  1.00  0.00     0.010 A 
ATOM     34  C   UNL A   1      36.752  33.762  29.451  1.00  0.00     0.010 A 
ATOM     35  C   UNL A   1      36.596  32.792  30.453  1.00  0.00    -0.014 A 
BRANCH  35  36
ATOM     36  C   UNL A   1      37.792  32.134  31.036  1.00  0.00     0.031 A 
ATOM     37  C   UNL A   1      38.486  31.026  30.295  1.00  0.00     0.074 A 
ATOM     38  C   UNL A   1      38.218  32.496  32.260  1.00  0.00     0.049 A 
ATOM     39  N   UNL A   1      39.497  30.284  30.673  1.00  0.00    -0.248 NA
ATOM     40  C   UNL A   1      37.962  30.691  28.962  1.00  0.00     0.031 C 
ATOM     41  C   UNL A   1      37.608  33.529  33.098  1.00  0.00     0.029 A 
ATOM     42  N   UNL A   1      39.259  32.024  33.020  1.00  0.00    -0.354 N 
ATOM     43  C   UNL A   1      39.717  29.386  29.636  1.00  0.00     0.074 A 
ATOM     44  C   UNL A   1      38.711  29.650  28.630  1.00  0.00     0.031 C 
ATOM     45  C   UNL A   1      38.292  33.622  34.249  1.00  0.00     0.029 A 
ATOM     46  C   UNL A   1      39.369  32.637  34.244  1.00  0.00     0.049 A 
ATOM     47  H   UNL A   1      39.871  31.314  32.716  1.00  0.00     0.167 HD
ATOM     48  C   UNL A   1      40.680  28.439  29.525  1.00  0.00     0.037 A 
ATOM     49  C   UNL A   1      40.235  32.423  35.252  1.00  0.00     0.037 A 
ATOM     50  C   UNL A   1      41.698  28.197  30.514  1.00  0.00     0.049 A 
ATOM     51  C   UNL A   1      41.301  31.376  35.100  1.00  0.00     0.074 A 
ATOM     52  C   UNL A   1      42.751  27.298  30.466  1.00  0.00     0.029 A 
ATOM     53  N   UNL A   1      41.791  28.857  31.729  1.00  0.00    -0.354 N 
ATOM     54  N   UNL A   1      41.530  30.571  34.091  1.00  0.00    -0.248 NA
ATOM     55  C   UNL A   1      42.232  31.210  36.225  1.00  0.00     0.031 C 
ATOM     56  C   UNL A   1      43.464  27.395  31.666  1.00  0.00     0.029 A 
ATOM     57  C   UNL A   1      42.876  28.379  32.446  1.00  0.00     0.049 A 
ATOM     58  H   UNL A   1      41.177  29.563  32.037  1.00  0.00     0.167 HD
ATOM     59  C   UNL A   1      42.643  29.822  34.447  1.00  0.00     0.074 A 
ATOM     60  C   UNL A   1      43.051  30.276  35.761  1.00  0.00     0.031 C 
ATOM     61  C   UNL A   1      43.271  28.846  33.748  1.00  0.00     0.037 A 
BRANCH  48  62
ATOM     62  C   UNL A   1      40.678  27.595  28.286  1.00  0.00     0.057 A 
ATOM     63  C   UNL A   1      41.398  27.963  27.142  1.00  0.00     0.134 A 
ATOM     64  C   UNL A   1      39.974  26.384  28.245  1.00  0.00     0.134 A 
ATOM     65  F   UNL A   1      42.082  29.117  27.112  1.00  0.00    -0.206 F 
ATOM     66  C   UNL A   1      41.399  27.171  25.992  1.00  0.00     0.040 A 
ATOM     67  C   UNL A   1      39.987  25.571  27.110  1.00  0.00     0.040 A 
ATOM     68  F   UNL A   1      39.271  25.968  29.308  1.00  0.00    -0.206 F 
ATOM     69  C   UNL A   1      40.696  25.966  25.977  1.00  0.00     0.006 A 
ENDBRANCH  48  62
BRANCH  49  70
ATOM     70  C   UNL A   1      40.145  33.238  36.489  1.00  0.00     0.057 A 
ATOM     71  C   UNL A   1      40.922  34.390  36.649  1.00  0.00     0.134 A 
ATOM     72  C   UNL A   1      39.281  32.888  37.533  1.00  0.00     0.134 A 
ATOM     73  F   UNL A   1      41.781  34.764  35.689  1.00  0.00    -0.206 F 
ATOM     74  C   UNL A   1      40.857  35.159  37.812  1.00  0.00     0.040 A 
ATOM     75  C   UNL A   1      39.190  33.660  38.693  1.00  0.00     0.040 A 
ATOM     76  F   UNL A   1      38.506  31.800  37.435  1.00  0.00    -0.206 F 
ATOM     77  C   UNL A   1      39.984  34.797  38.837  1.00  0.00     0.006 A 
ENDBRANCH  49  70
BRANCH  61  78
ATOM     78  C   UNL A   1      44.483  28.226  34.379  1.00  0.00     0.057 A 
ATOM     79  C   UNL A   1      45.762  28.770  34.209  1.00  0.00     0.134 A 
ATOM     80  C   UNL A   1      44.362  27.091  35.191  1.00  0.00     0.134 A 
ATOM     81  F   UNL A   1      45.944  29.848  33.431  1.00  0.00    -0.206 F 
ATOM     82  C   UNL A   1      46.882  28.195  34.810  1.00  0.00     0.040 A 
ATOM     83  C   UNL A   1      45.472  26.521  35.815  1.00  0.00     0.040 A 
ATOM     84  F   UNL A   1      43.162  26.526  35.397  1.00  0.00    -0.206 F 
ATOM     85  C   UNL A   1      46.737  27.071  35.621  1.00  0.00     0.006 A 
ENDBRANCH  61  78
ENDBRANCH  35  36
ENDBRANCH  27  30
ENDBRANCH  25  26
ENDBRANCH  24  25
ENDBRANCH   1  24
TORSDOF 14
ENDMDL
