MODEL 1
REMARK VINA RESULT:     -10.2      0.000      0.000
REMARK SMILES COc1ccc([C@H]2CC(c3ccc(S(C)(=O)=O)cc3)=NN2c2ccc(C(=O)NCCCNC(=O)c3ccc(-c4c5nc(c(-c6c(F)cccc6F)c6ccc([nH]6)c(-c6c(F)cccc6F)c6nc(c(-c7c(F)cccc7F)c7ccc4[nH]7)C=C6)C=C5)cc3)cc2)cc1
REMARK SMILES IDX 29 1 28 2 26 3 27 4 25 6 22 7 23 8 90 9 24 10 89 11 21 12
REMARK SMILES IDX 7 13 8 14 9 15 20 16 6 17 3 18 4 19 92 20 5 21 91 22 2 23
REMARK SMILES IDX 1 24 10 25 11 26 19 27 12 28 18 29 13 30 14 31 15 32 16 33
REMARK SMILES IDX 17 34 30 35 31 36 32 37 33 38 34 40 35 41 36 42 88 43 37 44
REMARK SMILES IDX 87 45 38 46 39 47 40 48 81 49 41 50 86 51 80 52 82 53 42 54
REMARK SMILES IDX 85 55 79 56 78 57 43 59 69 60 52 61 68 62 53 63 56 64 67 65
REMARK SMILES IDX 83 66 54 67 55 68 66 70 84 71 57 72 44 73 45 74 50 75 46 76
REMARK SMILES IDX 47 77 49 78 51 79 48 80 70 81 71 82 76 83 72 84 73 85 75 86
REMARK SMILES IDX 77 87 74 88 58 89 59 90 64 91 60 92 61 93 63 94 65 95 62 96
REMARK H PARENT 28 5 32 39 82 58 56 69
REMARK Flexibility Score: inf
ROOT
ATOM      1  C   UNL A   1      34.860  34.766  29.327  1.00  0.00     0.118 C 
ENDROOT
BRANCH   1   2
ATOM      2  N   UNL A   1      36.214  34.577  28.840  1.00  0.00    -0.352 N 
ATOM      3  C   UNL A   1      37.347  34.086  29.436  1.00  0.00     0.251 C 
ATOM      4  O   UNL A   1      38.365  34.019  28.746  1.00  0.00    -0.269 OA
ATOM      5  H   UNL A   1      36.344  34.856  27.905  1.00  0.00     0.163 HD
BRANCH   3   6
ATOM      6  C   UNL A   1      37.381  33.583  30.836  1.00  0.00     0.039 A 
ATOM      7  C   UNL A   1      37.653  32.710  33.509  1.00  0.00     0.060 A 
ATOM      8  C   UNL A   1      38.249  33.899  33.083  1.00  0.00     0.029 A 
ATOM      9  C   UNL A   1      36.861  32.003  32.605  1.00  0.00     0.029 A 
ATOM     10  C   UNL A   1      38.132  34.324  31.757  1.00  0.00     0.016 A 
ATOM     11  C   UNL A   1      36.696  32.454  31.291  1.00  0.00     0.016 A 
BRANCH   7  12
ATOM     12  N   UNL A   1      37.875  32.244  34.792  1.00  0.00    -0.257 N 
ATOM     13  C   UNL A   1      38.162  30.848  35.115  1.00  0.00     0.144 C 
ATOM     14  C   UNL A   1      38.232  30.871  36.647  1.00  0.00     0.091 C 
ATOM     15  C   UNL A   1      37.846  32.301  36.905  1.00  0.00     0.071 C 
ATOM     16  N   UNL A   1      37.649  33.041  35.861  1.00  0.00    -0.176 NA
BRANCH  13  17
ATOM     17  C   UNL A   1      39.451  30.380  34.461  1.00  0.00    -0.023 A 
ATOM     18  C   UNL A   1      41.858  29.472  33.310  1.00  0.00     0.118 A 
ATOM     19  C   UNL A   1      41.880  30.393  34.356  1.00  0.00     0.047 A 
ATOM     20  C   UNL A   1      40.638  28.978  32.855  1.00  0.00     0.047 A 
ATOM     21  C   UNL A   1      40.688  30.852  34.924  1.00  0.00     0.010 A 
ATOM     22  C   UNL A   1      39.444  29.430  33.427  1.00  0.00     0.010 A 
BRANCH  18  23
ATOM     23  O   UNL A   1      43.083  29.081  32.842  1.00  0.00    -0.497 OA
ATOM     24  C   UNL A   1      43.151  27.733  32.388  1.00  0.00     0.278 C 
ENDBRANCH  18  23
ENDBRANCH  13  17
BRANCH  15  25
ATOM     25  C   UNL A   1      37.668  32.805  38.270  1.00  0.00    -0.002 A 
ATOM     26  C   UNL A   1      38.551  33.782  38.741  1.00  0.00     0.011 A 
ATOM     27  C   UNL A   1      36.660  32.291  39.088  1.00  0.00     0.011 A 
ATOM     28  C   UNL A   1      38.418  34.263  40.041  1.00  0.00     0.021 A 
ATOM     29  C   UNL A   1      36.542  32.750  40.400  1.00  0.00     0.021 A 
ATOM     30  C   UNL A   1      37.424  33.730  40.870  1.00  0.00     0.067 A 
BRANCH  30  31
ATOM     31  S   UNL A   1      37.284  34.325  42.540  1.00  0.00     0.175 S 
ATOM     32  C   UNL A   1      38.156  33.116  43.503  1.00  0.00     0.163 C 
ATOM     33  O   UNL A   1      38.012  35.576  42.599  1.00  0.00    -0.224 OA
ATOM     34  O   UNL A   1      35.883  34.255  42.913  1.00  0.00    -0.224 OA
ENDBRANCH  30  31
ENDBRANCH  15  25
ENDBRANCH   7  12
ENDBRANCH   3   6
ENDBRANCH   1   2
BRANCH   1  35
ATOM     35  C   UNL A   1      34.034  33.496  29.137  1.00  0.00     0.042 C 
BRANCH  35  36
ATOM     36  C   UNL A   1      34.561  32.603  28.020  1.00  0.00     0.118 C 
BRANCH  36  37
ATOM     37  N   UNL A   1      33.850  31.334  27.956  1.00  0.00    -0.352 N 
ATOM     38  C   UNL A   1      34.352  30.056  27.938  1.00  0.00     0.251 C 
ATOM     39  H   UNL A   1      32.869  31.402  27.920  1.00  0.00     0.163 HD
ATOM     40  O   UNL A   1      33.619  29.112  27.662  1.00  0.00    -0.269 OA
BRANCH  38  41
ATOM     41  C   UNL A   1      35.780  29.818  28.239  1.00  0.00     0.039 A 
ATOM     42  C   UNL A   1      36.142  29.382  29.517  1.00  0.00     0.014 A 
ATOM     43  C   UNL A   1      36.760  30.047  27.270  1.00  0.00     0.014 A 
ATOM     44  C   UNL A   1      37.484  29.114  29.805  1.00  0.00     0.010 A 
ATOM     45  C   UNL A   1      38.086  29.721  27.537  1.00  0.00     0.010 A 
ATOM     46  C   UNL A   1      38.460  29.252  28.807  1.00  0.00    -0.014 A 
BRANCH  46  47
ATOM     47  C   UNL A   1      39.888  28.925  29.052  1.00  0.00     0.031 A 
ATOM     48  C   UNL A   1      40.814  29.988  29.572  1.00  0.00     0.074 A 
ATOM     49  C   UNL A   1      40.368  27.715  28.704  1.00  0.00     0.049 A 
ATOM     50  N   UNL A   1      42.118  29.969  29.678  1.00  0.00    -0.248 NA
ATOM     51  C   UNL A   1      40.193  31.252  30.002  1.00  0.00     0.031 C 
ATOM     52  C   UNL A   1      39.574  26.609  28.166  1.00  0.00     0.029 A 
ATOM     53  N   UNL A   1      41.650  27.224  28.723  1.00  0.00    -0.354 N 
ATOM     54  C   UNL A   1      42.476  31.227  30.147  1.00  0.00     0.074 A 
ATOM     55  C   UNL A   1      41.256  31.993  30.285  1.00  0.00     0.031 C 
ATOM     56  C   UNL A   1      40.386  25.571  27.907  1.00  0.00     0.029 A 
ATOM     57  C   UNL A   1      41.760  25.952  28.214  1.00  0.00     0.049 A 
ATOM     58  H   UNL A   1      42.418  27.736  29.068  1.00  0.00     0.167 HD
ATOM     59  C   UNL A   1      43.710  31.697  30.444  1.00  0.00     0.037 A 
ATOM     60  C   UNL A   1      42.850  25.192  27.996  1.00  0.00     0.037 A 
ATOM     61  C   UNL A   1      44.914  30.914  30.354  1.00  0.00     0.049 A 
ATOM     62  C   UNL A   1      44.210  25.742  28.333  1.00  0.00     0.074 A 
ATOM     63  C   UNL A   1      46.201  31.272  30.714  1.00  0.00     0.029 A 
ATOM     64  N   UNL A   1      44.978  29.618  29.869  1.00  0.00    -0.354 N 
ATOM     65  N   UNL A   1      44.527  26.910  28.835  1.00  0.00    -0.248 NA
ATOM     66  C   UNL A   1      45.363  24.870  28.066  1.00  0.00     0.031 C 
ATOM     67  C   UNL A   1      47.051  30.205  30.410  1.00  0.00     0.029 A 
ATOM     68  C   UNL A   1      46.287  29.169  29.900  1.00  0.00     0.049 A 
ATOM     69  H   UNL A   1      44.207  29.094  29.551  1.00  0.00     0.167 HD
ATOM     70  C   UNL A   1      45.909  26.897  28.984  1.00  0.00     0.074 A 
ATOM     71  C   UNL A   1      46.370  25.606  28.518  1.00  0.00     0.031 C 
ATOM     72  C   UNL A   1      46.722  27.868  29.464  1.00  0.00     0.037 A 
BRANCH  59  73
ATOM     73  C   UNL A   1      43.831  33.122  30.893  1.00  0.00     0.057 A 
ATOM     74  C   UNL A   1      43.922  33.467  32.247  1.00  0.00     0.134 A 
ATOM     75  C   UNL A   1      43.921  34.157  29.954  1.00  0.00     0.134 A 
ATOM     76  F   UNL A   1      43.833  32.524  33.196  1.00  0.00    -0.206 F 
ATOM     77  C   UNL A   1      44.085  34.794  32.651  1.00  0.00     0.040 A 
ATOM     78  C   UNL A   1      44.107  35.484  30.344  1.00  0.00     0.040 A 
ATOM     79  F   UNL A   1      43.846  33.893  28.640  1.00  0.00    -0.206 F 
ATOM     80  C   UNL A   1      44.187  35.805  31.698  1.00  0.00     0.006 A 
ENDBRANCH  59  73
BRANCH  60  81
ATOM     81  C   UNL A   1      42.713  23.826  27.430  1.00  0.00     0.057 A 
ATOM     82  C   UNL A   1      42.479  22.724  28.261  1.00  0.00     0.134 A 
ATOM     83  C   UNL A   1      42.844  23.583  26.058  1.00  0.00     0.134 A 
ATOM     84  F   UNL A   1      42.365  22.892  29.587  1.00  0.00    -0.206 F 
ATOM     85  C   UNL A   1      42.408  21.427  27.753  1.00  0.00     0.040 A 
ATOM     86  C   UNL A   1      42.749  22.292  25.532  1.00  0.00     0.040 A 
ATOM     87  F   UNL A   1      43.063  24.596  25.208  1.00  0.00    -0.206 F 
ATOM     88  C   UNL A   1      42.540  21.208  26.384  1.00  0.00     0.006 A 
ENDBRANCH  60  81
BRANCH  72  89
ATOM     89  C   UNL A   1      48.183  27.556  29.571  1.00  0.00     0.057 A 
ATOM     90  C   UNL A   1      48.722  26.910  30.689  1.00  0.00     0.134 A 
ATOM     91  C   UNL A   1      49.048  27.845  28.507  1.00  0.00     0.134 A 
ATOM     92  F   UNL A   1      47.948  26.618  31.745  1.00  0.00    -0.206 F 
ATOM     93  C   UNL A   1      50.075  26.571  30.751  1.00  0.00     0.040 A 
ATOM     94  C   UNL A   1      50.396  27.490  28.547  1.00  0.00     0.040 A 
ATOM     95  F   UNL A   1      48.590  28.455  27.404  1.00  0.00    -0.206 F 
ATOM     96  C   UNL A   1      50.914  26.853  29.674  1.00  0.00     0.006 A 
ENDBRANCH  72  89
ENDBRANCH  46  47
ENDBRANCH  38  41
ENDBRANCH  36  37
ENDBRANCH  35  36
ENDBRANCH   1  35
TORSDOF 15
ENDMDL
MODEL 2
REMARK VINA RESULT:     -10.1      5.366     10.093
REMARK SMILES COc1ccc([C@H]2CC(c3ccc(S(C)(=O)=O)cc3)=NN2c2ccc(C(=O)NCCCNC(=O)c3ccc(-c4c5nc(c(-c6c(F)cccc6F)c6ccc([nH]6)c(-c6c(F)cccc6F)c6nc(c(-c7c(F)cccc7F)c7ccc4[nH]7)C=C6)C=C5)cc3)cc2)cc1
REMARK SMILES IDX 29 1 28 2 26 3 27 4 25 6 22 7 23 8 90 9 24 10 89 11 21 12
REMARK SMILES IDX 7 13 8 14 9 15 20 16 6 17 3 18 4 19 92 20 5 21 91 22 2 23
REMARK SMILES IDX 1 24 10 25 11 26 19 27 12 28 18 29 13 30 14 31 15 32 16 33
REMARK SMILES IDX 17 34 30 35 31 36 32 37 33 38 34 40 35 41 36 42 88 43 37 44
REMARK SMILES IDX 87 45 38 46 39 47 40 48 81 49 41 50 86 51 80 52 82 53 42 54
REMARK SMILES IDX 85 55 79 56 78 57 43 59 69 60 52 61 68 62 53 63 56 64 67 65
REMARK SMILES IDX 83 66 54 67 55 68 66 70 84 71 57 72 44 73 45 74 50 75 46 76
REMARK SMILES IDX 47 77 49 78 51 79 48 80 70 81 71 82 76 83 72 84 73 85 75 86
REMARK SMILES IDX 77 87 74 88 58 89 59 90 64 91 60 92 61 93 63 94 65 95 62 96
REMARK H PARENT 28 5 32 39 82 58 56 69
REMARK Flexibility Score: inf
ROOT
ATOM      1  C   UNL A   1      33.587  31.941  27.662  1.00  0.00     0.118 C 
ENDROOT
BRANCH   1   2
ATOM      2  N   UNL A   1      34.741  31.200  28.136  1.00  0.00    -0.352 N 
ATOM      3  C   UNL A   1      35.128  29.895  27.975  1.00  0.00     0.251 C 
ATOM      4  O   UNL A   1      36.196  29.554  28.483  1.00  0.00    -0.269 OA
ATOM      5  H   UNL A   1      35.363  31.737  28.679  1.00  0.00     0.163 HD
BRANCH   3   6
ATOM      6  C   UNL A   1      34.355  28.908  27.173  1.00  0.00     0.039 A 
ATOM      7  C   UNL A   1      32.811  26.950  25.845  1.00  0.00     0.060 A 
ATOM      8  C   UNL A   1      32.358  27.531  27.032  1.00  0.00     0.029 A 
ATOM      9  C   UNL A   1      34.006  27.410  25.294  1.00  0.00     0.029 A 
ATOM     10  C   UNL A   1      33.127  28.486  27.701  1.00  0.00     0.016 A 
ATOM     11  C   UNL A   1      34.753  28.405  25.932  1.00  0.00     0.016 A 
BRANCH   7  12
ATOM     12  N   UNL A   1      32.093  25.923  25.258  1.00  0.00    -0.257 N 
ATOM     13  C   UNL A   1      30.673  26.005  24.928  1.00  0.00     0.144 C 
ATOM     14  C   UNL A   1      30.375  24.597  24.397  1.00  0.00     0.091 C 
ATOM     15  C   UNL A   1      31.703  23.938  24.644  1.00  0.00     0.071 C 
ATOM     16  N   UNL A   1      32.639  24.693  25.126  1.00  0.00    -0.176 NA
BRANCH  13  17
ATOM     17  C   UNL A   1      30.401  27.101  23.912  1.00  0.00    -0.023 A 
ATOM     18  C   UNL A   1      29.879  29.182  22.083  1.00  0.00     0.118 A 
ATOM     19  C   UNL A   1      28.834  28.577  22.781  1.00  0.00     0.047 A 
ATOM     20  C   UNL A   1      31.190  28.773  22.319  1.00  0.00     0.047 A 
ATOM     21  C   UNL A   1      29.088  27.539  23.681  1.00  0.00     0.010 A 
ATOM     22  C   UNL A   1      31.447  27.740  23.226  1.00  0.00     0.010 A 
BRANCH  18  23
ATOM     23  O   UNL A   1      29.517  30.197  21.241  1.00  0.00    -0.497 OA
ATOM     24  C   UNL A   1      28.129  30.517  21.246  1.00  0.00     0.278 C 
ENDBRANCH  18  23
ENDBRANCH  13  17
BRANCH  15  25
ATOM     25  C   UNL A   1      31.901  22.509  24.384  1.00  0.00    -0.002 A 
ATOM     26  C   UNL A   1      32.112  21.656  25.473  1.00  0.00     0.011 A 
ATOM     27  C   UNL A   1      31.913  22.023  23.076  1.00  0.00     0.011 A 
ATOM     28  C   UNL A   1      32.324  20.297  25.253  1.00  0.00     0.021 A 
ATOM     29  C   UNL A   1      32.153  20.667  22.851  1.00  0.00     0.021 A 
ATOM     30  C   UNL A   1      32.362  19.813  23.940  1.00  0.00     0.067 A 
BRANCH  30  31
ATOM     31  S   UNL A   1      32.669  18.084  23.668  1.00  0.00     0.175 S 
ATOM     32  C   UNL A   1      34.376  17.874  24.106  1.00  0.00     0.163 C 
ATOM     33  O   UNL A   1      31.854  17.360  24.623  1.00  0.00    -0.224 OA
ATOM     34  O   UNL A   1      32.548  17.837  22.242  1.00  0.00    -0.224 OA
ENDBRANCH  30  31
ENDBRANCH  15  25
ENDBRANCH   7  12
ENDBRANCH   3   6
ENDBRANCH   1   2
BRANCH   1  35
ATOM     35  C   UNL A   1      33.529  33.325  28.305  1.00  0.00     0.042 C 
BRANCH  35  36
ATOM     36  C   UNL A   1      34.750  33.634  29.163  1.00  0.00     0.118 C 
BRANCH  36  37
ATOM     37  N   UNL A   1      34.501  33.376  30.575  1.00  0.00    -0.352 N 
ATOM     38  C   UNL A   1      35.205  32.587  31.451  1.00  0.00     0.251 C 
ATOM     39  H   UNL A   1      33.716  33.831  30.955  1.00  0.00     0.163 HD
ATOM     40  O   UNL A   1      34.729  32.310  32.548  1.00  0.00    -0.269 OA
BRANCH  38  41
ATOM     41  C   UNL A   1      36.532  32.059  31.069  1.00  0.00     0.039 A 
ATOM     42  C   UNL A   1      37.105  31.040  31.836  1.00  0.00     0.014 A 
ATOM     43  C   UNL A   1      37.217  32.582  29.970  1.00  0.00     0.014 A 
ATOM     44  C   UNL A   1      38.341  30.502  31.464  1.00  0.00     0.010 A 
ATOM     45  C   UNL A   1      38.416  32.004  29.564  1.00  0.00     0.010 A 
ATOM     46  C   UNL A   1      38.989  30.959  30.306  1.00  0.00    -0.014 A 
BRANCH  46  47
ATOM     47  C   UNL A   1      40.274  30.378  29.843  1.00  0.00     0.031 A 
ATOM     48  C   UNL A   1      41.476  31.267  29.684  1.00  0.00     0.074 A 
ATOM     49  C   UNL A   1      40.328  29.087  29.463  1.00  0.00     0.049 A 
ATOM     50  N   UNL A   1      42.629  31.006  29.123  1.00  0.00    -0.248 NA
ATOM     51  C   UNL A   1      41.354  32.641  30.198  1.00  0.00     0.031 C 
ATOM     52  C   UNL A   1      39.222  28.131  29.545  1.00  0.00     0.029 A 
ATOM     53  N   UNL A   1      41.350  28.364  28.899  1.00  0.00    -0.354 N 
ATOM     54  C   UNL A   1      43.352  32.191  29.180  1.00  0.00     0.074 A 
ATOM     55  C   UNL A   1      42.502  33.178  29.810  1.00  0.00     0.031 C 
ATOM     56  C   UNL A   1      39.626  26.948  29.052  1.00  0.00     0.029 A 
ATOM     57  C   UNL A   1      40.999  27.075  28.576  1.00  0.00     0.049 A 
ATOM     58  H   UNL A   1      42.249  28.734  28.743  1.00  0.00     0.167 HD
ATOM     59  C   UNL A   1      44.614  32.430  28.753  1.00  0.00     0.037 A 
ATOM     60  C   UNL A   1      41.699  26.115  27.942  1.00  0.00     0.037 A 
ATOM     61  C   UNL A   1      45.473  31.431  28.174  1.00  0.00     0.049 A 
ATOM     62  C   UNL A   1      43.099  26.410  27.475  1.00  0.00     0.074 A 
ATOM     63  C   UNL A   1      46.796  31.553  27.790  1.00  0.00     0.029 A 
ATOM     64  N   UNL A   1      45.092  30.128  27.897  1.00  0.00    -0.354 N 
ATOM     65  N   UNL A   1      43.792  27.516  27.593  1.00  0.00    -0.248 NA
ATOM     66  C   UNL A   1      43.811  25.326  26.783  1.00  0.00     0.031 C 
ATOM     67  C   UNL A   1      47.205  30.334  27.242  1.00  0.00     0.029 A 
ATOM     68  C   UNL A   1      46.149  29.442  27.326  1.00  0.00     0.049 A 
ATOM     69  H   UNL A   1      44.202  29.747  28.080  1.00  0.00     0.167 HD
ATOM     70  C   UNL A   1      45.033  27.248  27.029  1.00  0.00     0.074 A 
ATOM     71  C   UNL A   1      44.998  25.876  26.568  1.00  0.00     0.031 C 
ATOM     72  C   UNL A   1      46.106  28.066  26.904  1.00  0.00     0.037 A 
BRANCH  59  73
ATOM     73  C   UNL A   1      45.151  33.824  28.890  1.00  0.00     0.057 A 
ATOM     74  C   UNL A   1      45.853  34.238  30.028  1.00  0.00     0.134 A 
ATOM     75  C   UNL A   1      45.017  34.742  27.841  1.00  0.00     0.134 A 
ATOM     76  F   UNL A   1      46.007  33.409  31.071  1.00  0.00    -0.206 F 
ATOM     77  C   UNL A   1      46.392  35.523  30.123  1.00  0.00     0.040 A 
ATOM     78  C   UNL A   1      45.571  36.021  27.915  1.00  0.00     0.040 A 
ATOM     79  F   UNL A   1      44.359  34.405  26.721  1.00  0.00    -0.206 F 
ATOM     80  C   UNL A   1      46.258  36.414  29.061  1.00  0.00     0.006 A 
ENDBRANCH  59  73
BRANCH  60  81
ATOM     81  C   UNL A   1      41.097  24.778  27.706  1.00  0.00     0.057 A 
ATOM     82  C   UNL A   1      41.530  23.658  28.424  1.00  0.00     0.134 A 
ATOM     83  C   UNL A   1      40.103  24.580  26.740  1.00  0.00     0.134 A 
ATOM     84  F   UNL A   1      42.493  23.781  29.348  1.00  0.00    -0.206 F 
ATOM     85  C   UNL A   1      41.017  22.384  28.172  1.00  0.00     0.040 A 
ATOM     86  C   UNL A   1      39.563  23.316  26.495  1.00  0.00     0.040 A 
ATOM     87  F   UNL A   1      39.640  25.613  26.021  1.00  0.00    -0.206 F 
ATOM     88  C   UNL A   1      40.028  22.211  27.207  1.00  0.00     0.006 A 
ENDBRANCH  60  81
BRANCH  72  89
ATOM     89  C   UNL A   1      47.351  27.487  26.304  1.00  0.00     0.057 A 
ATOM     90  C   UNL A   1      48.330  26.867  27.086  1.00  0.00     0.134 A 
ATOM     91  C   UNL A   1      47.534  27.492  24.915  1.00  0.00     0.134 A 
ATOM     92  F   UNL A   1      48.219  26.840  28.423  1.00  0.00    -0.206 F 
ATOM     93  C   UNL A   1      49.457  26.278  26.508  1.00  0.00     0.040 A 
ATOM     94  C   UNL A   1      48.643  26.888  24.324  1.00  0.00     0.040 A 
ATOM     95  F   UNL A   1      46.626  28.064  24.110  1.00  0.00    -0.206 F 
ATOM     96  C   UNL A   1      49.610  26.281  25.122  1.00  0.00     0.006 A 
ENDBRANCH  72  89
ENDBRANCH  46  47
ENDBRANCH  38  41
ENDBRANCH  36  37
ENDBRANCH  35  36
ENDBRANCH   1  35
TORSDOF 15
ENDMDL
MODEL 3
REMARK VINA RESULT:     -10.0      5.569     12.229
REMARK SMILES COc1ccc([C@H]2CC(c3ccc(S(C)(=O)=O)cc3)=NN2c2ccc(C(=O)NCCCNC(=O)c3ccc(-c4c5nc(c(-c6c(F)cccc6F)c6ccc([nH]6)c(-c6c(F)cccc6F)c6nc(c(-c7c(F)cccc7F)c7ccc4[nH]7)C=C6)C=C5)cc3)cc2)cc1
REMARK SMILES IDX 29 1 28 2 26 3 27 4 25 6 22 7 23 8 90 9 24 10 89 11 21 12
REMARK SMILES IDX 7 13 8 14 9 15 20 16 6 17 3 18 4 19 92 20 5 21 91 22 2 23
REMARK SMILES IDX 1 24 10 25 11 26 19 27 12 28 18 29 13 30 14 31 15 32 16 33
REMARK SMILES IDX 17 34 30 35 31 36 32 37 33 38 34 40 35 41 36 42 88 43 37 44
REMARK SMILES IDX 87 45 38 46 39 47 40 48 81 49 41 50 86 51 80 52 82 53 42 54
REMARK SMILES IDX 85 55 79 56 78 57 43 59 69 60 52 61 68 62 53 63 56 64 67 65
REMARK SMILES IDX 83 66 54 67 55 68 66 70 84 71 57 72 44 73 45 74 50 75 46 76
REMARK SMILES IDX 47 77 49 78 51 79 48 80 70 81 71 82 76 83 72 84 73 85 75 86
REMARK SMILES IDX 77 87 74 88 58 89 59 90 64 91 60 92 61 93 63 94 65 95 62 96
REMARK H PARENT 28 5 32 39 82 58 56 69
REMARK Flexibility Score: inf
ROOT
ATOM      1  C   UNL A   1      32.887  32.777  27.396  1.00  0.00     0.118 C 
ENDROOT
BRANCH   1   2
ATOM      2  N   UNL A   1      34.025  32.177  28.067  1.00  0.00    -0.352 N 
ATOM      3  C   UNL A   1      34.516  30.897  28.082  1.00  0.00     0.251 C 
ATOM      4  O   UNL A   1      35.538  30.690  28.736  1.00  0.00    -0.269 OA
ATOM      5  H   UNL A   1      34.542  32.809  28.617  1.00  0.00     0.163 HD
BRANCH   3   6
ATOM      6  C   UNL A   1      33.910  29.782  27.305  1.00  0.00     0.039 A 
ATOM      7  C   UNL A   1      32.629  27.623  26.007  1.00  0.00     0.060 A 
ATOM      8  C   UNL A   1      31.924  28.444  26.891  1.00  0.00     0.029 A 
ATOM      9  C   UNL A   1      33.958  27.938  25.725  1.00  0.00     0.029 A 
ATOM     10  C   UNL A   1      32.559  29.501  27.548  1.00  0.00     0.016 A 
ATOM     11  C   UNL A   1      34.582  29.029  26.340  1.00  0.00     0.016 A 
BRANCH   7  12
ATOM     12  N   UNL A   1      32.018  26.512  25.455  1.00  0.00    -0.257 N 
ATOM     13  C   UNL A   1      30.613  26.468  25.056  1.00  0.00     0.144 C 
ATOM     14  C   UNL A   1      30.444  25.012  24.603  1.00  0.00     0.091 C 
ATOM     15  C   UNL A   1      31.802  24.470  24.952  1.00  0.00     0.071 C 
ATOM     16  N   UNL A   1      32.656  25.321  25.427  1.00  0.00    -0.176 NA
BRANCH  13  17
ATOM     17  C   UNL A   1      30.314  27.478  23.960  1.00  0.00    -0.023 A 
ATOM     18  C   UNL A   1      29.739  29.400  21.981  1.00  0.00     0.118 A 
ATOM     19  C   UNL A   1      28.707  28.792  22.695  1.00  0.00     0.047 A 
ATOM     20  C   UNL A   1      31.062  29.075  22.274  1.00  0.00     0.047 A 
ATOM     21  C   UNL A   1      28.989  27.831  23.671  1.00  0.00     0.010 A 
ATOM     22  C   UNL A   1      31.346  28.120  23.255  1.00  0.00     0.010 A 
BRANCH  18  23
ATOM     23  O   UNL A   1      29.350  30.335  21.062  1.00  0.00    -0.497 OA
ATOM     24  C   UNL A   1      28.011  30.798  21.205  1.00  0.00     0.278 C 
ENDBRANCH  18  23
ENDBRANCH  13  17
BRANCH  15  25
ATOM     25  C   UNL A   1      32.115  23.047  24.794  1.00  0.00    -0.002 A 
ATOM     26  C   UNL A   1      31.934  22.459  23.538  1.00  0.00     0.011 A 
ATOM     27  C   UNL A   1      32.551  22.294  25.885  1.00  0.00     0.011 A 
ATOM     28  C   UNL A   1      32.203  21.103  23.365  1.00  0.00     0.021 A 
ATOM     29  C   UNL A   1      32.796  20.930  25.722  1.00  0.00     0.021 A 
ATOM     30  C   UNL A   1      32.616  20.342  24.465  1.00  0.00     0.067 A 
BRANCH  30  31
ATOM     31  S   UNL A   1      32.924  18.606  24.243  1.00  0.00     0.175 S 
ATOM     32  C   UNL A   1      32.395  18.283  22.579  1.00  0.00     0.163 C 
ATOM     33  O   UNL A   1      34.359  18.423  24.315  1.00  0.00    -0.224 OA
ATOM     34  O   UNL A   1      32.031  17.886  25.133  1.00  0.00    -0.224 OA
ENDBRANCH  30  31
ENDBRANCH  15  25
ENDBRANCH   7  12
ENDBRANCH   3   6
ENDBRANCH   1   2
BRANCH   1  35
ATOM     35  C   UNL A   1      32.563  34.144  27.996  1.00  0.00     0.042 C 
BRANCH  35  36
ATOM     36  C   UNL A   1      33.498  34.531  29.136  1.00  0.00     0.118 C 
BRANCH  36  37
ATOM     37  N   UNL A   1      32.778  35.140  30.246  1.00  0.00    -0.352 N 
ATOM     38  C   UNL A   1      33.033  35.063  31.593  1.00  0.00     0.251 C 
ATOM     39  H   UNL A   1      31.998  35.683  29.995  1.00  0.00     0.163 HD
ATOM     40  O   UNL A   1      32.197  35.458  32.400  1.00  0.00    -0.269 OA
BRANCH  38  41
ATOM     41  C   UNL A   1      34.309  34.493  32.073  1.00  0.00     0.039 A 
ATOM     42  C   UNL A   1      34.308  33.224  32.660  1.00  0.00     0.014 A 
ATOM     43  C   UNL A   1      35.499  35.217  31.965  1.00  0.00     0.014 A 
ATOM     44  C   UNL A   1      35.513  32.653  33.082  1.00  0.00     0.010 A 
ATOM     45  C   UNL A   1      36.704  34.624  32.327  1.00  0.00     0.010 A 
ATOM     46  C   UNL A   1      36.723  33.337  32.889  1.00  0.00    -0.014 A 
BRANCH  46  47
ATOM     47  C   UNL A   1      38.030  32.746  33.270  1.00  0.00     0.031 A 
ATOM     48  C   UNL A   1      38.636  31.668  32.414  1.00  0.00     0.074 A 
ATOM     49  C   UNL A   1      38.611  33.097  34.434  1.00  0.00     0.049 A 
ATOM     50  N   UNL A   1      39.663  30.896  32.660  1.00  0.00    -0.248 NA
ATOM     51  C   UNL A   1      37.980  31.404  31.123  1.00  0.00     0.031 C 
ATOM     52  C   UNL A   1      38.108  34.111  35.362  1.00  0.00     0.029 A 
ATOM     53  N   UNL A   1      39.740  32.614  35.050  1.00  0.00    -0.354 N 
ATOM     54  C   UNL A   1      39.751  30.031  31.577  1.00  0.00     0.074 A 
ATOM     55  C   UNL A   1      38.662  30.357  30.682  1.00  0.00     0.031 C 
ATOM     56  C   UNL A   1      38.924  34.175  36.427  1.00  0.00     0.029 A 
ATOM     57  C   UNL A   1      39.977  33.176  36.281  1.00  0.00     0.049 A 
ATOM     58  H   UNL A   1      40.323  31.930  34.647  1.00  0.00     0.167 HD
ATOM     59  C   UNL A   1      40.665  29.058  31.347  1.00  0.00     0.037 A 
ATOM     60  C   UNL A   1      40.923  32.896  37.198  1.00  0.00     0.037 A 
ATOM     61  C   UNL A   1      41.775  28.773  32.216  1.00  0.00     0.049 A 
ATOM     62  C   UNL A   1      41.923  31.808  36.917  1.00  0.00     0.074 A 
ATOM     63  C   UNL A   1      42.804  27.867  32.027  1.00  0.00     0.029 A 
ATOM     64  N   UNL A   1      42.001  29.390  33.435  1.00  0.00    -0.354 N 
ATOM     65  N   UNL A   1      42.032  31.041  35.860  1.00  0.00    -0.248 NA
ATOM     66  C   UNL A   1      42.927  31.542  37.958  1.00  0.00     0.031 C 
ATOM     67  C   UNL A   1      43.631  27.906  33.152  1.00  0.00     0.029 A 
ATOM     68  C   UNL A   1      43.142  28.868  34.021  1.00  0.00     0.049 A 
ATOM     69  H   UNL A   1      41.436  30.095  33.827  1.00  0.00     0.167 HD
ATOM     70  C   UNL A   1      43.139  30.232  36.090  1.00  0.00     0.074 A 
ATOM     71  C   UNL A   1      43.667  30.601  37.387  1.00  0.00     0.031 C 
ATOM     72  C   UNL A   1      43.671  29.272  35.297  1.00  0.00     0.037 A 
BRANCH  59  73
ATOM     73  C   UNL A   1      40.508  28.225  30.110  1.00  0.00     0.057 A 
ATOM     74  C   UNL A   1      41.329  28.400  28.990  1.00  0.00     0.134 A 
ATOM     75  C   UNL A   1      39.564  27.191  30.066  1.00  0.00     0.134 A 
ATOM     76  F   UNL A   1      42.245  29.379  28.965  1.00  0.00    -0.206 F 
ATOM     77  C   UNL A   1      41.206  27.585  27.863  1.00  0.00     0.040 A 
ATOM     78  C   UNL A   1      39.448  26.354  28.955  1.00  0.00     0.040 A 
ATOM     79  F   UNL A   1      38.750  26.967  31.110  1.00  0.00    -0.206 F 
ATOM     80  C   UNL A   1      40.270  26.553  27.848  1.00  0.00     0.006 A 
ENDBRANCH  59  73
BRANCH  60  81
ATOM     81  C   UNL A   1      40.979  33.654  38.474  1.00  0.00     0.057 A 
ATOM     82  C   UNL A   1      41.903  34.690  38.655  1.00  0.00     0.134 A 
ATOM     83  C   UNL A   1      40.140  33.343  39.551  1.00  0.00     0.134 A 
ATOM     84  F   UNL A   1      42.746  35.020  37.666  1.00  0.00    -0.206 F 
ATOM     85  C   UNL A   1      42.010  35.372  39.868  1.00  0.00     0.040 A 
ATOM     86  C   UNL A   1      40.219  34.034  40.763  1.00  0.00     0.040 A 
ATOM     87  F   UNL A   1      39.230  32.365  39.441  1.00  0.00    -0.206 F 
ATOM     88  C   UNL A   1      41.164  35.046  40.926  1.00  0.00     0.006 A 
ENDBRANCH  60  81
BRANCH  72  89
ATOM     89  C   UNL A   1      44.919  28.593  35.775  1.00  0.00     0.057 A 
ATOM     90  C   UNL A   1      46.190  29.118  35.519  1.00  0.00     0.134 A 
ATOM     91  C   UNL A   1      44.838  27.436  36.560  1.00  0.00     0.134 A 
ATOM     92  F   UNL A   1      46.334  30.216  34.763  1.00  0.00    -0.206 F 
ATOM     93  C   UNL A   1      47.342  28.509  36.021  1.00  0.00     0.040 A 
ATOM     94  C   UNL A   1      45.979  26.831  37.086  1.00  0.00     0.040 A 
ATOM     95  F   UNL A   1      43.647  26.889  36.847  1.00  0.00    -0.206 F 
ATOM     96  C   UNL A   1      47.237  27.367  36.814  1.00  0.00     0.006 A 
ENDBRANCH  72  89
ENDBRANCH  46  47
ENDBRANCH  38  41
ENDBRANCH  36  37
ENDBRANCH  35  36
ENDBRANCH   1  35
TORSDOF 15
ENDMDL
