MODEL 1
REMARK VINA RESULT:     -12.3      0.000      0.000
REMARK SMILES NS(=O)(=O)c1ccc(/N=N/c2ccc(O)c(C(=O)NCCCNC(=O)c3ccc(-c4c5nc(c(-c6c(F)cccc6F)c6ccc([nH]6)c(-c6c(F)cccc6F)c6nc(c(-c7c(F)cccc7F)c7ccc4[nH]7)C=C6)C=C5)cc3)c2)cc1
REMARK SMILES IDX 20 1 19 2 17 3 18 4 16 6 11 7 12 8 80 9 13 10 14 11 10 12
REMARK SMILES IDX 9 13 8 14 5 15 6 16 82 17 7 18 81 19 2 20 3 21 4 22 1 23
REMARK SMILES IDX 15 26 21 28 22 29 23 30 24 31 25 33 26 34 27 35 79 36 28 37
REMARK SMILES IDX 78 38 29 39 30 40 31 41 72 42 32 43 77 44 71 45 73 46 33 47
REMARK SMILES IDX 76 48 70 49 69 50 34 52 60 53 43 54 59 55 44 56 47 57 58 58
REMARK SMILES IDX 74 59 45 60 46 61 57 63 75 64 48 65 35 66 36 67 41 68 37 69
REMARK SMILES IDX 38 70 40 71 42 72 39 73 61 74 62 75 67 76 63 77 64 78 66 79
REMARK SMILES IDX 68 80 65 81 49 82 50 83 55 84 51 85 52 86 54 87 56 88 53 89
REMARK H PARENT 19 5 1 24 1 25 15 27 23 32 73 51 47 62
REMARK Flexibility Score: inf
ROOT
ATOM      1  C   UNL A   1      37.237  21.273  24.554  1.00  0.00     0.118 C 
ENDROOT
BRANCH   1   2
ATOM      2  N   UNL A   1      37.676  22.469  25.268  1.00  0.00    -0.352 N 
ATOM      3  C   UNL A   1      37.003  23.528  25.833  1.00  0.00     0.255 C 
ATOM      4  O   UNL A   1      37.669  24.440  26.330  1.00  0.00    -0.269 OA
ATOM      5  H   UNL A   1      38.654  22.529  25.365  1.00  0.00     0.163 HD
BRANCH   3   6
ATOM      6  C   UNL A   1      35.525  23.678  25.813  1.00  0.00     0.083 A 
ATOM      7  C   UNL A   1      33.545  24.996  25.244  1.00  0.00     0.087 A 
ATOM      8  C   UNL A   1      32.778  24.186  26.083  1.00  0.00     0.034 A 
ATOM      9  C   UNL A   1      34.888  24.640  25.033  1.00  0.00     0.048 A 
ATOM     10  C   UNL A   1      33.356  23.085  26.727  1.00  0.00     0.049 A 
ATOM     11  C   UNL A   1      34.726  22.850  26.611  1.00  0.00     0.128 A 
BRANCH   7  12
ATOM     12  N   UNL A   1      32.985  26.173  24.678  1.00  0.00    -0.151 NA
ATOM     13  N   UNL A   1      31.749  26.189  24.882  1.00  0.00    -0.151 NA
BRANCH  13  14
ATOM     14  C   UNL A   1      31.054  27.236  24.261  1.00  0.00     0.086 A 
ATOM     15  C   UNL A   1      29.505  29.402  23.382  1.00  0.00     0.082 A 
ATOM     16  C   UNL A   1      30.648  29.636  24.149  1.00  0.00     0.024 A 
ATOM     17  C   UNL A   1      29.126  28.097  23.052  1.00  0.00     0.024 A 
ATOM     18  C   UNL A   1      31.415  28.552  24.583  1.00  0.00     0.031 A 
ATOM     19  C   UNL A   1      29.904  27.019  23.492  1.00  0.00     0.031 A 
BRANCH  15  20
ATOM     20  S   UNL A   1      28.480  30.767  22.912  1.00  0.00     0.238 S 
ATOM     21  O   UNL A   1      27.207  30.655  23.589  1.00  0.00    -0.207 OA
ATOM     22  O   UNL A   1      28.583  30.973  21.489  1.00  0.00    -0.207 OA
BRANCH  20  23
ATOM     23  N   UNL A   1      29.275  32.057  23.631  1.00  0.00    -0.225 NA
ATOM     24  H   UNL A   1      28.590  32.742  23.952  1.00  0.00     0.137 HD
ATOM     25  H   UNL A   1      29.899  32.492  22.953  1.00  0.00     0.137 HD
ENDBRANCH  20  23
ENDBRANCH  15  20
ENDBRANCH  13  14
ENDBRANCH   7  12
BRANCH  11  26
ATOM     26  O   UNL A   1      35.222  21.780  27.309  1.00  0.00    -0.507 OA
ATOM     27  H   UNL A   1      36.145  21.699  27.449  1.00  0.00     0.293 HD
ENDBRANCH  11  26
ENDBRANCH   3   6
ENDBRANCH   1   2
BRANCH   1  28
ATOM     28  C   UNL A   1      38.009  20.015  24.915  1.00  0.00     0.042 C 
BRANCH  28  29
ATOM     29  C   UNL A   1      39.039  20.199  26.014  1.00  0.00     0.118 C 
BRANCH  29  30
ATOM     30  N   UNL A   1      40.114  19.215  25.955  1.00  0.00    -0.352 N 
ATOM     31  C   UNL A   1      41.478  19.365  26.036  1.00  0.00     0.251 C 
ATOM     32  H   UNL A   1      39.812  18.286  25.838  1.00  0.00     0.163 HD
ATOM     33  O   UNL A   1      42.209  18.422  25.746  1.00  0.00    -0.269 OA
BRANCH  31  34
ATOM     34  C   UNL A   1      42.073  20.655  26.450  1.00  0.00     0.039 A 
ATOM     35  C   UNL A   1      42.504  21.556  25.473  1.00  0.00     0.014 A 
ATOM     36  C   UNL A   1      42.227  20.972  27.800  1.00  0.00     0.014 A 
ATOM     37  C   UNL A   1      43.008  22.803  25.852  1.00  0.00     0.010 A 
ATOM     38  C   UNL A   1      42.617  22.252  28.173  1.00  0.00     0.010 A 
ATOM     39  C   UNL A   1      43.023  23.180  27.205  1.00  0.00    -0.014 A 
BRANCH  39  40
ATOM     40  C   UNL A   1      43.472  24.527  27.639  1.00  0.00     0.031 A 
ATOM     41  C   UNL A   1      42.457  25.570  28.026  1.00  0.00     0.074 A 
ATOM     42  C   UNL A   1      44.783  24.839  27.605  1.00  0.00     0.049 A 
ATOM     43  N   UNL A   1      42.637  26.830  28.327  1.00  0.00    -0.248 NA
ATOM     44  C   UNL A   1      41.045  25.148  28.044  1.00  0.00     0.031 C 
ATOM     45  C   UNL A   1      45.861  23.933  27.201  1.00  0.00     0.029 A 
ATOM     46  N   UNL A   1      45.432  26.012  27.902  1.00  0.00    -0.354 N 
ATOM     47  C   UNL A   1      41.368  27.351  28.549  1.00  0.00     0.074 A 
ATOM     48  C   UNL A   1      40.422  26.290  28.290  1.00  0.00     0.031 C 
ATOM     49  C   UNL A   1      47.036  24.575  27.298  1.00  0.00     0.029 A 
ATOM     50  C   UNL A   1      46.794  25.950  27.722  1.00  0.00     0.049 A 
ATOM     51  H   UNL A   1      44.967  26.821  28.213  1.00  0.00     0.167 HD
ATOM     52  C   UNL A   1      41.024  28.594  28.958  1.00  0.00     0.037 A 
ATOM     53  C   UNL A   1      47.738  26.899  27.868  1.00  0.00     0.037 A 
ATOM     54  C   UNL A   1      41.972  29.639  29.244  1.00  0.00     0.049 A 
ATOM     55  C   UNL A   1      47.326  28.278  28.309  1.00  0.00     0.074 A 
ATOM     56  C   UNL A   1      41.729  30.913  29.725  1.00  0.00     0.029 A 
ATOM     57  N   UNL A   1      43.343  29.529  29.071  1.00  0.00    -0.354 N 
ATOM     58  N   UNL A   1      46.128  28.735  28.586  1.00  0.00    -0.248 NA
ATOM     59  C   UNL A   1      48.396  29.272  28.464  1.00  0.00     0.031 C 
ATOM     60  C   UNL A   1      42.948  31.593  29.788  1.00  0.00     0.029 A 
ATOM     61  C   UNL A   1      43.957  30.723  29.410  1.00  0.00     0.049 A 
ATOM     62  H   UNL A   1      43.811  28.722  28.755  1.00  0.00     0.167 HD
ATOM     63  C   UNL A   1      46.306  30.054  28.982  1.00  0.00     0.074 A 
ATOM     64  C   UNL A   1      47.728  30.320  28.923  1.00  0.00     0.031 C 
ATOM     65  C   UNL A   1      45.376  30.965  29.361  1.00  0.00     0.037 A 
BRANCH  52  66
ATOM     66  C   UNL A   1      39.562  28.895  29.129  1.00  0.00     0.057 A 
ATOM     67  C   UNL A   1      38.766  29.334  28.063  1.00  0.00     0.134 A 
ATOM     68  C   UNL A   1      38.931  28.695  30.365  1.00  0.00     0.134 A 
ATOM     69  F   UNL A   1      39.307  29.558  26.856  1.00  0.00    -0.206 F 
ATOM     70  C   UNL A   1      37.402  29.586  28.225  1.00  0.00     0.040 A 
ATOM     71  C   UNL A   1      37.562  28.913  30.530  1.00  0.00     0.040 A 
ATOM     72  F   UNL A   1      39.631  28.271  31.427  1.00  0.00    -0.206 F 
ATOM     73  C   UNL A   1      36.795  29.366  29.459  1.00  0.00     0.006 A 
ENDBRANCH  52  66
BRANCH  53  74
ATOM     74  C   UNL A   1      49.167  26.585  27.601  1.00  0.00     0.057 A 
ATOM     75  C   UNL A   1      49.730  26.794  26.336  1.00  0.00     0.134 A 
ATOM     76  C   UNL A   1      49.995  26.044  28.592  1.00  0.00     0.134 A 
ATOM     77  F   UNL A   1      48.985  27.293  25.339  1.00  0.00    -0.206 F 
ATOM     78  C   UNL A   1      51.053  26.446  26.057  1.00  0.00     0.040 A 
ATOM     79  C   UNL A   1      51.328  25.721  28.335  1.00  0.00     0.040 A 
ATOM     80  F   UNL A   1      49.522  25.829  29.828  1.00  0.00    -0.206 F 
ATOM     81  C   UNL A   1      51.858  25.911  27.060  1.00  0.00     0.006 A 
ENDBRANCH  53  74
BRANCH  65  82
ATOM     82  C   UNL A   1      45.868  32.317  29.790  1.00  0.00     0.057 A 
ATOM     83  C   UNL A   1      45.943  33.398  28.904  1.00  0.00     0.134 A 
ATOM     84  C   UNL A   1      46.225  32.549  31.126  1.00  0.00     0.134 A 
ATOM     85  F   UNL A   1      45.627  33.241  27.609  1.00  0.00    -0.206 F 
ATOM     86  C   UNL A   1      46.379  34.656  29.324  1.00  0.00     0.040 A 
ATOM     87  C   UNL A   1      46.630  33.810  31.564  1.00  0.00     0.040 A 
ATOM     88  F   UNL A   1      46.164  31.560  32.030  1.00  0.00    -0.206 F 
ATOM     89  C   UNL A   1      46.715  34.866  30.660  1.00  0.00     0.006 A 
ENDBRANCH  65  82
ENDBRANCH  39  40
ENDBRANCH  31  34
ENDBRANCH  29  30
ENDBRANCH  28  29
ENDBRANCH   1  28
TORSDOF 15
ENDMDL
MODEL 2
REMARK VINA RESULT:     -12.2      1.248      6.334
REMARK SMILES NS(=O)(=O)c1ccc(/N=N/c2ccc(O)c(C(=O)NCCCNC(=O)c3ccc(-c4c5nc(c(-c6c(F)cccc6F)c6ccc([nH]6)c(-c6c(F)cccc6F)c6nc(c(-c7c(F)cccc7F)c7ccc4[nH]7)C=C6)C=C5)cc3)c2)cc1
REMARK SMILES IDX 20 1 19 2 17 3 18 4 16 6 11 7 12 8 80 9 13 10 14 11 10 12
REMARK SMILES IDX 9 13 8 14 5 15 6 16 82 17 7 18 81 19 2 20 3 21 4 22 1 23
REMARK SMILES IDX 15 26 21 28 22 29 23 30 24 31 25 33 26 34 27 35 79 36 28 37
REMARK SMILES IDX 78 38 29 39 30 40 31 41 72 42 32 43 77 44 71 45 73 46 33 47
REMARK SMILES IDX 76 48 70 49 69 50 34 52 60 53 43 54 59 55 44 56 47 57 58 58
REMARK SMILES IDX 74 59 45 60 46 61 57 63 75 64 48 65 35 66 36 67 41 68 37 69
REMARK SMILES IDX 38 70 40 71 42 72 39 73 61 74 62 75 67 76 63 77 64 78 66 79
REMARK SMILES IDX 68 80 65 81 49 82 50 83 55 84 51 85 52 86 54 87 56 88 53 89
REMARK H PARENT 19 5 1 24 1 25 15 27 23 32 73 51 47 62
REMARK Flexibility Score: inf
ROOT
ATOM      1  C   UNL A   1      37.235  21.092  24.552  1.00  0.00     0.118 C 
ENDROOT
BRANCH   1   2
ATOM      2  N   UNL A   1      37.673  22.331  25.188  1.00  0.00    -0.352 N 
ATOM      3  C   UNL A   1      37.000  23.427  25.678  1.00  0.00     0.255 C 
ATOM      4  O   UNL A   1      37.666  24.368  26.118  1.00  0.00    -0.269 OA
ATOM      5  H   UNL A   1      38.651  22.394  25.288  1.00  0.00     0.163 HD
BRANCH   3   6
ATOM      6  C   UNL A   1      35.523  23.580  25.638  1.00  0.00     0.083 A 
ATOM      7  C   UNL A   1      33.551  24.845  24.938  1.00  0.00     0.087 A 
ATOM      8  C   UNL A   1      32.777  24.121  25.848  1.00  0.00     0.034 A 
ATOM      9  C   UNL A   1      34.893  24.466  24.768  1.00  0.00     0.048 A 
ATOM     10  C   UNL A   1      33.348  23.085  26.596  1.00  0.00     0.049 A 
ATOM     11  C   UNL A   1      34.718  22.835  26.508  1.00  0.00     0.128 A 
BRANCH   7  12
ATOM     12  N   UNL A   1      32.997  25.965  24.260  1.00  0.00    -0.151 NA
ATOM     13  N   UNL A   1      32.000  26.386  24.892  1.00  0.00    -0.151 NA
BRANCH  13  14
ATOM     14  C   UNL A   1      31.282  27.411  24.260  1.00  0.00     0.086 A 
ATOM     15  C   UNL A   1      29.623  29.472  23.332  1.00  0.00     0.082 A 
ATOM     16  C   UNL A   1      30.587  29.746  24.305  1.00  0.00     0.024 A 
ATOM     17  C   UNL A   1      29.478  28.180  22.820  1.00  0.00     0.024 A 
ATOM     18  C   UNL A   1      31.411  28.714  24.762  1.00  0.00     0.031 A 
ATOM     19  C   UNL A   1      30.310  27.154  23.285  1.00  0.00     0.031 A 
BRANCH  15  20
ATOM     20  S   UNL A   1      28.517  30.756  22.821  1.00  0.00     0.238 S 
ATOM     21  O   UNL A   1      27.330  30.711  23.646  1.00  0.00    -0.207 OA
ATOM     22  O   UNL A   1      28.457  30.789  21.381  1.00  0.00    -0.207 OA
BRANCH  20  23
ATOM     23  N   UNL A   1      29.352  32.135  23.287  1.00  0.00    -0.225 NA
ATOM     24  H   UNL A   1      29.357  32.201  24.305  1.00  0.00     0.137 HD
ATOM     25  H   UNL A   1      28.895  32.957  22.895  1.00  0.00     0.137 HD
ENDBRANCH  20  23
ENDBRANCH  15  20
ENDBRANCH  13  14
ENDBRANCH   7  12
BRANCH  11  26
ATOM     26  O   UNL A   1      35.207  21.834  27.307  1.00  0.00    -0.507 OA
ATOM     27  H   UNL A   1      34.821  21.675  28.146  1.00  0.00     0.293 HD
ENDBRANCH  11  26
ENDBRANCH   3   6
ENDBRANCH   1   2
BRANCH   1  28
ATOM     28  C   UNL A   1      38.100  19.886  24.876  1.00  0.00     0.042 C 
BRANCH  28  29
ATOM     29  C   UNL A   1      39.084  20.101  26.012  1.00  0.00     0.118 C 
BRANCH  29  30
ATOM     30  N   UNL A   1      40.283  19.280  25.887  1.00  0.00    -0.352 N 
ATOM     31  C   UNL A   1      41.614  19.608  25.993  1.00  0.00     0.251 C 
ATOM     32  H   UNL A   1      40.110  18.331  25.694  1.00  0.00     0.163 HD
ATOM     33  O   UNL A   1      42.466  18.798  25.638  1.00  0.00    -0.269 OA
BRANCH  31  34
ATOM     34  C   UNL A   1      42.028  20.929  26.512  1.00  0.00     0.039 A 
ATOM     35  C   UNL A   1      42.444  21.918  25.616  1.00  0.00     0.014 A 
ATOM     36  C   UNL A   1      42.027  21.193  27.882  1.00  0.00     0.014 A 
ATOM     37  C   UNL A   1      42.775  23.190  26.090  1.00  0.00     0.010 A 
ATOM     38  C   UNL A   1      42.243  22.486  28.341  1.00  0.00     0.010 A 
ATOM     39  C   UNL A   1      42.630  23.499  27.453  1.00  0.00    -0.014 A 
BRANCH  39  40
ATOM     40  C   UNL A   1      42.892  24.861  27.981  1.00  0.00     0.031 A 
ATOM     41  C   UNL A   1      44.277  25.241  28.432  1.00  0.00     0.074 A 
ATOM     42  C   UNL A   1      41.869  25.727  28.134  1.00  0.00     0.049 A 
ATOM     43  N   UNL A   1      44.687  26.335  29.020  1.00  0.00    -0.248 NA
ATOM     44  C   UNL A   1      45.340  24.241  28.226  1.00  0.00     0.031 C 
ATOM     45  C   UNL A   1      40.473  25.462  27.781  1.00  0.00     0.029 A 
ATOM     46  N   UNL A   1      41.845  27.003  28.639  1.00  0.00    -0.354 N 
ATOM     47  C   UNL A   1      46.041  26.147  29.270  1.00  0.00     0.074 A 
ATOM     48  C   UNL A   1      46.372  24.812  28.826  1.00  0.00     0.031 C 
ATOM     49  C   UNL A   1      39.734  26.549  28.059  1.00  0.00     0.029 A 
ATOM     50  C   UNL A   1      40.591  27.568  28.653  1.00  0.00     0.049 A 
ATOM     51  H   UNL A   1      42.650  27.470  28.962  1.00  0.00     0.167 HD
ATOM     52  C   UNL A   1      46.933  27.018  29.795  1.00  0.00     0.037 A 
ATOM     53  C   UNL A   1      40.179  28.766  29.110  1.00  0.00     0.037 A 
ATOM     54  C   UNL A   1      46.603  28.357  30.208  1.00  0.00     0.049 A 
ATOM     55  C   UNL A   1      41.190  29.710  29.704  1.00  0.00     0.074 A 
ATOM     56  C   UNL A   1      47.446  29.340  30.695  1.00  0.00     0.029 A 
ATOM     57  N   UNL A   1      45.327  28.898  30.185  1.00  0.00    -0.354 N 
ATOM     58  N   UNL A   1      42.480  29.545  29.866  1.00  0.00    -0.248 NA
ATOM     59  C   UNL A   1      40.688  31.008  30.175  1.00  0.00     0.031 C 
ATOM     60  C   UNL A   1      46.672  30.456  31.020  1.00  0.00     0.029 A 
ATOM     61  C   UNL A   1      45.356  30.193  30.675  1.00  0.00     0.049 A 
ATOM     62  H   UNL A   1      44.520  28.432  29.867  1.00  0.00     0.167 HD
ATOM     63  C   UNL A   1      42.948  30.729  30.421  1.00  0.00     0.074 A 
ATOM     64  C   UNL A   1      41.806  31.608  30.555  1.00  0.00     0.031 C 
ATOM     65  C   UNL A   1      44.211  31.060  30.787  1.00  0.00     0.037 A 
BRANCH  52  66
ATOM     66  C   UNL A   1      48.354  26.557  29.950  1.00  0.00     0.057 A 
ATOM     67  C   UNL A   1      48.794  25.882  31.097  1.00  0.00     0.134 A 
ATOM     68  C   UNL A   1      49.282  26.745  28.917  1.00  0.00     0.134 A 
ATOM     69  F   UNL A   1      47.960  25.679  32.129  1.00  0.00    -0.206 F 
ATOM     70  C   UNL A   1      50.110  25.433  31.221  1.00  0.00     0.040 A 
ATOM     71  C   UNL A   1      50.592  26.272  29.017  1.00  0.00     0.040 A 
ATOM     72  F   UNL A   1      48.929  27.377  27.789  1.00  0.00    -0.206 F 
ATOM     73  C   UNL A   1      51.011  25.619  30.175  1.00  0.00     0.006 A 
ENDBRANCH  52  66
BRANCH  53  74
ATOM     74  C   UNL A   1      38.745  29.151  29.020  1.00  0.00     0.057 A 
ATOM     75  C   UNL A   1      37.894  29.035  30.127  1.00  0.00     0.134 A 
ATOM     76  C   UNL A   1      38.184  29.614  27.824  1.00  0.00     0.134 A 
ATOM     77  F   UNL A   1      38.366  28.580  31.297  1.00  0.00    -0.206 F 
ATOM     78  C   UNL A   1      36.534  29.334  30.039  1.00  0.00     0.040 A 
ATOM     79  C   UNL A   1      36.832  29.947  27.730  1.00  0.00     0.040 A 
ATOM     80  F   UNL A   1      38.945  29.759  26.730  1.00  0.00    -0.206 F 
ATOM     81  C   UNL A   1      35.999  29.796  28.838  1.00  0.00     0.006 A 
ENDBRANCH  53  74
BRANCH  65  82
ATOM     82  C   UNL A   1      44.436  32.445  31.319  1.00  0.00     0.057 A 
ATOM     83  C   UNL A   1      44.398  32.732  32.689  1.00  0.00     0.134 A 
ATOM     84  C   UNL A   1      44.742  33.499  30.446  1.00  0.00     0.134 A 
ATOM     85  F   UNL A   1      44.099  31.772  33.578  1.00  0.00    -0.206 F 
ATOM     86  C   UNL A   1      44.633  34.020  33.171  1.00  0.00     0.040 A 
ATOM     87  C   UNL A   1      45.012  34.783  30.919  1.00  0.00     0.040 A 
ATOM     88  F   UNL A   1      44.807  33.291  29.123  1.00  0.00    -0.206 F 
ATOM     89  C   UNL A   1      44.950  35.049  32.285  1.00  0.00     0.006 A 
ENDBRANCH  65  82
ENDBRANCH  39  40
ENDBRANCH  31  34
ENDBRANCH  29  30
ENDBRANCH  28  29
ENDBRANCH   1  28
TORSDOF 15
ENDMDL
MODEL 3
REMARK VINA RESULT:     -12.1      5.082     10.349
REMARK SMILES NS(=O)(=O)c1ccc(/N=N/c2ccc(O)c(C(=O)NCCCNC(=O)c3ccc(-c4c5nc(c(-c6c(F)cccc6F)c6ccc([nH]6)c(-c6c(F)cccc6F)c6nc(c(-c7c(F)cccc7F)c7ccc4[nH]7)C=C6)C=C5)cc3)c2)cc1
REMARK SMILES IDX 20 1 19 2 17 3 18 4 16 6 11 7 12 8 80 9 13 10 14 11 10 12
REMARK SMILES IDX 9 13 8 14 5 15 6 16 82 17 7 18 81 19 2 20 3 21 4 22 1 23
REMARK SMILES IDX 15 26 21 28 22 29 23 30 24 31 25 33 26 34 27 35 79 36 28 37
REMARK SMILES IDX 78 38 29 39 30 40 31 41 72 42 32 43 77 44 71 45 73 46 33 47
REMARK SMILES IDX 76 48 70 49 69 50 34 52 60 53 43 54 59 55 44 56 47 57 58 58
REMARK SMILES IDX 74 59 45 60 46 61 57 63 75 64 48 65 35 66 36 67 41 68 37 69
REMARK SMILES IDX 38 70 40 71 42 72 39 73 61 74 62 75 67 76 63 77 64 78 66 79
REMARK SMILES IDX 68 80 65 81 49 82 50 83 55 84 51 85 52 86 54 87 56 88 53 89
REMARK H PARENT 19 5 1 24 1 25 15 27 23 32 73 51 47 62
REMARK Flexibility Score: inf
ROOT
ATOM      1  C   UNL A   1      31.689  30.085  26.741  1.00  0.00     0.118 C 
ENDROOT
BRANCH   1   2
ATOM      2  N   UNL A   1      33.063  29.755  27.110  1.00  0.00    -0.352 N 
ATOM      3  C   UNL A   1      33.973  28.842  26.630  1.00  0.00     0.255 C 
ATOM      4  O   UNL A   1      35.065  28.756  27.199  1.00  0.00    -0.269 OA
ATOM      5  H   UNL A   1      33.407  30.298  27.856  1.00  0.00     0.163 HD
BRANCH   3   6
ATOM      6  C   UNL A   1      33.695  27.900  25.516  1.00  0.00     0.083 A 
ATOM      7  C   UNL A   1      33.563  25.607  24.674  1.00  0.00     0.087 A 
ATOM      8  C   UNL A   1      33.548  26.100  23.367  1.00  0.00     0.034 A 
ATOM      9  C   UNL A   1      33.511  26.535  25.727  1.00  0.00     0.048 A 
ATOM     10  C   UNL A   1      33.532  27.479  23.130  1.00  0.00     0.049 A 
ATOM     11  C   UNL A   1      33.629  28.370  24.199  1.00  0.00     0.128 A 
BRANCH   7  12
ATOM     12  N   UNL A   1      33.690  24.211  24.911  1.00  0.00    -0.151 NA
ATOM     13  N   UNL A   1      33.719  23.602  23.817  1.00  0.00    -0.151 NA
BRANCH  13  14
ATOM     14  C   UNL A   1      33.712  22.203  23.912  1.00  0.00     0.086 A 
ATOM     15  C   UNL A   1      33.367  19.451  24.326  1.00  0.00     0.082 A 
ATOM     16  C   UNL A   1      32.518  20.130  23.449  1.00  0.00     0.024 A 
ATOM     17  C   UNL A   1      34.384  20.133  25.000  1.00  0.00     0.024 A 
ATOM     18  C   UNL A   1      32.697  21.500  23.246  1.00  0.00     0.031 A 
ATOM     19  C   UNL A   1      34.554  21.507  24.789  1.00  0.00     0.031 A 
BRANCH  15  20
ATOM     20  S   UNL A   1      33.082  17.735  24.656  1.00  0.00     0.238 S 
ATOM     21  O   UNL A   1      32.903  17.038  23.402  1.00  0.00    -0.207 OA
ATOM     22  O   UNL A   1      32.153  17.608  25.751  1.00  0.00    -0.207 OA
BRANCH  20  23
ATOM     23  N   UNL A   1      34.573  17.247  25.249  1.00  0.00    -0.225 NA
ATOM     24  H   UNL A   1      34.857  17.867  26.008  1.00  0.00     0.137 HD
ATOM     25  H   UNL A   1      35.266  17.286  24.502  1.00  0.00     0.137 HD
ENDBRANCH  20  23
ENDBRANCH  15  20
ENDBRANCH  13  14
ENDBRANCH   7  12
BRANCH  11  26
ATOM     26  O   UNL A   1      33.653  29.703  23.879  1.00  0.00    -0.507 OA
ATOM     27  H   UNL A   1      32.980  30.273  24.197  1.00  0.00     0.293 HD
ENDBRANCH  11  26
ENDBRANCH   3   6
ENDBRANCH   1   2
BRANCH   1  28
ATOM     28  C   UNL A   1      31.345  31.559  26.878  1.00  0.00     0.042 C 
BRANCH  28  29
ATOM     29  C   UNL A   1      32.490  32.506  26.570  1.00  0.00     0.118 C 
BRANCH  29  30
ATOM     30  N   UNL A   1      32.363  33.790  27.251  1.00  0.00    -0.352 N 
ATOM     31  C   UNL A   1      33.030  34.303  28.338  1.00  0.00     0.251 C 
ATOM     32  H   UNL A   1      31.685  34.391  26.867  1.00  0.00     0.163 HD
ATOM     33  O   UNL A   1      32.612  35.323  28.878  1.00  0.00    -0.269 OA
BRANCH  31  34
ATOM     34  C   UNL A   1      34.232  33.628  28.874  1.00  0.00     0.039 A 
ATOM     35  C   UNL A   1      35.484  34.227  28.711  1.00  0.00     0.014 A 
ATOM     36  C   UNL A   1      34.133  32.396  29.521  1.00  0.00     0.014 A 
ATOM     37  C   UNL A   1      36.618  33.630  29.269  1.00  0.00     0.010 A 
ATOM     38  C   UNL A   1      35.238  31.864  30.174  1.00  0.00     0.010 A 
ATOM     39  C   UNL A   1      36.496  32.467  30.047  1.00  0.00    -0.014 A 
BRANCH  39  40
ATOM     40  C   UNL A   1      37.665  31.852  30.726  1.00  0.00     0.031 A 
ATOM     41  C   UNL A   1      38.460  30.779  30.030  1.00  0.00     0.074 A 
ATOM     42  C   UNL A   1      37.958  32.196  31.997  1.00  0.00     0.049 A 
ATOM     43  N   UNL A   1      39.440  30.045  30.489  1.00  0.00    -0.248 NA
ATOM     44  C   UNL A   1      38.080  30.466  28.642  1.00  0.00     0.031 C 
ATOM     45  C   UNL A   1      37.234  33.184  32.797  1.00  0.00     0.029 A 
ATOM     46  N   UNL A   1      38.938  31.739  32.843  1.00  0.00    -0.354 N 
ATOM     47  C   UNL A   1      39.777  29.176  29.459  1.00  0.00     0.074 A 
ATOM     48  C   UNL A   1      38.859  29.430  28.372  1.00  0.00     0.031 C 
ATOM     49  C   UNL A   1      37.807  33.278  34.008  1.00  0.00     0.029 A 
ATOM     50  C   UNL A   1      38.906  32.322  34.088  1.00  0.00     0.049 A 
ATOM     51  H   UNL A   1      39.600  31.058  32.584  1.00  0.00     0.167 HD
ATOM     52  C   UNL A   1      40.778  28.267  29.412  1.00  0.00     0.037 A 
ATOM     53  C   UNL A   1      39.668  32.098  35.177  1.00  0.00     0.037 A 
ATOM     54  C   UNL A   1      41.709  28.038  30.486  1.00  0.00     0.049 A 
ATOM     55  C   UNL A   1      40.765  31.070  35.102  1.00  0.00     0.074 A 
ATOM     56  C   UNL A   1      42.797  27.185  30.515  1.00  0.00     0.029 A 
ATOM     57  N   UNL A   1      41.656  28.665  31.722  1.00  0.00    -0.354 N 
ATOM     58  N   UNL A   1      41.117  30.308  34.095  1.00  0.00    -0.248 NA
ATOM     59  C   UNL A   1      41.573  30.875  36.313  1.00  0.00     0.031 C 
ATOM     60  C   UNL A   1      43.369  27.253  31.788  1.00  0.00     0.029 A 
ATOM     61  C   UNL A   1      42.678  28.196  32.530  1.00  0.00     0.049 A 
ATOM     62  H   UNL A   1      40.992  29.343  31.985  1.00  0.00     0.167 HD
ATOM     63  C   UNL A   1      42.209  29.572  34.540  1.00  0.00     0.074 A 
ATOM     64  C   UNL A   1      42.468  29.990  35.901  1.00  0.00     0.031 C 
ATOM     65  C   UNL A   1      42.932  28.635  33.879  1.00  0.00     0.037 A 
BRANCH  52  66
ATOM     66  C   UNL A   1      40.927  27.453  28.158  1.00  0.00     0.057 A 
ATOM     67  C   UNL A   1      40.238  26.247  27.970  1.00  0.00     0.134 A 
ATOM     68  C   UNL A   1      41.732  27.906  27.104  1.00  0.00     0.134 A 
ATOM     69  F   UNL A   1      39.460  25.749  28.944  1.00  0.00    -0.206 F 
ATOM     70  C   UNL A   1      40.362  25.511  26.790  1.00  0.00     0.040 A 
ATOM     71  C   UNL A   1      41.838  27.195  25.908  1.00  0.00     0.040 A 
ATOM     72  F   UNL A   1      42.416  29.054  27.213  1.00  0.00    -0.206 F 
ATOM     73  C   UNL A   1      41.156  25.990  25.751  1.00  0.00     0.006 A 
ENDBRANCH  52  66
BRANCH  53  74
ATOM     74  C   UNL A   1      39.430  32.862  36.430  1.00  0.00     0.057 A 
ATOM     75  C   UNL A   1      38.484  32.435  37.370  1.00  0.00     0.134 A 
ATOM     76  C   UNL A   1      40.118  34.050  36.706  1.00  0.00     0.134 A 
ATOM     77  F   UNL A   1      37.778  31.315  37.156  1.00  0.00    -0.206 F 
ATOM     78  C   UNL A   1      38.207  33.176  38.520  1.00  0.00     0.040 A 
ATOM     79  C   UNL A   1      39.875  34.784  37.868  1.00  0.00     0.040 A 
ATOM     80  F   UNL A   1      41.045  34.510  35.853  1.00  0.00    -0.206 F 
ATOM     81  C   UNL A   1      38.907  34.353  38.774  1.00  0.00     0.006 A 
ENDBRANCH  53  74
BRANCH  65  82
ATOM     82  C   UNL A   1      44.103  28.032  34.599  1.00  0.00     0.057 A 
ATOM     83  C   UNL A   1      45.374  28.620  34.577  1.00  0.00     0.134 A 
ATOM     84  C   UNL A   1      43.942  26.870  35.366  1.00  0.00     0.134 A 
ATOM     85  F   UNL A   1      45.599  29.727  33.853  1.00  0.00    -0.206 F 
ATOM     86  C   UNL A   1      46.448  28.061  35.271  1.00  0.00     0.040 A 
ATOM     87  C   UNL A   1      45.000  26.321  36.091  1.00  0.00     0.040 A 
ATOM     88  F   UNL A   1      42.748  26.263  35.441  1.00  0.00    -0.206 F 
ATOM     89  C   UNL A   1      46.259  26.913  36.038  1.00  0.00     0.006 A 
ENDBRANCH  65  82
ENDBRANCH  39  40
ENDBRANCH  31  34
ENDBRANCH  29  30
ENDBRANCH  28  29
ENDBRANCH   1  28
TORSDOF 15
ENDMDL
