MODEL 1
REMARK VINA RESULT:     -12.0      0.000      0.000
REMARK SMILES CSCC[C@H](NC(=O)Cc1c(C)c2ccc(O)cc2oc1=O)C(=O)NCCCNC(=O)c1ccc(-c2c3nc(c(-c4c(F)cccc4F)c4ccc([nH]4)c(-c4c(F)cccc4F)c4nc(c(-c5c(F)cccc5F)c5ccc2[nH]5)C=C4)C=C3)cc1
REMARK SMILES IDX 26 1 25 2 23 3 24 4 5 6 4 7 3 8 2 9 1 10 6 11 7 12 8 14 9 15
REMARK SMILES IDX 10 16 11 17 21 18 12 19 13 20 20 21 22 22 14 23 19 24 15 25
REMARK SMILES IDX 18 26 16 27 17 28 27 30 28 31 29 32 30 33 31 35 32 36 33 37
REMARK SMILES IDX 85 38 34 39 84 40 35 41 36 42 37 43 78 44 38 45 83 46 77 47
REMARK SMILES IDX 79 48 39 49 82 50 76 51 75 52 40 54 66 55 49 56 65 57 50 58
REMARK SMILES IDX 53 59 64 60 80 61 51 62 52 63 63 65 81 66 54 67 41 68 42 69
REMARK SMILES IDX 47 70 43 71 44 72 46 73 48 74 45 75 67 76 68 77 73 78 69 79
REMARK SMILES IDX 70 80 72 81 74 82 71 83 55 84 56 85 61 86 57 87 58 88 60 89
REMARK SMILES IDX 62 90 59 91
REMARK H PARENT 25 5 6 13 17 29 29 34 79 53 53 64
REMARK Flexibility Score: inf
ROOT
ATOM      1  C   UNL A   1      31.750  30.823  25.985  1.00  0.00     0.117 C 
ENDROOT
BRANCH   1   2
ATOM      2  N   UNL A   1      30.793  30.693  24.896  1.00  0.00    -0.354 N 
ATOM      3  C   UNL A   1      30.613  29.688  23.991  1.00  0.00     0.242 C 
ATOM      4  O   UNL A   1      29.682  29.801  23.191  1.00  0.00    -0.273 OA
ATOM      5  H   UNL A   1      30.176  31.453  24.798  1.00  0.00     0.163 HD
BRANCH   3   6
ATOM      6  C   UNL A   1      31.537  28.458  23.977  1.00  0.00     0.172 C 
BRANCH   6   7
ATOM      7  C   UNL A   1      32.675  28.556  22.946  1.00  0.00     0.046 C 
BRANCH   7   8
ATOM      8  C   UNL A   1      33.521  27.315  22.651  1.00  0.00     0.072 C 
BRANCH   8   9
ATOM      9  S   UNL A   1      32.743  26.143  21.503  1.00  0.00    -0.165 SA
ATOM     10  C   UNL A   1      32.960  24.602  22.422  1.00  0.00     0.085 C 
ENDBRANCH   8   9
ENDBRANCH   7   8
ENDBRANCH   6   7
BRANCH   6  11
ATOM     11  N   UNL A   1      30.642  27.299  23.772  1.00  0.00    -0.344 N 
ATOM     12  C   UNL A   1      30.281  26.252  24.560  1.00  0.00     0.225 C 
ATOM     13  H   UNL A   1      30.221  27.282  22.883  1.00  0.00     0.164 HD
ATOM     14  O   UNL A   1      29.473  25.436  24.111  1.00  0.00    -0.275 OA
BRANCH  12  15
ATOM     15  C   UNL A   1      30.830  26.115  25.968  1.00  0.00     0.143 C 
BRANCH  15  16
ATOM     16  C   UNL A   1      31.695  24.914  26.270  1.00  0.00     0.051 A 
ATOM     17  C   UNL A   1      33.043  24.924  26.156  1.00  0.00    -0.029 A 
ATOM     18  C   UNL A   1      31.028  23.639  26.635  1.00  0.00     0.340 A 
ATOM     19  C   UNL A   1      33.807  26.209  25.958  1.00  0.00     0.046 C 
ATOM     20  C   UNL A   1      33.738  23.622  26.071  1.00  0.00     0.021 A 
ATOM     21  O   UNL A   1      31.564  22.512  26.046  1.00  0.00    -0.422 OA
ATOM     22  O   UNL A   1      30.002  23.580  27.295  1.00  0.00    -0.246 OA
ATOM     23  C   UNL A   1      35.127  23.450  26.022  1.00  0.00     0.016 A 
ATOM     24  C   UNL A   1      32.951  22.480  25.885  1.00  0.00     0.142 A 
ATOM     25  C   UNL A   1      35.690  22.195  25.737  1.00  0.00     0.047 A 
ATOM     26  C   UNL A   1      33.490  21.234  25.568  1.00  0.00     0.094 A 
ATOM     27  C   UNL A   1      34.864  21.105  25.487  1.00  0.00     0.119 A 
BRANCH  27  28
ATOM     28  O   UNL A   1      35.368  19.882  25.167  1.00  0.00    -0.508 OA
ATOM     29  H   UNL A   1      35.557  19.262  25.844  1.00  0.00     0.293 HD
ENDBRANCH  27  28
ENDBRANCH  15  16
ENDBRANCH  12  15
ENDBRANCH   6  11
ENDBRANCH   3   6
ENDBRANCH   1   2
BRANCH   1  30
ATOM     30  C   UNL A   1      31.463  32.032  26.860  1.00  0.00     0.042 C 
BRANCH  30  31
ATOM     31  C   UNL A   1      32.697  32.841  27.224  1.00  0.00     0.118 C 
BRANCH  31  32
ATOM     32  N   UNL A   1      32.393  34.201  27.647  1.00  0.00    -0.352 N 
ATOM     33  C   UNL A   1      33.032  34.955  28.604  1.00  0.00     0.251 C 
ATOM     34  H   UNL A   1      31.636  34.635  27.191  1.00  0.00     0.163 HD
ATOM     35  O   UNL A   1      32.592  36.049  28.935  1.00  0.00    -0.269 OA
BRANCH  33  36
ATOM     36  C   UNL A   1      34.239  34.406  29.253  1.00  0.00     0.039 A 
ATOM     37  C   UNL A   1      34.108  33.740  30.473  1.00  0.00     0.014 A 
ATOM     38  C   UNL A   1      35.482  34.499  28.621  1.00  0.00     0.014 A 
ATOM     39  C   UNL A   1      35.219  33.104  31.030  1.00  0.00     0.010 A 
ATOM     40  C   UNL A   1      36.567  33.802  29.138  1.00  0.00     0.010 A 
ATOM     41  C   UNL A   1      36.447  33.101  30.348  1.00  0.00    -0.014 A 
BRANCH  41  42
ATOM     42  C   UNL A   1      37.625  32.382  30.886  1.00  0.00     0.031 A 
ATOM     43  C   UNL A   1      38.285  32.870  32.147  1.00  0.00     0.074 A 
ATOM     44  C   UNL A   1      38.154  31.352  30.198  1.00  0.00     0.049 A 
ATOM     45  N   UNL A   1      39.378  32.446  32.725  1.00  0.00    -0.248 NA
ATOM     46  C   UNL A   1      37.651  34.012  32.826  1.00  0.00     0.031 C 
ATOM     47  C   UNL A   1      37.650  30.833  28.924  1.00  0.00     0.029 A 
ATOM     48  N   UNL A   1      39.248  30.568  30.465  1.00  0.00    -0.354 N 
ATOM     49  C   UNL A   1      39.583  33.290  33.808  1.00  0.00     0.074 A 
ATOM     50  C   UNL A   1      38.523  34.273  33.788  1.00  0.00     0.031 C 
ATOM     51  C   UNL A   1      38.426  29.811  28.528  1.00  0.00     0.029 A 
ATOM     52  C   UNL A   1      39.494  29.618  29.504  1.00  0.00     0.049 A 
ATOM     53  H   UNL A   1      39.805  30.677  31.270  1.00  0.00     0.167 HD
ATOM     54  C   UNL A   1      40.557  33.238  34.746  1.00  0.00     0.037 A 
ATOM     55  C   UNL A   1      40.473  28.698  29.421  1.00  0.00     0.037 A 
ATOM     56  C   UNL A   1      41.570  32.219  34.802  1.00  0.00     0.049 A 
ATOM     57  C   UNL A   1      41.495  28.614  30.519  1.00  0.00     0.074 A 
ATOM     58  C   UNL A   1      42.536  32.017  35.772  1.00  0.00     0.029 A 
ATOM     59  N   UNL A   1      41.739  31.225  33.851  1.00  0.00    -0.354 N 
ATOM     60  N   UNL A   1      41.626  29.365  31.586  1.00  0.00    -0.248 NA
ATOM     61  C   UNL A   1      42.502  27.547  30.409  1.00  0.00     0.031 C 
ATOM     62  C   UNL A   1      43.307  30.912  35.395  1.00  0.00     0.029 A 
ATOM     63  C   UNL A   1      42.801  30.412  34.205  1.00  0.00     0.049 A 
ATOM     64  H   UNL A   1      41.186  31.115  33.044  1.00  0.00     0.167 HD
ATOM     65  C   UNL A   1      42.708  28.848  32.284  1.00  0.00     0.074 A 
ATOM     66  C   UNL A   1      43.192  27.712  31.528  1.00  0.00     0.031 C 
ATOM     67  C   UNL A   1      43.255  29.278  33.447  1.00  0.00     0.037 A 
BRANCH  54  68
ATOM     68  C   UNL A   1      40.565  34.305  35.798  1.00  0.00     0.057 A 
ATOM     69  C   UNL A   1      41.267  35.505  35.628  1.00  0.00     0.134 A 
ATOM     70  C   UNL A   1      39.830  34.146  36.979  1.00  0.00     0.134 A 
ATOM     71  F   UNL A   1      42.002  35.711  34.524  1.00  0.00    -0.206 F 
ATOM     72  C   UNL A   1      41.252  36.503  36.603  1.00  0.00     0.040 A 
ATOM     73  C   UNL A   1      39.789  35.147  37.951  1.00  0.00     0.040 A 
ATOM     74  F   UNL A   1      39.134  33.021  37.203  1.00  0.00    -0.206 F 
ATOM     75  C   UNL A   1      40.505  36.328  37.766  1.00  0.00     0.006 A 
ENDBRANCH  54  68
BRANCH  55  76
ATOM     76  C   UNL A   1      40.522  27.762  28.270  1.00  0.00     0.057 A 
ATOM     77  C   UNL A   1      39.849  26.536  28.309  1.00  0.00     0.134 A 
ATOM     78  C   UNL A   1      41.253  28.062  27.116  1.00  0.00     0.134 A 
ATOM     79  F   UNL A   1      39.147  26.187  29.398  1.00  0.00    -0.206 F 
ATOM     80  C   UNL A   1      39.921  25.629  27.252  1.00  0.00     0.040 A 
ATOM     81  C   UNL A   1      41.317  27.173  26.042  1.00  0.00     0.040 A 
ATOM     82  F   UNL A   1      41.914  29.225  27.015  1.00  0.00    -0.206 F 
ATOM     83  C   UNL A   1      40.655  25.948  26.112  1.00  0.00     0.006 A 
ENDBRANCH  55  76
BRANCH  67  84
ATOM     84  C   UNL A   1      44.413  28.496  33.986  1.00  0.00     0.057 A 
ATOM     85  C   UNL A   1      44.228  27.413  34.854  1.00  0.00     0.134 A 
ATOM     86  C   UNL A   1      45.723  28.804  33.599  1.00  0.00     0.134 A 
ATOM     87  F   UNL A   1      42.998  27.078  35.271  1.00  0.00    -0.206 F 
ATOM     88  C   UNL A   1      45.309  26.674  35.334  1.00  0.00     0.040 A 
ATOM     89  C   UNL A   1      46.810  28.059  34.055  1.00  0.00     0.040 A 
ATOM     90  F   UNL A   1      45.964  29.826  32.764  1.00  0.00    -0.206 F 
ATOM     91  C   UNL A   1      46.605  26.992  34.928  1.00  0.00     0.006 A 
ENDBRANCH  67  84
ENDBRANCH  41  42
ENDBRANCH  33  36
ENDBRANCH  31  32
ENDBRANCH  30  31
ENDBRANCH   1  30
TORSDOF 17
ENDMDL
MODEL 2
REMARK VINA RESULT:     -11.9      1.293      2.135
REMARK SMILES CSCC[C@H](NC(=O)Cc1c(C)c2ccc(O)cc2oc1=O)C(=O)NCCCNC(=O)c1ccc(-c2c3nc(c(-c4c(F)cccc4F)c4ccc([nH]4)c(-c4c(F)cccc4F)c4nc(c(-c5c(F)cccc5F)c5ccc2[nH]5)C=C4)C=C3)cc1
REMARK SMILES IDX 26 1 25 2 23 3 24 4 5 6 4 7 3 8 2 9 1 10 6 11 7 12 8 14 9 15
REMARK SMILES IDX 10 16 11 17 21 18 12 19 13 20 20 21 22 22 14 23 19 24 15 25
REMARK SMILES IDX 18 26 16 27 17 28 27 30 28 31 29 32 30 33 31 35 32 36 33 37
REMARK SMILES IDX 85 38 34 39 84 40 35 41 36 42 37 43 78 44 38 45 83 46 77 47
REMARK SMILES IDX 79 48 39 49 82 50 76 51 75 52 40 54 66 55 49 56 65 57 50 58
REMARK SMILES IDX 53 59 64 60 80 61 51 62 52 63 63 65 81 66 54 67 41 68 42 69
REMARK SMILES IDX 47 70 43 71 44 72 46 73 48 74 45 75 67 76 68 77 73 78 69 79
REMARK SMILES IDX 70 80 72 81 74 82 71 83 55 84 56 85 61 86 57 87 58 88 60 89
REMARK SMILES IDX 62 90 59 91
REMARK H PARENT 25 5 6 13 17 29 29 34 79 53 53 64
REMARK Flexibility Score: inf
ROOT
ATOM      1  C   UNL A   1      31.814  30.268  25.689  1.00  0.00     0.117 C 
ENDROOT
BRANCH   1   2
ATOM      2  N   UNL A   1      31.046  30.297  24.452  1.00  0.00    -0.354 N 
ATOM      3  C   UNL A   1      30.823  29.322  23.526  1.00  0.00     0.242 C 
ATOM      4  O   UNL A   1      30.081  29.592  22.579  1.00  0.00    -0.273 OA
ATOM      5  H   UNL A   1      30.619  31.160  24.253  1.00  0.00     0.163 HD
BRANCH   3   6
ATOM      6  C   UNL A   1      31.472  27.933  23.664  1.00  0.00     0.172 C 
BRANCH   6   7
ATOM      7  C   UNL A   1      32.378  27.557  22.477  1.00  0.00     0.046 C 
BRANCH   7   8
ATOM      8  C   UNL A   1      33.307  26.348  22.605  1.00  0.00     0.072 C 
BRANCH   8   9
ATOM      9  S   UNL A   1      32.475  24.747  22.391  1.00  0.00    -0.165 SA
ATOM     10  C   UNL A   1      33.891  23.631  22.507  1.00  0.00     0.085 C 
ENDBRANCH   8   9
ENDBRANCH   7   8
ENDBRANCH   6   7
BRANCH   6  11
ATOM     11  N   UNL A   1      30.349  26.996  23.879  1.00  0.00    -0.344 N 
ATOM     12  C   UNL A   1      29.989  26.199  24.920  1.00  0.00     0.225 C 
ATOM     13  H   UNL A   1      29.735  26.938  23.112  1.00  0.00     0.164 HD
ATOM     14  O   UNL A   1      28.957  25.533  24.814  1.00  0.00    -0.275 OA
BRANCH  12  15
ATOM     15  C   UNL A   1      30.817  26.162  26.191  1.00  0.00     0.143 C 
BRANCH  15  16
ATOM     16  C   UNL A   1      31.697  24.955  26.420  1.00  0.00     0.051 A 
ATOM     17  C   UNL A   1      33.041  24.978  26.264  1.00  0.00    -0.029 A 
ATOM     18  C   UNL A   1      31.048  23.663  26.756  1.00  0.00     0.340 A 
ATOM     19  C   UNL A   1      33.792  26.274  26.093  1.00  0.00     0.046 C 
ATOM     20  C   UNL A   1      33.739  23.684  26.109  1.00  0.00     0.021 A 
ATOM     21  O   UNL A   1      31.571  22.563  26.108  1.00  0.00    -0.422 OA
ATOM     22  O   UNL A   1      30.043  23.573  27.445  1.00  0.00    -0.246 OA
ATOM     23  C   UNL A   1      35.127  23.522  26.011  1.00  0.00     0.016 A 
ATOM     24  C   UNL A   1      32.953  22.545  25.904  1.00  0.00     0.142 A 
ATOM     25  C   UNL A   1      35.687  22.283  25.660  1.00  0.00     0.047 A 
ATOM     26  C   UNL A   1      33.487  21.316  25.523  1.00  0.00     0.094 A 
ATOM     27  C   UNL A   1      34.859  21.199  25.394  1.00  0.00     0.119 A 
BRANCH  27  28
ATOM     28  O   UNL A   1      35.359  19.991  25.012  1.00  0.00    -0.508 OA
ATOM     29  H   UNL A   1      36.038  19.949  24.368  1.00  0.00     0.293 HD
ENDBRANCH  27  28
ENDBRANCH  15  16
ENDBRANCH  12  15
ENDBRANCH   6  11
ENDBRANCH   3   6
ENDBRANCH   1   2
BRANCH   1  30
ATOM     30  C   UNL A   1      31.449  31.414  26.618  1.00  0.00     0.042 C 
BRANCH  30  31
ATOM     31  C   UNL A   1      32.646  32.143  27.203  1.00  0.00     0.118 C 
BRANCH  31  32
ATOM     32  N   UNL A   1      32.357  33.519  27.583  1.00  0.00    -0.352 N 
ATOM     33  C   UNL A   1      33.093  34.347  28.397  1.00  0.00     0.251 C 
ATOM     34  H   UNL A   1      31.532  33.905  27.210  1.00  0.00     0.163 HD
ATOM     35  O   UNL A   1      32.667  35.449  28.720  1.00  0.00    -0.269 OA
BRANCH  33  36
ATOM     36  C   UNL A   1      34.394  33.871  28.907  1.00  0.00     0.039 A 
ATOM     37  C   UNL A   1      34.442  33.228  30.145  1.00  0.00     0.014 A 
ATOM     38  C   UNL A   1      35.548  34.007  28.130  1.00  0.00     0.014 A 
ATOM     39  C   UNL A   1      35.641  32.658  30.577  1.00  0.00     0.010 A 
ATOM     40  C   UNL A   1      36.719  33.373  28.525  1.00  0.00     0.010 A 
ATOM     41  C   UNL A   1      36.778  32.697  29.753  1.00  0.00    -0.014 A 
BRANCH  41  42
ATOM     42  C   UNL A   1      38.046  32.046  30.160  1.00  0.00     0.031 A 
ATOM     43  C   UNL A   1      38.990  32.765  31.084  1.00  0.00     0.074 A 
ATOM     44  C   UNL A   1      38.389  30.856  29.629  1.00  0.00     0.049 A 
ATOM     45  N   UNL A   1      40.187  32.415  31.478  1.00  0.00    -0.248 NA
ATOM     46  C   UNL A   1      38.544  34.068  31.602  1.00  0.00     0.031 C 
ATOM     47  C   UNL A   1      37.592  30.094  28.664  1.00  0.00     0.029 A 
ATOM     48  N   UNL A   1      39.509  30.086  29.814  1.00  0.00    -0.354 N 
ATOM     49  C   UNL A   1      40.649  33.468  32.255  1.00  0.00     0.074 A 
ATOM     50  C   UNL A   1      39.622  34.486  32.249  1.00  0.00     0.031 C 
ATOM     51  C   UNL A   1      38.244  28.962  28.352  1.00  0.00     0.029 A 
ATOM     52  C   UNL A   1      39.512  28.929  29.073  1.00  0.00     0.049 A 
ATOM     53  H   UNL A   1      40.243  30.340  30.421  1.00  0.00     0.167 HD
ATOM     54  C   UNL A   1      41.819  33.569  32.928  1.00  0.00     0.037 A 
ATOM     55  C   UNL A   1      40.436  27.955  28.986  1.00  0.00     0.037 A 
ATOM     56  C   UNL A   1      42.809  32.528  32.988  1.00  0.00     0.049 A 
ATOM     57  C   UNL A   1      41.691  28.058  29.807  1.00  0.00     0.074 A 
ATOM     58  C   UNL A   1      43.977  32.491  33.729  1.00  0.00     0.029 A 
ATOM     59  N   UNL A   1      42.740  31.336  32.284  1.00  0.00    -0.354 N 
ATOM     60  N   UNL A   1      42.077  29.022  30.608  1.00  0.00    -0.248 NA
ATOM     61  C   UNL A   1      42.634  26.934  29.722  1.00  0.00     0.031 C 
ATOM     62  C   UNL A   1      44.629  31.284  33.455  1.00  0.00     0.029 A 
ATOM     63  C   UNL A   1      43.850  30.560  32.566  1.00  0.00     0.049 A 
ATOM     64  H   UNL A   1      42.010  31.081  31.675  1.00  0.00     0.167 HD
ATOM     65  C   UNL A   1      43.291  28.610  31.140  1.00  0.00     0.074 A 
ATOM     66  C   UNL A   1      43.573  27.304  30.581  1.00  0.00     0.031 C 
ATOM     67  C   UNL A   1      44.102  29.257  32.011  1.00  0.00     0.037 A 
BRANCH  54  68
ATOM     68  C   UNL A   1      42.085  34.845  33.669  1.00  0.00     0.057 A 
ATOM     69  C   UNL A   1      41.681  35.024  34.998  1.00  0.00     0.134 A 
ATOM     70  C   UNL A   1      42.789  35.890  33.058  1.00  0.00     0.134 A 
ATOM     71  F   UNL A   1      40.991  34.065  35.634  1.00  0.00    -0.206 F 
ATOM     72  C   UNL A   1      41.953  36.207  35.688  1.00  0.00     0.040 A 
ATOM     73  C   UNL A   1      43.085  37.068  33.745  1.00  0.00     0.040 A 
ATOM     74  F   UNL A   1      43.205  35.780  31.787  1.00  0.00    -0.206 F 
ATOM     75  C   UNL A   1      42.663  37.230  35.064  1.00  0.00     0.006 A 
ENDBRANCH  54  68
BRANCH  55  76
ATOM     76  C   UNL A   1      40.204  26.782  28.108  1.00  0.00     0.057 A 
ATOM     77  C   UNL A   1      40.759  26.720  26.825  1.00  0.00     0.134 A 
ATOM     78  C   UNL A   1      39.409  25.707  28.522  1.00  0.00     0.134 A 
ATOM     79  F   UNL A   1      41.513  27.730  26.368  1.00  0.00    -0.206 F 
ATOM     80  C   UNL A   1      40.514  25.641  25.974  1.00  0.00     0.040 A 
ATOM     81  C   UNL A   1      39.173  24.612  27.689  1.00  0.00     0.040 A 
ATOM     82  F   UNL A   1      38.855  25.704  29.743  1.00  0.00    -0.206 F 
ATOM     83  C   UNL A   1      39.720  24.582  26.407  1.00  0.00     0.006 A 
ENDBRANCH  55  76
BRANCH  67  84
ATOM     84  C   UNL A   1      45.350  28.547  32.438  1.00  0.00     0.057 A 
ATOM     85  C   UNL A   1      46.564  28.727  31.765  1.00  0.00     0.134 A 
ATOM     86  C   UNL A   1      45.344  27.709  33.559  1.00  0.00     0.134 A 
ATOM     87  F   UNL A   1      46.630  29.508  30.677  1.00  0.00    -0.206 F 
ATOM     88  C   UNL A   1      47.729  28.082  32.183  1.00  0.00     0.040 A 
ATOM     89  C   UNL A   1      46.506  27.074  33.999  1.00  0.00     0.040 A 
ATOM     90  F   UNL A   1      44.212  27.501  34.249  1.00  0.00    -0.206 F 
ATOM     91  C   UNL A   1      47.703  27.258  33.308  1.00  0.00     0.006 A 
ENDBRANCH  67  84
ENDBRANCH  41  42
ENDBRANCH  33  36
ENDBRANCH  31  32
ENDBRANCH  30  31
ENDBRANCH   1  30
TORSDOF 17
ENDMDL
MODEL 3
REMARK VINA RESULT:     -11.9      4.078      9.341
REMARK SMILES CSCC[C@H](NC(=O)Cc1c(C)c2ccc(O)cc2oc1=O)C(=O)NCCCNC(=O)c1ccc(-c2c3nc(c(-c4c(F)cccc4F)c4ccc([nH]4)c(-c4c(F)cccc4F)c4nc(c(-c5c(F)cccc5F)c5ccc2[nH]5)C=C4)C=C3)cc1
REMARK SMILES IDX 26 1 25 2 23 3 24 4 5 6 4 7 3 8 2 9 1 10 6 11 7 12 8 14 9 15
REMARK SMILES IDX 10 16 11 17 21 18 12 19 13 20 20 21 22 22 14 23 19 24 15 25
REMARK SMILES IDX 18 26 16 27 17 28 27 30 28 31 29 32 30 33 31 35 32 36 33 37
REMARK SMILES IDX 85 38 34 39 84 40 35 41 36 42 37 43 78 44 38 45 83 46 77 47
REMARK SMILES IDX 79 48 39 49 82 50 76 51 75 52 40 54 66 55 49 56 65 57 50 58
REMARK SMILES IDX 53 59 64 60 80 61 51 62 52 63 63 65 81 66 54 67 41 68 42 69
REMARK SMILES IDX 47 70 43 71 44 72 46 73 48 74 45 75 67 76 68 77 73 78 69 79
REMARK SMILES IDX 70 80 72 81 74 82 71 83 55 84 56 85 61 86 57 87 58 88 60 89
REMARK SMILES IDX 62 90 59 91
REMARK H PARENT 25 5 6 13 17 29 29 34 79 53 53 64
REMARK Flexibility Score: inf
ROOT
ATOM      1  C   UNL A   1      36.700  21.101  24.915  1.00  0.00     0.117 C 
ENDROOT
BRANCH   1   2
ATOM      2  N   UNL A   1      35.917  21.217  26.135  1.00  0.00    -0.354 N 
ATOM      3  C   UNL A   1      34.568  21.303  26.317  1.00  0.00     0.242 C 
ATOM      4  O   UNL A   1      34.148  21.341  27.475  1.00  0.00    -0.273 OA
ATOM      5  H   UNL A   1      36.446  21.237  26.964  1.00  0.00     0.163 HD
BRANCH   3   6
ATOM      6  C   UNL A   1      33.607  21.344  25.115  1.00  0.00     0.172 C 
BRANCH   6   7
ATOM      7  C   UNL A   1      33.013  19.971  24.755  1.00  0.00     0.046 C 
BRANCH   7   8
ATOM      8  C   UNL A   1      33.959  18.793  24.507  1.00  0.00     0.072 C 
BRANCH   8   9
ATOM      9  S   UNL A   1      33.217  17.433  23.558  1.00  0.00    -0.165 SA
ATOM     10  C   UNL A   1      33.213  16.132  24.813  1.00  0.00     0.085 C 
ENDBRANCH   8   9
ENDBRANCH   7   8
ENDBRANCH   6   7
BRANCH   6  11
ATOM     11  N   UNL A   1      34.379  21.968  24.019  1.00  0.00    -0.344 N 
ATOM     12  C   UNL A   1      34.158  23.047  23.222  1.00  0.00     0.225 C 
ATOM     13  H   UNL A   1      35.227  21.507  23.826  1.00  0.00     0.164 HD
ATOM     14  O   UNL A   1      35.020  23.346  22.393  1.00  0.00    -0.275 OA
BRANCH  12  15
ATOM     15  C   UNL A   1      32.900  23.882  23.379  1.00  0.00     0.143 C 
BRANCH  15  16
ATOM     16  C   UNL A   1      33.065  25.335  23.757  1.00  0.00     0.051 A 
ATOM     17  C   UNL A   1      33.096  25.769  25.039  1.00  0.00    -0.029 A 
ATOM     18  C   UNL A   1      33.116  26.345  22.669  1.00  0.00     0.340 A 
ATOM     19  C   UNL A   1      33.220  24.807  26.192  1.00  0.00     0.046 C 
ATOM     20  C   UNL A   1      32.847  27.205  25.287  1.00  0.00     0.021 A 
ATOM     21  O   UNL A   1      32.390  27.494  22.906  1.00  0.00    -0.422 OA
ATOM     22  O   UNL A   1      33.643  26.142  21.586  1.00  0.00    -0.246 OA
ATOM     23  C   UNL A   1      32.914  27.831  26.538  1.00  0.00     0.016 A 
ATOM     24  C   UNL A   1      32.373  27.974  24.218  1.00  0.00     0.142 A 
ATOM     25  C   UNL A   1      32.463  29.150  26.710  1.00  0.00     0.047 A 
ATOM     26  C   UNL A   1      31.890  29.272  24.376  1.00  0.00     0.094 A 
ATOM     27  C   UNL A   1      31.931  29.848  25.632  1.00  0.00     0.119 A 
BRANCH  27  28
ATOM     28  O   UNL A   1      31.446  31.113  25.765  1.00  0.00    -0.508 OA
ATOM     29  H   UNL A   1      30.547  31.292  25.570  1.00  0.00     0.293 HD
ENDBRANCH  27  28
ENDBRANCH  15  16
ENDBRANCH  12  15
ENDBRANCH   6  11
ENDBRANCH   3   6
ENDBRANCH   1   2
BRANCH   1  30
ATOM     30  C   UNL A   1      37.746  20.001  25.007  1.00  0.00     0.042 C 
BRANCH  30  31
ATOM     31  C   UNL A   1      38.973  20.379  25.820  1.00  0.00     0.118 C 
BRANCH  31  32
ATOM     32  N   UNL A   1      40.018  19.365  25.796  1.00  0.00    -0.352 N 
ATOM     33  C   UNL A   1      41.351  19.513  26.099  1.00  0.00     0.251 C 
ATOM     34  H   UNL A   1      39.735  18.461  25.529  1.00  0.00     0.163 HD
ATOM     35  O   UNL A   1      42.139  18.592  25.923  1.00  0.00    -0.269 OA
BRANCH  33  36
ATOM     36  C   UNL A   1      41.825  20.816  26.606  1.00  0.00     0.039 A 
ATOM     37  C   UNL A   1      42.286  21.769  25.696  1.00  0.00     0.014 A 
ATOM     38  C   UNL A   1      41.752  21.109  27.971  1.00  0.00     0.014 A 
ATOM     39  C   UNL A   1      42.612  23.049  26.150  1.00  0.00     0.010 A 
ATOM     40  C   UNL A   1      42.003  22.403  28.408  1.00  0.00     0.010 A 
ATOM     41  C   UNL A   1      42.438  23.384  27.503  1.00  0.00    -0.014 A 
BRANCH  41  42
ATOM     42  C   UNL A   1      42.718  24.752  27.999  1.00  0.00     0.031 A 
ATOM     43  C   UNL A   1      44.112  25.120  28.427  1.00  0.00     0.074 A 
ATOM     44  C   UNL A   1      41.707  25.630  28.151  1.00  0.00     0.049 A 
ATOM     45  N   UNL A   1      44.543  26.224  28.980  1.00  0.00    -0.248 NA
ATOM     46  C   UNL A   1      45.152  24.095  28.244  1.00  0.00     0.031 C 
ATOM     47  C   UNL A   1      40.299  25.366  27.843  1.00  0.00     0.029 A 
ATOM     48  N   UNL A   1      41.707  26.918  28.623  1.00  0.00    -0.354 N 
ATOM     49  C   UNL A   1      45.889  26.011  29.245  1.00  0.00     0.074 A 
ATOM     50  C   UNL A   1      46.198  24.663  28.826  1.00  0.00     0.031 C 
ATOM     51  C   UNL A   1      39.576  26.462  28.122  1.00  0.00     0.029 A 
ATOM     52  C   UNL A   1      40.461  27.495  28.651  1.00  0.00     0.049 A 
ATOM     53  H   UNL A   1      42.524  27.385  28.914  1.00  0.00     0.167 HD
ATOM     54  C   UNL A   1      46.791  26.872  29.772  1.00  0.00     0.037 A 
ATOM     55  C   UNL A   1      40.078  28.718  29.061  1.00  0.00     0.037 A 
ATOM     56  C   UNL A   1      46.496  28.235  30.125  1.00  0.00     0.049 A 
ATOM     57  C   UNL A   1      41.116  29.680  29.568  1.00  0.00     0.074 A 
ATOM     58  C   UNL A   1      47.365  29.217  30.565  1.00  0.00     0.029 A 
ATOM     59  N   UNL A   1      45.236  28.807  30.066  1.00  0.00    -0.354 N 
ATOM     60  N   UNL A   1      42.403  29.495  29.731  1.00  0.00    -0.248 NA
ATOM     61  C   UNL A   1      40.650  31.024  29.940  1.00  0.00     0.031 C 
ATOM     62  C   UNL A   1      46.624  30.381  30.797  1.00  0.00     0.029 A 
ATOM     63  C   UNL A   1      45.300  30.128  30.472  1.00  0.00     0.049 A 
ATOM     64  H   UNL A   1      44.417  28.343  29.778  1.00  0.00     0.167 HD
ATOM     65  C   UNL A   1      42.904  30.703  30.198  1.00  0.00     0.074 A 
ATOM     66  C   UNL A   1      41.785  31.618  30.281  1.00  0.00     0.031 C 
ATOM     67  C   UNL A   1      44.177  31.025  30.531  1.00  0.00     0.037 A 
BRANCH  54  68
ATOM     68  C   UNL A   1      48.187  26.370  29.986  1.00  0.00     0.057 A 
ATOM     69  C   UNL A   1      49.171  26.483  28.997  1.00  0.00     0.134 A 
ATOM     70  C   UNL A   1      48.559  25.801  31.211  1.00  0.00     0.134 A 
ATOM     71  F   UNL A   1      48.872  27.005  27.797  1.00  0.00    -0.206 F 
ATOM     72  C   UNL A   1      50.475  26.033  29.211  1.00  0.00     0.040 A 
ATOM     73  C   UNL A   1      49.865  25.368  31.444  1.00  0.00     0.040 A 
ATOM     74  F   UNL A   1      47.663  25.666  32.200  1.00  0.00    -0.206 F 
ATOM     75  C   UNL A   1      50.826  25.480  30.441  1.00  0.00     0.006 A 
ENDBRANCH  54  68
BRANCH  55  76
ATOM     76  C   UNL A   1      38.652  29.119  28.984  1.00  0.00     0.057 A 
ATOM     77  C   UNL A   1      37.822  29.047  30.109  1.00  0.00     0.134 A 
ATOM     78  C   UNL A   1      38.081  29.564  27.787  1.00  0.00     0.134 A 
ATOM     79  F   UNL A   1      38.309  28.609  31.279  1.00  0.00    -0.206 F 
ATOM     80  C   UNL A   1      36.469  29.381  30.041  1.00  0.00     0.040 A 
ATOM     81  C   UNL A   1      36.734  29.922  27.710  1.00  0.00     0.040 A 
ATOM     82  F   UNL A   1      38.827  29.662  26.676  1.00  0.00    -0.206 F 
ATOM     83  C   UNL A   1      35.922  29.823  28.838  1.00  0.00     0.006 A 
ENDBRANCH  55  76
BRANCH  67  84
ATOM     84  C   UNL A   1      44.431  32.431  30.981  1.00  0.00     0.057 A 
ATOM     85  C   UNL A   1      44.393  32.787  32.334  1.00  0.00     0.134 A 
ATOM     86  C   UNL A   1      44.757  33.427  30.053  1.00  0.00     0.134 A 
ATOM     87  F   UNL A   1      44.074  31.879  33.269  1.00  0.00    -0.206 F 
ATOM     88  C   UNL A   1      44.654  34.094  32.748  1.00  0.00     0.040 A 
ATOM     89  C   UNL A   1      45.040  34.732  30.457  1.00  0.00     0.040 A 
ATOM     90  F   UNL A   1      44.815  33.145  28.743  1.00  0.00    -0.206 F 
ATOM     91  C   UNL A   1      44.986  35.069  31.808  1.00  0.00     0.006 A 
ENDBRANCH  67  84
ENDBRANCH  41  42
ENDBRANCH  33  36
ENDBRANCH  31  32
ENDBRANCH  30  31
ENDBRANCH   1  30
TORSDOF 17
ENDMDL
