MODEL 1
REMARK VINA RESULT:     -10.8      0.000      0.000
REMARK SMILES C[C@H](C(=O)NCCCNC(=O)c1ccc(-c2c3nc(c(-c4c(F)cccc4F)c4ccc([nH]4)c(-c4c(F)cccc4F)c4nc(c(-c5c(F)cccc5F)c5ccc2[nH]5)C=C4)C=C3)cc1)n1ccc(C(=O)N(C)Cc2cnn(C)c2)n1
REMARK SMILES IDX 3 1 4 2 5 3 2 5 1 6 66 7 67 8 81 9 68 10 69 11 70 12 71 13
REMARK SMILES IDX 72 14 73 15 74 16 75 17 76 18 80 19 77 20 78 21 79 22 6 23
REMARK SMILES IDX 7 24 8 25 9 26 10 27 11 29 12 30 13 31 65 32 14 33 64 34
REMARK SMILES IDX 15 35 16 36 17 37 58 38 18 39 63 40 57 41 59 42 19 43 62 44
REMARK SMILES IDX 56 45 55 46 20 48 46 49 29 50 45 51 30 52 33 53 44 54 60 55
REMARK SMILES IDX 31 56 32 57 43 59 61 60 34 61 21 62 22 63 27 64 23 65 24 66
REMARK SMILES IDX 26 67 28 68 25 69 47 70 48 71 53 72 49 73 50 74 52 75 54 76
REMARK SMILES IDX 51 77 35 78 36 79 41 80 37 81 38 82 40 83 42 84 39 85
REMARK H PARENT 5 4 9 28 59 47 33 58
REMARK Flexibility Score: inf
ROOT
ATOM      1  C   UNL A   1      41.663  21.415  26.104  1.00  0.00     0.244 C 
ATOM      2  O   UNL A   1      41.994  22.251  25.253  1.00  0.00    -0.273 OA
ATOM      3  N   UNL A   1      42.104  20.139  25.901  1.00  0.00    -0.354 N 
ATOM      4  H   UNL A   1      42.547  19.991  25.035  1.00  0.00     0.163 HD
ENDROOT
BRANCH   1   5
ATOM      5  C   UNL A   1      40.723  21.812  27.236  1.00  0.00     0.193 C 
ATOM      6  C   UNL A   1      41.459  22.523  28.369  1.00  0.00     0.044 C 
BRANCH   5   7
ATOM      7  N   UNL A   1      39.518  22.529  26.820  1.00  0.00    -0.260 N 
ATOM      8  C   UNL A   1      39.279  23.859  27.029  1.00  0.00     0.110 A 
ATOM      9  N   UNL A   1      38.561  21.940  26.083  1.00  0.00    -0.167 NA
ATOM     10  C   UNL A   1      38.155  24.154  26.301  1.00  0.00     0.056 A 
ATOM     11  C   UNL A   1      37.736  22.928  25.706  1.00  0.00     0.150 A 
BRANCH  11  12
ATOM     12  C   UNL A   1      36.595  22.804  24.773  1.00  0.00     0.274 C 
ATOM     13  O   UNL A   1      36.836  22.841  23.561  1.00  0.00    -0.267 OA
BRANCH  12  14
ATOM     14  N   UNL A   1      35.269  22.672  25.217  1.00  0.00    -0.336 N 
ATOM     15  C   UNL A   1      34.745  22.903  26.557  1.00  0.00     0.147 C 
BRANCH  14  16
ATOM     16  C   UNL A   1      34.279  22.274  24.219  1.00  0.00     0.158 C 
BRANCH  16  17
ATOM     17  C   UNL A   1      33.684  20.950  24.570  1.00  0.00     0.009 A 
ATOM     18  C   UNL A   1      32.321  20.641  24.800  1.00  0.00     0.140 A 
ATOM     19  C   UNL A   1      34.316  19.726  24.687  1.00  0.00     0.113 A 
ATOM     20  N   UNL A   1      32.114  19.345  25.044  1.00  0.00    -0.181 NA
ATOM     21  N   UNL A   1      33.340  18.808  24.945  1.00  0.00    -0.275 N 
ATOM     22  C   UNL A   1      33.489  17.379  25.066  1.00  0.00     0.173 C 
ENDBRANCH  16  17
ENDBRANCH  14  16
ENDBRANCH  12  14
ENDBRANCH  11  12
ENDBRANCH   5   7
ENDBRANCH   1   5
BRANCH   3  23
ATOM     23  C   UNL A   1      42.027  18.961  26.749  1.00  0.00     0.117 C 
BRANCH  23  24
ATOM     24  C   UNL A   1      43.113  17.937  26.467  1.00  0.00     0.042 C 
BRANCH  24  25
ATOM     25  C   UNL A   1      44.459  18.524  26.078  1.00  0.00     0.118 C 
BRANCH  25  26
ATOM     26  N   UNL A   1      44.676  18.562  24.642  1.00  0.00    -0.352 N 
ATOM     27  C   UNL A   1      44.898  19.628  23.808  1.00  0.00     0.251 C 
ATOM     28  H   UNL A   1      44.662  17.683  24.196  1.00  0.00     0.163 HD
ATOM     29  O   UNL A   1      44.927  19.444  22.591  1.00  0.00    -0.269 OA
BRANCH  27  30
ATOM     30  C   UNL A   1      45.075  20.999  24.344  1.00  0.00     0.039 A 
ATOM     31  C   UNL A   1      44.767  22.086  23.518  1.00  0.00     0.014 A 
ATOM     32  C   UNL A   1      45.570  21.231  25.629  1.00  0.00     0.014 A 
ATOM     33  C   UNL A   1      44.908  23.392  23.997  1.00  0.00     0.010 A 
ATOM     34  C   UNL A   1      45.618  22.527  26.138  1.00  0.00     0.010 A 
ATOM     35  C   UNL A   1      45.311  23.624  25.321  1.00  0.00    -0.014 A 
BRANCH  35  36
ATOM     36  C   UNL A   1      45.471  25.003  25.851  1.00  0.00     0.031 A 
ATOM     37  C   UNL A   1      46.825  25.663  25.830  1.00  0.00     0.074 A 
ATOM     38  C   UNL A   1      44.421  25.646  26.394  1.00  0.00     0.049 A 
ATOM     39  N   UNL A   1      47.186  26.831  26.301  1.00  0.00    -0.248 NA
ATOM     40  C   UNL A   1      47.927  24.895  25.228  1.00  0.00     0.031 C 
ATOM     41  C   UNL A   1      43.067  25.104  26.523  1.00  0.00     0.029 A 
ATOM     42  N   UNL A   1      44.329  26.898  26.949  1.00  0.00    -0.354 N 
ATOM     43  C   UNL A   1      48.553  26.925  26.072  1.00  0.00     0.074 A 
ATOM     44  C   UNL A   1      48.968  25.675  25.474  1.00  0.00     0.031 C 
ATOM     45  C   UNL A   1      42.277  26.025  27.097  1.00  0.00     0.029 A 
ATOM     46  C   UNL A   1      43.072  27.211  27.404  1.00  0.00     0.049 A 
ATOM     47  H   UNL A   1      45.095  27.515  27.014  1.00  0.00     0.167 HD
ATOM     48  C   UNL A   1      49.385  27.966  26.309  1.00  0.00     0.037 A 
ATOM     49  C   UNL A   1      42.612  28.328  27.999  1.00  0.00     0.037 A 
ATOM     50  C   UNL A   1      48.969  29.225  26.869  1.00  0.00     0.049 A 
ATOM     51  C   UNL A   1      43.547  29.482  28.226  1.00  0.00     0.074 A 
ATOM     52  C   UNL A   1      49.727  30.358  27.108  1.00  0.00     0.029 A 
ATOM     53  N   UNL A   1      47.674  29.517  27.271  1.00  0.00    -0.354 N 
ATOM     54  N   UNL A   1      44.826  29.576  27.955  1.00  0.00    -0.248 NA
ATOM     55  C   UNL A   1      42.970  30.694  28.826  1.00  0.00     0.031 C 
ATOM     56  C   UNL A   1      48.897  31.327  27.681  1.00  0.00     0.029 A 
ATOM     57  C   UNL A   1      47.613  30.812  27.759  1.00  0.00     0.049 A 
ATOM     58  H   UNL A   1      46.911  28.897  27.217  1.00  0.00     0.167 HD
ATOM     59  C   UNL A   1      45.198  30.866  28.316  1.00  0.00     0.074 A 
ATOM     60  C   UNL A   1      44.008  31.519  28.819  1.00  0.00     0.031 C 
ATOM     61  C   UNL A   1      46.415  31.455  28.237  1.00  0.00     0.037 A 
BRANCH  48  62
ATOM     62  C   UNL A   1      50.831  27.788  25.949  1.00  0.00     0.057 A 
ATOM     63  C   UNL A   1      51.787  27.412  26.902  1.00  0.00     0.134 A 
ATOM     64  C   UNL A   1      51.272  27.978  24.633  1.00  0.00     0.134 A 
ATOM     65  F   UNL A   1      51.434  27.228  28.184  1.00  0.00    -0.206 F 
ATOM     66  C   UNL A   1      53.134  27.262  26.567  1.00  0.00     0.040 A 
ATOM     67  C   UNL A   1      52.611  27.804  24.280  1.00  0.00     0.040 A 
ATOM     68  F   UNL A   1      50.409  28.334  23.670  1.00  0.00    -0.206 F 
ATOM     69  C   UNL A   1      53.548  27.453  25.250  1.00  0.00     0.006 A 
ENDBRANCH  48  62
BRANCH  49  70
ATOM     70  C   UNL A   1      41.183  28.424  28.389  1.00  0.00     0.057 A 
ATOM     71  C   UNL A   1      40.759  28.058  29.672  1.00  0.00     0.134 A 
ATOM     72  C   UNL A   1      40.208  28.875  27.491  1.00  0.00     0.134 A 
ATOM     73  F   UNL A   1      41.645  27.603  30.570  1.00  0.00    -0.206 F 
ATOM     74  C   UNL A   1      39.415  28.116  30.043  1.00  0.00     0.040 A 
ATOM     75  C   UNL A   1      38.864  28.959  27.855  1.00  0.00     0.040 A 
ATOM     76  F   UNL A   1      40.551  29.248  26.250  1.00  0.00    -0.206 F 
ATOM     77  C   UNL A   1      38.463  28.572  29.133  1.00  0.00     0.006 A 
ENDBRANCH  49  70
BRANCH  61  78
ATOM     78  C   UNL A   1      46.510  32.894  28.650  1.00  0.00     0.057 A 
ATOM     79  C   UNL A   1      46.801  33.272  29.967  1.00  0.00     0.134 A 
ATOM     80  C   UNL A   1      46.339  33.915  27.706  1.00  0.00     0.134 A 
ATOM     81  F   UNL A   1      46.965  32.343  30.920  1.00  0.00    -0.206 F 
ATOM     82  C   UNL A   1      46.891  34.615  30.336  1.00  0.00     0.040 A 
ATOM     83  C   UNL A   1      46.452  35.260  28.058  1.00  0.00     0.040 A 
ATOM     84  F   UNL A   1      46.068  33.621  26.426  1.00  0.00    -0.206 F 
ATOM     85  C   UNL A   1      46.722  35.613  29.378  1.00  0.00     0.006 A 
ENDBRANCH  61  78
ENDBRANCH  35  36
ENDBRANCH  27  30
ENDBRANCH  25  26
ENDBRANCH  24  25
ENDBRANCH  23  24
ENDBRANCH   3  23
TORSDOF 15
ENDMDL
MODEL 2
REMARK VINA RESULT:     -10.8      3.534      7.974
REMARK SMILES C[C@H](C(=O)NCCCNC(=O)c1ccc(-c2c3nc(c(-c4c(F)cccc4F)c4ccc([nH]4)c(-c4c(F)cccc4F)c4nc(c(-c5c(F)cccc5F)c5ccc2[nH]5)C=C4)C=C3)cc1)n1ccc(C(=O)N(C)Cc2cnn(C)c2)n1
REMARK SMILES IDX 3 1 4 2 5 3 2 5 1 6 66 7 67 8 81 9 68 10 69 11 70 12 71 13
REMARK SMILES IDX 72 14 73 15 74 16 75 17 76 18 80 19 77 20 78 21 79 22 6 23
REMARK SMILES IDX 7 24 8 25 9 26 10 27 11 29 12 30 13 31 65 32 14 33 64 34
REMARK SMILES IDX 15 35 16 36 17 37 58 38 18 39 63 40 57 41 59 42 19 43 62 44
REMARK SMILES IDX 56 45 55 46 20 48 46 49 29 50 45 51 30 52 33 53 44 54 60 55
REMARK SMILES IDX 31 56 32 57 43 59 61 60 34 61 21 62 22 63 27 64 23 65 24 66
REMARK SMILES IDX 26 67 28 68 25 69 47 70 48 71 53 72 49 73 50 74 52 75 54 76
REMARK SMILES IDX 51 77 35 78 36 79 41 80 37 81 38 82 40 83 42 84 39 85
REMARK H PARENT 5 4 9 28 59 47 33 58
REMARK Flexibility Score: inf
ROOT
ATOM      1  C   UNL A   1      33.782  19.975  24.728  1.00  0.00     0.244 C 
ATOM      2  O   UNL A   1      32.976  19.051  24.893  1.00  0.00    -0.273 OA
ATOM      3  N   UNL A   1      35.072  19.727  25.100  1.00  0.00    -0.354 N 
ATOM      4  H   UNL A   1      35.205  18.871  25.568  1.00  0.00     0.163 HD
ENDROOT
BRANCH   1   5
ATOM      5  C   UNL A   1      33.293  21.334  24.240  1.00  0.00     0.193 C 
ATOM      6  C   UNL A   1      32.407  21.213  23.003  1.00  0.00     0.044 C 
BRANCH   5   7
ATOM      7  N   UNL A   1      32.698  22.187  25.269  1.00  0.00    -0.260 N 
ATOM      8  C   UNL A   1      33.054  22.198  26.589  1.00  0.00     0.110 A 
ATOM      9  N   UNL A   1      31.792  23.133  24.968  1.00  0.00    -0.167 NA
ATOM     10  C   UNL A   1      32.411  23.277  27.139  1.00  0.00     0.056 A 
ATOM     11  C   UNL A   1      31.636  23.852  26.089  1.00  0.00     0.150 A 
BRANCH  11  12
ATOM     12  C   UNL A   1      30.835  25.088  26.228  1.00  0.00     0.274 C 
ATOM     13  O   UNL A   1      29.652  24.973  26.566  1.00  0.00    -0.267 OA
BRANCH  12  14
ATOM     14  N   UNL A   1      31.365  26.363  25.968  1.00  0.00    -0.336 N 
ATOM     15  C   UNL A   1      31.659  27.423  26.923  1.00  0.00     0.147 C 
BRANCH  14  16
ATOM     16  C   UNL A   1      31.683  26.670  24.576  1.00  0.00     0.158 C 
BRANCH  16  17
ATOM     17  C   UNL A   1      30.620  27.528  23.972  1.00  0.00     0.009 A 
ATOM     18  C   UNL A   1      29.287  27.168  23.653  1.00  0.00     0.140 A 
ATOM     19  C   UNL A   1      30.678  28.871  23.649  1.00  0.00     0.113 A 
ATOM     20  N   UNL A   1      28.574  28.188  23.169  1.00  0.00    -0.181 NA
ATOM     21  N   UNL A   1      29.436  29.216  23.200  1.00  0.00    -0.275 N 
ATOM     22  C   UNL A   1      28.972  30.528  22.822  1.00  0.00     0.173 C 
ENDBRANCH  16  17
ENDBRANCH  14  16
ENDBRANCH  12  14
ENDBRANCH  11  12
ENDBRANCH   5   7
ENDBRANCH   1   5
BRANCH   3  23
ATOM     23  C   UNL A   1      36.281  20.513  24.921  1.00  0.00     0.117 C 
BRANCH  23  24
ATOM     24  C   UNL A   1      37.548  19.676  24.860  1.00  0.00     0.042 C 
BRANCH  24  25
ATOM     25  C   UNL A   1      38.716  20.228  25.657  1.00  0.00     0.118 C 
BRANCH  25  26
ATOM     26  N   UNL A   1      39.841  19.312  25.739  1.00  0.00    -0.352 N 
ATOM     27  C   UNL A   1      41.143  19.541  26.106  1.00  0.00     0.251 C 
ATOM     28  H   UNL A   1      39.638  18.381  25.492  1.00  0.00     0.163 HD
ATOM     29  O   UNL A   1      41.971  18.638  25.979  1.00  0.00    -0.269 OA
BRANCH  27  30
ATOM     30  C   UNL A   1      41.575  20.860  26.627  1.00  0.00     0.039 A 
ATOM     31  C   UNL A   1      41.964  21.846  25.713  1.00  0.00     0.014 A 
ATOM     32  C   UNL A   1      41.637  21.128  27.997  1.00  0.00     0.014 A 
ATOM     33  C   UNL A   1      42.363  23.106  26.170  1.00  0.00     0.010 A 
ATOM     34  C   UNL A   1      41.940  22.412  28.446  1.00  0.00     0.010 A 
ATOM     35  C   UNL A   1      42.330  23.409  27.540  1.00  0.00    -0.014 A 
BRANCH  35  36
ATOM     36  C   UNL A   1      42.753  24.739  28.048  1.00  0.00     0.031 A 
ATOM     37  C   UNL A   1      41.723  25.807  28.306  1.00  0.00     0.074 A 
ATOM     38  C   UNL A   1      44.059  25.010  28.232  1.00  0.00     0.049 A 
ATOM     39  N   UNL A   1      41.892  27.049  28.686  1.00  0.00    -0.248 NA
ATOM     40  C   UNL A   1      40.316  25.440  28.074  1.00  0.00     0.031 C 
ATOM     41  C   UNL A   1      45.163  24.084  27.974  1.00  0.00     0.029 A 
ATOM     42  N   UNL A   1      44.681  26.152  28.674  1.00  0.00    -0.354 N 
ATOM     43  C   UNL A   1      40.622  27.612  28.718  1.00  0.00     0.074 A 
ATOM     44  C   UNL A   1      39.699  26.596  28.262  1.00  0.00     0.031 C 
ATOM     45  C   UNL A   1      46.322  24.686  28.283  1.00  0.00     0.029 A 
ATOM     46  C   UNL A   1      46.049  26.048  28.732  1.00  0.00     0.049 A 
ATOM     47  H   UNL A   1      44.191  26.968  28.925  1.00  0.00     0.167 HD
ATOM     48  C   UNL A   1      40.250  28.852  29.116  1.00  0.00     0.037 A 
ATOM     49  C   UNL A   1      46.977  26.948  29.108  1.00  0.00     0.037 A 
ATOM     50  C   UNL A   1      41.162  29.852  29.605  1.00  0.00     0.049 A 
ATOM     51  C   UNL A   1      46.539  28.309  29.575  1.00  0.00     0.074 A 
ATOM     52  C   UNL A   1      40.879  31.123  30.075  1.00  0.00     0.029 A 
ATOM     53  N   UNL A   1      42.536  29.688  29.695  1.00  0.00    -0.354 N 
ATOM     54  N   UNL A   1      45.330  28.808  29.649  1.00  0.00    -0.248 NA
ATOM     55  C   UNL A   1      47.596  29.225  30.027  1.00  0.00     0.031 C 
ATOM     56  C   UNL A   1      42.086  31.740  30.422  1.00  0.00     0.029 A 
ATOM     57  C   UNL A   1      43.115  30.836  30.209  1.00  0.00     0.049 A 
ATOM     58  H   UNL A   1      43.027  28.877  29.432  1.00  0.00     0.167 HD
ATOM     59  C   UNL A   1      45.476  30.080  30.189  1.00  0.00     0.074 A 
ATOM     60  C   UNL A   1      46.890  30.272  30.430  1.00  0.00     0.031 C 
ATOM     61  C   UNL A   1      44.524  31.005  30.462  1.00  0.00     0.037 A 
BRANCH  48  62
ATOM     62  C   UNL A   1      38.789  29.187  29.050  1.00  0.00     0.057 A 
ATOM     63  C   UNL A   1      37.959  29.088  30.175  1.00  0.00     0.134 A 
ATOM     64  C   UNL A   1      38.207  29.627  27.854  1.00  0.00     0.134 A 
ATOM     65  F   UNL A   1      38.450  28.659  31.347  1.00  0.00    -0.206 F 
ATOM     66  C   UNL A   1      36.596  29.386  30.105  1.00  0.00     0.040 A 
ATOM     67  C   UNL A   1      36.853  29.954  27.780  1.00  0.00     0.040 A 
ATOM     68  F   UNL A   1      38.945  29.748  26.741  1.00  0.00    -0.206 F 
ATOM     69  C   UNL A   1      36.041  29.826  28.905  1.00  0.00     0.006 A 
ENDBRANCH  48  62
BRANCH  49  70
ATOM     70  C   UNL A   1      48.415  26.580  29.095  1.00  0.00     0.057 A 
ATOM     71  C   UNL A   1      49.226  26.879  27.995  1.00  0.00     0.134 A 
ATOM     72  C   UNL A   1      49.009  25.914  30.174  1.00  0.00     0.134 A 
ATOM     73  F   UNL A   1      48.709  27.500  26.924  1.00  0.00    -0.206 F 
ATOM     74  C   UNL A   1      50.572  26.512  27.957  1.00  0.00     0.040 A 
ATOM     75  C   UNL A   1      50.359  25.561  30.160  1.00  0.00     0.040 A 
ATOM     76  F   UNL A   1      48.287  25.607  31.261  1.00  0.00    -0.206 F 
ATOM     77  C   UNL A   1      51.143  25.854  29.045  1.00  0.00     0.006 A 
ENDBRANCH  49  70
BRANCH  61  78
ATOM     78  C   UNL A   1      44.972  32.284  31.105  1.00  0.00     0.057 A 
ATOM     79  C   UNL A   1      45.048  32.431  32.495  1.00  0.00     0.134 A 
ATOM     80  C   UNL A   1      45.364  33.374  30.316  1.00  0.00     0.134 A 
ATOM     81  F   UNL A   1      44.676  31.429  33.306  1.00  0.00    -0.206 F 
ATOM     82  C   UNL A   1      45.472  33.626  33.079  1.00  0.00     0.040 A 
ATOM     83  C   UNL A   1      45.814  34.564  30.888  1.00  0.00     0.040 A 
ATOM     84  F   UNL A   1      45.325  33.294  28.977  1.00  0.00    -0.206 F 
ATOM     85  C   UNL A   1      45.862  34.695  32.273  1.00  0.00     0.006 A 
ENDBRANCH  61  78
ENDBRANCH  35  36
ENDBRANCH  27  30
ENDBRANCH  25  26
ENDBRANCH  24  25
ENDBRANCH  23  24
ENDBRANCH   3  23
TORSDOF 15
ENDMDL
MODEL 3
REMARK VINA RESULT:     -10.7      6.129     11.232
REMARK SMILES C[C@H](C(=O)NCCCNC(=O)c1ccc(-c2c3nc(c(-c4c(F)cccc4F)c4ccc([nH]4)c(-c4c(F)cccc4F)c4nc(c(-c5c(F)cccc5F)c5ccc2[nH]5)C=C4)C=C3)cc1)n1ccc(C(=O)N(C)Cc2cnn(C)c2)n1
REMARK SMILES IDX 3 1 4 2 5 3 2 5 1 6 66 7 67 8 81 9 68 10 69 11 70 12 71 13
REMARK SMILES IDX 72 14 73 15 74 16 75 17 76 18 80 19 77 20 78 21 79 22 6 23
REMARK SMILES IDX 7 24 8 25 9 26 10 27 11 29 12 30 13 31 65 32 14 33 64 34
REMARK SMILES IDX 15 35 16 36 17 37 58 38 18 39 63 40 57 41 59 42 19 43 62 44
REMARK SMILES IDX 56 45 55 46 20 48 46 49 29 50 45 51 30 52 33 53 44 54 60 55
REMARK SMILES IDX 31 56 32 57 43 59 61 60 34 61 21 62 22 63 27 64 23 65 24 66
REMARK SMILES IDX 26 67 28 68 25 69 47 70 48 71 53 72 49 73 50 74 52 75 54 76
REMARK SMILES IDX 51 77 35 78 36 79 41 80 37 81 38 82 40 83 42 84 39 85
REMARK H PARENT 5 4 9 28 59 47 33 58
REMARK Flexibility Score: inf
ROOT
ATOM      1  C   UNL A   1      33.111  28.879  26.243  1.00  0.00     0.244 C 
ATOM      2  O   UNL A   1      34.077  28.502  26.918  1.00  0.00    -0.273 OA
ATOM      3  N   UNL A   1      32.461  29.995  26.686  1.00  0.00    -0.354 N 
ATOM      4  H   UNL A   1      32.761  30.321  27.565  1.00  0.00     0.163 HD
ENDROOT
BRANCH   1   5
ATOM      5  C   UNL A   1      32.641  28.047  25.054  1.00  0.00     0.193 C 
ATOM      6  C   UNL A   1      33.810  27.554  24.204  1.00  0.00     0.044 C 
BRANCH   5   7
ATOM      7  N   UNL A   1      31.699  26.977  25.378  1.00  0.00    -0.260 N 
ATOM      8  C   UNL A   1      30.447  26.839  24.846  1.00  0.00     0.110 A 
ATOM      9  N   UNL A   1      32.040  25.950  26.175  1.00  0.00    -0.167 NA
ATOM     10  C   UNL A   1      30.004  25.606  25.252  1.00  0.00     0.056 A 
ATOM     11  C   UNL A   1      31.036  25.067  26.075  1.00  0.00     0.150 A 
BRANCH  11  12
ATOM     12  C   UNL A   1      31.003  23.712  26.668  1.00  0.00     0.274 C 
ATOM     13  O   UNL A   1      30.016  23.403  27.345  1.00  0.00    -0.267 OA
BRANCH  12  14
ATOM     14  N   UNL A   1      32.054  22.793  26.509  1.00  0.00    -0.336 N 
ATOM     15  C   UNL A   1      33.095  22.448  27.468  1.00  0.00     0.147 C 
BRANCH  14  16
ATOM     16  C   UNL A   1      32.111  22.075  25.239  1.00  0.00     0.158 C 
BRANCH  16  17
ATOM     17  C   UNL A   1      33.249  22.569  24.407  1.00  0.00     0.009 A 
ATOM     18  C   UNL A   1      33.272  23.686  23.537  1.00  0.00     0.140 A 
ATOM     19  C   UNL A   1      34.544  22.088  24.349  1.00  0.00     0.113 A 
ATOM     20  N   UNL A   1      34.467  23.887  22.978  1.00  0.00    -0.181 NA
ATOM     21  N   UNL A   1      35.228  22.916  23.507  1.00  0.00    -0.275 N 
ATOM     22  C   UNL A   1      36.633  22.878  23.187  1.00  0.00     0.173 C 
ENDBRANCH  16  17
ENDBRANCH  14  16
ENDBRANCH  12  14
ENDBRANCH  11  12
ENDBRANCH   5   7
ENDBRANCH   1   5
BRANCH   3  23
ATOM     23  C   UNL A   1      31.401  30.782  26.079  1.00  0.00     0.117 C 
BRANCH  23  24
ATOM     24  C   UNL A   1      31.293  32.191  26.637  1.00  0.00     0.042 C 
BRANCH  24  25
ATOM     25  C   UNL A   1      32.622  32.868  26.923  1.00  0.00     0.118 C 
BRANCH  25  26
ATOM     26  N   UNL A   1      32.488  34.111  27.663  1.00  0.00    -0.352 N 
ATOM     27  C   UNL A   1      33.192  34.578  28.743  1.00  0.00     0.251 C 
ATOM     28  H   UNL A   1      31.779  34.713  27.338  1.00  0.00     0.163 HD
ATOM     29  O   UNL A   1      32.822  35.613  29.300  1.00  0.00    -0.269 OA
BRANCH  27  30
ATOM     30  C   UNL A   1      34.371  33.847  29.268  1.00  0.00     0.039 A 
ATOM     31  C   UNL A   1      35.646  34.254  28.860  1.00  0.00     0.014 A 
ATOM     32  C   UNL A   1      34.238  32.751  30.123  1.00  0.00     0.014 A 
ATOM     33  C   UNL A   1      36.779  33.596  29.347  1.00  0.00     0.010 A 
ATOM     34  C   UNL A   1      35.368  32.159  30.683  1.00  0.00     0.010 A 
ATOM     35  C   UNL A   1      36.652  32.558  30.284  1.00  0.00    -0.014 A 
BRANCH  35  36
ATOM     36  C   UNL A   1      37.842  31.843  30.812  1.00  0.00     0.031 A 
ATOM     37  C   UNL A   1      38.397  32.204  32.164  1.00  0.00     0.074 A 
ATOM     38  C   UNL A   1      38.456  30.906  30.064  1.00  0.00     0.049 A 
ATOM     39  N   UNL A   1      39.462  31.745  32.774  1.00  0.00    -0.248 NA
ATOM     40  C   UNL A   1      37.678  33.243  32.920  1.00  0.00     0.031 C 
ATOM     41  C   UNL A   1      38.052  30.494  28.718  1.00  0.00     0.029 A 
ATOM     42  N   UNL A   1      39.559  30.133  30.329  1.00  0.00    -0.354 N 
ATOM     43  C   UNL A   1      39.549  32.453  33.966  1.00  0.00     0.074 A 
ATOM     44  C   UNL A   1      38.466  33.411  33.969  1.00  0.00     0.031 C 
ATOM     45  C   UNL A   1      38.881  29.531  28.287  1.00  0.00     0.029 A 
ATOM     46  C   UNL A   1      39.892  29.276  29.309  1.00  0.00     0.049 A 
ATOM     47  H   UNL A   1      40.064  30.189  31.173  1.00  0.00     0.167 HD
ATOM     48  C   UNL A   1      40.432  32.302  34.982  1.00  0.00     0.037 A 
ATOM     49  C   UNL A   1      40.895  28.384  29.211  1.00  0.00     0.037 A 
ATOM     50  C   UNL A   1      41.488  31.324  34.999  1.00  0.00     0.049 A 
ATOM     51  C   UNL A   1      41.845  28.212  30.364  1.00  0.00     0.074 A 
ATOM     52  C   UNL A   1      42.408  31.062  36.000  1.00  0.00     0.029 A 
ATOM     53  N   UNL A   1      41.759  30.441  33.964  1.00  0.00    -0.354 N 
ATOM     54  N   UNL A   1      41.883  28.852  31.507  1.00  0.00    -0.248 NA
ATOM     55  C   UNL A   1      42.884  27.182  30.218  1.00  0.00     0.031 C 
ATOM     56  C   UNL A   1      43.254  30.039  35.559  1.00  0.00     0.029 A 
ATOM     57  C   UNL A   1      42.833  29.635  34.302  1.00  0.00     0.049 A 
ATOM     58  H   UNL A   1      41.262  30.394  33.116  1.00  0.00     0.167 HD
ATOM     59  C   UNL A   1      42.922  28.278  32.230  1.00  0.00     0.074 A 
ATOM     60  C   UNL A   1      43.483  27.234  31.399  1.00  0.00     0.031 C 
ATOM     61  C   UNL A   1      43.368  28.586  33.471  1.00  0.00     0.037 A 
BRANCH  48  62
ATOM     62  C   UNL A   1      40.280  33.211  36.167  1.00  0.00     0.057 A 
ATOM     63  C   UNL A   1      39.383  32.925  37.205  1.00  0.00     0.134 A 
ATOM     64  C   UNL A   1      41.048  34.377  36.279  1.00  0.00     0.134 A 
ATOM     65  F   UNL A   1      38.607  31.832  37.152  1.00  0.00    -0.206 F 
ATOM     66  C   UNL A   1      39.233  33.782  38.297  1.00  0.00     0.040 A 
ATOM     67  C   UNL A   1      40.928  35.225  37.381  1.00  0.00     0.040 A 
ATOM     68  F   UNL A   1      41.930  34.708  35.324  1.00  0.00    -0.206 F 
ATOM     69  C   UNL A   1      40.012  34.933  38.390  1.00  0.00     0.006 A 
ENDBRANCH  48  62
BRANCH  49  70
ATOM     70  C   UNL A   1      41.032  27.553  27.989  1.00  0.00     0.057 A 
ATOM     71  C   UNL A   1      41.766  28.007  26.887  1.00  0.00     0.134 A 
ATOM     72  C   UNL A   1      40.427  26.295  27.888  1.00  0.00     0.134 A 
ATOM     73  F   UNL A   1      42.354  29.213  26.919  1.00  0.00    -0.206 F 
ATOM     74  C   UNL A   1      41.878  27.250  25.720  1.00  0.00     0.040 A 
ATOM     75  C   UNL A   1      40.549  25.517  26.735  1.00  0.00     0.040 A 
ATOM     76  F   UNL A   1      39.716  25.801  28.911  1.00  0.00    -0.206 F 
ATOM     77  C   UNL A   1      41.271  25.998  25.644  1.00  0.00     0.006 A 
ENDBRANCH  49  70
BRANCH  61  78
ATOM     78  C   UNL A   1      44.482  27.750  34.029  1.00  0.00     0.057 A 
ATOM     79  C   UNL A   1      44.241  26.551  34.711  1.00  0.00     0.134 A 
ATOM     80  C   UNL A   1      45.817  28.138  33.851  1.00  0.00     0.134 A 
ATOM     81  F   UNL A   1      42.985  26.130  34.924  1.00  0.00    -0.206 F 
ATOM     82  C   UNL A   1      45.288  25.780  35.220  1.00  0.00     0.040 A 
ATOM     83  C   UNL A   1      46.871  27.362  34.333  1.00  0.00     0.040 A 
ATOM     84  F   UNL A   1      46.116  29.271  33.198  1.00  0.00    -0.206 F 
ATOM     85  C   UNL A   1      46.608  26.183  35.026  1.00  0.00     0.006 A 
ENDBRANCH  61  78
ENDBRANCH  35  36
ENDBRANCH  27  30
ENDBRANCH  25  26
ENDBRANCH  24  25
ENDBRANCH  23  24
ENDBRANCH   3  23
TORSDOF 15
ENDMDL
