MODEL 1
REMARK VINA RESULT:     -10.8      0.000      0.000
REMARK SMILES O=C(NCCCNC(=O)c1cc(-c2ccc(N3C(=O)[C@@H]4CC=CC[C@H]4C3=O)cc2)nc2c(Cl)cccc12)c1ccc(-c2c3nc(c(-c4c(F)cccc4F)c4ccc([nH]4)c(-c4c(F)cccc4F)c4nc(c(-c5c(F)cccc5F)c5ccc2[nH]5)C=C4)C=C3)cc1
REMARK SMILES IDX 5 1 4 2 3 3 1 4 2 5 38 7 39 8 91 9 40 10 90 11 41 12 42 13
REMARK SMILES IDX 43 14 84 15 44 16 89 17 83 18 85 19 45 20 88 21 82 22 81 23
REMARK SMILES IDX 46 25 72 26 55 27 71 28 56 29 59 30 70 31 86 32 57 33 58 34
REMARK SMILES IDX 69 36 87 37 60 38 47 39 48 40 53 41 49 42 50 43 52 44 54 45
REMARK SMILES IDX 51 46 73 47 74 48 79 49 75 50 76 51 78 52 80 53 77 54 61 55
REMARK SMILES IDX 62 56 67 57 63 58 64 59 66 60 68 61 65 62 6 63 7 64 8 65
REMARK SMILES IDX 9 67 10 68 11 69 37 70 12 71 31 72 36 73 30 74 32 75 35 76
REMARK SMILES IDX 33 77 34 78 13 79 14 80 29 81 15 82 28 83 16 84 17 85 18 86
REMARK SMILES IDX 26 87 19 88 20 89 25 90 27 91 21 92 24 93 22 94 23 95
REMARK H PARENT 3 6 85 24 59 35 7 66
REMARK Flexibility Score: inf
ROOT
ATOM      1  C   UNL A   1      45.915  23.084  25.529  1.00  0.00     0.042 C 
ENDROOT
BRANCH   1   2
ATOM      2  C   UNL A   1      46.783  24.223  26.037  1.00  0.00     0.118 C 
BRANCH   2   3
ATOM      3  N   UNL A   1      47.147  25.171  24.991  1.00  0.00    -0.352 N 
ATOM      4  O   UNL A   1      47.107  27.063  23.775  1.00  0.00    -0.269 OA
ATOM      5  C   UNL A   1      46.842  26.502  24.835  1.00  0.00     0.251 C 
ATOM      6  H   UNL A   1      47.707  24.794  24.274  1.00  0.00     0.163 HD
BRANCH   5   7
ATOM      7  C   UNL A   1      46.176  27.256  25.919  1.00  0.00     0.039 A 
ATOM      8  C   UNL A   1      46.919  27.931  26.884  1.00  0.00     0.014 A 
ATOM      9  C   UNL A   1      44.777  27.318  25.953  1.00  0.00     0.014 A 
ATOM     10  C   UNL A   1      46.283  28.493  27.981  1.00  0.00     0.010 A 
ATOM     11  C   UNL A   1      44.132  27.991  26.998  1.00  0.00     0.010 A 
ATOM     12  C   UNL A   1      44.881  28.551  28.043  1.00  0.00    -0.014 A 
BRANCH  12  13
ATOM     13  C   UNL A   1      44.248  29.256  29.187  1.00  0.00     0.031 A 
ATOM     14  C   UNL A   1      44.002  28.562  30.497  1.00  0.00     0.074 A 
ATOM     15  C   UNL A   1      43.961  30.566  29.051  1.00  0.00     0.049 A 
ATOM     16  N   UNL A   1      43.521  29.057  31.610  1.00  0.00    -0.248 NA
ATOM     17  C   UNL A   1      44.328  27.129  30.572  1.00  0.00     0.031 C 
ATOM     18  C   UNL A   1      44.139  31.343  27.821  1.00  0.00     0.029 A 
ATOM     19  N   UNL A   1      43.499  31.485  29.958  1.00  0.00    -0.354 N 
ATOM     20  C   UNL A   1      43.472  27.999  32.509  1.00  0.00     0.074 A 
ATOM     21  C   UNL A   1      43.948  26.827  31.806  1.00  0.00     0.031 C 
ATOM     22  C   UNL A   1      43.857  32.629  28.068  1.00  0.00     0.029 A 
ATOM     23  C   UNL A   1      43.419  32.758  29.452  1.00  0.00     0.049 A 
ATOM     24  H   UNL A   1      43.249  31.252  30.881  1.00  0.00     0.167 HD
ATOM     25  C   UNL A   1      43.076  28.009  33.806  1.00  0.00     0.037 A 
ATOM     26  C   UNL A   1      43.028  33.908  30.033  1.00  0.00     0.037 A 
ATOM     27  C   UNL A   1      42.618  29.179  34.507  1.00  0.00     0.049 A 
ATOM     28  C   UNL A   1      42.603  33.888  31.469  1.00  0.00     0.074 A 
ATOM     29  C   UNL A   1      42.195  29.289  35.822  1.00  0.00     0.029 A 
ATOM     30  N   UNL A   1      42.529  30.448  33.953  1.00  0.00    -0.354 N 
ATOM     31  N   UNL A   1      42.569  32.878  32.305  1.00  0.00    -0.248 NA
ATOM     32  C   UNL A   1      42.157  35.164  32.044  1.00  0.00     0.031 C 
ATOM     33  C   UNL A   1      41.826  30.618  36.055  1.00  0.00     0.029 A 
ATOM     34  C   UNL A   1      42.051  31.344  34.897  1.00  0.00     0.049 A 
ATOM     35  H   UNL A   1      42.768  30.677  33.027  1.00  0.00     0.167 HD
ATOM     36  C   UNL A   1      42.099  33.395  33.502  1.00  0.00     0.074 A 
ATOM     37  C   UNL A   1      41.893  34.815  33.294  1.00  0.00     0.031 C 
ATOM     38  C   UNL A   1      41.850  32.751  34.668  1.00  0.00     0.037 A 
BRANCH  25  39
ATOM     39  C   UNL A   1      43.116  26.708  34.553  1.00  0.00     0.057 A 
ATOM     40  C   UNL A   1      41.957  25.952  34.777  1.00  0.00     0.134 A 
ATOM     41  C   UNL A   1      44.330  26.180  35.009  1.00  0.00     0.134 A 
ATOM     42  F   UNL A   1      40.761  26.409  34.377  1.00  0.00    -0.206 F 
ATOM     43  C   UNL A   1      42.004  24.724  35.439  1.00  0.00     0.040 A 
ATOM     44  C   UNL A   1      44.393  24.944  35.654  1.00  0.00     0.040 A 
ATOM     45  F   UNL A   1      45.476  26.851  34.823  1.00  0.00    -0.206 F 
ATOM     46  C   UNL A   1      43.226  24.213  35.873  1.00  0.00     0.006 A 
ENDBRANCH  25  39
BRANCH  26  47
ATOM     47  C   UNL A   1      43.018  35.165  29.247  1.00  0.00     0.057 A 
ATOM     48  C   UNL A   1      44.183  35.919  29.067  1.00  0.00     0.134 A 
ATOM     49  C   UNL A   1      41.844  35.633  28.644  1.00  0.00     0.134 A 
ATOM     50  F   UNL A   1      45.334  35.528  29.634  1.00  0.00    -0.206 F 
ATOM     51  C   UNL A   1      44.178  37.102  28.327  1.00  0.00     0.040 A 
ATOM     52  C   UNL A   1      41.830  36.799  27.879  1.00  0.00     0.040 A 
ATOM     53  F   UNL A   1      40.698  34.948  28.772  1.00  0.00    -0.206 F 
ATOM     54  C   UNL A   1      42.999  37.541  27.725  1.00  0.00     0.006 A 
ENDBRANCH  26  47
BRANCH  38  55
ATOM     55  C   UNL A   1      41.337  33.586  35.802  1.00  0.00     0.057 A 
ATOM     56  C   UNL A   1      42.208  34.266  36.663  1.00  0.00     0.134 A 
ATOM     57  C   UNL A   1      39.963  33.715  36.030  1.00  0.00     0.134 A 
ATOM     58  F   UNL A   1      43.537  34.167  36.504  1.00  0.00    -0.206 F 
ATOM     59  C   UNL A   1      41.728  35.027  37.728  1.00  0.00     0.040 A 
ATOM     60  C   UNL A   1      39.471  34.491  37.080  1.00  0.00     0.040 A 
ATOM     61  F   UNL A   1      39.079  33.090  35.238  1.00  0.00    -0.206 F 
ATOM     62  C   UNL A   1      40.355  35.144  37.937  1.00  0.00     0.006 A 
ENDBRANCH  38  55
ENDBRANCH  12  13
ENDBRANCH   5   7
ENDBRANCH   2   3
ENDBRANCH   1   2
BRANCH   1  63
ATOM     63  C   UNL A   1      44.564  22.990  26.215  1.00  0.00     0.118 C 
BRANCH  63  64
ATOM     64  N   UNL A   1      44.674  22.681  27.635  1.00  0.00    -0.352 N 
ATOM     65  C   UNL A   1      43.738  22.799  28.631  1.00  0.00     0.252 C 
ATOM     66  H   UNL A   1      45.549  22.335  27.922  1.00  0.00     0.163 HD
ATOM     67  O   UNL A   1      44.042  22.578  29.798  1.00  0.00    -0.269 OA
BRANCH  65  68
ATOM     68  C   UNL A   1      42.371  23.244  28.303  1.00  0.00     0.051 A 
ATOM     69  C   UNL A   1      42.062  24.556  28.649  1.00  0.00     0.043 A 
ATOM     70  C   UNL A   1      41.437  22.410  27.648  1.00  0.00     0.015 A 
ATOM     71  C   UNL A   1      40.825  25.039  28.282  1.00  0.00     0.072 A 
ATOM     72  C   UNL A   1      40.232  23.015  27.242  1.00  0.00     0.090 A 
ATOM     73  C   UNL A   1      41.667  21.039  27.362  1.00  0.00     0.011 A 
ATOM     74  N   UNL A   1      39.944  24.296  27.575  1.00  0.00    -0.246 NA
ATOM     75  C   UNL A   1      39.356  22.241  26.465  1.00  0.00     0.067 A 
ATOM     76  C   UNL A   1      40.778  20.298  26.594  1.00  0.00     0.002 A 
ATOM     77  Cl  UNL A   1      37.884  22.924  25.851  1.00  0.00    -0.082 Cl
ATOM     78  C   UNL A   1      39.626  20.908  26.126  1.00  0.00     0.023 A 
BRANCH  71  79
ATOM     79  C   UNL A   1      40.381  26.385  28.649  1.00  0.00     0.000 A 
ATOM     80  C   UNL A   1      41.040  27.529  28.185  1.00  0.00     0.012 A 
ATOM     81  C   UNL A   1      39.279  26.558  29.495  1.00  0.00     0.012 A 
ATOM     82  C   UNL A   1      40.603  28.810  28.551  1.00  0.00     0.027 A 
ATOM     83  C   UNL A   1      38.869  27.837  29.894  1.00  0.00     0.027 A 
ATOM     84  C   UNL A   1      39.519  28.984  29.424  1.00  0.00     0.052 A 
BRANCH  84  85
ATOM     85  N   UNL A   1      39.090  30.279  29.816  1.00  0.00    -0.250 N 
ATOM     86  C   UNL A   1      39.546  30.958  30.939  1.00  0.00     0.238 C 
ATOM     87  C   UNL A   1      38.154  31.041  29.125  1.00  0.00     0.238 C 
ATOM     88  O   UNL A   1      40.259  30.575  31.856  1.00  0.00    -0.274 OA
ATOM     89  C   UNL A   1      39.100  32.380  30.761  1.00  0.00     0.096 C 
ATOM     90  C   UNL A   1      37.781  32.163  30.049  1.00  0.00     0.096 C 
ATOM     91  O   UNL A   1      37.611  30.836  28.049  1.00  0.00    -0.274 OA
ATOM     92  C   UNL A   1      38.917  33.255  31.983  1.00  0.00     0.041 C 
ATOM     93  C   UNL A   1      37.264  33.460  29.460  1.00  0.00     0.041 C 
ATOM     94  C   UNL A   1      38.078  34.463  31.626  1.00  0.00    -0.030 C 
ATOM     95  C   UNL A   1      37.364  34.565  30.488  1.00  0.00    -0.030 C 
ENDBRANCH  84  85
ENDBRANCH  71  79
ENDBRANCH  65  68
ENDBRANCH  63  64
ENDBRANCH   1  63
TORSDOF 12
ENDMDL
MODEL 2
REMARK VINA RESULT:     -10.7      2.941     10.893
REMARK SMILES O=C(NCCCNC(=O)c1cc(-c2ccc(N3C(=O)[C@@H]4CC=CC[C@H]4C3=O)cc2)nc2c(Cl)cccc12)c1ccc(-c2c3nc(c(-c4c(F)cccc4F)c4ccc([nH]4)c(-c4c(F)cccc4F)c4nc(c(-c5c(F)cccc5F)c5ccc2[nH]5)C=C4)C=C3)cc1
REMARK SMILES IDX 5 1 4 2 3 3 1 4 2 5 38 7 39 8 91 9 40 10 90 11 41 12 42 13
REMARK SMILES IDX 43 14 84 15 44 16 89 17 83 18 85 19 45 20 88 21 82 22 81 23
REMARK SMILES IDX 46 25 72 26 55 27 71 28 56 29 59 30 70 31 86 32 57 33 58 34
REMARK SMILES IDX 69 36 87 37 60 38 47 39 48 40 53 41 49 42 50 43 52 44 54 45
REMARK SMILES IDX 51 46 73 47 74 48 79 49 75 50 76 51 78 52 80 53 77 54 61 55
REMARK SMILES IDX 62 56 67 57 63 58 64 59 66 60 68 61 65 62 6 63 7 64 8 65
REMARK SMILES IDX 9 67 10 68 11 69 37 70 12 71 31 72 36 73 30 74 32 75 35 76
REMARK SMILES IDX 33 77 34 78 13 79 14 80 29 81 15 82 28 83 16 84 17 85 18 86
REMARK SMILES IDX 26 87 19 88 20 89 25 90 27 91 21 92 24 93 22 94 23 95
REMARK H PARENT 3 6 85 24 59 35 7 66
REMARK Flexibility Score: inf
ROOT
ATOM      1  C   UNL A   1      36.372  34.249  33.828  1.00  0.00     0.042 C 
ENDROOT
BRANCH   1   2
ATOM      2  C   UNL A   1      37.574  34.204  34.758  1.00  0.00     0.118 C 
BRANCH   2   3
ATOM      3  N   UNL A   1      37.463  33.169  35.779  1.00  0.00    -0.352 N 
ATOM      4  O   UNL A   1      37.666  31.143  36.737  1.00  0.00    -0.269 OA
ATOM      5  C   UNL A   1      38.044  31.927  35.870  1.00  0.00     0.251 C 
ATOM      6  H   UNL A   1      36.873  33.400  36.532  1.00  0.00     0.163 HD
BRANCH   5   7
ATOM      7  C   UNL A   1      39.101  31.516  34.920  1.00  0.00     0.039 A 
ATOM      8  C   UNL A   1      38.779  30.893  33.716  1.00  0.00     0.014 A 
ATOM      9  C   UNL A   1      40.441  31.788  35.223  1.00  0.00     0.014 A 
ATOM     10  C   UNL A   1      39.786  30.370  32.917  1.00  0.00     0.010 A 
ATOM     11  C   UNL A   1      41.455  31.365  34.355  1.00  0.00     0.010 A 
ATOM     12  C   UNL A   1      41.136  30.617  33.213  1.00  0.00    -0.014 A 
BRANCH  12  13
ATOM     13  C   UNL A   1      42.172  30.125  32.269  1.00  0.00     0.031 A 
ATOM     14  C   UNL A   1      42.676  30.981  31.141  1.00  0.00     0.074 A 
ATOM     15  C   UNL A   1      42.712  28.909  32.488  1.00  0.00     0.049 A 
ATOM     16  N   UNL A   1      43.623  30.722  30.274  1.00  0.00    -0.248 NA
ATOM     17  C   UNL A   1      42.035  32.293  30.953  1.00  0.00     0.031 C 
ATOM     18  C   UNL A   1      42.291  27.979  33.540  1.00  0.00     0.029 A 
ATOM     19  N   UNL A   1      43.750  28.261  31.871  1.00  0.00    -0.354 N 
ATOM     20  C   UNL A   1      43.681  31.825  29.431  1.00  0.00     0.074 A 
ATOM     21  C   UNL A   1      42.657  32.747  29.873  1.00  0.00     0.031 C 
ATOM     22  C   UNL A   1      43.106  26.916  33.539  1.00  0.00     0.029 A 
ATOM     23  C   UNL A   1      44.063  27.056  32.449  1.00  0.00     0.049 A 
ATOM     24  H   UNL A   1      44.224  28.625  31.087  1.00  0.00     0.167 HD
ATOM     25  C   UNL A   1      44.520  32.051  28.391  1.00  0.00     0.037 A 
ATOM     26  C   UNL A   1      45.012  26.155  32.137  1.00  0.00     0.037 A 
ATOM     27  C   UNL A   1      45.549  31.139  27.963  1.00  0.00     0.049 A 
ATOM     28  C   UNL A   1      45.930  26.437  30.986  1.00  0.00     0.074 A 
ATOM     29  C   UNL A   1      46.449  31.279  26.919  1.00  0.00     0.029 A 
ATOM     30  N   UNL A   1      45.820  29.917  28.561  1.00  0.00    -0.354 N 
ATOM     31  N   UNL A   1      45.973  27.488  30.204  1.00  0.00    -0.248 NA
ATOM     32  C   UNL A   1      46.927  25.406  30.669  1.00  0.00     0.031 C 
ATOM     33  C   UNL A   1      47.247  30.131  26.871  1.00  0.00     0.029 A 
ATOM     34  C   UNL A   1      46.868  29.291  27.905  1.00  0.00     0.049 A 
ATOM     35  H   UNL A   1      45.339  29.550  29.337  1.00  0.00     0.167 HD
ATOM     36  C   UNL A   1      46.999  27.247  29.304  1.00  0.00     0.074 A 
ATOM     37  C   UNL A   1      47.575  25.964  29.657  1.00  0.00     0.031 C 
ATOM     38  C   UNL A   1      47.422  28.014  28.270  1.00  0.00     0.037 A 
BRANCH  25  39
ATOM     39  C   UNL A   1      44.358  33.338  27.635  1.00  0.00     0.057 A 
ATOM     40  C   UNL A   1      43.778  33.375  26.361  1.00  0.00     0.134 A 
ATOM     41  C   UNL A   1      44.740  34.558  28.208  1.00  0.00     0.134 A 
ATOM     42  F   UNL A   1      43.403  32.239  25.752  1.00  0.00    -0.206 F 
ATOM     43  C   UNL A   1      43.594  34.578  25.677  1.00  0.00     0.040 A 
ATOM     44  C   UNL A   1      44.542  35.770  27.543  1.00  0.00     0.040 A 
ATOM     45  F   UNL A   1      45.297  34.593  29.427  1.00  0.00    -0.206 F 
ATOM     46  C   UNL A   1      43.970  35.781  26.273  1.00  0.00     0.006 A 
ENDBRANCH  25  39
BRANCH  26  47
ATOM     47  C   UNL A   1      45.131  24.905  32.925  1.00  0.00     0.057 A 
ATOM     48  C   UNL A   1      45.862  24.864  34.117  1.00  0.00     0.134 A 
ATOM     49  C   UNL A   1      44.502  23.724  32.510  1.00  0.00     0.134 A 
ATOM     50  F   UNL A   1      46.499  25.959  34.556  1.00  0.00    -0.206 F 
ATOM     51  C   UNL A   1      45.975  23.690  34.863  1.00  0.00     0.040 A 
ATOM     52  C   UNL A   1      44.584  22.551  33.259  1.00  0.00     0.040 A 
ATOM     53  F   UNL A   1      43.778  23.704  31.381  1.00  0.00    -0.206 F 
ATOM     54  C   UNL A   1      45.329  22.530  34.436  1.00  0.00     0.006 A 
ENDBRANCH  26  47
BRANCH  38  55
ATOM     55  C   UNL A   1      48.565  27.481  27.461  1.00  0.00     0.057 A 
ATOM     56  C   UNL A   1      49.895  27.665  27.862  1.00  0.00     0.134 A 
ATOM     57  C   UNL A   1      48.334  26.775  26.275  1.00  0.00     0.134 A 
ATOM     58  F   UNL A   1      50.179  28.348  28.981  1.00  0.00    -0.206 F 
ATOM     59  C   UNL A   1      50.958  27.184  27.097  1.00  0.00     0.040 A 
ATOM     60  C   UNL A   1      49.389  26.271  25.513  1.00  0.00     0.040 A 
ATOM     61  F   UNL A   1      47.083  26.564  25.840  1.00  0.00    -0.206 F 
ATOM     62  C   UNL A   1      50.705  26.482  25.921  1.00  0.00     0.006 A 
ENDBRANCH  38  55
ENDBRANCH  12  13
ENDBRANCH   5   7
ENDBRANCH   2   3
ENDBRANCH   1   2
BRANCH   1  63
ATOM     63  C   UNL A   1      36.645  33.683  32.446  1.00  0.00     0.118 C 
BRANCH  63  64
ATOM     64  N   UNL A   1      37.560  34.511  31.669  1.00  0.00    -0.352 N 
ATOM     65  C   UNL A   1      38.060  34.315  30.408  1.00  0.00     0.252 C 
ATOM     66  H   UNL A   1      37.862  35.333  32.116  1.00  0.00     0.163 HD
ATOM     67  O   UNL A   1      38.901  35.078  29.947  1.00  0.00    -0.269 OA
BRANCH  65  68
ATOM     68  C   UNL A   1      37.621  33.149  29.618  1.00  0.00     0.051 A 
ATOM     69  C   UNL A   1      38.520  32.089  29.553  1.00  0.00     0.043 A 
ATOM     70  C   UNL A   1      36.355  33.087  28.993  1.00  0.00     0.015 A 
ATOM     71  C   UNL A   1      38.114  30.946  28.899  1.00  0.00     0.072 A 
ATOM     72  C   UNL A   1      35.997  31.852  28.420  1.00  0.00     0.090 A 
ATOM     73  C   UNL A   1      35.443  34.174  28.948  1.00  0.00     0.011 A 
ATOM     74  N   UNL A   1      36.876  30.822  28.369  1.00  0.00    -0.246 NA
ATOM     75  C   UNL A   1      34.690  31.729  27.923  1.00  0.00     0.067 A 
ATOM     76  C   UNL A   1      34.157  34.023  28.446  1.00  0.00     0.002 A 
ATOM     77  Cl  UNL A   1      34.132  30.222  27.271  1.00  0.00    -0.082 Cl
ATOM     78  C   UNL A   1      33.772  32.788  27.949  1.00  0.00     0.023 A 
BRANCH  71  79
ATOM     79  C   UNL A   1      39.005  29.798  28.723  1.00  0.00     0.000 A 
ATOM     80  C   UNL A   1      39.590  29.148  29.815  1.00  0.00     0.012 A 
ATOM     81  C   UNL A   1      39.306  29.328  27.439  1.00  0.00     0.012 A 
ATOM     82  C   UNL A   1      40.447  28.053  29.627  1.00  0.00     0.027 A 
ATOM     83  C   UNL A   1      40.193  28.261  27.250  1.00  0.00     0.027 A 
ATOM     84  C   UNL A   1      40.773  27.601  28.340  1.00  0.00     0.052 A 
BRANCH  84  85
ATOM     85  N   UNL A   1      41.657  26.507  28.147  1.00  0.00    -0.250 N 
ATOM     86  C   UNL A   1      41.268  25.174  28.097  1.00  0.00     0.238 C 
ATOM     87  C   UNL A   1      43.033  26.627  27.982  1.00  0.00     0.238 C 
ATOM     88  O   UNL A   1      40.183  24.660  28.330  1.00  0.00    -0.274 OA
ATOM     89  C   UNL A   1      42.446  24.430  27.539  1.00  0.00     0.096 C 
ATOM     90  C   UNL A   1      43.582  25.238  28.131  1.00  0.00     0.096 C 
ATOM     91  O   UNL A   1      43.729  27.625  27.863  1.00  0.00    -0.274 OA
ATOM     92  C   UNL A   1      42.607  22.958  27.857  1.00  0.00     0.041 C 
ATOM     93  C   UNL A   1      44.898  24.892  27.463  1.00  0.00     0.041 C 
ATOM     94  C   UNL A   1      44.030  22.527  27.572  1.00  0.00    -0.030 C 
ATOM     95  C   UNL A   1      45.044  23.390  27.370  1.00  0.00    -0.030 C 
ENDBRANCH  84  85
ENDBRANCH  71  79
ENDBRANCH  65  68
ENDBRANCH  63  64
ENDBRANCH   1  63
TORSDOF 12
ENDMDL
MODEL 3
REMARK VINA RESULT:     -10.5      0.574      5.805
REMARK SMILES O=C(NCCCNC(=O)c1cc(-c2ccc(N3C(=O)[C@@H]4CC=CC[C@H]4C3=O)cc2)nc2c(Cl)cccc12)c1ccc(-c2c3nc(c(-c4c(F)cccc4F)c4ccc([nH]4)c(-c4c(F)cccc4F)c4nc(c(-c5c(F)cccc5F)c5ccc2[nH]5)C=C4)C=C3)cc1
REMARK SMILES IDX 5 1 4 2 3 3 1 4 2 5 38 7 39 8 91 9 40 10 90 11 41 12 42 13
REMARK SMILES IDX 43 14 84 15 44 16 89 17 83 18 85 19 45 20 88 21 82 22 81 23
REMARK SMILES IDX 46 25 72 26 55 27 71 28 56 29 59 30 70 31 86 32 57 33 58 34
REMARK SMILES IDX 69 36 87 37 60 38 47 39 48 40 53 41 49 42 50 43 52 44 54 45
REMARK SMILES IDX 51 46 73 47 74 48 79 49 75 50 76 51 78 52 80 53 77 54 61 55
REMARK SMILES IDX 62 56 67 57 63 58 64 59 66 60 68 61 65 62 6 63 7 64 8 65
REMARK SMILES IDX 9 67 10 68 11 69 37 70 12 71 31 72 36 73 30 74 32 75 35 76
REMARK SMILES IDX 33 77 34 78 13 79 14 80 29 81 15 82 28 83 16 84 17 85 18 86
REMARK SMILES IDX 26 87 19 88 20 89 25 90 27 91 21 92 24 93 22 94 23 95
REMARK H PARENT 3 6 85 24 59 35 7 66
REMARK Flexibility Score: inf
ROOT
ATOM      1  C   UNL A   1      45.919  23.136  25.358  1.00  0.00     0.042 C 
ENDROOT
BRANCH   1   2
ATOM      2  C   UNL A   1      46.598  24.360  25.950  1.00  0.00     0.118 C 
BRANCH   2   3
ATOM      3  N   UNL A   1      47.007  25.328  24.939  1.00  0.00    -0.352 N 
ATOM      4  O   UNL A   1      47.066  27.269  23.803  1.00  0.00    -0.269 OA
ATOM      5  C   UNL A   1      46.778  26.680  24.842  1.00  0.00     0.251 C 
ATOM      6  H   UNL A   1      47.537  24.949  24.202  1.00  0.00     0.163 HD
BRANCH   5   7
ATOM      7  C   UNL A   1      46.166  27.425  25.964  1.00  0.00     0.039 A 
ATOM      8  C   UNL A   1      46.954  28.140  26.863  1.00  0.00     0.014 A 
ATOM      9  C   UNL A   1      44.773  27.437  26.102  1.00  0.00     0.014 A 
ATOM     10  C   UNL A   1      46.381  28.695  27.998  1.00  0.00     0.010 A 
ATOM     11  C   UNL A   1      44.183  28.102  27.183  1.00  0.00     0.010 A 
ATOM     12  C   UNL A   1      44.986  28.703  28.163  1.00  0.00    -0.014 A 
BRANCH  12  13
ATOM     13  C   UNL A   1      44.414  29.402  29.343  1.00  0.00     0.031 A 
ATOM     14  C   UNL A   1      43.999  30.845  29.274  1.00  0.00     0.074 A 
ATOM     15  C   UNL A   1      44.204  28.691  30.468  1.00  0.00     0.049 A 
ATOM     16  N   UNL A   1      43.424  31.578  30.194  1.00  0.00    -0.248 NA
ATOM     17  C   UNL A   1      44.268  31.564  28.018  1.00  0.00     0.031 C 
ATOM     18  C   UNL A   1      44.583  27.287  30.660  1.00  0.00     0.029 A 
ATOM     19  N   UNL A   1      43.590  29.030  31.646  1.00  0.00    -0.354 N 
ATOM     20  C   UNL A   1      43.276  32.843  29.639  1.00  0.00     0.074 A 
ATOM     21  C   UNL A   1      43.845  32.786  28.309  1.00  0.00     0.031 C 
ATOM     22  C   UNL A   1      44.133  26.869  31.850  1.00  0.00     0.029 A 
ATOM     23  C   UNL A   1      43.492  27.986  32.532  1.00  0.00     0.049 A 
ATOM     24  H   UNL A   1      43.253  29.936  31.837  1.00  0.00     0.167 HD
ATOM     25  C   UNL A   1      42.707  33.945  30.185  1.00  0.00     0.037 A 
ATOM     26  C   UNL A   1      42.953  27.931  33.763  1.00  0.00     0.037 A 
ATOM     27  C   UNL A   1      42.128  33.993  31.502  1.00  0.00     0.049 A 
ATOM     28  C   UNL A   1      42.325  29.164  34.337  1.00  0.00     0.074 A 
ATOM     29  C   UNL A   1      41.527  35.064  32.144  1.00  0.00     0.029 A 
ATOM     30  N   UNL A   1      42.068  32.920  32.379  1.00  0.00    -0.354 N 
ATOM     31  N   UNL A   1      42.189  30.350  33.795  1.00  0.00    -0.248 NA
ATOM     32  C   UNL A   1      41.779  29.056  35.697  1.00  0.00     0.031 C 
ATOM     33  C   UNL A   1      41.129  34.646  33.418  1.00  0.00     0.029 A 
ATOM     34  C   UNL A   1      41.449  33.305  33.558  1.00  0.00     0.049 A 
ATOM     35  H   UNL A   1      42.416  32.018  32.191  1.00  0.00     0.167 HD
ATOM     36  C   UNL A   1      41.544  31.128  34.742  1.00  0.00     0.074 A 
ATOM     37  C   UNL A   1      41.286  30.271  35.883  1.00  0.00     0.031 C 
ATOM     38  C   UNL A   1      41.205  32.438  34.681  1.00  0.00     0.037 A 
BRANCH  25  39
ATOM     39  C   UNL A   1      42.688  35.198  29.359  1.00  0.00     0.057 A 
ATOM     40  C   UNL A   1      41.545  35.597  28.654  1.00  0.00     0.134 A 
ATOM     41  C   UNL A   1      43.807  36.038  29.307  1.00  0.00     0.134 A 
ATOM     42  F   UNL A   1      40.445  34.829  28.652  1.00  0.00    -0.206 F 
ATOM     43  C   UNL A   1      41.520  36.783  27.918  1.00  0.00     0.040 A 
ATOM     44  C   UNL A   1      43.787  37.237  28.590  1.00  0.00     0.040 A 
ATOM     45  F   UNL A   1      44.931  35.716  29.962  1.00  0.00    -0.206 F 
ATOM     46  C   UNL A   1      42.641  37.610  27.891  1.00  0.00     0.006 A 
ENDBRANCH  25  39
BRANCH  26  47
ATOM     47  C   UNL A   1      42.993  26.662  34.530  1.00  0.00     0.057 A 
ATOM     48  C   UNL A   1      44.191  26.170  35.058  1.00  0.00     0.134 A 
ATOM     49  C   UNL A   1      41.828  25.920  34.765  1.00  0.00     0.134 A 
ATOM     50  F   UNL A   1      45.340  26.829  34.853  1.00  0.00    -0.206 F 
ATOM     51  C   UNL A   1      44.233  24.977  35.781  1.00  0.00     0.040 A 
ATOM     52  C   UNL A   1      41.851  24.741  35.508  1.00  0.00     0.040 A 
ATOM     53  F   UNL A   1      40.648  26.346  34.292  1.00  0.00    -0.206 F 
ATOM     54  C   UNL A   1      43.058  24.263  36.013  1.00  0.00     0.006 A 
ENDBRANCH  26  47
BRANCH  38  55
ATOM     55  C   UNL A   1      40.511  33.011  35.879  1.00  0.00     0.057 A 
ATOM     56  C   UNL A   1      41.228  33.600  36.928  1.00  0.00     0.134 A 
ATOM     57  C   UNL A   1      39.116  32.978  35.980  1.00  0.00     0.134 A 
ATOM     58  F   UNL A   1      42.568  33.645  36.895  1.00  0.00    -0.206 F 
ATOM     59  C   UNL A   1      40.579  34.116  38.051  1.00  0.00     0.040 A 
ATOM     60  C   UNL A   1      38.455  33.511  37.088  1.00  0.00     0.040 A 
ATOM     61  F   UNL A   1      38.374  32.431  35.005  1.00  0.00    -0.206 F 
ATOM     62  C   UNL A   1      39.189  34.075  38.131  1.00  0.00     0.006 A 
ENDBRANCH  38  55
ENDBRANCH  12  13
ENDBRANCH   5   7
ENDBRANCH   2   3
ENDBRANCH   1   2
BRANCH   1  63
ATOM     63  C   UNL A   1      44.617  22.765  26.045  1.00  0.00     0.118 C 
BRANCH  63  64
ATOM     64  N   UNL A   1      44.770  22.585  27.483  1.00  0.00    -0.352 N 
ATOM     65  C   UNL A   1      43.850  22.746  28.488  1.00  0.00     0.252 C 
ATOM     66  H   UNL A   1      45.666  22.305  27.777  1.00  0.00     0.163 HD
ATOM     67  O   UNL A   1      44.188  22.641  29.662  1.00  0.00    -0.269 OA
BRANCH  65  68
ATOM     68  C   UNL A   1      42.457  23.099  28.157  1.00  0.00     0.051 A 
ATOM     69  C   UNL A   1      42.078  24.406  28.446  1.00  0.00     0.043 A 
ATOM     70  C   UNL A   1      41.565  22.186  27.550  1.00  0.00     0.015 A 
ATOM     71  C   UNL A   1      40.813  24.803  28.073  1.00  0.00     0.072 A 
ATOM     72  C   UNL A   1      40.325  22.703  27.132  1.00  0.00     0.090 A 
ATOM     73  C   UNL A   1      41.870  20.818  27.323  1.00  0.00     0.011 A 
ATOM     74  N   UNL A   1      39.968  23.980  27.411  1.00  0.00    -0.246 NA
ATOM     75  C   UNL A   1      39.486  21.848  26.401  1.00  0.00     0.067 A 
ATOM     76  C   UNL A   1      41.017  19.995  26.599  1.00  0.00     0.002 A 
ATOM     77  Cl  UNL A   1      37.973  22.419  25.775  1.00  0.00    -0.082 Cl
ATOM     78  C   UNL A   1      39.827  20.518  26.119  1.00  0.00     0.023 A 
BRANCH  71  79
ATOM     79  C   UNL A   1      40.297  26.137  28.385  1.00  0.00     0.000 A 
ATOM     80  C   UNL A   1      39.379  26.347  29.419  1.00  0.00     0.012 A 
ATOM     81  C   UNL A   1      40.706  27.245  27.634  1.00  0.00     0.012 A 
ATOM     82  C   UNL A   1      38.890  27.632  29.699  1.00  0.00     0.027 A 
ATOM     83  C   UNL A   1      40.187  28.521  27.886  1.00  0.00     0.027 A 
ATOM     84  C   UNL A   1      39.276  28.737  28.927  1.00  0.00     0.052 A 
BRANCH  84  85
ATOM     85  N   UNL A   1      38.765  30.035  29.193  1.00  0.00    -0.250 N 
ATOM     86  C   UNL A   1      39.290  30.915  30.132  1.00  0.00     0.238 C 
ATOM     87  C   UNL A   1      37.669  30.597  28.549  1.00  0.00     0.238 C 
ATOM     88  O   UNL A   1      40.156  30.740  30.979  1.00  0.00    -0.274 OA
ATOM     89  C   UNL A   1      38.674  32.248  29.826  1.00  0.00     0.096 C 
ATOM     90  C   UNL A   1      37.303  31.811  29.353  1.00  0.00     0.096 C 
ATOM     91  O   UNL A   1      37.013  30.184  27.603  1.00  0.00    -0.274 OA
ATOM     92  C   UNL A   1      38.561  33.281  30.928  1.00  0.00     0.041 C 
ATOM     93  C   UNL A   1      36.576  32.952  28.671  1.00  0.00     0.041 C 
ATOM     94  C   UNL A   1      37.557  34.342  30.533  1.00  0.00    -0.030 C 
ATOM     95  C   UNL A   1      36.691  34.205  29.510  1.00  0.00    -0.030 C 
ENDBRANCH  84  85
ENDBRANCH  71  79
ENDBRANCH  65  68
ENDBRANCH  63  64
ENDBRANCH   1  63
TORSDOF 12
ENDMDL
