MODEL 1
REMARK VINA RESULT:     -11.3      0.000      0.000
REMARK SMILES CC[C@H](C)[C@H](NC(=O)N1CCCCC1)C(=O)NCCCNC(=O)c1ccc(-c2c3nc(c(-c4c(F)cccc4F)c4ccc([nH]4)c(-c4c(F)cccc4F)c4nc(c(-c5c(F)cccc5F)c5ccc2[nH]5)C=C4)C=C3)cc1
REMARK SMILES IDX 19 1 18 2 17 3 15 4 16 5 5 7 3 8 4 9 2 10 1 11 6 12 7 13
REMARK SMILES IDX 8 15 9 16 10 17 14 18 11 19 13 20 12 21 20 22 21 23 22 24
REMARK SMILES IDX 23 26 24 27 25 28 77 29 26 30 76 31 27 32 28 33 29 34 70 35
REMARK SMILES IDX 30 36 75 37 69 38 71 39 31 40 74 41 68 42 67 43 32 45 58 46
REMARK SMILES IDX 41 47 57 48 42 49 45 50 56 51 72 52 43 53 44 54 55 56 73 57
REMARK SMILES IDX 46 58 33 59 34 60 39 61 35 62 36 63 38 64 40 65 37 66 59 67
REMARK SMILES IDX 60 68 65 69 61 70 62 71 64 72 66 73 63 74 47 75 48 76 53 77
REMARK SMILES IDX 49 78 50 79 52 80 54 81 51 82
REMARK H PARENT 17 6 6 14 21 25 71 44 45 55
REMARK Flexibility Score: inf
ROOT
ATOM      1  C   UNL A   1      31.396  32.150  26.512  1.00  0.00     0.042 C 
ENDROOT
BRANCH   1   2
ATOM      2  C   UNL A   1      31.409  30.653  26.221  1.00  0.00     0.117 C 
BRANCH   2   3
ATOM      3  N   UNL A   1      32.396  30.134  25.306  1.00  0.00    -0.354 N 
ATOM      4  C   UNL A   1      32.333  29.175  24.342  1.00  0.00     0.242 C 
ATOM      5  O   UNL A   1      33.309  29.106  23.581  1.00  0.00    -0.273 OA
ATOM      6  H   UNL A   1      33.283  30.553  25.395  1.00  0.00     0.163 HD
BRANCH   4   7
ATOM      7  C   UNL A   1      31.155  28.188  24.165  1.00  0.00     0.176 C 
BRANCH   7   8
ATOM      8  C   UNL A   1      29.955  28.898  23.418  1.00  0.00     0.018 C 
ATOM      9  C   UNL A   1      30.292  29.590  22.083  1.00  0.00     0.010 C 
BRANCH   8  10
ATOM     10  C   UNL A   1      28.724  27.981  23.166  1.00  0.00     0.002 C 
ATOM     11  C   UNL A   1      27.380  28.697  23.114  1.00  0.00     0.004 C 
ENDBRANCH   8  10
ENDBRANCH   7   8
BRANCH   7  12
ATOM     12  N   UNL A   1      30.709  27.342  25.311  1.00  0.00    -0.326 N 
ATOM     13  C   UNL A   1      30.872  26.059  25.735  1.00  0.00     0.318 C 
ATOM     14  H   UNL A   1      30.141  27.853  25.932  1.00  0.00     0.166 HD
ATOM     15  O   UNL A   1      29.940  25.625  26.421  1.00  0.00    -0.249 OA
ATOM     16  N   UNL A   1      32.001  25.311  25.504  1.00  0.00    -0.325 N 
ATOM     17  C   UNL A   1      32.051  23.917  25.951  1.00  0.00     0.121 C 
ATOM     18  C   UNL A   1      33.136  25.742  24.733  1.00  0.00     0.121 C 
ATOM     19  C   UNL A   1      33.399  23.573  26.588  1.00  0.00     0.022 C 
ATOM     20  C   UNL A   1      34.520  25.227  25.090  1.00  0.00     0.022 C 
ATOM     21  C   UNL A   1      34.549  23.814  25.618  1.00  0.00     0.004 C 
ENDBRANCH   7  12
ENDBRANCH   4   7
ENDBRANCH   2   3
ENDBRANCH   1   2
BRANCH   1  22
ATOM     22  C   UNL A   1      32.681  32.828  26.991  1.00  0.00     0.118 C 
BRANCH  22  23
ATOM     23  N   UNL A   1      32.499  34.099  27.665  1.00  0.00    -0.352 N 
ATOM     24  C   UNL A   1      33.202  34.612  28.721  1.00  0.00     0.251 C 
ATOM     25  H   UNL A   1      31.775  34.667  27.318  1.00  0.00     0.163 HD
ATOM     26  O   UNL A   1      32.843  35.671  29.244  1.00  0.00    -0.269 OA
BRANCH  24  27
ATOM     27  C   UNL A   1      34.380  33.901  29.252  1.00  0.00     0.039 A 
ATOM     28  C   UNL A   1      35.649  34.319  28.846  1.00  0.00     0.014 A 
ATOM     29  C   UNL A   1      34.236  32.798  30.099  1.00  0.00     0.014 A 
ATOM     30  C   UNL A   1      36.779  33.651  29.315  1.00  0.00     0.010 A 
ATOM     31  C   UNL A   1      35.371  32.155  30.601  1.00  0.00     0.010 A 
ATOM     32  C   UNL A   1      36.653  32.574  30.211  1.00  0.00    -0.014 A 
BRANCH  32  33
ATOM     33  C   UNL A   1      37.872  31.918  30.750  1.00  0.00     0.031 A 
ATOM     34  C   UNL A   1      38.396  32.258  32.117  1.00  0.00     0.074 A 
ATOM     35  C   UNL A   1      38.504  30.997  29.996  1.00  0.00     0.049 A 
ATOM     36  N   UNL A   1      39.398  31.726  32.773  1.00  0.00    -0.248 NA
ATOM     37  C   UNL A   1      37.717  33.345  32.837  1.00  0.00     0.031 C 
ATOM     38  C   UNL A   1      38.121  30.619  28.635  1.00  0.00     0.029 A 
ATOM     39  N   UNL A   1      39.592  30.205  30.269  1.00  0.00    -0.354 N 
ATOM     40  C   UNL A   1      39.462  32.404  33.984  1.00  0.00     0.074 A 
ATOM     41  C   UNL A   1      38.438  33.427  33.947  1.00  0.00     0.031 C 
ATOM     42  C   UNL A   1      38.938  29.646  28.204  1.00  0.00     0.029 A 
ATOM     43  C   UNL A   1      39.918  29.350  29.244  1.00  0.00     0.049 A 
ATOM     44  H   UNL A   1      40.089  30.246  31.117  1.00  0.00     0.167 HD
ATOM     45  C   UNL A   1      40.283  32.179  35.039  1.00  0.00     0.037 A 
ATOM     46  C   UNL A   1      40.894  28.428  29.154  1.00  0.00     0.037 A 
ATOM     47  C   UNL A   1      41.306  31.164  35.065  1.00  0.00     0.049 A 
ATOM     48  C   UNL A   1      41.800  28.206  30.333  1.00  0.00     0.074 A 
ATOM     49  C   UNL A   1      42.169  30.834  36.097  1.00  0.00     0.029 A 
ATOM     50  N   UNL A   1      41.613  30.321  34.007  1.00  0.00    -0.354 N 
ATOM     51  N   UNL A   1      41.799  28.802  31.501  1.00  0.00    -0.248 NA
ATOM     52  C   UNL A   1      42.834  27.174  30.187  1.00  0.00     0.031 C 
ATOM     53  C   UNL A   1      43.029  29.826  35.645  1.00  0.00     0.029 A 
ATOM     54  C   UNL A   1      42.665  29.487  34.352  1.00  0.00     0.049 A 
ATOM     55  H   UNL A   1      41.151  30.316  33.137  1.00  0.00     0.167 HD
ATOM     56  C   UNL A   1      42.814  28.202  32.236  1.00  0.00     0.074 A 
ATOM     57  C   UNL A   1      43.390  27.177  31.390  1.00  0.00     0.031 C 
ATOM     58  C   UNL A   1      43.232  28.475  33.497  1.00  0.00     0.037 A 
BRANCH  45  59
ATOM     59  C   UNL A   1      40.105  33.047  36.253  1.00  0.00     0.057 A 
ATOM     60  C   UNL A   1      39.174  32.734  37.253  1.00  0.00     0.134 A 
ATOM     61  C   UNL A   1      40.895  34.187  36.446  1.00  0.00     0.134 A 
ATOM     62  F   UNL A   1      38.380  31.660  37.131  1.00  0.00    -0.206 F 
ATOM     63  C   UNL A   1      39.015  33.539  38.384  1.00  0.00     0.040 A 
ATOM     64  C   UNL A   1      40.765  34.984  37.585  1.00  0.00     0.040 A 
ATOM     65  F   UNL A   1      41.814  34.543  35.535  1.00  0.00    -0.206 F 
ATOM     66  C   UNL A   1      39.817  34.665  38.555  1.00  0.00     0.006 A 
ENDBRANCH  45  59
BRANCH  46  67
ATOM     67  C   UNL A   1      41.051  27.630  27.911  1.00  0.00     0.057 A 
ATOM     68  C   UNL A   1      40.426  26.387  27.759  1.00  0.00     0.134 A 
ATOM     69  C   UNL A   1      41.836  28.090  26.846  1.00  0.00     0.134 A 
ATOM     70  F   UNL A   1      39.675  25.883  28.749  1.00  0.00    -0.206 F 
ATOM     71  C   UNL A   1      40.596  25.618  26.606  1.00  0.00     0.040 A 
ATOM     72  C   UNL A   1      41.990  27.346  25.675  1.00  0.00     0.040 A 
ATOM     73  F   UNL A   1      42.453  29.278  26.923  1.00  0.00    -0.206 F 
ATOM     74  C   UNL A   1      41.376  26.101  25.557  1.00  0.00     0.006 A 
ENDBRANCH  46  67
BRANCH  58  75
ATOM     75  C   UNL A   1      44.351  27.632  34.042  1.00  0.00     0.057 A 
ATOM     76  C   UNL A   1      44.113  26.413  34.692  1.00  0.00     0.134 A 
ATOM     77  C   UNL A   1      45.684  28.038  33.900  1.00  0.00     0.134 A 
ATOM     78  F   UNL A   1      42.859  25.972  34.873  1.00  0.00    -0.206 F 
ATOM     79  C   UNL A   1      45.158  25.648  35.213  1.00  0.00     0.040 A 
ATOM     80  C   UNL A   1      46.739  27.265  34.388  1.00  0.00     0.040 A 
ATOM     81  F   UNL A   1      45.985  29.188  33.279  1.00  0.00    -0.206 F 
ATOM     82  C   UNL A   1      46.476  26.072  35.056  1.00  0.00     0.006 A 
ENDBRANCH  58  75
ENDBRANCH  32  33
ENDBRANCH  24  27
ENDBRANCH  22  23
ENDBRANCH   1  22
TORSDOF 13
ENDMDL
MODEL 2
REMARK VINA RESULT:     -11.3      0.624      1.612
REMARK SMILES CC[C@H](C)[C@H](NC(=O)N1CCCCC1)C(=O)NCCCNC(=O)c1ccc(-c2c3nc(c(-c4c(F)cccc4F)c4ccc([nH]4)c(-c4c(F)cccc4F)c4nc(c(-c5c(F)cccc5F)c5ccc2[nH]5)C=C4)C=C3)cc1
REMARK SMILES IDX 19 1 18 2 17 3 15 4 16 5 5 7 3 8 4 9 2 10 1 11 6 12 7 13
REMARK SMILES IDX 8 15 9 16 10 17 14 18 11 19 13 20 12 21 20 22 21 23 22 24
REMARK SMILES IDX 23 26 24 27 25 28 77 29 26 30 76 31 27 32 28 33 29 34 70 35
REMARK SMILES IDX 30 36 75 37 69 38 71 39 31 40 74 41 68 42 67 43 32 45 58 46
REMARK SMILES IDX 41 47 57 48 42 49 45 50 56 51 72 52 43 53 44 54 55 56 73 57
REMARK SMILES IDX 46 58 33 59 34 60 39 61 35 62 36 63 38 64 40 65 37 66 59 67
REMARK SMILES IDX 60 68 65 69 61 70 62 71 64 72 66 73 63 74 47 75 48 76 53 77
REMARK SMILES IDX 49 78 50 79 52 80 54 81 51 82
REMARK H PARENT 17 6 6 14 21 25 71 44 45 55
REMARK Flexibility Score: inf
ROOT
ATOM      1  C   UNL A   1      31.351  31.641  26.264  1.00  0.00     0.042 C 
ENDROOT
BRANCH   1   2
ATOM      2  C   UNL A   1      31.510  30.247  25.667  1.00  0.00     0.117 C 
BRANCH   2   3
ATOM      3  N   UNL A   1      32.732  29.927  24.971  1.00  0.00    -0.354 N 
ATOM      4  C   UNL A   1      33.115  28.837  24.251  1.00  0.00     0.242 C 
ATOM      5  O   UNL A   1      34.163  28.957  23.601  1.00  0.00    -0.273 OA
ATOM      6  H   UNL A   1      33.420  30.630  25.027  1.00  0.00     0.163 HD
BRANCH   4   7
ATOM      7  C   UNL A   1      32.345  27.495  24.219  1.00  0.00     0.176 C 
BRANCH   7   8
ATOM      8  C   UNL A   1      31.238  27.527  23.089  1.00  0.00     0.018 C 
ATOM      9  C   UNL A   1      31.344  26.448  21.994  1.00  0.00     0.010 C 
BRANCH   8  10
ATOM     10  C   UNL A   1      29.777  27.502  23.622  1.00  0.00     0.002 C 
ATOM     11  C   UNL A   1      28.867  28.596  23.077  1.00  0.00     0.004 C 
ENDBRANCH   8  10
ENDBRANCH   7   8
BRANCH   7  12
ATOM     12  N   UNL A   1      31.862  26.878  25.489  1.00  0.00    -0.326 N 
ATOM     13  C   UNL A   1      31.883  25.654  26.082  1.00  0.00     0.318 C 
ATOM     14  H   UNL A   1      31.403  27.540  26.055  1.00  0.00     0.166 HD
ATOM     15  O   UNL A   1      30.945  25.446  26.859  1.00  0.00    -0.249 OA
ATOM     16  N   UNL A   1      32.890  24.734  25.912  1.00  0.00    -0.325 N 
ATOM     17  C   UNL A   1      32.786  23.419  26.549  1.00  0.00     0.121 C 
ATOM     18  C   UNL A   1      34.023  24.900  25.043  1.00  0.00     0.121 C 
ATOM     19  C   UNL A   1      34.114  22.983  27.172  1.00  0.00     0.022 C 
ATOM     20  C   UNL A   1      35.349  24.254  25.412  1.00  0.00     0.022 C 
ATOM     21  C   UNL A   1      35.225  22.934  26.132  1.00  0.00     0.004 C 
ENDBRANCH   7  12
ENDBRANCH   4   7
ENDBRANCH   2   3
ENDBRANCH   1   2
BRANCH   1  22
ATOM     22  C   UNL A   1      32.568  32.332  26.880  1.00  0.00     0.118 C 
BRANCH  22  23
ATOM     23  N   UNL A   1      32.327  33.661  27.409  1.00  0.00    -0.352 N 
ATOM     24  C   UNL A   1      33.021  34.332  28.379  1.00  0.00     0.251 C 
ATOM     25  H   UNL A   1      31.564  34.144  27.020  1.00  0.00     0.163 HD
ATOM     26  O   UNL A   1      32.613  35.422  28.787  1.00  0.00    -0.269 OA
BRANCH  24  27
ATOM     27  C   UNL A   1      34.250  33.753  28.955  1.00  0.00     0.039 A 
ATOM     28  C   UNL A   1      34.126  32.745  29.912  1.00  0.00     0.014 A 
ATOM     29  C   UNL A   1      35.513  34.234  28.594  1.00  0.00     0.014 A 
ATOM     30  C   UNL A   1      35.270  32.195  30.488  1.00  0.00     0.010 A 
ATOM     31  C   UNL A   1      36.659  33.654  29.142  1.00  0.00     0.010 A 
ATOM     32  C   UNL A   1      36.549  32.631  30.096  1.00  0.00    -0.014 A 
BRANCH  32  33
ATOM     33  C   UNL A   1      37.756  31.986  30.675  1.00  0.00     0.031 A 
ATOM     34  C   UNL A   1      38.245  32.348  32.049  1.00  0.00     0.074 A 
ATOM     35  C   UNL A   1      38.408  31.055  29.951  1.00  0.00     0.049 A 
ATOM     36  N   UNL A   1      39.231  31.827  32.737  1.00  0.00    -0.248 NA
ATOM     37  C   UNL A   1      37.547  33.444  32.735  1.00  0.00     0.031 C 
ATOM     38  C   UNL A   1      38.058  30.655  28.587  1.00  0.00     0.029 A 
ATOM     39  N   UNL A   1      39.489  30.269  30.262  1.00  0.00    -0.354 N 
ATOM     40  C   UNL A   1      39.266  32.524  33.939  1.00  0.00     0.074 A 
ATOM     41  C   UNL A   1      38.241  33.544  33.861  1.00  0.00     0.031 C 
ATOM     42  C   UNL A   1      38.887  29.677  28.190  1.00  0.00     0.029 A 
ATOM     43  C   UNL A   1      39.842  29.400  29.259  1.00  0.00     0.049 A 
ATOM     44  H   UNL A   1      39.966  30.324  31.122  1.00  0.00     0.167 HD
ATOM     45  C   UNL A   1      40.061  32.316  35.016  1.00  0.00     0.037 A 
ATOM     46  C   UNL A   1      40.821  28.478  29.207  1.00  0.00     0.037 A 
ATOM     47  C   UNL A   1      41.085  31.304  35.084  1.00  0.00     0.049 A 
ATOM     48  C   UNL A   1      41.699  28.276  30.411  1.00  0.00     0.074 A 
ATOM     49  C   UNL A   1      41.922  30.991  36.141  1.00  0.00     0.029 A 
ATOM     50  N   UNL A   1      41.418  30.445  34.046  1.00  0.00    -0.354 N 
ATOM     51  N   UNL A   1      41.668  28.889  31.569  1.00  0.00    -0.248 NA
ATOM     52  C   UNL A   1      42.738  27.243  30.305  1.00  0.00     0.031 C 
ATOM     53  C   UNL A   1      42.795  29.979  35.725  1.00  0.00     0.029 A 
ATOM     54  C   UNL A   1      42.463  29.619  34.430  1.00  0.00     0.049 A 
ATOM     55  H   UNL A   1      40.977  30.427  33.165  1.00  0.00     0.167 HD
ATOM     56  C   UNL A   1      42.665  28.302  32.338  1.00  0.00     0.074 A 
ATOM     57  C   UNL A   1      43.264  27.266  31.521  1.00  0.00     0.031 C 
ATOM     58  C   UNL A   1      43.053  28.595  33.603  1.00  0.00     0.037 A 
BRANCH  45  59
ATOM     59  C   UNL A   1      39.852  33.202  36.213  1.00  0.00     0.057 A 
ATOM     60  C   UNL A   1      40.563  34.399  36.378  1.00  0.00     0.134 A 
ATOM     61  C   UNL A   1      38.907  32.877  37.195  1.00  0.00     0.134 A 
ATOM     62  F   UNL A   1      41.489  34.769  35.481  1.00  0.00    -0.206 F 
ATOM     63  C   UNL A   1      40.363  35.223  37.488  1.00  0.00     0.040 A 
ATOM     64  C   UNL A   1      38.677  33.707  38.294  1.00  0.00     0.040 A 
ATOM     65  F   UNL A   1      38.182  31.752  37.097  1.00  0.00    -0.206 F 
ATOM     66  C   UNL A   1      39.412  34.880  38.447  1.00  0.00     0.006 A 
ENDBRANCH  45  59
BRANCH  46  67
ATOM     67  C   UNL A   1      41.010  27.661  27.980  1.00  0.00     0.057 A 
ATOM     68  C   UNL A   1      40.397  26.412  27.835  1.00  0.00     0.134 A 
ATOM     69  C   UNL A   1      41.814  28.110  26.925  1.00  0.00     0.134 A 
ATOM     70  F   UNL A   1      39.627  25.919  28.816  1.00  0.00    -0.206 F 
ATOM     71  C   UNL A   1      40.596  25.626  26.698  1.00  0.00     0.040 A 
ATOM     72  C   UNL A   1      41.997  27.349  25.769  1.00  0.00     0.040 A 
ATOM     73  F   UNL A   1      42.422  29.303  26.996  1.00  0.00    -0.206 F 
ATOM     74  C   UNL A   1      41.395  26.097  25.658  1.00  0.00     0.006 A 
ENDBRANCH  46  67
BRANCH  58  75
ATOM     75  C   UNL A   1      44.159  27.763  34.188  1.00  0.00     0.057 A 
ATOM     76  C   UNL A   1      45.501  28.162  34.125  1.00  0.00     0.134 A 
ATOM     77  C   UNL A   1      43.875  26.554  34.836  1.00  0.00     0.134 A 
ATOM     78  F   UNL A   1      45.843  29.302  33.508  1.00  0.00    -0.206 F 
ATOM     79  C   UNL A   1      46.523  27.371  34.653  1.00  0.00     0.040 A 
ATOM     80  C   UNL A   1      44.886  25.771  35.397  1.00  0.00     0.040 A 
ATOM     81  F   UNL A   1      42.612  26.116  34.943  1.00  0.00    -0.206 F 
ATOM     82  C   UNL A   1      46.215  26.173  35.296  1.00  0.00     0.006 A 
ENDBRANCH  58  75
ENDBRANCH  32  33
ENDBRANCH  24  27
ENDBRANCH  22  23
ENDBRANCH   1  22
TORSDOF 13
ENDMDL
MODEL 3
REMARK VINA RESULT:     -11.3      4.995      9.940
REMARK SMILES CC[C@H](C)[C@H](NC(=O)N1CCCCC1)C(=O)NCCCNC(=O)c1ccc(-c2c3nc(c(-c4c(F)cccc4F)c4ccc([nH]4)c(-c4c(F)cccc4F)c4nc(c(-c5c(F)cccc5F)c5ccc2[nH]5)C=C4)C=C3)cc1
REMARK SMILES IDX 19 1 18 2 17 3 15 4 16 5 5 7 3 8 4 9 2 10 1 11 6 12 7 13
REMARK SMILES IDX 8 15 9 16 10 17 14 18 11 19 13 20 12 21 20 22 21 23 22 24
REMARK SMILES IDX 23 26 24 27 25 28 77 29 26 30 76 31 27 32 28 33 29 34 70 35
REMARK SMILES IDX 30 36 75 37 69 38 71 39 31 40 74 41 68 42 67 43 32 45 58 46
REMARK SMILES IDX 41 47 57 48 42 49 45 50 56 51 72 52 43 53 44 54 55 56 73 57
REMARK SMILES IDX 46 58 33 59 34 60 39 61 35 62 36 63 38 64 40 65 37 66 59 67
REMARK SMILES IDX 60 68 65 69 61 70 62 71 64 72 66 73 63 74 47 75 48 76 53 77
REMARK SMILES IDX 49 78 50 79 52 80 54 81 51 82
REMARK H PARENT 17 6 6 14 21 25 71 44 45 55
REMARK Flexibility Score: inf
ROOT
ATOM      1  C   UNL A   1      37.541  19.740  24.963  1.00  0.00     0.042 C 
ENDROOT
BRANCH   1   2
ATOM      2  C   UNL A   1      36.393  20.730  24.794  1.00  0.00     0.117 C 
BRANCH   2   3
ATOM      3  N   UNL A   1      35.538  20.998  25.926  1.00  0.00    -0.354 N 
ATOM      4  C   UNL A   1      34.193  21.174  26.032  1.00  0.00     0.242 C 
ATOM      5  O   UNL A   1      33.737  21.183  27.184  1.00  0.00    -0.273 OA
ATOM      6  H   UNL A   1      36.019  21.066  26.783  1.00  0.00     0.163 HD
BRANCH   4   7
ATOM      7  C   UNL A   1      33.238  21.375  24.831  1.00  0.00     0.176 C 
BRANCH   7   8
ATOM      8  C   UNL A   1      32.514  20.015  24.475  1.00  0.00     0.018 C 
ATOM      9  C   UNL A   1      32.190  19.780  22.986  1.00  0.00     0.010 C 
BRANCH   8  10
ATOM     10  C   UNL A   1      33.244  18.744  24.995  1.00  0.00     0.002 C 
ATOM     11  C   UNL A   1      33.935  17.908  23.925  1.00  0.00     0.004 C 
ENDBRANCH   8  10
ENDBRANCH   7   8
BRANCH   7  12
ATOM     12  N   UNL A   1      33.702  22.122  23.624  1.00  0.00    -0.326 N 
ATOM     13  C   UNL A   1      33.507  23.346  23.065  1.00  0.00     0.318 C 
ATOM     14  H   UNL A   1      34.321  21.578  23.085  1.00  0.00     0.166 HD
ATOM     15  O   UNL A   1      33.648  23.376  21.837  1.00  0.00    -0.249 OA
ATOM     16  N   UNL A   1      33.252  24.488  23.784  1.00  0.00    -0.325 N 
ATOM     17  C   UNL A   1      32.996  25.747  23.081  1.00  0.00     0.121 C 
ATOM     18  C   UNL A   1      33.090  24.547  25.212  1.00  0.00     0.121 C 
ATOM     19  C   UNL A   1      33.720  26.923  23.739  1.00  0.00     0.022 C 
ATOM     20  C   UNL A   1      33.507  25.803  25.960  1.00  0.00     0.022 C 
ATOM     21  C   UNL A   1      33.305  27.087  25.195  1.00  0.00     0.004 C 
ENDBRANCH   7  12
ENDBRANCH   4   7
ENDBRANCH   2   3
ENDBRANCH   1   2
BRANCH   1  22
ATOM     22  C   UNL A   1      38.767  20.150  25.779  1.00  0.00     0.118 C 
BRANCH  22  23
ATOM     23  N   UNL A   1      39.874  19.214  25.751  1.00  0.00    -0.352 N 
ATOM     24  C   UNL A   1      41.193  19.443  26.038  1.00  0.00     0.251 C 
ATOM     25  H   UNL A   1      39.649  18.292  25.491  1.00  0.00     0.163 HD
ATOM     26  O   UNL A   1      42.026  18.551  25.859  1.00  0.00    -0.269 OA
BRANCH  24  27
ATOM     27  C   UNL A   1      41.630  20.757  26.546  1.00  0.00     0.039 A 
ATOM     28  C   UNL A   1      41.973  21.747  25.624  1.00  0.00     0.014 A 
ATOM     29  C   UNL A   1      41.751  20.996  27.919  1.00  0.00     0.014 A 
ATOM     30  C   UNL A   1      42.409  22.991  26.078  1.00  0.00     0.010 A 
ATOM     31  C   UNL A   1      42.149  22.257  28.372  1.00  0.00     0.010 A 
ATOM     32  C   UNL A   1      42.485  23.265  27.455  1.00  0.00    -0.014 A 
BRANCH  32  33
ATOM     33  C   UNL A   1      42.890  24.618  27.916  1.00  0.00     0.031 A 
ATOM     34  C   UNL A   1      44.338  25.017  27.971  1.00  0.00     0.074 A 
ATOM     35  C   UNL A   1      41.934  25.497  28.277  1.00  0.00     0.049 A 
ATOM     36  N   UNL A   1      44.862  26.180  28.272  1.00  0.00    -0.248 NA
ATOM     37  C   UNL A   1      45.327  23.974  27.663  1.00  0.00     0.031 C 
ATOM     38  C   UNL A   1      40.499  25.209  28.314  1.00  0.00     0.029 A 
ATOM     39  N   UNL A   1      42.022  26.808  28.670  1.00  0.00    -0.354 N 
ATOM     40  C   UNL A   1      46.238  26.012  28.179  1.00  0.00     0.074 A 
ATOM     41  C   UNL A   1      46.469  24.620  27.853  1.00  0.00     0.031 C 
ATOM     42  C   UNL A   1      39.839  26.320  28.674  1.00  0.00     0.029 A 
ATOM     43  C   UNL A   1      40.802  27.388  28.922  1.00  0.00     0.049 A 
ATOM     44  H   UNL A   1      42.877  27.288  28.763  1.00  0.00     0.167 HD
ATOM     45  C   UNL A   1      47.217  26.938  28.326  1.00  0.00     0.037 A 
ATOM     46  C   UNL A   1      40.493  28.641  29.303  1.00  0.00     0.037 A 
ATOM     47  C   UNL A   1      46.980  28.320  28.657  1.00  0.00     0.049 A 
ATOM     48  C   UNL A   1      41.598  29.647  29.473  1.00  0.00     0.074 A 
ATOM     49  C   UNL A   1      47.900  29.345  28.797  1.00  0.00     0.029 A 
ATOM     50  N   UNL A   1      45.731  28.870  28.911  1.00  0.00    -0.354 N 
ATOM     51  N   UNL A   1      42.890  29.493  29.305  1.00  0.00    -0.248 NA
ATOM     52  C   UNL A   1      41.202  31.004  29.871  1.00  0.00     0.031 C 
ATOM     53  C   UNL A   1      47.214  30.502  29.186  1.00  0.00     0.029 A 
ATOM     54  C   UNL A   1      45.860  30.214  29.229  1.00  0.00     0.049 A 
ATOM     55  H   UNL A   1      44.879  28.378  28.872  1.00  0.00     0.167 HD
ATOM     56  C   UNL A   1      43.457  30.736  29.554  1.00  0.00     0.074 A 
ATOM     57  C   UNL A   1      42.365  31.638  29.858  1.00  0.00     0.031 C 
ATOM     58  C   UNL A   1      44.763  31.099  29.535  1.00  0.00     0.037 A 
BRANCH  45  59
ATOM     59  C   UNL A   1      48.636  26.484  28.126  1.00  0.00     0.057 A 
ATOM     60  C   UNL A   1      49.248  26.507  26.865  1.00  0.00     0.134 A 
ATOM     61  C   UNL A   1      49.413  26.052  29.209  1.00  0.00     0.134 A 
ATOM     62  F   UNL A   1      48.561  26.903  25.783  1.00  0.00    -0.206 F 
ATOM     63  C   UNL A   1      50.569  26.090  26.684  1.00  0.00     0.040 A 
ATOM     64  C   UNL A   1      50.744  25.660  29.045  1.00  0.00     0.040 A 
ATOM     65  F   UNL A   1      48.897  26.012  30.447  1.00  0.00    -0.206 F 
ATOM     66  C   UNL A   1      51.322  25.671  27.778  1.00  0.00     0.006 A 
ENDBRANCH  45  59
BRANCH  46  67
ATOM     67  C   UNL A   1      39.075  29.022  29.530  1.00  0.00     0.057 A 
ATOM     68  C   UNL A   1      38.290  29.552  28.500  1.00  0.00     0.134 A 
ATOM     69  C   UNL A   1      38.473  28.870  30.785  1.00  0.00     0.134 A 
ATOM     70  F   UNL A   1      38.812  29.738  27.278  1.00  0.00    -0.206 F 
ATOM     71  C   UNL A   1      36.966  29.941  28.715  1.00  0.00     0.040 A 
ATOM     72  C   UNL A   1      37.142  29.225  31.006  1.00  0.00     0.040 A 
ATOM     73  F   UNL A   1      39.167  28.358  31.812  1.00  0.00    -0.206 F 
ATOM     74  C   UNL A   1      36.386  29.772  29.971  1.00  0.00     0.006 A 
ENDBRANCH  46  67
BRANCH  58  75
ATOM     75  C   UNL A   1      45.076  32.540  29.825  1.00  0.00     0.057 A 
ATOM     76  C   UNL A   1      45.104  33.511  28.815  1.00  0.00     0.134 A 
ATOM     77  C   UNL A   1      45.336  32.963  31.134  1.00  0.00     0.134 A 
ATOM     78  F   UNL A   1      44.876  33.171  27.538  1.00  0.00    -0.206 F 
ATOM     79  C   UNL A   1      45.416  34.843  29.092  1.00  0.00     0.040 A 
ATOM     80  C   UNL A   1      45.618  34.298  31.428  1.00  0.00     0.040 A 
ATOM     81  F   UNL A   1      45.316  32.088  32.152  1.00  0.00    -0.206 F 
ATOM     82  C   UNL A   1      45.669  35.240  30.404  1.00  0.00     0.006 A 
ENDBRANCH  58  75
ENDBRANCH  32  33
ENDBRANCH  24  27
ENDBRANCH  22  23
ENDBRANCH   1  22
TORSDOF 13
ENDMDL
