MODEL 1
REMARK VINA RESULT:     -11.8      0.000      0.000
REMARK SMILES CC(C)C[C@H](NC(=O)c1cc(Cl)nnc1Cl)C(=O)NCCCNC(=O)c1ccc(-c2c3nc(c(-c4c(F)cccc4F)c4ccc([nH]4)c(-c4c(F)cccc4F)c4nc(c(-c5c(F)cccc5F)c5ccc2[nH]5)C=C4)C=C3)cc1
REMARK SMILES IDX 21 1 20 2 19 3 17 4 18 5 5 7 4 8 2 9 1 10 3 11 6 12 7 13
REMARK SMILES IDX 8 15 9 16 10 17 15 18 11 19 14 20 16 21 12 22 13 23 22 24
REMARK SMILES IDX 23 25 24 26 25 28 26 29 27 30 79 31 28 32 78 33 29 34 30 35
REMARK SMILES IDX 31 36 72 37 32 38 77 39 71 40 73 41 33 42 76 43 70 44 69 45
REMARK SMILES IDX 34 47 60 48 43 49 59 50 44 51 47 52 58 53 74 54 45 55 46 56
REMARK SMILES IDX 57 58 75 59 48 60 35 61 36 62 41 63 37 64 38 65 40 66 42 67
REMARK SMILES IDX 39 68 61 69 62 70 67 71 63 72 64 73 66 74 68 75 65 76 49 77
REMARK SMILES IDX 50 78 55 79 51 80 52 81 54 82 56 83 53 84
REMARK H PARENT 19 6 6 14 23 27 73 46 47 57
REMARK Flexibility Score: inf
ROOT
ATOM      1  C   UNL A   1      31.416  32.223  26.496  1.00  0.00     0.042 C 
ENDROOT
BRANCH   1   2
ATOM      2  C   UNL A   1      31.418  30.704  26.508  1.00  0.00     0.117 C 
BRANCH   2   3
ATOM      3  N   UNL A   1      32.575  30.162  25.816  1.00  0.00    -0.354 N 
ATOM      4  C   UNL A   1      32.734  28.957  25.201  1.00  0.00     0.242 C 
ATOM      5  O   UNL A   1      33.842  28.689  24.731  1.00  0.00    -0.273 OA
ATOM      6  H   UNL A   1      33.361  30.754  25.787  1.00  0.00     0.163 HD
BRANCH   4   7
ATOM      7  C   UNL A   1      31.570  27.953  25.140  1.00  0.00     0.171 C 
BRANCH   7   8
ATOM      8  C   UNL A   1      31.650  26.824  26.185  1.00  0.00     0.038 C 
BRANCH   8   9
ATOM      9  C   UNL A   1      32.167  25.430  25.772  1.00  0.00    -0.015 C 
ATOM     10  C   UNL A   1      33.684  25.324  25.670  1.00  0.00     0.007 C 
ATOM     11  C   UNL A   1      31.641  24.395  26.778  1.00  0.00     0.007 C 
ENDBRANCH   8   9
ENDBRANCH   7   8
BRANCH   7  12
ATOM     12  N   UNL A   1      31.483  27.560  23.709  1.00  0.00    -0.340 N 
ATOM     13  C   UNL A   1      30.653  27.852  22.667  1.00  0.00     0.255 C 
ATOM     14  H   UNL A   1      32.200  26.936  23.450  1.00  0.00     0.164 HD
ATOM     15  O   UNL A   1      30.819  27.325  21.572  1.00  0.00    -0.269 OA
BRANCH  13  16
ATOM     16  C   UNL A   1      29.479  28.695  22.842  1.00  0.00     0.082 A 
ATOM     17  C   UNL A   1      29.589  30.045  22.502  1.00  0.00     0.060 A 
ATOM     18  C   UNL A   1      28.286  28.205  23.330  1.00  0.00     0.164 A 
ATOM     19  C   UNL A   1      28.453  30.813  22.600  1.00  0.00     0.152 A 
ATOM     20  N   UNL A   1      27.195  28.993  23.414  1.00  0.00    -0.136 NA
ATOM     21  Cl  UNL A   1      28.035  26.585  23.826  1.00  0.00    -0.059 Cl
ATOM     22  Cl  UNL A   1      28.435  32.454  22.123  1.00  0.00    -0.060 Cl
ATOM     23  N   UNL A   1      27.276  30.313  23.028  1.00  0.00    -0.137 NA
ENDBRANCH  13  16
ENDBRANCH   7  12
ENDBRANCH   4   7
ENDBRANCH   2   3
ENDBRANCH   1   2
BRANCH   1  24
ATOM     24  C   UNL A   1      32.594  32.813  27.257  1.00  0.00     0.118 C 
BRANCH  24  25
ATOM     25  N   UNL A   1      32.369  34.209  27.622  1.00  0.00    -0.352 N 
ATOM     26  C   UNL A   1      32.983  34.953  28.598  1.00  0.00     0.251 C 
ATOM     27  H   UNL A   1      31.683  34.680  27.097  1.00  0.00     0.163 HD
ATOM     28  O   UNL A   1      32.532  36.041  28.936  1.00  0.00    -0.269 OA
BRANCH  26  29
ATOM     29  C   UNL A   1      34.186  34.407  29.250  1.00  0.00     0.039 A 
ATOM     30  C   UNL A   1      34.055  33.673  30.430  1.00  0.00     0.014 A 
ATOM     31  C   UNL A   1      35.436  34.585  28.650  1.00  0.00     0.014 A 
ATOM     32  C   UNL A   1      35.178  33.051  30.972  1.00  0.00     0.010 A 
ATOM     33  C   UNL A   1      36.536  33.898  29.145  1.00  0.00     0.010 A 
ATOM     34  C   UNL A   1      36.415  33.133  30.314  1.00  0.00    -0.014 A 
BRANCH  34  35
ATOM     35  C   UNL A   1      37.614  32.452  30.853  1.00  0.00     0.031 A 
ATOM     36  C   UNL A   1      38.261  32.975  32.103  1.00  0.00     0.074 A 
ATOM     37  C   UNL A   1      38.147  31.410  30.188  1.00  0.00     0.049 A 
ATOM     38  N   UNL A   1      39.325  32.541  32.724  1.00  0.00    -0.248 NA
ATOM     39  C   UNL A   1      37.641  34.159  32.720  1.00  0.00     0.031 C 
ATOM     40  C   UNL A   1      37.639  30.852  28.934  1.00  0.00     0.029 A 
ATOM     41  N   UNL A   1      39.243  30.639  30.477  1.00  0.00    -0.354 N 
ATOM     42  C   UNL A   1      39.503  33.398  33.803  1.00  0.00     0.074 A 
ATOM     43  C   UNL A   1      38.479  34.415  33.712  1.00  0.00     0.031 C 
ATOM     44  C   UNL A   1      38.410  29.811  28.574  1.00  0.00     0.029 A 
ATOM     45  C   UNL A   1      39.472  29.643  29.559  1.00  0.00     0.049 A 
ATOM     46  H   UNL A   1      39.812  30.784  31.267  1.00  0.00     0.167 HD
ATOM     47  C   UNL A   1      40.416  33.325  34.798  1.00  0.00     0.037 A 
ATOM     48  C   UNL A   1      40.430  28.698  29.529  1.00  0.00     0.037 A 
ATOM     49  C   UNL A   1      41.424  32.305  34.894  1.00  0.00     0.049 A 
ATOM     50  C   UNL A   1      41.438  28.644  30.642  1.00  0.00     0.074 A 
ATOM     51  C   UNL A   1      42.370  32.113  35.884  1.00  0.00     0.029 A 
ATOM     52  N   UNL A   1      41.613  31.301  33.956  1.00  0.00    -0.354 N 
ATOM     53  N   UNL A   1      41.549  29.413  31.698  1.00  0.00    -0.248 NA
ATOM     54  C   UNL A   1      42.450  27.579  30.565  1.00  0.00     0.031 C 
ATOM     55  C   UNL A   1      43.152  31.007  35.530  1.00  0.00     0.029 A 
ATOM     56  C   UNL A   1      42.669  30.492  34.338  1.00  0.00     0.049 A 
ATOM     57  H   UNL A   1      41.076  31.181  33.140  1.00  0.00     0.167 HD
ATOM     58  C   UNL A   1      42.616  28.907  32.428  1.00  0.00     0.074 A 
ATOM     59  C   UNL A   1      43.116  27.760  31.696  1.00  0.00     0.031 C 
ATOM     60  C   UNL A   1      43.137  29.348  33.598  1.00  0.00     0.037 A 
BRANCH  47  61
ATOM     61  C   UNL A   1      40.343  34.377  35.864  1.00  0.00     0.057 A 
ATOM     62  C   UNL A   1      39.538  34.202  36.996  1.00  0.00     0.134 A 
ATOM     63  C   UNL A   1      41.085  35.563  35.773  1.00  0.00     0.134 A 
ATOM     64  F   UNL A   1      38.804  33.089  37.144  1.00  0.00    -0.206 F 
ATOM     65  C   UNL A   1      39.478  35.167  38.002  1.00  0.00     0.040 A 
ATOM     66  C   UNL A   1      41.053  36.524  36.785  1.00  0.00     0.040 A 
ATOM     67  F   UNL A   1      41.892  35.782  34.723  1.00  0.00    -0.206 F 
ATOM     68  C   UNL A   1      40.244  36.328  37.903  1.00  0.00     0.006 A 
ENDBRANCH  47  61
BRANCH  48  69
ATOM     69  C   UNL A   1      40.459  27.697  28.436  1.00  0.00     0.057 A 
ATOM     70  C   UNL A   1      39.748  26.494  28.522  1.00  0.00     0.134 A 
ATOM     71  C   UNL A   1      41.185  27.937  27.264  1.00  0.00     0.134 A 
ATOM     72  F   UNL A   1      39.039  26.205  29.622  1.00  0.00    -0.206 F 
ATOM     73  C   UNL A   1      39.755  25.568  27.478  1.00  0.00     0.040 A 
ATOM     74  C   UNL A   1      41.185  27.029  26.205  1.00  0.00     0.040 A 
ATOM     75  F   UNL A   1      41.872  29.079  27.118  1.00  0.00    -0.206 F 
ATOM     76  C   UNL A   1      40.468  25.839  26.311  1.00  0.00     0.006 A 
ENDBRANCH  48  69
BRANCH  60  77
ATOM     77  C   UNL A   1      44.274  28.561  34.176  1.00  0.00     0.057 A 
ATOM     78  C   UNL A   1      45.598  28.895  33.869  1.00  0.00     0.134 A 
ATOM     79  C   UNL A   1      44.058  27.460  35.013  1.00  0.00     0.134 A 
ATOM     80  F   UNL A   1      45.869  29.937  33.067  1.00  0.00    -0.206 F 
ATOM     81  C   UNL A   1      46.671  28.161  34.375  1.00  0.00     0.040 A 
ATOM     82  C   UNL A   1      45.124  26.731  35.545  1.00  0.00     0.040 A 
ATOM     83  F   UNL A   1      42.812  27.100  35.356  1.00  0.00    -0.206 F 
ATOM     84  C   UNL A   1      46.433  27.079  35.220  1.00  0.00     0.006 A 
ENDBRANCH  60  77
ENDBRANCH  34  35
ENDBRANCH  26  29
ENDBRANCH  24  25
ENDBRANCH   1  24
TORSDOF 14
ENDMDL
MODEL 2
REMARK VINA RESULT:     -11.7      5.399     10.154
REMARK SMILES CC(C)C[C@H](NC(=O)c1cc(Cl)nnc1Cl)C(=O)NCCCNC(=O)c1ccc(-c2c3nc(c(-c4c(F)cccc4F)c4ccc([nH]4)c(-c4c(F)cccc4F)c4nc(c(-c5c(F)cccc5F)c5ccc2[nH]5)C=C4)C=C3)cc1
REMARK SMILES IDX 21 1 20 2 19 3 17 4 18 5 5 7 4 8 2 9 1 10 3 11 6 12 7 13
REMARK SMILES IDX 8 15 9 16 10 17 15 18 11 19 14 20 16 21 12 22 13 23 22 24
REMARK SMILES IDX 23 25 24 26 25 28 26 29 27 30 79 31 28 32 78 33 29 34 30 35
REMARK SMILES IDX 31 36 72 37 32 38 77 39 71 40 73 41 33 42 76 43 70 44 69 45
REMARK SMILES IDX 34 47 60 48 43 49 59 50 44 51 47 52 58 53 74 54 45 55 46 56
REMARK SMILES IDX 57 58 75 59 48 60 35 61 36 62 41 63 37 64 38 65 40 66 42 67
REMARK SMILES IDX 39 68 61 69 62 70 67 71 63 72 64 73 66 74 68 75 65 76 49 77
REMARK SMILES IDX 50 78 55 79 51 80 52 81 54 82 56 83 53 84
REMARK H PARENT 19 6 6 14 23 27 73 46 47 57
REMARK Flexibility Score: inf
ROOT
ATOM      1  C   UNL A   1      37.839  19.511  25.005  1.00  0.00     0.042 C 
ENDROOT
BRANCH   1   2
ATOM      2  C   UNL A   1      36.760  20.572  24.870  1.00  0.00     0.117 C 
BRANCH   2   3
ATOM      3  N   UNL A   1      35.478  20.102  25.366  1.00  0.00    -0.354 N 
ATOM      4  C   UNL A   1      34.345  20.803  25.648  1.00  0.00     0.242 C 
ATOM      5  O   UNL A   1      33.388  20.189  26.126  1.00  0.00    -0.273 OA
ATOM      6  H   UNL A   1      35.420  19.131  25.521  1.00  0.00     0.163 HD
BRANCH   4   7
ATOM      7  C   UNL A   1      34.289  22.322  25.414  1.00  0.00     0.171 C 
BRANCH   7   8
ATOM      8  C   UNL A   1      35.236  23.138  26.315  1.00  0.00     0.038 C 
BRANCH   8   9
ATOM      9  C   UNL A   1      36.280  24.080  25.679  1.00  0.00    -0.015 C 
ATOM     10  C   UNL A   1      37.715  23.824  26.126  1.00  0.00     0.007 C 
ATOM     11  C   UNL A   1      36.182  23.959  24.152  1.00  0.00     0.007 C 
ENDBRANCH   8   9
ENDBRANCH   7   8
BRANCH   7  12
ATOM     12  N   UNL A   1      32.843  22.660  25.453  1.00  0.00    -0.340 N 
ATOM     13  C   UNL A   1      32.005  23.446  24.718  1.00  0.00     0.255 C 
ATOM     14  H   UNL A   1      32.375  22.204  26.191  1.00  0.00     0.164 HD
ATOM     15  O   UNL A   1      30.822  23.555  25.029  1.00  0.00    -0.269 OA
BRANCH  13  16
ATOM     16  C   UNL A   1      32.498  24.270  23.625  1.00  0.00     0.082 A 
ATOM     17  C   UNL A   1      32.693  25.631  23.872  1.00  0.00     0.060 A 
ATOM     18  C   UNL A   1      32.768  23.754  22.376  1.00  0.00     0.164 A 
ATOM     19  C   UNL A   1      33.231  26.384  22.855  1.00  0.00     0.152 A 
ATOM     20  N   UNL A   1      33.291  24.528  21.404  1.00  0.00    -0.136 NA
ATOM     21  Cl  UNL A   1      32.527  22.118  21.932  1.00  0.00    -0.059 Cl
ATOM     22  Cl  UNL A   1      33.605  28.039  23.066  1.00  0.00    -0.060 Cl
ATOM     23  N   UNL A   1      33.541  25.860  21.653  1.00  0.00    -0.137 NA
ENDBRANCH  13  16
ENDBRANCH   7  12
ENDBRANCH   4   7
ENDBRANCH   2   3
ENDBRANCH   1   2
BRANCH   1  24
ATOM     24  C   UNL A   1      39.089  20.035  25.695  1.00  0.00     0.118 C 
BRANCH  24  25
ATOM     25  N   UNL A   1      40.110  19.002  25.843  1.00  0.00    -0.352 N 
ATOM     26  C   UNL A   1      41.459  19.147  26.049  1.00  0.00     0.251 C 
ATOM     27  H   UNL A   1      39.786  18.074  25.788  1.00  0.00     0.163 HD
ATOM     28  O   UNL A   1      42.220  18.193  25.929  1.00  0.00    -0.269 OA
BRANCH  26  29
ATOM     29  C   UNL A   1      41.981  20.480  26.395  1.00  0.00     0.039 A 
ATOM     30  C   UNL A   1      42.340  21.363  25.376  1.00  0.00     0.014 A 
ATOM     31  C   UNL A   1      42.058  20.863  27.737  1.00  0.00     0.014 A 
ATOM     32  C   UNL A   1      42.710  22.666  25.704  1.00  0.00     0.010 A 
ATOM     33  C   UNL A   1      42.346  22.182  28.057  1.00  0.00     0.010 A 
ATOM     34  C   UNL A   1      42.682  23.091  27.043  1.00  0.00    -0.014 A 
BRANCH  34  35
ATOM     35  C   UNL A   1      43.038  24.479  27.411  1.00  0.00     0.031 A 
ATOM     36  C   UNL A   1      44.476  24.910  27.365  1.00  0.00     0.074 A 
ATOM     37  C   UNL A   1      42.082  25.324  27.841  1.00  0.00     0.049 A 
ATOM     38  N   UNL A   1      45.000  26.067  27.670  1.00  0.00    -0.248 NA
ATOM     39  C   UNL A   1      45.455  23.895  26.946  1.00  0.00     0.031 C 
ATOM     40  C   UNL A   1      40.662  24.998  27.982  1.00  0.00     0.029 A 
ATOM     41  N   UNL A   1      42.167  26.631  28.243  1.00  0.00    -0.354 N 
ATOM     42  C   UNL A   1      46.368  25.919  27.479  1.00  0.00     0.074 A 
ATOM     43  C   UNL A   1      46.599  24.543  27.100  1.00  0.00     0.031 C 
ATOM     44  C   UNL A   1      40.004  26.087  28.417  1.00  0.00     0.029 A 
ATOM     45  C   UNL A   1      40.958  27.175  28.603  1.00  0.00     0.049 A 
ATOM     46  H   UNL A   1      43.013  27.133  28.273  1.00  0.00     0.167 HD
ATOM     47  C   UNL A   1      47.341  26.854  27.578  1.00  0.00     0.037 A 
ATOM     48  C   UNL A   1      40.660  28.418  29.024  1.00  0.00     0.037 A 
ATOM     49  C   UNL A   1      47.107  28.225  27.941  1.00  0.00     0.049 A 
ATOM     50  C   UNL A   1      41.760  29.436  29.134  1.00  0.00     0.074 A 
ATOM     51  C   UNL A   1      48.016  29.264  28.028  1.00  0.00     0.029 A 
ATOM     52  N   UNL A   1      45.867  28.745  28.279  1.00  0.00    -0.354 N 
ATOM     53  N   UNL A   1      43.039  29.305  28.877  1.00  0.00    -0.248 NA
ATOM     54  C   UNL A   1      41.372  30.781  29.583  1.00  0.00     0.031 C 
ATOM     55  C   UNL A   1      47.328  30.409  28.446  1.00  0.00     0.029 A 
ATOM     56  C   UNL A   1      45.986  30.089  28.586  1.00  0.00     0.049 A 
ATOM     57  H   UNL A   1      45.025  28.234  28.296  1.00  0.00     0.167 HD
ATOM     58  C   UNL A   1      43.602  30.554  29.098  1.00  0.00     0.074 A 
ATOM     59  C   UNL A   1      42.524  31.433  29.504  1.00  0.00     0.031 C 
ATOM     60  C   UNL A   1      44.894  30.944  28.974  1.00  0.00     0.037 A 
BRANCH  47  61
ATOM     61  C   UNL A   1      48.740  26.411  27.271  1.00  0.00     0.057 A 
ATOM     62  C   UNL A   1      49.245  26.468  25.966  1.00  0.00     0.134 A 
ATOM     63  C   UNL A   1      49.595  25.940  28.277  1.00  0.00     0.134 A 
ATOM     64  F   UNL A   1      48.478  26.910  24.959  1.00  0.00    -0.206 F 
ATOM     65  C   UNL A   1      50.552  26.076  25.675  1.00  0.00     0.040 A 
ATOM     66  C   UNL A   1      50.912  25.569  28.002  1.00  0.00     0.040 A 
ATOM     67  F   UNL A   1      49.178  25.881  29.552  1.00  0.00    -0.206 F 
ATOM     68  C   UNL A   1      51.393  25.634  26.696  1.00  0.00     0.006 A 
ENDBRANCH  47  61
BRANCH  48  69
ATOM     69  C   UNL A   1      39.257  28.789  29.330  1.00  0.00     0.057 A 
ATOM     70  C   UNL A   1      38.712  28.611  30.607  1.00  0.00     0.134 A 
ATOM     71  C   UNL A   1      38.436  29.356  28.349  1.00  0.00     0.134 A 
ATOM     72  F   UNL A   1      39.447  28.066  31.587  1.00  0.00    -0.206 F 
ATOM     73  C   UNL A   1      37.400  28.989  30.898  1.00  0.00     0.040 A 
ATOM     74  C   UNL A   1      37.129  29.756  28.631  1.00  0.00     0.040 A 
ATOM     75  F   UNL A   1      38.909  29.566  27.112  1.00  0.00    -0.206 F 
ATOM     76  C   UNL A   1      36.608  29.572  29.910  1.00  0.00     0.006 A 
ENDBRANCH  48  69
BRANCH  60  77
ATOM     77  C   UNL A   1      45.198  32.387  29.239  1.00  0.00     0.057 A 
ATOM     78  C   UNL A   1      45.543  32.815  30.526  1.00  0.00     0.134 A 
ATOM     79  C   UNL A   1      45.123  33.353  28.229  1.00  0.00     0.134 A 
ATOM     80  F   UNL A   1      45.626  31.937  31.538  1.00  0.00    -0.206 F 
ATOM     81  C   UNL A   1      45.805  34.158  30.801  1.00  0.00     0.040 A 
ATOM     82  C   UNL A   1      45.405  34.696  28.486  1.00  0.00     0.040 A 
ATOM     83  F   UNL A   1      44.811  33.001  26.972  1.00  0.00    -0.206 F 
ATOM     84  C   UNL A   1      45.742  35.101  29.776  1.00  0.00     0.006 A 
ENDBRANCH  60  77
ENDBRANCH  34  35
ENDBRANCH  26  29
ENDBRANCH  24  25
ENDBRANCH   1  24
TORSDOF 14
ENDMDL
MODEL 3
REMARK VINA RESULT:     -11.7      5.435     10.202
REMARK SMILES CC(C)C[C@H](NC(=O)c1cc(Cl)nnc1Cl)C(=O)NCCCNC(=O)c1ccc(-c2c3nc(c(-c4c(F)cccc4F)c4ccc([nH]4)c(-c4c(F)cccc4F)c4nc(c(-c5c(F)cccc5F)c5ccc2[nH]5)C=C4)C=C3)cc1
REMARK SMILES IDX 21 1 20 2 19 3 17 4 18 5 5 7 4 8 2 9 1 10 3 11 6 12 7 13
REMARK SMILES IDX 8 15 9 16 10 17 15 18 11 19 14 20 16 21 12 22 13 23 22 24
REMARK SMILES IDX 23 25 24 26 25 28 26 29 27 30 79 31 28 32 78 33 29 34 30 35
REMARK SMILES IDX 31 36 72 37 32 38 77 39 71 40 73 41 33 42 76 43 70 44 69 45
REMARK SMILES IDX 34 47 60 48 43 49 59 50 44 51 47 52 58 53 74 54 45 55 46 56
REMARK SMILES IDX 57 58 75 59 48 60 35 61 36 62 41 63 37 64 38 65 40 66 42 67
REMARK SMILES IDX 39 68 61 69 62 70 67 71 63 72 64 73 66 74 68 75 65 76 49 77
REMARK SMILES IDX 50 78 55 79 51 80 52 81 54 82 56 83 53 84
REMARK H PARENT 19 6 6 14 23 27 73 46 47 57
REMARK Flexibility Score: inf
ROOT
ATOM      1  C   UNL A   1      37.977  19.958  24.610  1.00  0.00     0.042 C 
ENDROOT
BRANCH   1   2
ATOM      2  C   UNL A   1      36.528  20.181  25.004  1.00  0.00     0.117 C 
BRANCH   2   3
ATOM      3  N   UNL A   1      36.345  21.449  25.690  1.00  0.00    -0.354 N 
ATOM      4  C   UNL A   1      35.462  22.454  25.438  1.00  0.00     0.242 C 
ATOM      5  O   UNL A   1      35.538  23.477  26.122  1.00  0.00    -0.273 OA
ATOM      6  H   UNL A   1      36.951  21.604  26.451  1.00  0.00     0.163 HD
BRANCH   4   7
ATOM      7  C   UNL A   1      34.434  22.322  24.301  1.00  0.00     0.171 C 
BRANCH   7   8
ATOM      8  C   UNL A   1      34.470  23.472  23.276  1.00  0.00     0.038 C 
BRANCH   8   9
ATOM      9  C   UNL A   1      33.436  24.614  23.365  1.00  0.00    -0.015 C 
ATOM     10  C   UNL A   1      33.878  25.802  24.212  1.00  0.00     0.007 C 
ATOM     11  C   UNL A   1      33.104  25.086  21.942  1.00  0.00     0.007 C 
ENDBRANCH   8   9
ENDBRANCH   7   8
BRANCH   7  12
ATOM     12  N   UNL A   1      33.143  22.052  24.986  1.00  0.00    -0.340 N 
ATOM     13  C   UNL A   1      32.297  20.987  25.086  1.00  0.00     0.255 C 
ATOM     14  H   UNL A   1      32.819  22.834  25.491  1.00  0.00     0.164 HD
ATOM     15  O   UNL A   1      31.249  21.082  25.718  1.00  0.00    -0.269 OA
BRANCH  13  16
ATOM     16  C   UNL A   1      32.540  19.751  24.358  1.00  0.00     0.082 A 
ATOM     17  C   UNL A   1      33.020  18.654  25.078  1.00  0.00     0.060 A 
ATOM     18  C   UNL A   1      32.318  19.638  23.002  1.00  0.00     0.164 A 
ATOM     19  C   UNL A   1      33.173  17.471  24.393  1.00  0.00     0.152 A 
ATOM     20  N   UNL A   1      32.484  18.460  22.368  1.00  0.00    -0.136 NA
ATOM     21  Cl  UNL A   1      31.778  20.917  22.000  1.00  0.00    -0.059 Cl
ATOM     22  Cl  UNL A   1      33.661  16.035  25.182  1.00  0.00    -0.060 Cl
ATOM     23  N   UNL A   1      32.903  17.356  23.078  1.00  0.00    -0.137 NA
ENDBRANCH  13  16
ENDBRANCH   7  12
ENDBRANCH   4   7
ENDBRANCH   2   3
ENDBRANCH   1   2
BRANCH   1  24
ATOM     24  C   UNL A   1      38.943  20.245  25.750  1.00  0.00     0.118 C 
BRANCH  24  25
ATOM     25  N   UNL A   1      39.981  19.225  25.863  1.00  0.00    -0.352 N 
ATOM     26  C   UNL A   1      41.319  19.383  26.126  1.00  0.00     0.251 C 
ATOM     27  H   UNL A   1      39.680  18.297  25.732  1.00  0.00     0.163 HD
ATOM     28  O   UNL A   1      42.104  18.456  25.967  1.00  0.00    -0.269 OA
BRANCH  26  29
ATOM     29  C   UNL A   1      41.798  20.699  26.583  1.00  0.00     0.039 A 
ATOM     30  C   UNL A   1      42.228  21.637  25.644  1.00  0.00     0.014 A 
ATOM     31  C   UNL A   1      41.764  21.010  27.945  1.00  0.00     0.014 A 
ATOM     32  C   UNL A   1      42.557  22.923  26.068  1.00  0.00     0.010 A 
ATOM     33  C   UNL A   1      42.012  22.312  28.355  1.00  0.00     0.010 A 
ATOM     34  C   UNL A   1      42.419  23.275  27.421  1.00  0.00    -0.014 A 
BRANCH  34  35
ATOM     35  C   UNL A   1      42.730  24.644  27.889  1.00  0.00     0.031 A 
ATOM     36  C   UNL A   1      44.159  25.032  28.140  1.00  0.00     0.074 A 
ATOM     37  C   UNL A   1      41.730  25.508  28.143  1.00  0.00     0.049 A 
ATOM     38  N   UNL A   1      44.642  26.166  28.572  1.00  0.00    -0.248 NA
ATOM     39  C   UNL A   1      45.176  23.996  27.895  1.00  0.00     0.031 C 
ATOM     40  C   UNL A   1      40.302  25.224  27.992  1.00  0.00     0.029 A 
ATOM     41  N   UNL A   1      41.767  26.804  28.589  1.00  0.00    -0.354 N 
ATOM     42  C   UNL A   1      46.016  25.981  28.652  1.00  0.00     0.074 A 
ATOM     43  C   UNL A   1      46.282  24.606  28.290  1.00  0.00     0.031 C 
ATOM     44  C   UNL A   1      39.599  26.323  28.318  1.00  0.00     0.029 A 
ATOM     45  C   UNL A   1      40.525  27.377  28.717  1.00  0.00     0.049 A 
ATOM     46  H   UNL A   1      42.603  27.279  28.799  1.00  0.00     0.167 HD
ATOM     47  C   UNL A   1      46.974  26.883  28.966  1.00  0.00     0.037 A 
ATOM     48  C   UNL A   1      40.181  28.619  29.104  1.00  0.00     0.037 A 
ATOM     49  C   UNL A   1      46.708  28.252  29.312  1.00  0.00     0.049 A 
ATOM     50  C   UNL A   1      41.264  29.601  29.456  1.00  0.00     0.074 A 
ATOM     51  C   UNL A   1      47.608  29.261  29.604  1.00  0.00     0.029 A 
ATOM     52  N   UNL A   1      45.439  28.803  29.411  1.00  0.00    -0.354 N 
ATOM     53  N   UNL A   1      42.564  29.436  29.453  1.00  0.00    -0.248 NA
ATOM     54  C   UNL A   1      40.829  30.947  29.855  1.00  0.00     0.031 C 
ATOM     55  C   UNL A   1      46.880  30.418  29.908  1.00  0.00     0.029 A 
ATOM     56  C   UNL A   1      45.530  30.136  29.772  1.00  0.00     0.049 A 
ATOM     57  H   UNL A   1      44.598  28.317  29.248  1.00  0.00     0.167 HD
ATOM     58  C   UNL A   1      43.105  30.663  29.814  1.00  0.00     0.074 A 
ATOM     59  C   UNL A   1      41.990  31.565  30.022  1.00  0.00     0.031 C 
ATOM     60  C   UNL A   1      44.405  31.015  29.959  1.00  0.00     0.037 A 
BRANCH  47  61
ATOM     61  C   UNL A   1      48.395  26.404  28.930  1.00  0.00     0.057 A 
ATOM     62  C   UNL A   1      49.155  26.492  27.758  1.00  0.00     0.134 A 
ATOM     63  C   UNL A   1      49.014  25.867  30.067  1.00  0.00     0.134 A 
ATOM     64  F   UNL A   1      48.622  26.997  26.637  1.00  0.00    -0.206 F 
ATOM     65  C   UNL A   1      50.484  26.066  27.721  1.00  0.00     0.040 A 
ATOM     66  C   UNL A   1      50.349  25.462  30.049  1.00  0.00     0.040 A 
ATOM     67  F   UNL A   1      48.345  25.776  31.227  1.00  0.00    -0.206 F 
ATOM     68  C   UNL A   1      51.088  25.558  28.871  1.00  0.00     0.006 A 
ENDBRANCH  47  61
BRANCH  48  69
ATOM     69  C   UNL A   1      38.756  29.026  29.136  1.00  0.00     0.057 A 
ATOM     70  C   UNL A   1      37.987  28.919  30.301  1.00  0.00     0.134 A 
ATOM     71  C   UNL A   1      38.137  29.558  28.000  1.00  0.00     0.134 A 
ATOM     72  F   UNL A   1      38.523  28.411  31.421  1.00  0.00    -0.206 F 
ATOM     73  C   UNL A   1      36.654  29.331  30.335  1.00  0.00     0.040 A 
ATOM     74  C   UNL A   1      36.811  29.992  28.024  1.00  0.00     0.040 A 
ATOM     75  F   UNL A   1      38.828  29.701  26.859  1.00  0.00    -0.206 F 
ATOM     76  C   UNL A   1      36.065  29.878  29.196  1.00  0.00     0.006 A 
ENDBRANCH  48  69
BRANCH  60  77
ATOM     77  C   UNL A   1      44.687  32.443  30.317  1.00  0.00     0.057 A 
ATOM     78  C   UNL A   1      44.838  33.410  29.316  1.00  0.00     0.134 A 
ATOM     79  C   UNL A   1      44.834  32.854  31.647  1.00  0.00     0.134 A 
ATOM     80  F   UNL A   1      44.715  33.076  28.022  1.00  0.00    -0.206 F 
ATOM     81  C   UNL A   1      45.126  34.739  29.626  1.00  0.00     0.040 A 
ATOM     82  C   UNL A   1      45.099  34.186  31.971  1.00  0.00     0.040 A 
ATOM     83  F   UNL A   1      44.685  31.976  32.651  1.00  0.00    -0.206 F 
ATOM     84  C   UNL A   1      45.251  35.130  30.958  1.00  0.00     0.006 A 
ENDBRANCH  60  77
ENDBRANCH  34  35
ENDBRANCH  26  29
ENDBRANCH  24  25
ENDBRANCH   1  24
TORSDOF 14
ENDMDL
