MODEL 1
REMARK VINA RESULT:     -12.4      0.000      0.000
REMARK SMILES O=C1NC(=S)S/C1=C\c1ccc(OCc2cn(-c3ccc(C(=O)NCCCNC(=O)c4ccc(-c5c6nc(c(-c7c(F)cccc7F)c7ccc([nH]7)c(-c7c(F)cccc7F)c7nc(c(-c8c(F)cccc8F)c8ccc5[nH]8)C=C7)C=C6)cc4)cc3)nn2)cc1
REMARK SMILES IDX 22 1 23 2 24 3 21 5 18 6 19 7 86 8 20 9 85 10 17 11 15 12
REMARK SMILES IDX 16 13 88 14 87 15 14 16 13 17 12 18 9 19 10 20 90 21 11 22
REMARK SMILES IDX 89 23 8 24 1 25 2 26 3 27 7 28 4 29 6 31 5 32 25 33 26 34
REMARK SMILES IDX 27 35 28 36 29 37 30 39 31 40 32 41 84 42 33 43 83 44 34 45
REMARK SMILES IDX 35 46 36 47 77 48 37 49 82 50 76 51 78 52 38 53 81 54 75 55
REMARK SMILES IDX 74 56 39 58 65 59 48 60 64 61 49 62 52 63 63 64 79 65 50 66
REMARK SMILES IDX 51 67 62 69 80 70 53 71 40 72 41 73 46 74 42 75 43 76 45 77
REMARK SMILES IDX 47 78 44 79 66 80 67 81 72 82 68 83 69 84 71 85 73 86 70 87
REMARK SMILES IDX 54 88 55 89 60 90 56 91 57 92 59 93 61 94 58 95
REMARK H PARENT 24 4 3 30 28 38 78 57 52 68
REMARK Flexibility Score: inf
ROOT
ATOM      1  C   UNL A   1      33.948  36.750  28.717  1.00  0.00     0.251 C 
ATOM      2  O   UNL A   1      34.259  37.502  27.793  1.00  0.00    -0.269 OA
ATOM      3  N   UNL A   1      33.557  37.316  29.907  1.00  0.00    -0.352 N 
ATOM      4  H   UNL A   1      33.625  38.299  29.927  1.00  0.00     0.163 HD
ENDROOT
BRANCH   1   5
ATOM      5  C   UNL A   1      33.951  35.276  28.491  1.00  0.00     0.039 A 
ATOM      6  C   UNL A   1      34.113  32.546  27.893  1.00  0.00     0.066 A 
ATOM      7  C   UNL A   1      35.231  33.210  28.411  1.00  0.00     0.029 A 
ATOM      8  C   UNL A   1      32.901  33.213  27.751  1.00  0.00     0.029 A 
ATOM      9  C   UNL A   1      35.155  34.581  28.678  1.00  0.00     0.016 A 
ATOM     10  C   UNL A   1      32.821  34.552  28.109  1.00  0.00     0.016 A 
BRANCH   6  11
ATOM     11  N   UNL A   1      34.190  31.191  27.529  1.00  0.00    -0.220 N 
ATOM     12  C   UNL A   1      33.822  29.198  26.731  1.00  0.00     0.120 A 
ATOM     13  C   UNL A   1      33.354  30.491  26.689  1.00  0.00     0.144 A 
ATOM     14  N   UNL A   1      34.935  29.169  27.532  1.00  0.00    -0.131 NA
ATOM     15  N   UNL A   1      35.171  30.388  27.981  1.00  0.00    -0.062 NA
BRANCH  12  16
ATOM     16  C   UNL A   1      33.379  27.979  25.989  1.00  0.00     0.289 C 
BRANCH  16  17
ATOM     17  O   UNL A   1      33.691  26.721  26.614  1.00  0.00    -0.487 OA
BRANCH  17  18
ATOM     18  C   UNL A   1      33.336  25.567  25.969  1.00  0.00     0.119 A 
ATOM     19  C   UNL A   1      32.777  23.392  24.284  1.00  0.00    -0.024 A 
ATOM     20  C   UNL A   1      34.088  23.850  24.424  1.00  0.00     0.012 A 
ATOM     21  C   UNL A   1      31.771  23.958  25.069  1.00  0.00     0.012 A 
ATOM     22  C   UNL A   1      34.363  24.940  25.259  1.00  0.00     0.047 A 
ATOM     23  C   UNL A   1      32.059  25.013  25.933  1.00  0.00     0.047 A 
BRANCH  19  24
ATOM     24  C   UNL A   1      32.441  22.341  23.323  1.00  0.00     0.029 C 
ATOM     25  O   UNL A   1      31.930  20.236  21.374  1.00  0.00    -0.268 OA
ATOM     26  C   UNL A   1      32.174  20.004  22.560  1.00  0.00     0.263 C 
ATOM     27  N   UNL A   1      32.259  18.756  23.100  1.00  0.00    -0.307 N 
ATOM     28  C   UNL A   1      32.435  21.028  23.599  1.00  0.00     0.080 C 
ATOM     29  C   UNL A   1      32.538  18.654  24.429  1.00  0.00     0.145 C 
ATOM     30  H   UNL A   1      32.120  17.953  22.547  1.00  0.00     0.171 HD
ATOM     31  S   UNL A   1      32.730  20.250  25.115  1.00  0.00    -0.055 SA
ATOM     32  S   UNL A   1      32.664  17.211  25.230  1.00  0.00    -0.052 S 
ENDBRANCH  19  24
ENDBRANCH  17  18
ENDBRANCH  16  17
ENDBRANCH  12  16
ENDBRANCH   6  11
ENDBRANCH   1   5
BRANCH   3  33
ATOM     33  C   UNL A   1      33.060  36.727  31.143  1.00  0.00     0.118 C 
BRANCH  33  34
ATOM     34  C   UNL A   1      33.682  37.387  32.386  1.00  0.00     0.042 C 
BRANCH  34  35
ATOM     35  C   UNL A   1      34.439  36.392  33.236  1.00  0.00     0.118 C 
BRANCH  35  36
ATOM     36  N   UNL A   1      33.659  35.174  33.507  1.00  0.00    -0.352 N 
ATOM     37  C   UNL A   1      33.983  33.847  33.269  1.00  0.00     0.251 C 
ATOM     38  H   UNL A   1      32.778  35.323  33.919  1.00  0.00     0.163 HD
ATOM     39  O   UNL A   1      33.114  32.984  33.237  1.00  0.00    -0.269 OA
BRANCH  37  40
ATOM     40  C   UNL A   1      35.396  33.489  33.062  1.00  0.00     0.039 A 
ATOM     41  C   UNL A   1      36.477  34.136  33.669  1.00  0.00     0.014 A 
ATOM     42  C   UNL A   1      35.619  32.390  32.263  1.00  0.00     0.014 A 
ATOM     43  C   UNL A   1      37.758  33.637  33.423  1.00  0.00     0.010 A 
ATOM     44  C   UNL A   1      36.731  31.664  32.507  1.00  0.00     0.010 A 
ATOM     45  C   UNL A   1      37.859  32.395  32.794  1.00  0.00    -0.014 A 
BRANCH  45  46
ATOM     46  C   UNL A   1      39.090  31.741  32.392  1.00  0.00     0.031 A 
ATOM     47  C   UNL A   1      39.932  31.300  33.520  1.00  0.00     0.074 A 
ATOM     48  C   UNL A   1      39.250  31.280  31.128  1.00  0.00     0.049 A 
ATOM     49  N   UNL A   1      41.077  31.774  33.873  1.00  0.00    -0.248 NA
ATOM     50  C   UNL A   1      39.356  30.343  34.479  1.00  0.00     0.031 C 
ATOM     51  C   UNL A   1      38.313  31.326  29.992  1.00  0.00     0.029 A 
ATOM     52  N   UNL A   1      40.278  30.547  30.624  1.00  0.00    -0.354 N 
ATOM     53  C   UNL A   1      41.464  31.031  34.982  1.00  0.00     0.074 A 
ATOM     54  C   UNL A   1      40.283  30.349  35.438  1.00  0.00     0.031 C 
ATOM     55  C   UNL A   1      38.723  30.476  29.024  1.00  0.00     0.029 A 
ATOM     56  C   UNL A   1      40.016  29.938  29.398  1.00  0.00     0.049 A 
ATOM     57  H   UNL A   1      41.140  30.453  31.089  1.00  0.00     0.167 HD
ATOM     58  C   UNL A   1      42.779  30.847  35.283  1.00  0.00     0.037 A 
ATOM     59  C   UNL A   1      40.806  29.012  28.796  1.00  0.00     0.037 A 
ATOM     60  C   UNL A   1      43.610  31.721  34.489  1.00  0.00     0.049 A 
ATOM     61  C   UNL A   1      42.159  29.144  29.410  1.00  0.00     0.074 A 
ATOM     62  C   UNL A   1      43.719  33.092  34.365  1.00  0.00     0.029 A 
ATOM     63  N   UNL A   1      44.185  31.193  33.355  1.00  0.00    -0.354 N 
ATOM     64  N   UNL A   1      42.910  30.205  29.271  1.00  0.00    -0.248 NA
ATOM     65  C   UNL A   1      42.439  28.336  30.590  1.00  0.00     0.031 C 
ATOM     66  C   UNL A   1      43.889  33.319  32.966  1.00  0.00     0.029 A 
ATOM     67  C   UNL A   1      43.966  32.079  32.330  1.00  0.00     0.049 A 
ATOM     68  H   UNL A   1      44.665  30.336  33.292  1.00  0.00     0.167 HD
ATOM     69  C   UNL A   1      43.452  30.431  30.531  1.00  0.00     0.074 A 
ATOM     70  C   UNL A   1      43.175  29.209  31.287  1.00  0.00     0.031 C 
ATOM     71  C   UNL A   1      43.793  31.688  30.946  1.00  0.00     0.037 A 
BRANCH  58  72
ATOM     72  C   UNL A   1      43.346  29.661  36.020  1.00  0.00     0.057 A 
ATOM     73  C   UNL A   1      44.157  29.888  37.146  1.00  0.00     0.134 A 
ATOM     74  C   UNL A   1      43.351  28.336  35.540  1.00  0.00     0.134 A 
ATOM     75  F   UNL A   1      44.239  31.107  37.702  1.00  0.00    -0.206 F 
ATOM     76  C   UNL A   1      44.970  28.893  37.702  1.00  0.00     0.040 A 
ATOM     77  C   UNL A   1      44.117  27.321  36.120  1.00  0.00     0.040 A 
ATOM     78  F   UNL A   1      42.701  27.967  34.431  1.00  0.00    -0.206 F 
ATOM     79  C   UNL A   1      44.957  27.605  37.183  1.00  0.00     0.006 A 
ENDBRANCH  58  72
BRANCH  59  80
ATOM     80  C   UNL A   1      40.379  27.821  28.018  1.00  0.00     0.057 A 
ATOM     81  C   UNL A   1      40.909  27.542  26.750  1.00  0.00     0.134 A 
ATOM     82  C   UNL A   1      39.634  26.783  28.609  1.00  0.00     0.134 A 
ATOM     83  F   UNL A   1      41.668  28.448  26.117  1.00  0.00    -0.206 F 
ATOM     84  C   UNL A   1      40.727  26.302  26.119  1.00  0.00     0.040 A 
ATOM     85  C   UNL A   1      39.440  25.544  27.988  1.00  0.00     0.040 A 
ATOM     86  F   UNL A   1      39.141  26.902  29.849  1.00  0.00    -0.206 F 
ATOM     87  C   UNL A   1      40.000  25.292  26.744  1.00  0.00     0.006 A 
ENDBRANCH  59  80
BRANCH  71  88
ATOM     88  C   UNL A   1      43.752  32.810  29.938  1.00  0.00     0.057 A 
ATOM     89  C   UNL A   1      44.739  33.032  28.964  1.00  0.00     0.134 A 
ATOM     90  C   UNL A   1      42.585  33.572  29.822  1.00  0.00     0.134 A 
ATOM     91  F   UNL A   1      45.847  32.286  28.918  1.00  0.00    -0.206 F 
ATOM     92  C   UNL A   1      44.590  33.984  27.950  1.00  0.00     0.040 A 
ATOM     93  C   UNL A   1      42.408  34.505  28.796  1.00  0.00     0.040 A 
ATOM     94  F   UNL A   1      41.567  33.378  30.675  1.00  0.00    -0.206 F 
ATOM     95  C   UNL A   1      43.416  34.720  27.859  1.00  0.00     0.006 A 
ENDBRANCH  71  88
ENDBRANCH  45  46
ENDBRANCH  37  40
ENDBRANCH  35  36
ENDBRANCH  34  35
ENDBRANCH  33  34
ENDBRANCH   3  33
TORSDOF 15
ENDMDL
MODEL 2
REMARK VINA RESULT:     -12.1      5.738     10.462
REMARK SMILES O=C1NC(=S)S/C1=C\c1ccc(OCc2cn(-c3ccc(C(=O)NCCCNC(=O)c4ccc(-c5c6nc(c(-c7c(F)cccc7F)c7ccc([nH]7)c(-c7c(F)cccc7F)c7nc(c(-c8c(F)cccc8F)c8ccc5[nH]8)C=C7)C=C6)cc4)cc3)nn2)cc1
REMARK SMILES IDX 22 1 23 2 24 3 21 5 18 6 19 7 86 8 20 9 85 10 17 11 15 12
REMARK SMILES IDX 16 13 88 14 87 15 14 16 13 17 12 18 9 19 10 20 90 21 11 22
REMARK SMILES IDX 89 23 8 24 1 25 2 26 3 27 7 28 4 29 6 31 5 32 25 33 26 34
REMARK SMILES IDX 27 35 28 36 29 37 30 39 31 40 32 41 84 42 33 43 83 44 34 45
REMARK SMILES IDX 35 46 36 47 77 48 37 49 82 50 76 51 78 52 38 53 81 54 75 55
REMARK SMILES IDX 74 56 39 58 65 59 48 60 64 61 49 62 52 63 63 64 79 65 50 66
REMARK SMILES IDX 51 67 62 69 80 70 53 71 40 72 41 73 46 74 42 75 43 76 45 77
REMARK SMILES IDX 47 78 44 79 66 80 67 81 72 82 68 83 69 84 71 85 73 86 70 87
REMARK SMILES IDX 54 88 55 89 60 90 56 91 57 92 59 93 61 94 58 95
REMARK H PARENT 24 4 3 30 28 38 78 57 52 68
REMARK Flexibility Score: inf
ROOT
ATOM      1  C   UNL A   1      37.550  32.427  33.900  1.00  0.00     0.251 C 
ATOM      2  O   UNL A   1      38.034  31.873  34.887  1.00  0.00    -0.269 OA
ATOM      3  N   UNL A   1      36.185  32.581  33.851  1.00  0.00    -0.352 N 
ATOM      4  H   UNL A   1      35.705  32.165  34.603  1.00  0.00     0.163 HD
ENDROOT
BRANCH   1   5
ATOM      5  C   UNL A   1      38.457  32.954  32.841  1.00  0.00     0.039 A 
ATOM      6  C   UNL A   1      40.311  34.005  31.024  1.00  0.00     0.066 A 
ATOM      7  C   UNL A   1      40.635  32.861  31.763  1.00  0.00     0.029 A 
ATOM      8  C   UNL A   1      39.046  34.573  31.126  1.00  0.00     0.029 A 
ATOM      9  C   UNL A   1      39.718  32.359  32.693  1.00  0.00     0.016 A 
ATOM     10  C   UNL A   1      38.117  34.004  31.987  1.00  0.00     0.016 A 
BRANCH   6  11
ATOM     11  N   UNL A   1      41.248  34.583  30.152  1.00  0.00    -0.220 N 
ATOM     12  C   UNL A   1      42.250  35.608  28.512  1.00  0.00     0.120 A 
ATOM     13  C   UNL A   1      41.006  35.368  29.047  1.00  0.00     0.144 A 
ATOM     14  N   UNL A   1      43.188  35.021  29.322  1.00  0.00    -0.131 NA
ATOM     15  N   UNL A   1      42.573  34.434  30.333  1.00  0.00    -0.062 NA
BRANCH  12  16
ATOM     16  C   UNL A   1      42.661  36.445  27.344  1.00  0.00     0.289 C 
BRANCH  16  17
ATOM     17  O   UNL A   1      41.764  37.515  26.997  1.00  0.00    -0.487 OA
BRANCH  17  18
ATOM     18  C   UNL A   1      42.296  38.744  26.713  1.00  0.00     0.119 A 
ATOM     19  C   UNL A   1      43.156  41.239  25.753  1.00  0.00    -0.024 A 
ATOM     20  C   UNL A   1      41.792  40.983  25.914  1.00  0.00     0.012 A 
ATOM     21  C   UNL A   1      44.082  40.283  26.174  1.00  0.00     0.012 A 
ATOM     22  C   UNL A   1      41.366  39.735  26.386  1.00  0.00     0.047 A 
ATOM     23  C   UNL A   1      43.652  39.059  26.686  1.00  0.00     0.047 A 
BRANCH  19  24
ATOM     24  C   UNL A   1      43.625  42.483  25.143  1.00  0.00     0.029 C 
ATOM     25  O   UNL A   1      44.683  44.877  23.863  1.00  0.00    -0.268 OA
ATOM     26  C   UNL A   1      43.870  44.129  23.314  1.00  0.00     0.263 C 
ATOM     27  N   UNL A   1      43.389  44.306  22.052  1.00  0.00    -0.307 N 
ATOM     28  C   UNL A   1      43.292  42.903  23.913  1.00  0.00     0.080 C 
ATOM     29  C   UNL A   1      42.497  43.394  21.576  1.00  0.00     0.145 C 
ATOM     30  H   UNL A   1      43.676  45.071  21.502  1.00  0.00     0.171 HD
ATOM     31  S   UNL A   1      42.205  42.169  22.788  1.00  0.00    -0.055 SA
ATOM     32  S   UNL A   1      41.817  43.478  20.069  1.00  0.00    -0.052 S 
ENDBRANCH  19  24
ENDBRANCH  17  18
ENDBRANCH  16  17
ENDBRANCH  12  16
ENDBRANCH   6  11
ENDBRANCH   1   5
BRANCH   3  33
ATOM     33  C   UNL A   1      35.319  33.247  32.887  1.00  0.00     0.118 C 
BRANCH  33  34
ATOM     34  C   UNL A   1      34.841  32.289  31.782  1.00  0.00     0.042 C 
BRANCH  34  35
ATOM     35  C   UNL A   1      34.927  32.918  30.411  1.00  0.00     0.118 C 
BRANCH  35  36
ATOM     36  N   UNL A   1      34.355  32.062  29.360  1.00  0.00    -0.352 N 
ATOM     37  C   UNL A   1      34.997  31.300  28.394  1.00  0.00     0.251 C 
ATOM     38  H   UNL A   1      33.372  32.023  29.339  1.00  0.00     0.163 HD
ATOM     39  O   UNL A   1      34.397  30.916  27.396  1.00  0.00    -0.269 OA
BRANCH  37  40
ATOM     40  C   UNL A   1      36.413  30.954  28.592  1.00  0.00     0.039 A 
ATOM     41  C   UNL A   1      37.426  31.876  28.876  1.00  0.00     0.014 A 
ATOM     42  C   UNL A   1      36.705  29.609  28.557  1.00  0.00     0.014 A 
ATOM     43  C   UNL A   1      38.712  31.383  29.103  1.00  0.00     0.010 A 
ATOM     44  C   UNL A   1      37.755  29.184  29.293  1.00  0.00     0.010 A 
ATOM     45  C   UNL A   1      38.857  30.005  29.272  1.00  0.00    -0.014 A 
BRANCH  45  46
ATOM     46  C   UNL A   1      40.110  29.296  29.447  1.00  0.00     0.031 A 
ATOM     47  C   UNL A   1      40.448  29.013  30.855  1.00  0.00     0.074 A 
ATOM     48  C   UNL A   1      40.701  28.662  28.406  1.00  0.00     0.049 A 
ATOM     49  N   UNL A   1      41.406  29.526  31.548  1.00  0.00    -0.248 NA
ATOM     50  C   UNL A   1      39.505  28.203  31.643  1.00  0.00     0.031 C 
ATOM     51  C   UNL A   1      40.255  28.554  27.006  1.00  0.00     0.029 A 
ATOM     52  N   UNL A   1      41.799  27.861  28.422  1.00  0.00    -0.354 N 
ATOM     53  C   UNL A   1      41.313  28.944  32.807  1.00  0.00     0.074 A 
ATOM     54  C   UNL A   1      40.010  28.338  32.870  1.00  0.00     0.031 C 
ATOM     55  C   UNL A   1      40.946  27.574  26.379  1.00  0.00     0.029 A 
ATOM     56  C   UNL A   1      41.976  27.088  27.276  1.00  0.00     0.049 A 
ATOM     57  H   UNL A   1      42.421  27.829  29.184  1.00  0.00     0.167 HD
ATOM     58  C   UNL A   1      42.410  28.798  33.599  1.00  0.00     0.037 A 
ATOM     59  C   UNL A   1      42.879  26.084  27.137  1.00  0.00     0.037 A 
ATOM     60  C   UNL A   1      43.524  29.548  33.070  1.00  0.00     0.049 A 
ATOM     61  C   UNL A   1      43.913  26.294  28.191  1.00  0.00     0.074 A 
ATOM     62  C   UNL A   1      43.749  30.888  32.821  1.00  0.00     0.029 A 
ATOM     63  N   UNL A   1      44.447  28.864  32.311  1.00  0.00    -0.354 N 
ATOM     64  N   UNL A   1      44.721  27.321  28.209  1.00  0.00    -0.248 NA
ATOM     65  C   UNL A   1      43.691  25.657  29.483  1.00  0.00     0.031 C 
ATOM     66  C   UNL A   1      44.437  30.916  31.571  1.00  0.00     0.029 A 
ATOM     67  C   UNL A   1      44.674  29.599  31.174  1.00  0.00     0.049 A 
ATOM     68  H   UNL A   1      44.866  28.004  32.543  1.00  0.00     0.167 HD
ATOM     69  C   UNL A   1      44.770  27.719  29.540  1.00  0.00     0.074 A 
ATOM     70  C   UNL A   1      44.164  26.616  30.287  1.00  0.00     0.031 C 
ATOM     71  C   UNL A   1      45.004  29.020  29.888  1.00  0.00     0.037 A 
BRANCH  58  72
ATOM     72  C   UNL A   1      42.595  27.724  34.640  1.00  0.00     0.057 A 
ATOM     73  C   UNL A   1      42.917  26.421  34.219  1.00  0.00     0.134 A 
ATOM     74  C   UNL A   1      42.224  27.838  35.995  1.00  0.00     0.134 A 
ATOM     75  F   UNL A   1      43.287  26.177  32.952  1.00  0.00    -0.206 F 
ATOM     76  C   UNL A   1      42.804  25.309  35.061  1.00  0.00     0.040 A 
ATOM     77  C   UNL A   1      42.160  26.741  36.859  1.00  0.00     0.040 A 
ATOM     78  F   UNL A   1      41.809  28.988  36.537  1.00  0.00    -0.206 F 
ATOM     79  C   UNL A   1      42.417  25.466  36.385  1.00  0.00     0.006 A 
ENDBRANCH  58  72
BRANCH  59  80
ATOM     80  C   UNL A   1      42.704  24.797  26.415  1.00  0.00     0.057 A 
ATOM     81  C   UNL A   1      43.542  24.430  25.352  1.00  0.00     0.134 A 
ATOM     82  C   UNL A   1      41.875  23.777  26.918  1.00  0.00     0.134 A 
ATOM     83  F   UNL A   1      44.400  25.317  24.827  1.00  0.00    -0.206 F 
ATOM     84  C   UNL A   1      43.570  23.125  24.837  1.00  0.00     0.040 A 
ATOM     85  C   UNL A   1      41.888  22.473  26.410  1.00  0.00     0.040 A 
ATOM     86  F   UNL A   1      41.085  23.984  27.981  1.00  0.00    -0.206 F 
ATOM     87  C   UNL A   1      42.748  22.137  25.374  1.00  0.00     0.006 A 
ENDBRANCH  59  80
BRANCH  71  88
ATOM     88  C   UNL A   1      45.402  29.990  28.804  1.00  0.00     0.057 A 
ATOM     89  C   UNL A   1      44.498  30.809  28.108  1.00  0.00     0.134 A 
ATOM     90  C   UNL A   1      46.760  30.246  28.590  1.00  0.00     0.134 A 
ATOM     91  F   UNL A   1      43.181  30.720  28.317  1.00  0.00    -0.206 F 
ATOM     92  C   UNL A   1      44.919  31.805  27.220  1.00  0.00     0.040 A 
ATOM     93  C   UNL A   1      47.198  31.258  27.732  1.00  0.00     0.040 A 
ATOM     94  F   UNL A   1      47.690  29.551  29.264  1.00  0.00    -0.206 F 
ATOM     95  C   UNL A   1      46.277  32.038  27.036  1.00  0.00     0.006 A 
ENDBRANCH  71  88
ENDBRANCH  45  46
ENDBRANCH  37  40
ENDBRANCH  35  36
ENDBRANCH  34  35
ENDBRANCH  33  34
ENDBRANCH   3  33
TORSDOF 15
ENDMDL
MODEL 3
REMARK VINA RESULT:     -12.0      3.253      4.643
REMARK SMILES O=C1NC(=S)S/C1=C\c1ccc(OCc2cn(-c3ccc(C(=O)NCCCNC(=O)c4ccc(-c5c6nc(c(-c7c(F)cccc7F)c7ccc([nH]7)c(-c7c(F)cccc7F)c7nc(c(-c8c(F)cccc8F)c8ccc5[nH]8)C=C7)C=C6)cc4)cc3)nn2)cc1
REMARK SMILES IDX 22 1 23 2 24 3 21 5 18 6 19 7 86 8 20 9 85 10 17 11 15 12
REMARK SMILES IDX 16 13 88 14 87 15 14 16 13 17 12 18 9 19 10 20 90 21 11 22
REMARK SMILES IDX 89 23 8 24 1 25 2 26 3 27 7 28 4 29 6 31 5 32 25 33 26 34
REMARK SMILES IDX 27 35 28 36 29 37 30 39 31 40 32 41 84 42 33 43 83 44 34 45
REMARK SMILES IDX 35 46 36 47 77 48 37 49 82 50 76 51 78 52 38 53 81 54 75 55
REMARK SMILES IDX 74 56 39 58 65 59 48 60 64 61 49 62 52 63 63 64 79 65 50 66
REMARK SMILES IDX 51 67 62 69 80 70 53 71 40 72 41 73 46 74 42 75 43 76 45 77
REMARK SMILES IDX 47 78 44 79 66 80 67 81 72 82 68 83 69 84 71 85 73 86 70 87
REMARK SMILES IDX 54 88 55 89 60 90 56 91 57 92 59 93 61 94 58 95
REMARK H PARENT 24 4 3 30 28 38 78 57 52 68
REMARK Flexibility Score: inf
ROOT
ATOM      1  C   UNL A   1      34.344  34.102  29.122  1.00  0.00     0.251 C 
ATOM      2  O   UNL A   1      34.540  35.198  28.596  1.00  0.00    -0.269 OA
ATOM      3  N   UNL A   1      34.600  33.977  30.467  1.00  0.00    -0.352 N 
ATOM      4  H   UNL A   1      34.987  34.782  30.881  1.00  0.00     0.163 HD
ENDROOT
BRANCH   1   5
ATOM      5  C   UNL A   1      33.788  32.988  28.303  1.00  0.00     0.039 A 
ATOM      6  C   UNL A   1      32.924  30.928  26.614  1.00  0.00     0.066 A 
ATOM      7  C   UNL A   1      34.126  30.790  27.320  1.00  0.00     0.029 A 
ATOM      8  C   UNL A   1      32.118  32.044  26.810  1.00  0.00     0.029 A 
ATOM      9  C   UNL A   1      34.569  31.835  28.137  1.00  0.00     0.016 A 
ATOM     10  C   UNL A   1      32.532  33.029  27.696  1.00  0.00     0.016 A 
BRANCH   6  11
ATOM     11  N   UNL A   1      32.504  29.933  25.716  1.00  0.00    -0.220 N 
ATOM     12  C   UNL A   1      31.355  28.613  24.418  1.00  0.00     0.120 A 
ATOM     13  C   UNL A   1      31.254  29.767  25.161  1.00  0.00     0.144 A 
ATOM     14  N   UNL A   1      32.646  28.159  24.501  1.00  0.00    -0.131 NA
ATOM     15  N   UNL A   1      33.343  28.986  25.260  1.00  0.00    -0.062 NA
BRANCH  12  16
ATOM     16  C   UNL A   1      30.360  27.938  23.531  1.00  0.00     0.289 C 
BRANCH  16  17
ATOM     17  O   UNL A   1      29.562  26.916  24.154  1.00  0.00    -0.487 OA
BRANCH  17  18
ATOM     18  C   UNL A   1      30.159  25.727  24.472  1.00  0.00     0.119 A 
ATOM     19  C   UNL A   1      31.079  23.102  24.863  1.00  0.00    -0.024 A 
ATOM     20  C   UNL A   1      31.014  23.637  23.575  1.00  0.00     0.012 A 
ATOM     21  C   UNL A   1      30.782  23.920  25.954  1.00  0.00     0.012 A 
ATOM     22  C   UNL A   1      30.548  24.944  23.382  1.00  0.00     0.047 A 
ATOM     23  C   UNL A   1      30.362  25.235  25.759  1.00  0.00     0.047 A 
BRANCH  19  24
ATOM     24  C   UNL A   1      31.439  21.702  25.083  1.00  0.00     0.029 C 
ATOM     25  O   UNL A   1      32.153  18.890  25.362  1.00  0.00    -0.268 OA
ATOM     26  C   UNL A   1      32.994  19.785  25.241  1.00  0.00     0.263 C 
ATOM     27  N   UNL A   1      34.339  19.579  25.199  1.00  0.00    -0.307 N 
ATOM     28  C   UNL A   1      32.695  21.230  25.103  1.00  0.00     0.080 C 
ATOM     29  C   UNL A   1      35.147  20.666  25.058  1.00  0.00     0.145 C 
ATOM     30  H   UNL A   1      34.716  18.671  25.268  1.00  0.00     0.171 HD
ATOM     31  S   UNL A   1      34.173  22.114  24.959  1.00  0.00    -0.055 SA
ATOM     32  S   UNL A   1      36.799  20.578  25.000  1.00  0.00    -0.052 S 
ENDBRANCH  19  24
ENDBRANCH  17  18
ENDBRANCH  16  17
ENDBRANCH  12  16
ENDBRANCH   6  11
ENDBRANCH   1   5
BRANCH   3  33
ATOM     33  C   UNL A   1      34.404  32.867  31.391  1.00  0.00     0.118 C 
BRANCH  33  34
ATOM     34  C   UNL A   1      35.640  31.954  31.466  1.00  0.00     0.042 C 
BRANCH  34  35
ATOM     35  C   UNL A   1      36.896  32.728  31.795  1.00  0.00     0.118 C 
BRANCH  35  36
ATOM     36  N   UNL A   1      37.401  33.498  30.647  1.00  0.00    -0.352 N 
ATOM     37  C   UNL A   1      38.518  33.274  29.855  1.00  0.00     0.251 C 
ATOM     38  H   UNL A   1      36.868  34.290  30.405  1.00  0.00     0.163 HD
ATOM     39  O   UNL A   1      38.989  34.170  29.165  1.00  0.00    -0.269 OA
BRANCH  37  40
ATOM     40  C   UNL A   1      39.125  31.933  29.852  1.00  0.00     0.039 A 
ATOM     41  C   UNL A   1      38.531  30.792  29.303  1.00  0.00     0.014 A 
ATOM     42  C   UNL A   1      40.398  31.857  30.372  1.00  0.00     0.014 A 
ATOM     43  C   UNL A   1      39.263  29.603  29.319  1.00  0.00     0.010 A 
ATOM     44  C   UNL A   1      41.211  30.899  29.878  1.00  0.00     0.010 A 
ATOM     45  C   UNL A   1      40.616  29.681  29.654  1.00  0.00    -0.014 A 
BRANCH  45  46
ATOM     46  C   UNL A   1      41.525  28.559  29.793  1.00  0.00     0.031 A 
ATOM     47  C   UNL A   1      41.869  28.234  31.190  1.00  0.00     0.074 A 
ATOM     48  C   UNL A   1      41.730  27.701  28.764  1.00  0.00     0.049 A 
ATOM     49  N   UNL A   1      43.012  28.376  31.766  1.00  0.00    -0.248 NA
ATOM     50  C   UNL A   1      40.774  27.878  32.107  1.00  0.00     0.031 C 
ATOM     51  C   UNL A   1      41.141  27.706  27.414  1.00  0.00     0.029 A 
ATOM     52  N   UNL A   1      42.445  26.545  28.763  1.00  0.00    -0.354 N 
ATOM     53  C   UNL A   1      42.833  27.931  33.071  1.00  0.00     0.074 A 
ATOM     54  C   UNL A   1      41.411  27.868  33.279  1.00  0.00     0.031 C 
ATOM     55  C   UNL A   1      41.350  26.510  26.817  1.00  0.00     0.029 A 
ATOM     56  C   UNL A   1      42.206  25.711  27.672  1.00  0.00     0.049 A 
ATOM     57  H   UNL A   1      43.082  26.315  29.476  1.00  0.00     0.167 HD
ATOM     58  C   UNL A   1      43.868  27.416  33.789  1.00  0.00     0.037 A 
ATOM     59  C   UNL A   1      42.650  24.435  27.548  1.00  0.00     0.037 A 
ATOM     60  C   UNL A   1      45.124  27.663  33.122  1.00  0.00     0.049 A 
ATOM     61  C   UNL A   1      43.787  24.285  28.502  1.00  0.00     0.074 A 
ATOM     62  C   UNL A   1      45.807  28.805  32.751  1.00  0.00     0.029 A 
ATOM     63  N   UNL A   1      45.645  26.646  32.354  1.00  0.00    -0.354 N 
ATOM     64  N   UNL A   1      44.918  24.928  28.378  1.00  0.00    -0.248 NA
ATOM     65  C   UNL A   1      43.471  23.840  29.853  1.00  0.00     0.031 C 
ATOM     66  C   UNL A   1      46.330  28.513  31.456  1.00  0.00     0.029 A 
ATOM     67  C   UNL A   1      46.017  27.188  31.148  1.00  0.00     0.049 A 
ATOM     68  H   UNL A   1      45.733  25.703  32.621  1.00  0.00     0.167 HD
ATOM     69  C   UNL A   1      45.242  25.339  29.666  1.00  0.00     0.074 A 
ATOM     70  C   UNL A   1      44.345  24.583  30.541  1.00  0.00     0.031 C 
ATOM     71  C   UNL A   1      45.979  26.468  29.892  1.00  0.00     0.037 A 
BRANCH  58  72
ATOM     72  C   UNL A   1      43.740  26.401  34.896  1.00  0.00     0.057 A 
ATOM     73  C   UNL A   1      44.033  26.796  36.214  1.00  0.00     0.134 A 
ATOM     74  C   UNL A   1      43.598  25.012  34.708  1.00  0.00     0.134 A 
ATOM     75  F   UNL A   1      44.192  28.091  36.527  1.00  0.00    -0.206 F 
ATOM     76  C   UNL A   1      44.245  25.874  37.246  1.00  0.00     0.040 A 
ATOM     77  C   UNL A   1      43.755  24.085  35.743  1.00  0.00     0.040 A 
ATOM     78  F   UNL A   1      43.401  24.462  33.505  1.00  0.00    -0.206 F 
ATOM     79  C   UNL A   1      44.113  24.513  37.010  1.00  0.00     0.006 A 
ENDBRANCH  58  72
BRANCH  59  80
ATOM     80  C   UNL A   1      41.938  23.279  26.945  1.00  0.00     0.057 A 
ATOM     81  C   UNL A   1      42.623  22.277  26.243  1.00  0.00     0.134 A 
ATOM     82  C   UNL A   1      40.598  22.991  27.266  1.00  0.00     0.134 A 
ATOM     83  F   UNL A   1      43.916  22.433  25.924  1.00  0.00    -0.206 F 
ATOM     84  C   UNL A   1      42.020  21.056  25.901  1.00  0.00     0.040 A 
ATOM     85  C   UNL A   1      39.982  21.781  26.925  1.00  0.00     0.040 A 
ATOM     86  F   UNL A   1      39.862  23.838  27.999  1.00  0.00    -0.206 F 
ATOM     87  C   UNL A   1      40.697  20.800  26.253  1.00  0.00     0.006 A 
ENDBRANCH  59  80
BRANCH  71  88
ATOM     88  C   UNL A   1      46.602  27.164  28.707  1.00  0.00     0.057 A 
ATOM     89  C   UNL A   1      45.966  28.170  27.961  1.00  0.00     0.134 A 
ATOM     90  C   UNL A   1      47.955  26.949  28.431  1.00  0.00     0.134 A 
ATOM     91  F   UNL A   1      44.705  28.530  28.215  1.00  0.00    -0.206 F 
ATOM     92  C   UNL A   1      46.631  28.900  26.969  1.00  0.00     0.040 A 
ATOM     93  C   UNL A   1      48.642  27.691  27.466  1.00  0.00     0.040 A 
ATOM     94  F   UNL A   1      48.652  26.049  29.142  1.00  0.00    -0.206 F 
ATOM     95  C   UNL A   1      47.979  28.665  26.724  1.00  0.00     0.006 A 
ENDBRANCH  71  88
ENDBRANCH  45  46
ENDBRANCH  37  40
ENDBRANCH  35  36
ENDBRANCH  34  35
ENDBRANCH  33  34
ENDBRANCH   3  33
TORSDOF 15
ENDMDL
