MODEL 1
REMARK VINA RESULT:     -10.9      0.000      0.000
REMARK SMILES C[N@@H+]1CC[N@@H+](C)[C@H](C[NH2+]Cc2ccc(C(=O)NCCCNC(=O)c3ccc(-c4c5nc(c(-c6c(F)cccc6F)c6ccc([nH]6)c(-c6c(F)cccc6F)c6nc(c(-c7c(F)cccc7F)c7ccc4[nH]7)C=C6)C=C5)cc3)cn2)C1
REMARK SMILES IDX 18 1 17 2 15 3 16 4 14 6 11 7 12 8 79 9 13 10 78 11 10 12
REMARK SMILES IDX 9 13 8 16 7 17 1 18 2 19 3 20 80 21 4 23 5 24 6 25 19 27
REMARK SMILES IDX 20 28 21 29 22 30 23 32 24 33 25 34 77 35 26 36 76 37 27 38
REMARK SMILES IDX 28 39 29 40 70 41 30 42 75 43 69 44 71 45 31 46 74 47 68 48
REMARK SMILES IDX 67 49 32 51 58 52 41 53 57 54 42 55 45 56 56 57 72 58 43 59
REMARK SMILES IDX 44 60 55 62 73 63 46 64 33 65 34 66 39 67 35 68 36 69 38 70
REMARK SMILES IDX 40 71 37 72 59 73 60 74 65 75 61 76 62 77 64 78 66 79 63 80
REMARK SMILES IDX 47 81 48 82 53 83 49 84 50 85 52 86 54 87 51 88
REMARK H PARENT 17 5 9 14 9 15 2 22 5 26 21 31 71 50 45 61
REMARK Flexibility Score: inf
ROOT
ATOM      1  C   UNL A   1      37.257  21.016  24.588  1.00  0.00     0.118 C 
ENDROOT
BRANCH   1   2
ATOM      2  N   UNL A   1      37.801  22.237  25.151  1.00  0.00    -0.352 N 
ATOM      3  C   UNL A   1      37.213  23.369  25.653  1.00  0.00     0.252 C 
ATOM      4  O   UNL A   1      37.960  24.262  26.053  1.00  0.00    -0.269 OA
ATOM      5  H   UNL A   1      38.785  22.257  25.177  1.00  0.00     0.163 HD
BRANCH   3   6
ATOM      6  C   UNL A   1      35.748  23.538  25.797  1.00  0.00     0.058 A 
ATOM      7  C   UNL A   1      33.105  24.276  26.060  1.00  0.00     0.094 A 
ATOM      8  C   UNL A   1      33.593  23.228  26.830  1.00  0.00     0.030 A 
ATOM      9  N   UNL A   1      33.844  24.873  25.093  1.00  0.00    -0.255 NA
ATOM     10  C   UNL A   1      34.921  22.844  26.674  1.00  0.00     0.017 A 
ATOM     11  C   UNL A   1      35.144  24.502  24.996  1.00  0.00     0.125 A 
BRANCH   7  12
ATOM     12  C   UNL A   1      31.759  24.875  26.401  1.00  0.00     0.318 C 
BRANCH  12  13
ATOM     13  N   UNL A   1      30.905  24.947  25.212  1.00  0.00    -0.336 N 
ATOM     14  H   UNL A   1      31.445  24.655  24.397  1.00  0.00     0.346 HD
ATOM     15  H   UNL A   1      30.105  24.331  25.353  1.00  0.00     0.346 HD
BRANCH  13  16
ATOM     16  C   UNL A   1      30.408  26.318  24.993  1.00  0.00     0.332 C 
BRANCH  16  17
ATOM     17  C   UNL A   1      31.195  27.038  23.853  1.00  0.00     0.295 C 
ATOM     18  C   UNL A   1      32.452  25.646  20.531  1.00  0.00     0.333 C 
ATOM     19  N   UNL A   1      32.242  26.607  21.608  1.00  0.00    -0.328 N 
ATOM     20  C   UNL A   1      33.521  27.091  22.150  1.00  0.00     0.324 C 
ATOM     21  C   UNL A   1      31.474  26.008  22.716  1.00  0.00     0.334 C 
ATOM     22  H   UNL A   1      31.721  27.386  21.205  1.00  0.00     0.348 HD
ATOM     23  C   UNL A   1      33.286  28.156  23.242  1.00  0.00     0.324 C 
ATOM     24  N   UNL A   1      32.444  27.700  24.368  1.00  0.00    -0.321 N 
ATOM     25  C   UNL A   1      32.139  28.848  25.230  1.00  0.00     0.333 C 
ATOM     26  H   UNL A   1      32.943  27.003  24.920  1.00  0.00     0.348 HD
ENDBRANCH  16  17
ENDBRANCH  13  16
ENDBRANCH  12  13
ENDBRANCH   7  12
ENDBRANCH   3   6
ENDBRANCH   1   2
BRANCH   1  27
ATOM     27  C   UNL A   1      38.203  19.839  24.823  1.00  0.00     0.042 C 
BRANCH  27  28
ATOM     28  C   UNL A   1      39.125  20.042  26.018  1.00  0.00     0.118 C 
BRANCH  28  29
ATOM     29  N   UNL A   1      40.330  19.237  25.911  1.00  0.00    -0.352 N 
ATOM     30  C   UNL A   1      41.646  19.611  25.999  1.00  0.00     0.251 C 
ATOM     31  H   UNL A   1      40.179  18.278  25.750  1.00  0.00     0.163 HD
ATOM     32  O   UNL A   1      42.522  18.833  25.638  1.00  0.00    -0.269 OA
BRANCH  30  33
ATOM     33  C   UNL A   1      42.017  20.945  26.522  1.00  0.00     0.039 A 
ATOM     34  C   UNL A   1      42.014  21.145  27.905  1.00  0.00     0.014 A 
ATOM     35  C   UNL A   1      42.306  22.008  25.662  1.00  0.00     0.014 A 
ATOM     36  C   UNL A   1      42.336  22.399  28.427  1.00  0.00     0.010 A 
ATOM     37  C   UNL A   1      42.697  23.239  26.184  1.00  0.00     0.010 A 
ATOM     38  C   UNL A   1      42.700  23.451  27.570  1.00  0.00    -0.014 A 
BRANCH  38  39
ATOM     39  C   UNL A   1      43.063  24.785  28.105  1.00  0.00     0.031 A 
ATOM     40  C   UNL A   1      41.995  25.813  28.356  1.00  0.00     0.074 A 
ATOM     41  C   UNL A   1      44.358  25.090  28.311  1.00  0.00     0.049 A 
ATOM     42  N   UNL A   1      42.118  27.055  28.754  1.00  0.00    -0.248 NA
ATOM     43  C   UNL A   1      40.605  25.400  28.100  1.00  0.00     0.031 C 
ATOM     44  C   UNL A   1      45.488  24.191  28.063  1.00  0.00     0.029 A 
ATOM     45  N   UNL A   1      44.944  26.243  28.765  1.00  0.00    -0.354 N 
ATOM     46  C   UNL A   1      40.829  27.573  28.776  1.00  0.00     0.074 A 
ATOM     47  C   UNL A   1      39.943  26.529  28.308  1.00  0.00     0.031 C 
ATOM     48  C   UNL A   1      46.629  24.821  28.387  1.00  0.00     0.029 A 
ATOM     49  C   UNL A   1      46.314  26.175  28.832  1.00  0.00     0.049 A 
ATOM     50  H   UNL A   1      44.431  27.044  29.019  1.00  0.00     0.167 HD
ATOM     51  C   UNL A   1      40.418  28.802  29.172  1.00  0.00     0.037 A 
ATOM     52  C   UNL A   1      47.215  27.103  29.205  1.00  0.00     0.037 A 
ATOM     53  C   UNL A   1      41.299  29.828  29.666  1.00  0.00     0.049 A 
ATOM     54  C   UNL A   1      46.733  28.455  29.649  1.00  0.00     0.074 A 
ATOM     55  C   UNL A   1      40.976  31.084  30.147  1.00  0.00     0.029 A 
ATOM     56  N   UNL A   1      42.678  29.710  29.743  1.00  0.00    -0.354 N 
ATOM     57  N   UNL A   1      45.506  28.912  29.723  1.00  0.00    -0.248 NA
ATOM     58  C   UNL A   1      47.759  29.418  30.070  1.00  0.00     0.031 C 
ATOM     59  C   UNL A   1      42.165  31.741  30.483  1.00  0.00     0.029 A 
ATOM     60  C   UNL A   1      43.224  30.879  30.249  1.00  0.00     0.049 A 
ATOM     61  H   UNL A   1      43.194  28.915  29.476  1.00  0.00     0.167 HD
ATOM     62  C   UNL A   1      45.611  30.204  30.221  1.00  0.00     0.074 A 
ATOM     63  C   UNL A   1      47.020  30.452  30.445  1.00  0.00     0.031 C 
ATOM     64  C   UNL A   1      44.629  31.104  30.471  1.00  0.00     0.037 A 
BRANCH  51  65
ATOM     65  C   UNL A   1      38.949  29.099  29.091  1.00  0.00     0.057 A 
ATOM     66  C   UNL A   1      38.115  29.018  30.214  1.00  0.00     0.134 A 
ATOM     67  C   UNL A   1      38.365  29.497  27.880  1.00  0.00     0.134 A 
ATOM     68  F   UNL A   1      38.608  28.630  31.400  1.00  0.00    -0.206 F 
ATOM     69  C   UNL A   1      36.749  29.297  30.132  1.00  0.00     0.040 A 
ATOM     70  C   UNL A   1      37.006  29.804  27.792  1.00  0.00     0.040 A 
ATOM     71  F   UNL A   1      39.107  29.601  26.768  1.00  0.00    -0.206 F 
ATOM     72  C   UNL A   1      36.192  29.696  28.918  1.00  0.00     0.006 A 
ENDBRANCH  51  65
BRANCH  52  73
ATOM     73  C   UNL A   1      48.661  26.774  29.202  1.00  0.00     0.057 A 
ATOM     74  C   UNL A   1      49.465  27.077  28.096  1.00  0.00     0.134 A 
ATOM     75  C   UNL A   1      49.275  26.154  30.296  1.00  0.00     0.134 A 
ATOM     76  F   UNL A   1      48.930  27.656  27.012  1.00  0.00    -0.206 F 
ATOM     77  C   UNL A   1      50.824  26.759  28.072  1.00  0.00     0.040 A 
ATOM     78  C   UNL A   1      50.638  25.851  30.295  1.00  0.00     0.040 A 
ATOM     79  F   UNL A   1      48.561  25.847  31.389  1.00  0.00    -0.206 F 
ATOM     80  C   UNL A   1      51.414  26.149  29.177  1.00  0.00     0.006 A 
ENDBRANCH  52  73
BRANCH  64  81
ATOM     81  C   UNL A   1      45.045  32.425  31.045  1.00  0.00     0.057 A 
ATOM     82  C   UNL A   1      45.162  32.627  32.425  1.00  0.00     0.134 A 
ATOM     83  C   UNL A   1      45.364  33.498  30.203  1.00  0.00     0.134 A 
ATOM     84  F   UNL A   1      44.858  31.642  33.284  1.00  0.00    -0.206 F 
ATOM     85  C   UNL A   1      45.561  33.857  32.949  1.00  0.00     0.040 A 
ATOM     86  C   UNL A   1      45.787  34.725  30.714  1.00  0.00     0.040 A 
ATOM     87  F   UNL A   1      45.279  33.367  28.870  1.00  0.00    -0.206 F 
ATOM     88  C   UNL A   1      45.881  34.909  32.092  1.00  0.00     0.006 A 
ENDBRANCH  64  81
ENDBRANCH  38  39
ENDBRANCH  30  33
ENDBRANCH  28  29
ENDBRANCH  27  28
ENDBRANCH   1  27
TORSDOF 14
ENDMDL
MODEL 2
REMARK VINA RESULT:     -10.8      4.483      9.262
REMARK SMILES C[N@@H+]1CC[N@@H+](C)[C@H](C[NH2+]Cc2ccc(C(=O)NCCCNC(=O)c3ccc(-c4c5nc(c(-c6c(F)cccc6F)c6ccc([nH]6)c(-c6c(F)cccc6F)c6nc(c(-c7c(F)cccc7F)c7ccc4[nH]7)C=C6)C=C5)cc3)cn2)C1
REMARK SMILES IDX 18 1 17 2 15 3 16 4 14 6 11 7 12 8 79 9 13 10 78 11 10 12
REMARK SMILES IDX 9 13 8 16 7 17 1 18 2 19 3 20 80 21 4 23 5 24 6 25 19 27
REMARK SMILES IDX 20 28 21 29 22 30 23 32 24 33 25 34 77 35 26 36 76 37 27 38
REMARK SMILES IDX 28 39 29 40 70 41 30 42 75 43 69 44 71 45 31 46 74 47 68 48
REMARK SMILES IDX 67 49 32 51 58 52 41 53 57 54 42 55 45 56 56 57 72 58 43 59
REMARK SMILES IDX 44 60 55 62 73 63 46 64 33 65 34 66 39 67 35 68 36 69 38 70
REMARK SMILES IDX 40 71 37 72 59 73 60 74 65 75 61 76 62 77 64 78 66 79 63 80
REMARK SMILES IDX 47 81 48 82 53 83 49 84 50 85 52 86 54 87 51 88
REMARK H PARENT 17 5 9 14 9 15 2 22 5 26 21 31 71 50 45 61
REMARK Flexibility Score: inf
ROOT
ATOM      1  C   UNL A   1      31.792  30.488  26.779  1.00  0.00     0.118 C 
ENDROOT
BRANCH   1   2
ATOM      2  N   UNL A   1      33.119  30.174  27.273  1.00  0.00    -0.352 N 
ATOM      3  C   UNL A   1      34.026  29.202  26.942  1.00  0.00     0.252 C 
ATOM      4  O   UNL A   1      35.087  29.184  27.566  1.00  0.00    -0.269 OA
ATOM      5  H   UNL A   1      33.429  30.778  27.987  1.00  0.00     0.163 HD
BRANCH   3   6
ATOM      6  C   UNL A   1      33.821  28.230  25.842  1.00  0.00     0.058 A 
ATOM      7  C   UNL A   1      33.743  26.185  23.994  1.00  0.00     0.094 A 
ATOM      8  C   UNL A   1      33.720  27.500  23.547  1.00  0.00     0.030 A 
ATOM      9  N   UNL A   1      33.679  25.864  25.310  1.00  0.00    -0.255 NA
ATOM     10  C   UNL A   1      33.734  28.527  24.485  1.00  0.00     0.017 A 
ATOM     11  C   UNL A   1      33.735  26.887  26.196  1.00  0.00     0.125 A 
BRANCH   7  12
ATOM     12  C   UNL A   1      33.994  25.075  23.000  1.00  0.00     0.318 C 
BRANCH  12  13
ATOM     13  N   UNL A   1      32.748  24.675  22.339  1.00  0.00    -0.336 N 
ATOM     14  H   UNL A   1      32.069  25.432  22.426  1.00  0.00     0.346 HD
ATOM     15  H   UNL A   1      32.951  24.484  21.359  1.00  0.00     0.346 HD
BRANCH  13  16
ATOM     16  C   UNL A   1      32.187  23.454  22.948  1.00  0.00     0.332 C 
BRANCH  16  17
ATOM     17  C   UNL A   1      31.023  23.788  23.934  1.00  0.00     0.295 C 
ATOM     18  C   UNL A   1      28.609  26.741  23.912  1.00  0.00     0.333 C 
ATOM     19  N   UNL A   1      29.257  25.521  24.379  1.00  0.00    -0.328 N 
ATOM     20  C   UNL A   1      29.815  25.695  25.729  1.00  0.00     0.324 C 
ATOM     21  C   UNL A   1      30.355  25.121  23.478  1.00  0.00     0.334 C 
ATOM     22  H   UNL A   1      28.538  24.798  24.394  1.00  0.00     0.348 HD
ATOM     23  C   UNL A   1      30.439  24.378  26.238  1.00  0.00     0.324 C 
ATOM     24  N   UNL A   1      31.494  23.823  25.362  1.00  0.00    -0.321 N 
ATOM     25  C   UNL A   1      31.863  22.488  25.850  1.00  0.00     0.333 C 
ATOM     26  H   UNL A   1      32.321  24.419  25.388  1.00  0.00     0.348 HD
ENDBRANCH  16  17
ENDBRANCH  13  16
ENDBRANCH  12  13
ENDBRANCH   7  12
ENDBRANCH   3   6
ENDBRANCH   1   2
BRANCH   1  27
ATOM     27  C   UNL A   1      31.519  31.989  26.864  1.00  0.00     0.042 C 
BRANCH  27  28
ATOM     28  C   UNL A   1      32.790  32.828  26.879  1.00  0.00     0.118 C 
BRANCH  28  29
ATOM     29  N   UNL A   1      32.579  34.115  27.521  1.00  0.00    -0.352 N 
ATOM     30  C   UNL A   1      33.125  34.620  28.673  1.00  0.00     0.251 C 
ATOM     31  H   UNL A   1      31.948  34.712  27.061  1.00  0.00     0.163 HD
ATOM     32  O   UNL A   1      32.638  35.622  29.184  1.00  0.00    -0.269 OA
BRANCH  30  33
ATOM     33  C   UNL A   1      34.292  33.965  29.305  1.00  0.00     0.039 A 
ATOM     34  C   UNL A   1      35.573  34.412  28.968  1.00  0.00     0.014 A 
ATOM     35  C   UNL A   1      34.136  32.881  30.173  1.00  0.00     0.014 A 
ATOM     36  C   UNL A   1      36.694  33.798  29.530  1.00  0.00     0.010 A 
ATOM     37  C   UNL A   1      35.250  32.316  30.788  1.00  0.00     0.010 A 
ATOM     38  C   UNL A   1      36.540  32.758  30.460  1.00  0.00    -0.014 A 
BRANCH  38  39
ATOM     39  C   UNL A   1      37.717  32.104  31.081  1.00  0.00     0.031 A 
ATOM     40  C   UNL A   1      38.457  31.024  30.342  1.00  0.00     0.074 A 
ATOM     41  C   UNL A   1      38.083  32.442  32.332  1.00  0.00     0.049 A 
ATOM     42  N   UNL A   1      39.463  30.287  30.742  1.00  0.00    -0.248 NA
ATOM     43  C   UNL A   1      37.988  30.711  28.982  1.00  0.00     0.031 C 
ATOM     44  C   UNL A   1      37.416  33.445  33.166  1.00  0.00     0.029 A 
ATOM     45  N   UNL A   1      39.100  31.974  33.123  1.00  0.00    -0.354 N 
ATOM     46  C   UNL A   1      39.733  29.415  29.694  1.00  0.00     0.074 A 
ATOM     47  C   UNL A   1      38.756  29.680  28.660  1.00  0.00     0.031 C 
ATOM     48  C   UNL A   1      38.054  33.528  34.345  1.00  0.00     0.029 A 
ATOM     49  C   UNL A   1      39.150  32.566  34.361  1.00  0.00     0.049 A 
ATOM     50  H   UNL A   1      39.733  31.279  32.832  1.00  0.00     0.167 HD
ATOM     51  C   UNL A   1      40.718  28.491  29.595  1.00  0.00     0.037 A 
ATOM     52  C   UNL A   1      39.985  32.350  35.396  1.00  0.00     0.037 A 
ATOM     53  C   UNL A   1      41.706  28.251  30.614  1.00  0.00     0.049 A 
ATOM     54  C   UNL A   1      41.076  31.327  35.257  1.00  0.00     0.074 A 
ATOM     55  C   UNL A   1      42.780  27.380  30.586  1.00  0.00     0.029 A 
ATOM     56  N   UNL A   1      41.739  28.890  31.844  1.00  0.00    -0.354 N 
ATOM     57  N   UNL A   1      41.356  30.551  34.237  1.00  0.00    -0.248 NA
ATOM     58  C   UNL A   1      41.971  31.154  36.408  1.00  0.00     0.031 C 
ATOM     59  C   UNL A   1      43.443  27.466  31.815  1.00  0.00     0.029 A 
ATOM     60  C   UNL A   1      42.806  28.420  32.591  1.00  0.00     0.049 A 
ATOM     61  H   UNL A   1      41.098  29.575  32.143  1.00  0.00     0.167 HD
ATOM     62  C   UNL A   1      42.474  29.817  34.614  1.00  0.00     0.074 A 
ATOM     63  C   UNL A   1      42.827  30.252  35.950  1.00  0.00     0.031 C 
ATOM     64  C   UNL A   1      43.146  28.870  33.917  1.00  0.00     0.037 A 
BRANCH  51  65
ATOM     65  C   UNL A   1      40.776  27.675  28.336  1.00  0.00     0.057 A 
ATOM     66  C   UNL A   1      40.095  26.457  28.212  1.00  0.00     0.134 A 
ATOM     67  C   UNL A   1      41.499  28.126  27.223  1.00  0.00     0.134 A 
ATOM     68  F   UNL A   1      39.394  25.963  29.244  1.00  0.00    -0.206 F 
ATOM     69  C   UNL A   1      40.151  25.704  27.038  1.00  0.00     0.040 A 
ATOM     70  C   UNL A   1      41.542  27.395  26.036  1.00  0.00     0.040 A 
ATOM     71  F   UNL A   1      42.170  29.286  27.272  1.00  0.00    -0.206 F 
ATOM     72  C   UNL A   1      40.873  26.176  25.943  1.00  0.00     0.006 A 
ENDBRANCH  51  65
BRANCH  52  73
ATOM     73  C   UNL A   1      39.837  33.140  36.642  1.00  0.00     0.057 A 
ATOM     74  C   UNL A   1      38.955  32.736  37.651  1.00  0.00     0.134 A 
ATOM     75  C   UNL A   1      40.570  34.313  36.858  1.00  0.00     0.134 A 
ATOM     76  F   UNL A   1      38.214  31.630  37.494  1.00  0.00    -0.206 F 
ATOM     77  C   UNL A   1      38.794  33.477  38.822  1.00  0.00     0.040 A 
ATOM     78  C   UNL A   1      40.437  35.053  38.034  1.00  0.00     0.040 A 
ATOM     79  F   UNL A   1      41.439  34.749  35.934  1.00  0.00    -0.206 F 
ATOM     80  C   UNL A   1      39.540  34.637  39.018  1.00  0.00     0.006 A 
ENDBRANCH  52  73
BRANCH  64  81
ATOM     81  C   UNL A   1      44.350  28.265  34.575  1.00  0.00     0.057 A 
ATOM     82  C   UNL A   1      44.265  27.090  35.332  1.00  0.00     0.134 A 
ATOM     83  C   UNL A   1      45.614  28.847  34.419  1.00  0.00     0.134 A 
ATOM     84  F   UNL A   1      43.081  26.492  35.529  1.00  0.00    -0.206 F 
ATOM     85  C   UNL A   1      45.393  26.528  35.931  1.00  0.00     0.040 A 
ATOM     86  C   UNL A   1      46.753  28.281  34.993  1.00  0.00     0.040 A 
ATOM     87  F   UNL A   1      45.763  29.969  33.699  1.00  0.00    -0.206 F 
ATOM     88  C   UNL A   1      46.643  27.121  35.757  1.00  0.00     0.006 A 
ENDBRANCH  64  81
ENDBRANCH  38  39
ENDBRANCH  30  33
ENDBRANCH  28  29
ENDBRANCH  27  28
ENDBRANCH   1  27
TORSDOF 14
ENDMDL
MODEL 3
REMARK VINA RESULT:     -10.7      3.879      8.999
REMARK SMILES C[N@@H+]1CC[N@@H+](C)[C@H](C[NH2+]Cc2ccc(C(=O)NCCCNC(=O)c3ccc(-c4c5nc(c(-c6c(F)cccc6F)c6ccc([nH]6)c(-c6c(F)cccc6F)c6nc(c(-c7c(F)cccc7F)c7ccc4[nH]7)C=C6)C=C5)cc3)cn2)C1
REMARK SMILES IDX 18 1 17 2 15 3 16 4 14 6 11 7 12 8 79 9 13 10 78 11 10 12
REMARK SMILES IDX 9 13 8 16 7 17 1 18 2 19 3 20 80 21 4 23 5 24 6 25 19 27
REMARK SMILES IDX 20 28 21 29 22 30 23 32 24 33 25 34 77 35 26 36 76 37 27 38
REMARK SMILES IDX 28 39 29 40 70 41 30 42 75 43 69 44 71 45 31 46 74 47 68 48
REMARK SMILES IDX 67 49 32 51 58 52 41 53 57 54 42 55 45 56 56 57 72 58 43 59
REMARK SMILES IDX 44 60 55 62 73 63 46 64 33 65 34 66 39 67 35 68 36 69 38 70
REMARK SMILES IDX 40 71 37 72 59 73 60 74 65 75 61 76 62 77 64 78 66 79 63 80
REMARK SMILES IDX 47 81 48 82 53 83 49 84 50 85 52 86 54 87 51 88
REMARK H PARENT 17 5 9 14 9 15 2 22 5 26 21 31 71 50 45 61
REMARK Flexibility Score: inf
ROOT
ATOM      1  C   UNL A   1      31.730  30.456  26.704  1.00  0.00     0.118 C 
ENDROOT
BRANCH   1   2
ATOM      2  N   UNL A   1      33.072  30.116  27.137  1.00  0.00    -0.352 N 
ATOM      3  C   UNL A   1      33.951  29.139  26.749  1.00  0.00     0.252 C 
ATOM      4  O   UNL A   1      35.037  29.095  27.327  1.00  0.00    -0.269 OA
ATOM      5  H   UNL A   1      33.419  30.702  27.848  1.00  0.00     0.163 HD
BRANCH   3   6
ATOM      6  C   UNL A   1      33.687  28.191  25.641  1.00  0.00     0.058 A 
ATOM      7  C   UNL A   1      33.479  26.169  23.778  1.00  0.00     0.094 A 
ATOM      8  C   UNL A   1      33.557  27.485  23.340  1.00  0.00     0.030 A 
ATOM      9  N   UNL A   1      33.378  25.845  25.090  1.00  0.00    -0.255 NA
ATOM     10  C   UNL A   1      33.636  28.502  24.285  1.00  0.00     0.017 A 
ATOM     11  C   UNL A   1      33.499  26.856  25.984  1.00  0.00     0.125 A 
BRANCH   7  12
ATOM     12  C   UNL A   1      33.658  25.049  22.778  1.00  0.00     0.318 C 
BRANCH  12  13
ATOM     13  N   UNL A   1      32.503  24.148  22.792  1.00  0.00    -0.336 N 
ATOM     14  H   UNL A   1      31.892  24.404  23.568  1.00  0.00     0.346 HD
ATOM     15  H   UNL A   1      32.012  24.239  21.903  1.00  0.00     0.346 HD
BRANCH  13  16
ATOM     16  C   UNL A   1      32.922  22.743  22.954  1.00  0.00     0.332 C 
BRANCH  16  17
ATOM     17  C   UNL A   1      32.746  22.258  24.427  1.00  0.00     0.295 C 
ATOM     18  C   UNL A   1      29.904  22.951  26.876  1.00  0.00     0.333 C 
ATOM     19  N   UNL A   1      31.181  22.444  26.387  1.00  0.00    -0.328 N 
ATOM     20  C   UNL A   1      32.303  22.954  27.190  1.00  0.00     0.324 C 
ATOM     21  C   UNL A   1      31.409  22.837  24.983  1.00  0.00     0.334 C 
ATOM     22  H   UNL A   1      31.138  21.427  26.461  1.00  0.00     0.348 HD
ATOM     23  C   UNL A   1      33.641  22.358  26.705  1.00  0.00     0.324 C 
ATOM     24  N   UNL A   1      33.937  22.606  25.277  1.00  0.00    -0.321 N 
ATOM     25  C   UNL A   1      35.125  21.832  24.896  1.00  0.00     0.333 C 
ATOM     26  H   UNL A   1      34.131  23.595  25.125  1.00  0.00     0.348 HD
ENDBRANCH  16  17
ENDBRANCH  13  16
ENDBRANCH  12  13
ENDBRANCH   7  12
ENDBRANCH   3   6
ENDBRANCH   1   2
BRANCH   1  27
ATOM     27  C   UNL A   1      31.470  31.954  26.861  1.00  0.00     0.042 C 
BRANCH  27  28
ATOM     28  C   UNL A   1      32.748  32.776  26.958  1.00  0.00     0.118 C 
BRANCH  28  29
ATOM     29  N   UNL A   1      32.522  34.047  27.627  1.00  0.00    -0.352 N 
ATOM     30  C   UNL A   1      33.137  34.579  28.731  1.00  0.00     0.251 C 
ATOM     31  H   UNL A   1      31.821  34.610  27.227  1.00  0.00     0.163 HD
ATOM     32  O   UNL A   1      32.641  35.551  29.289  1.00  0.00    -0.269 OA
BRANCH  30  33
ATOM     33  C   UNL A   1      34.389  33.989  29.254  1.00  0.00     0.039 A 
ATOM     34  C   UNL A   1      35.602  34.366  28.669  1.00  0.00     0.014 A 
ATOM     35  C   UNL A   1      34.372  33.028  30.269  1.00  0.00     0.014 A 
ATOM     36  C   UNL A   1      36.797  33.808  29.126  1.00  0.00     0.010 A 
ATOM     37  C   UNL A   1      35.569  32.526  30.772  1.00  0.00     0.010 A 
ATOM     38  C   UNL A   1      36.791  32.899  30.195  1.00  0.00    -0.014 A 
BRANCH  38  39
ATOM     39  C   UNL A   1      38.051  32.308  30.707  1.00  0.00     0.031 A 
ATOM     40  C   UNL A   1      38.603  31.054  30.088  1.00  0.00     0.074 A 
ATOM     41  C   UNL A   1      38.668  32.869  31.765  1.00  0.00     0.049 A 
ATOM     42  N   UNL A   1      39.650  30.349  30.437  1.00  0.00    -0.248 NA
ATOM     43  C   UNL A   1      37.865  30.503  28.939  1.00  0.00     0.031 C 
ATOM     44  C   UNL A   1      38.205  34.062  32.477  1.00  0.00     0.029 A 
ATOM     45  N   UNL A   1      39.809  32.505  32.430  1.00  0.00    -0.354 N 
ATOM     46  C   UNL A   1      39.683  29.266  29.567  1.00  0.00     0.074 A 
ATOM     47  C   UNL A   1      38.527  29.380  28.704  1.00  0.00     0.031 C 
ATOM     48  C   UNL A   1      39.067  34.341  33.469  1.00  0.00     0.029 A 
ATOM     49  C   UNL A   1      40.120  33.332  33.482  1.00  0.00     0.049 A 
ATOM     50  H   UNL A   1      40.355  31.725  32.179  1.00  0.00     0.167 HD
ATOM     51  C   UNL A   1      40.606  28.278  29.482  1.00  0.00     0.037 A 
ATOM     52  C   UNL A   1      41.138  33.276  34.362  1.00  0.00     0.037 A 
ATOM     53  C   UNL A   1      41.770  28.185  30.323  1.00  0.00     0.049 A 
ATOM     54  C   UNL A   1      42.154  32.176  34.239  1.00  0.00     0.074 A 
ATOM     55  C   UNL A   1      42.795  27.257  30.278  1.00  0.00     0.029 A 
ATOM     56  N   UNL A   1      42.063  29.057  31.360  1.00  0.00    -0.354 N 
ATOM     57  N   UNL A   1      42.206  31.192  33.373  1.00  0.00    -0.248 NA
ATOM     58  C   UNL A   1      43.256  32.182  35.210  1.00  0.00     0.031 C 
ATOM     59  C   UNL A   1      43.692  27.547  31.312  1.00  0.00     0.029 A 
ATOM     60  C   UNL A   1      43.246  28.679  31.974  1.00  0.00     0.049 A 
ATOM     61  H   UNL A   1      41.512  29.830  31.622  1.00  0.00     0.167 HD
ATOM     62  C   UNL A   1      43.358  30.478  33.679  1.00  0.00     0.074 A 
ATOM     63  C   UNL A   1      43.980  31.150  34.800  1.00  0.00     0.031 C 
ATOM     64  C   UNL A   1      43.854  29.366  33.085  1.00  0.00     0.037 A 
BRANCH  51  65
ATOM     65  C   UNL A   1      40.391  27.221  28.437  1.00  0.00     0.057 A 
ATOM     66  C   UNL A   1      41.023  27.278  27.188  1.00  0.00     0.134 A 
ATOM     67  C   UNL A   1      39.565  26.118  28.693  1.00  0.00     0.134 A 
ATOM     68  F   UNL A   1      41.817  28.313  26.875  1.00  0.00    -0.206 F 
ATOM     69  C   UNL A   1      40.821  26.291  26.221  1.00  0.00     0.040 A 
ATOM     70  C   UNL A   1      39.375  25.113  27.744  1.00  0.00     0.040 A 
ATOM     71  F   UNL A   1      38.934  25.999  29.870  1.00  0.00    -0.206 F 
ATOM     72  C   UNL A   1      39.998  25.201  26.501  1.00  0.00     0.006 A 
ENDBRANCH  51  65
BRANCH  52  73
ATOM     73  C   UNL A   1      41.262  34.311  35.416  1.00  0.00     0.057 A 
ATOM     74  C   UNL A   1      42.009  35.475  35.199  1.00  0.00     0.134 A 
ATOM     75  C   UNL A   1      40.639  34.168  36.662  1.00  0.00     0.134 A 
ATOM     76  F   UNL A   1      42.642  35.661  34.032  1.00  0.00    -0.206 F 
ATOM     77  C   UNL A   1      42.148  36.450  36.188  1.00  0.00     0.040 A 
ATOM     78  C   UNL A   1      40.750  35.145  37.652  1.00  0.00     0.040 A 
ATOM     79  F   UNL A   1      39.900  33.080  36.928  1.00  0.00    -0.206 F 
ATOM     80  C   UNL A   1      41.512  36.288  37.417  1.00  0.00     0.006 A 
ENDBRANCH  52  73
BRANCH  64  81
ATOM     81  C   UNL A   1      45.149  28.829  33.616  1.00  0.00     0.057 A 
ATOM     82  C   UNL A   1      45.187  27.858  34.624  1.00  0.00     0.134 A 
ATOM     83  C   UNL A   1      46.371  29.265  33.088  1.00  0.00     0.134 A 
ATOM     84  F   UNL A   1      44.052  27.410  35.180  1.00  0.00    -0.206 F 
ATOM     85  C   UNL A   1      46.397  27.356  35.104  1.00  0.00     0.040 A 
ATOM     86  C   UNL A   1      47.586  28.753  33.543  1.00  0.00     0.040 A 
ATOM     87  F   UNL A   1      46.401  30.188  32.115  1.00  0.00    -0.206 F 
ATOM     88  C   UNL A   1      47.602  27.799  34.558  1.00  0.00     0.006 A 
ENDBRANCH  64  81
ENDBRANCH  38  39
ENDBRANCH  30  33
ENDBRANCH  28  29
ENDBRANCH  27  28
ENDBRANCH   1  27
TORSDOF 14
ENDMDL
