MODEL 1
REMARK VINA RESULT:      -9.3      0.000      0.000
REMARK SMILES O=C(COc1ccc(N2C[C@@H](C(=O)NCCCNC(=O)c3ccc(-c4c5nc(c(-c6c(F)cccc6F)c6ccc([nH]6)c(-c6c(F)cccc6F)c6nc(c(-c7c(F)cccc7F)c7ccc4[nH]7)C=C6)C=C5)cc3)CC2=O)cc1)Nc1ccc(Cl)cc1Cl
REMARK SMILES IDX 12 1 13 2 14 3 11 5 9 6 10 7 76 8 75 9 77 10 8 11 5 12 6 13
REMARK SMILES IDX 79 14 7 15 78 16 4 17 3 18 2 19 1 20 80 21 81 23 82 24 87 25
REMARK SMILES IDX 83 26 86 27 88 28 84 29 85 30 15 31 16 32 17 33 18 34 19 35
REMARK SMILES IDX 20 37 21 38 22 39 74 40 23 41 73 42 24 43 25 44 26 45 67 46
REMARK SMILES IDX 27 47 72 48 66 49 68 50 28 51 71 52 65 53 64 54 29 56 55 57
REMARK SMILES IDX 38 58 54 59 39 60 42 61 53 62 69 63 40 64 41 65 52 67 70 68
REMARK SMILES IDX 43 69 30 70 31 71 36 72 32 73 33 74 35 75 37 76 34 77 56 78
REMARK SMILES IDX 57 79 62 80 58 81 59 82 61 83 63 84 60 85 44 86 45 87 50 88
REMARK SMILES IDX 46 89 47 90 49 91 51 92 48 93
REMARK H PARENT 14 4 80 22 18 36 68 55 42 66
REMARK Flexibility Score: inf
ROOT
ATOM      1  C   UNL A   1      44.625  19.892  24.292  1.00  0.00     0.225 C 
ATOM      2  O   UNL A   1      45.117  19.253  23.358  1.00  0.00    -0.275 OA
ATOM      3  N   UNL A   1      43.666  19.273  25.024  1.00  0.00    -0.356 N 
ATOM      4  H   UNL A   1      43.454  18.363  24.714  1.00  0.00     0.163 HD
ENDROOT
BRANCH   1   5
ATOM      5  C   UNL A   1      45.115  21.296  24.576  1.00  0.00     0.107 C 
ATOM      6  N   UNL A   1      44.621  22.898  26.232  1.00  0.00    -0.312 N 
ATOM      7  C   UNL A   1      45.230  21.603  26.059  1.00  0.00     0.139 C 
ATOM      8  C   UNL A   1      44.031  23.376  25.063  1.00  0.00     0.227 C 
ATOM      9  C   UNL A   1      44.265  22.391  23.957  1.00  0.00     0.116 C 
ATOM     10  O   UNL A   1      43.429  24.429  24.888  1.00  0.00    -0.274 OA
BRANCH   6  11
ATOM     11  C   UNL A   1      44.569  23.556  27.483  1.00  0.00     0.044 A 
ATOM     12  C   UNL A   1      44.545  24.789  30.017  1.00  0.00     0.120 A 
ATOM     13  C   UNL A   1      43.381  24.223  29.506  1.00  0.00     0.048 A 
ATOM     14  C   UNL A   1      45.715  24.741  29.268  1.00  0.00     0.048 A 
ATOM     15  C   UNL A   1      43.384  23.636  28.229  1.00  0.00     0.030 A 
ATOM     16  C   UNL A   1      45.725  24.129  28.017  1.00  0.00     0.030 A 
BRANCH  12  17
ATOM     17  O   UNL A   1      44.542  25.252  31.307  1.00  0.00    -0.484 OA
BRANCH  17  18
ATOM     18  C   UNL A   1      45.355  26.413  31.489  1.00  0.00     0.329 C 
BRANCH  18  19
ATOM     19  C   UNL A   1      44.718  27.532  32.322  1.00  0.00     0.262 C 
ATOM     20  O   UNL A   1      44.901  27.600  33.532  1.00  0.00    -0.271 OA
ATOM     21  N   UNL A   1      43.865  28.333  31.572  1.00  0.00    -0.322 N 
ATOM     22  H   UNL A   1      43.842  28.189  30.597  1.00  0.00     0.170 HD
BRANCH  21  23
ATOM     23  C   UNL A   1      43.025  29.341  32.102  1.00  0.00     0.060 A 
ATOM     24  C   UNL A   1      41.646  29.084  32.024  1.00  0.00     0.029 A 
ATOM     25  C   UNL A   1      43.454  30.538  32.708  1.00  0.00     0.066 A 
ATOM     26  C   UNL A   1      40.722  29.948  32.619  1.00  0.00     0.023 A 
ATOM     27  C   UNL A   1      42.525  31.396  33.310  1.00  0.00     0.043 A 
ATOM     28  Cl  UNL A   1      45.073  31.138  32.586  1.00  0.00    -0.082 Cl
ATOM     29  C   UNL A   1      41.168  31.090  33.276  1.00  0.00     0.042 A 
ATOM     30  Cl  UNL A   1      40.032  32.143  34.023  1.00  0.00    -0.084 Cl
ENDBRANCH  21  23
ENDBRANCH  18  19
ENDBRANCH  17  18
ENDBRANCH  12  17
ENDBRANCH   6  11
ENDBRANCH   1   5
BRANCH   3  31
ATOM     31  C   UNL A   1      42.891  19.695  26.180  1.00  0.00     0.117 C 
BRANCH  31  32
ATOM     32  C   UNL A   1      41.441  20.015  25.825  1.00  0.00     0.042 C 
BRANCH  32  33
ATOM     33  C   UNL A   1      40.914  21.321  26.415  1.00  0.00     0.118 C 
BRANCH  33  34
ATOM     34  N   UNL A   1      39.554  21.626  25.998  1.00  0.00    -0.352 N 
ATOM     35  C   UNL A   1      38.810  22.772  26.145  1.00  0.00     0.251 C 
ATOM     36  H   UNL A   1      39.091  20.892  25.533  1.00  0.00     0.163 HD
ATOM     37  O   UNL A   1      37.615  22.754  25.866  1.00  0.00    -0.269 OA
BRANCH  35  38
ATOM     38  C   UNL A   1      39.424  24.018  26.656  1.00  0.00     0.039 A 
ATOM     39  C   UNL A   1      40.067  24.867  25.750  1.00  0.00     0.014 A 
ATOM     40  C   UNL A   1      39.395  24.345  28.013  1.00  0.00     0.014 A 
ATOM     41  C   UNL A   1      40.607  26.078  26.193  1.00  0.00     0.010 A 
ATOM     42  C   UNL A   1      39.861  25.588  28.441  1.00  0.00     0.010 A 
ATOM     43  C   UNL A   1      40.465  26.472  27.534  1.00  0.00    -0.014 A 
BRANCH  43  44
ATOM     44  C   UNL A   1      40.911  27.814  27.990  1.00  0.00     0.031 A 
ATOM     45  C   UNL A   1      42.370  28.183  27.984  1.00  0.00     0.074 A 
ATOM     46  C   UNL A   1      40.002  28.682  28.478  1.00  0.00     0.049 A 
ATOM     47  N   UNL A   1      42.947  29.281  28.404  1.00  0.00    -0.248 NA
ATOM     48  C   UNL A   1      43.308  27.179  27.456  1.00  0.00     0.031 C 
ATOM     49  C   UNL A   1      38.563  28.427  28.588  1.00  0.00     0.029 A 
ATOM     50  N   UNL A   1      40.151  29.949  28.985  1.00  0.00    -0.354 N 
ATOM     51  C   UNL A   1      44.309  29.096  28.205  1.00  0.00     0.074 A 
ATOM     52  C   UNL A   1      44.479  27.762  27.670  1.00  0.00     0.031 C 
ATOM     53  C   UNL A   1      37.962  29.509  29.108  1.00  0.00     0.029 A 
ATOM     54  C   UNL A   1      38.973  30.515  29.412  1.00  0.00     0.049 A 
ATOM     55  H   UNL A   1      41.020  30.410  29.037  1.00  0.00     0.167 HD
ATOM     56  C   UNL A   1      45.323  29.965  28.431  1.00  0.00     0.037 A 
ATOM     57  C   UNL A   1      38.734  31.703  29.999  1.00  0.00     0.037 A 
ATOM     58  C   UNL A   1      45.149  31.299  28.944  1.00  0.00     0.049 A 
ATOM     59  C   UNL A   1      39.881  32.643  30.249  1.00  0.00     0.074 A 
ATOM     60  C   UNL A   1      46.109  32.278  29.138  1.00  0.00     0.029 A 
ATOM     61  N   UNL A   1      43.940  31.840  29.351  1.00  0.00    -0.354 N 
ATOM     62  N   UNL A   1      41.155  32.484  29.979  1.00  0.00    -0.248 NA
ATOM     63  C   UNL A   1      39.559  33.929  30.883  1.00  0.00     0.031 C 
ATOM     64  C   UNL A   1      45.490  33.390  29.719  1.00  0.00     0.029 A 
ATOM     65  C   UNL A   1      44.134  33.126  29.829  1.00  0.00     0.049 A 
ATOM     66  H   UNL A   1      43.070  31.379  29.309  1.00  0.00     0.167 HD
ATOM     67  C   UNL A   1      41.779  33.658  30.383  1.00  0.00     0.074 A 
ATOM     68  C   UNL A   1      40.742  34.527  30.897  1.00  0.00     0.031 C 
ATOM     69  C   UNL A   1      43.093  33.984  30.335  1.00  0.00     0.037 A 
BRANCH  56  70
ATOM     70  C   UNL A   1      46.721  29.507  28.126  1.00  0.00     0.057 A 
ATOM     71  C   UNL A   1      47.557  28.969  29.114  1.00  0.00     0.134 A 
ATOM     72  C   UNL A   1      47.213  29.540  26.815  1.00  0.00     0.134 A 
ATOM     73  F   UNL A   1      47.153  28.916  30.392  1.00  0.00    -0.206 F 
ATOM     74  C   UNL A   1      48.837  28.500  28.812  1.00  0.00     0.040 A 
ATOM     75  C   UNL A   1      48.478  29.046  26.496  1.00  0.00     0.040 A 
ATOM     76  F   UNL A   1      46.462  30.033  25.819  1.00  0.00    -0.206 F 
ATOM     77  C   UNL A   1      49.297  28.529  27.497  1.00  0.00     0.006 A 
ENDBRANCH  56  70
BRANCH  57  78
ATOM     78  C   UNL A   1      37.351  32.077  30.396  1.00  0.00     0.057 A 
ATOM     79  C   UNL A   1      36.555  32.889  29.579  1.00  0.00     0.134 A 
ATOM     80  C   UNL A   1      36.802  31.656  31.613  1.00  0.00     0.134 A 
ATOM     81  F   UNL A   1      37.031  33.343  28.409  1.00  0.00    -0.206 F 
ATOM     82  C   UNL A   1      35.277  33.292  29.969  1.00  0.00     0.040 A 
ATOM     83  C   UNL A   1      35.514  32.024  32.002  1.00  0.00     0.040 A 
ATOM     84  F   UNL A   1      37.509  30.869  32.438  1.00  0.00    -0.206 F 
ATOM     85  C   UNL A   1      34.752  32.855  31.184  1.00  0.00     0.006 A 
ENDBRANCH  57  78
BRANCH  69  86
ATOM     86  C   UNL A   1      43.481  35.351  30.822  1.00  0.00     0.057 A 
ATOM     87  C   UNL A   1      43.563  36.450  29.959  1.00  0.00     0.134 A 
ATOM     88  C   UNL A   1      43.743  35.576  32.181  1.00  0.00     0.134 A 
ATOM     89  F   UNL A   1      43.337  36.301  28.645  1.00  0.00    -0.206 F 
ATOM     90  C   UNL A   1      43.918  37.718  30.424  1.00  0.00     0.040 A 
ATOM     91  C   UNL A   1      44.067  36.844  32.662  1.00  0.00     0.040 A 
ATOM     92  F   UNL A   1      43.672  34.569  33.065  1.00  0.00    -0.206 F 
ATOM     93  C   UNL A   1      44.163  37.919  31.781  1.00  0.00     0.006 A 
ENDBRANCH  69  86
ENDBRANCH  43  44
ENDBRANCH  35  38
ENDBRANCH  33  34
ENDBRANCH  32  33
ENDBRANCH  31  32
ENDBRANCH   3  31
TORSDOF 15
ENDMDL
MODEL 2
REMARK VINA RESULT:      -9.3      3.630      9.928
REMARK SMILES O=C(COc1ccc(N2C[C@@H](C(=O)NCCCNC(=O)c3ccc(-c4c5nc(c(-c6c(F)cccc6F)c6ccc([nH]6)c(-c6c(F)cccc6F)c6nc(c(-c7c(F)cccc7F)c7ccc4[nH]7)C=C6)C=C5)cc3)CC2=O)cc1)Nc1ccc(Cl)cc1Cl
REMARK SMILES IDX 12 1 13 2 14 3 11 5 9 6 10 7 76 8 75 9 77 10 8 11 5 12 6 13
REMARK SMILES IDX 79 14 7 15 78 16 4 17 3 18 2 19 1 20 80 21 81 23 82 24 87 25
REMARK SMILES IDX 83 26 86 27 88 28 84 29 85 30 15 31 16 32 17 33 18 34 19 35
REMARK SMILES IDX 20 37 21 38 22 39 74 40 23 41 73 42 24 43 25 44 26 45 67 46
REMARK SMILES IDX 27 47 72 48 66 49 68 50 28 51 71 52 65 53 64 54 29 56 55 57
REMARK SMILES IDX 38 58 54 59 39 60 42 61 53 62 69 63 40 64 41 65 52 67 70 68
REMARK SMILES IDX 43 69 30 70 31 71 36 72 32 73 33 74 35 75 37 76 34 77 56 78
REMARK SMILES IDX 57 79 62 80 58 81 59 82 61 83 63 84 60 85 44 86 45 87 50 88
REMARK SMILES IDX 46 89 47 90 49 91 51 92 48 93
REMARK H PARENT 14 4 80 22 18 36 68 55 42 66
REMARK Flexibility Score: inf
ROOT
ATOM      1  C   UNL A   1      34.124  33.657  32.640  1.00  0.00     0.225 C 
ATOM      2  O   UNL A   1      33.313  33.070  33.362  1.00  0.00    -0.275 OA
ATOM      3  N   UNL A   1      33.641  34.220  31.504  1.00  0.00    -0.356 N 
ATOM      4  H   UNL A   1      32.675  34.085  31.373  1.00  0.00     0.163 HD
ENDROOT
BRANCH   1   5
ATOM      5  C   UNL A   1      35.579  33.730  33.054  1.00  0.00     0.107 C 
ATOM      6  N   UNL A   1      37.201  32.119  33.623  1.00  0.00    -0.312 N 
ATOM      7  C   UNL A   1      36.415  32.587  32.509  1.00  0.00     0.139 C 
ATOM      8  C   UNL A   1      36.863  32.747  34.822  1.00  0.00     0.227 C 
ATOM      9  C   UNL A   1      35.798  33.770  34.555  1.00  0.00     0.116 C 
ATOM     10  O   UNL A   1      37.334  32.564  35.937  1.00  0.00    -0.274 OA
BRANCH   6  11
ATOM     11  C   UNL A   1      38.150  31.076  33.505  1.00  0.00     0.044 A 
ATOM     12  C   UNL A   1      39.970  28.931  33.343  1.00  0.00     0.120 A 
ATOM     13  C   UNL A   1      40.378  30.155  33.868  1.00  0.00     0.048 A 
ATOM     14  C   UNL A   1      38.661  28.779  32.901  1.00  0.00     0.048 A 
ATOM     15  C   UNL A   1      39.480  31.234  33.920  1.00  0.00     0.030 A 
ATOM     16  C   UNL A   1      37.762  29.840  32.984  1.00  0.00     0.030 A 
BRANCH  12  17
ATOM     17  O   UNL A   1      40.831  27.866  33.408  1.00  0.00    -0.484 OA
BRANCH  17  18
ATOM     18  C   UNL A   1      42.190  28.254  33.618  1.00  0.00     0.329 C 
BRANCH  18  19
ATOM     19  C   UNL A   1      43.211  27.112  33.554  1.00  0.00     0.262 C 
ATOM     20  O   UNL A   1      43.843  26.888  32.527  1.00  0.00    -0.271 OA
ATOM     21  N   UNL A   1      43.227  26.347  34.715  1.00  0.00    -0.322 N 
ATOM     22  H   UNL A   1      42.693  26.666  35.479  1.00  0.00     0.170 HD
BRANCH  21  23
ATOM     23  C   UNL A   1      43.953  25.144  34.881  1.00  0.00     0.060 A 
ATOM     24  C   UNL A   1      43.240  23.963  34.611  1.00  0.00     0.029 A 
ATOM     25  C   UNL A   1      45.305  25.041  35.262  1.00  0.00     0.066 A 
ATOM     26  C   UNL A   1      43.880  22.721  34.626  1.00  0.00     0.023 A 
ATOM     27  C   UNL A   1      45.944  23.795  35.268  1.00  0.00     0.043 A 
ATOM     28  Cl  UNL A   1      46.204  26.359  35.935  1.00  0.00    -0.082 Cl
ATOM     29  C   UNL A   1      45.235  22.646  34.935  1.00  0.00     0.042 A 
ATOM     30  Cl  UNL A   1      46.026  21.119  34.936  1.00  0.00    -0.084 Cl
ENDBRANCH  21  23
ENDBRANCH  18  19
ENDBRANCH  17  18
ENDBRANCH  12  17
ENDBRANCH   6  11
ENDBRANCH   1   5
BRANCH   3  31
ATOM     31  C   UNL A   1      34.277  34.987  30.445  1.00  0.00     0.117 C 
BRANCH  31  32
ATOM     32  C   UNL A   1      34.276  34.248  29.108  1.00  0.00     0.042 C 
BRANCH  32  33
ATOM     33  C   UNL A   1      34.946  32.877  29.139  1.00  0.00     0.118 C 
BRANCH  33  34
ATOM     34  N   UNL A   1      34.148  31.840  28.501  1.00  0.00    -0.352 N 
ATOM     35  C   UNL A   1      34.508  30.602  28.026  1.00  0.00     0.251 C 
ATOM     36  H   UNL A   1      33.195  32.062  28.392  1.00  0.00     0.163 HD
ATOM     37  O   UNL A   1      33.701  29.953  27.365  1.00  0.00    -0.269 OA
BRANCH  35  38
ATOM     38  C   UNL A   1      35.858  30.051  28.280  1.00  0.00     0.039 A 
ATOM     39  C   UNL A   1      36.826  30.164  27.278  1.00  0.00     0.014 A 
ATOM     40  C   UNL A   1      36.171  29.406  29.479  1.00  0.00     0.014 A 
ATOM     41  C   UNL A   1      38.125  29.704  27.510  1.00  0.00     0.010 A 
ATOM     42  C   UNL A   1      37.486  29.020  29.740  1.00  0.00     0.010 A 
ATOM     43  C   UNL A   1      38.479  29.172  28.762  1.00  0.00    -0.014 A 
BRANCH  43  44
ATOM     44  C   UNL A   1      39.887  28.807  29.068  1.00  0.00     0.031 A 
ATOM     45  C   UNL A   1      40.798  29.776  29.771  1.00  0.00     0.074 A 
ATOM     46  C   UNL A   1      40.367  27.618  28.649  1.00  0.00     0.049 A 
ATOM     47  N   UNL A   1      42.069  29.654  30.062  1.00  0.00    -0.248 NA
ATOM     48  C   UNL A   1      40.211  31.063  30.181  1.00  0.00     0.031 C 
ATOM     49  C   UNL A   1      39.602  26.609  27.912  1.00  0.00     0.029 A 
ATOM     50  N   UNL A   1      41.616  27.061  28.771  1.00  0.00    -0.354 N 
ATOM     51  C   UNL A   1      42.435  30.845  30.675  1.00  0.00     0.074 A 
ATOM     52  C   UNL A   1      41.266  31.698  30.672  1.00  0.00     0.031 C 
ATOM     53  C   UNL A   1      40.390  25.552  27.666  1.00  0.00     0.029 A 
ATOM     54  C   UNL A   1      41.726  25.822  28.184  1.00  0.00     0.049 A 
ATOM     55  H   UNL A   1      42.361  27.505  29.236  1.00  0.00     0.167 HD
ATOM     56  C   UNL A   1      43.633  31.190  31.207  1.00  0.00     0.037 A 
ATOM     57  C   UNL A   1      42.788  25.003  28.061  1.00  0.00     0.037 A 
ATOM     58  C   UNL A   1      44.788  30.332  31.227  1.00  0.00     0.049 A 
ATOM     59  C   UNL A   1      44.108  25.417  28.650  1.00  0.00     0.074 A 
ATOM     60  C   UNL A   1      46.024  30.565  31.808  1.00  0.00     0.029 A 
ATOM     61  N   UNL A   1      44.857  29.080  30.635  1.00  0.00    -0.354 N 
ATOM     62  N   UNL A   1      44.416  26.514  29.300  1.00  0.00    -0.248 NA
ATOM     63  C   UNL A   1      45.228  24.479  28.495  1.00  0.00     0.031 C 
ATOM     64  C   UNL A   1      46.857  29.481  31.516  1.00  0.00     0.029 A 
ATOM     65  C   UNL A   1      46.124  28.545  30.807  1.00  0.00     0.049 A 
ATOM     66  H   UNL A   1      44.116  28.637  30.162  1.00  0.00     0.167 HD
ATOM     67  C   UNL A   1      45.753  26.385  29.652  1.00  0.00     0.074 A 
ATOM     68  C   UNL A   1      46.192  25.095  29.163  1.00  0.00     0.031 C 
ATOM     69  C   UNL A   1      46.547  27.258  30.318  1.00  0.00     0.037 A 
BRANCH  56  70
ATOM     70  C   UNL A   1      43.762  32.557  31.817  1.00  0.00     0.057 A 
ATOM     71  C   UNL A   1      43.598  32.774  33.191  1.00  0.00     0.134 A 
ATOM     72  C   UNL A   1      44.123  33.658  31.030  1.00  0.00     0.134 A 
ATOM     73  F   UNL A   1      43.243  31.765  34.002  1.00  0.00    -0.206 F 
ATOM     74  C   UNL A   1      43.769  34.039  33.757  1.00  0.00     0.040 A 
ATOM     75  C   UNL A   1      44.327  34.921  31.588  1.00  0.00     0.040 A 
ATOM     76  F   UNL A   1      44.306  33.520  29.708  1.00  0.00    -0.206 F 
ATOM     77  C   UNL A   1      44.145  35.115  32.956  1.00  0.00     0.006 A 
ENDBRANCH  56  70
BRANCH  57  78
ATOM     78  C   UNL A   1      42.653  23.706  27.347  1.00  0.00     0.057 A 
ATOM     79  C   UNL A   1      42.326  22.530  28.032  1.00  0.00     0.134 A 
ATOM     80  C   UNL A   1      42.876  23.605  25.968  1.00  0.00     0.134 A 
ATOM     81  F   UNL A   1      42.120  22.556  29.358  1.00  0.00    -0.206 F 
ATOM     82  C   UNL A   1      42.253  21.298  27.380  1.00  0.00     0.040 A 
ATOM     83  C   UNL A   1      42.776  22.386  25.297  1.00  0.00     0.040 A 
ATOM     84  F   UNL A   1      43.185  24.695  25.251  1.00  0.00    -0.206 F 
ATOM     85  C   UNL A   1      42.475  21.225  26.006  1.00  0.00     0.006 A 
ENDBRANCH  57  78
BRANCH  69  86
ATOM     86  C   UNL A   1      47.963  26.834  30.585  1.00  0.00     0.057 A 
ATOM     87  C   UNL A   1      48.313  26.089  31.719  1.00  0.00     0.134 A 
ATOM     88  C   UNL A   1      48.985  27.147  29.678  1.00  0.00     0.134 A 
ATOM     89  F   UNL A   1      47.386  25.767  32.634  1.00  0.00    -0.206 F 
ATOM     90  C   UNL A   1      49.631  25.695  31.954  1.00  0.00     0.040 A 
ATOM     91  C   UNL A   1      50.300  26.731  29.887  1.00  0.00     0.040 A 
ATOM     92  F   UNL A   1      48.718  27.848  28.567  1.00  0.00    -0.206 F 
ATOM     93  C   UNL A   1      50.628  26.009  31.032  1.00  0.00     0.006 A 
ENDBRANCH  69  86
ENDBRANCH  43  44
ENDBRANCH  35  38
ENDBRANCH  33  34
ENDBRANCH  32  33
ENDBRANCH  31  32
ENDBRANCH   3  31
TORSDOF 15
ENDMDL
MODEL 3
REMARK VINA RESULT:      -8.9      4.834      9.532
REMARK SMILES O=C(COc1ccc(N2C[C@@H](C(=O)NCCCNC(=O)c3ccc(-c4c5nc(c(-c6c(F)cccc6F)c6ccc([nH]6)c(-c6c(F)cccc6F)c6nc(c(-c7c(F)cccc7F)c7ccc4[nH]7)C=C6)C=C5)cc3)CC2=O)cc1)Nc1ccc(Cl)cc1Cl
REMARK SMILES IDX 12 1 13 2 14 3 11 5 9 6 10 7 76 8 75 9 77 10 8 11 5 12 6 13
REMARK SMILES IDX 79 14 7 15 78 16 4 17 3 18 2 19 1 20 80 21 81 23 82 24 87 25
REMARK SMILES IDX 83 26 86 27 88 28 84 29 85 30 15 31 16 32 17 33 18 34 19 35
REMARK SMILES IDX 20 37 21 38 22 39 74 40 23 41 73 42 24 43 25 44 26 45 67 46
REMARK SMILES IDX 27 47 72 48 66 49 68 50 28 51 71 52 65 53 64 54 29 56 55 57
REMARK SMILES IDX 38 58 54 59 39 60 42 61 53 62 69 63 40 64 41 65 52 67 70 68
REMARK SMILES IDX 43 69 30 70 31 71 36 72 32 73 33 74 35 75 37 76 34 77 56 78
REMARK SMILES IDX 57 79 62 80 58 81 59 82 61 83 63 84 60 85 44 86 45 87 50 88
REMARK SMILES IDX 46 89 47 90 49 91 51 92 48 93
REMARK H PARENT 14 4 80 22 18 36 68 55 42 66
REMARK Flexibility Score: inf
ROOT
ATOM      1  C   UNL A   1      41.315  20.826  27.140  1.00  0.00     0.225 C 
ATOM      2  O   UNL A   1      40.771  20.541  28.210  1.00  0.00    -0.275 OA
ATOM      3  N   UNL A   1      42.641  21.110  27.180  1.00  0.00    -0.356 N 
ATOM      4  H   UNL A   1      43.030  21.068  28.084  1.00  0.00     0.163 HD
ENDROOT
BRANCH   1   5
ATOM      5  C   UNL A   1      40.499  20.831  25.864  1.00  0.00     0.107 C 
ATOM      6  N   UNL A   1      38.291  21.458  25.335  1.00  0.00    -0.312 N 
ATOM      7  C   UNL A   1      39.551  22.012  25.763  1.00  0.00     0.139 C 
ATOM      8  C   UNL A   1      38.306  20.064  25.282  1.00  0.00     0.227 C 
ATOM      9  C   UNL A   1      39.676  19.575  25.646  1.00  0.00     0.116 C 
ATOM     10  O   UNL A   1      37.397  19.304  24.972  1.00  0.00    -0.274 OA
BRANCH   6  11
ATOM     11  C   UNL A   1      37.151  22.257  25.083  1.00  0.00     0.044 A 
ATOM     12  C   UNL A   1      34.950  23.925  24.518  1.00  0.00     0.120 A 
ATOM     13  C   UNL A   1      35.347  23.716  25.836  1.00  0.00     0.048 A 
ATOM     14  C   UNL A   1      35.648  23.304  23.488  1.00  0.00     0.048 A 
ATOM     15  C   UNL A   1      36.425  22.860  26.121  1.00  0.00     0.030 A 
ATOM     16  C   UNL A   1      36.737  22.482  23.769  1.00  0.00     0.030 A 
BRANCH  12  17
ATOM     17  O   UNL A   1      33.972  24.850  24.263  1.00  0.00    -0.484 OA
BRANCH  17  18
ATOM     18  C   UNL A   1      33.736  25.047  22.867  1.00  0.00     0.329 C 
BRANCH  18  19
ATOM     19  C   UNL A   1      32.987  26.336  22.508  1.00  0.00     0.262 C 
ATOM     20  O   UNL A   1      33.346  27.031  21.563  1.00  0.00    -0.271 OA
ATOM     21  N   UNL A   1      31.985  26.641  23.421  1.00  0.00    -0.322 N 
ATOM     22  H   UNL A   1      31.779  25.972  24.114  1.00  0.00     0.170 HD
BRANCH  21  23
ATOM     23  C   UNL A   1      31.237  27.843  23.431  1.00  0.00     0.060 A 
ATOM     24  C   UNL A   1      30.093  27.852  22.615  1.00  0.00     0.029 A 
ATOM     25  C   UNL A   1      31.528  28.989  24.194  1.00  0.00     0.066 A 
ATOM     26  C   UNL A   1      29.211  28.936  22.631  1.00  0.00     0.023 A 
ATOM     27  C   UNL A   1      30.637  30.070  24.213  1.00  0.00     0.043 A 
ATOM     28  Cl  UNL A   1      33.050  29.248  24.978  1.00  0.00    -0.082 Cl
ATOM     29  C   UNL A   1      29.478  30.031  23.446  1.00  0.00     0.042 A 
ATOM     30  Cl  UNL A   1      28.383  31.357  23.479  1.00  0.00    -0.084 Cl
ENDBRANCH  21  23
ENDBRANCH  18  19
ENDBRANCH  17  18
ENDBRANCH  12  17
ENDBRANCH   6  11
ENDBRANCH   1   5
BRANCH   3  31
ATOM     31  C   UNL A   1      43.598  21.464  26.144  1.00  0.00     0.117 C 
BRANCH  31  32
ATOM     32  C   UNL A   1      44.355  22.750  26.464  1.00  0.00     0.042 C 
BRANCH  32  33
ATOM     33  C   UNL A   1      43.483  23.889  26.987  1.00  0.00     0.118 C 
BRANCH  33  34
ATOM     34  N   UNL A   1      42.718  24.546  25.939  1.00  0.00    -0.352 N 
ATOM     35  C   UNL A   1      41.830  25.593  26.005  1.00  0.00     0.251 C 
ATOM     36  H   UNL A   1      42.859  24.183  25.035  1.00  0.00     0.163 HD
ATOM     37  O   UNL A   1      41.163  25.880  25.015  1.00  0.00    -0.269 OA
BRANCH  35  38
ATOM     38  C   UNL A   1      41.650  26.363  27.257  1.00  0.00     0.039 A 
ATOM     39  C   UNL A   1      42.466  27.476  27.480  1.00  0.00     0.014 A 
ATOM     40  C   UNL A   1      40.710  25.986  28.218  1.00  0.00     0.014 A 
ATOM     41  C   UNL A   1      42.282  28.255  28.626  1.00  0.00     0.010 A 
ATOM     42  C   UNL A   1      40.473  26.808  29.320  1.00  0.00     0.010 A 
ATOM     43  C   UNL A   1      41.250  27.956  29.532  1.00  0.00    -0.014 A 
BRANCH  43  44
ATOM     44  C   UNL A   1      40.954  28.853  30.680  1.00  0.00     0.031 A 
ATOM     45  C   UNL A   1      39.846  29.866  30.598  1.00  0.00     0.074 A 
ATOM     46  C   UNL A   1      41.735  28.799  31.778  1.00  0.00     0.049 A 
ATOM     47  N   UNL A   1      39.488  30.772  31.474  1.00  0.00    -0.248 NA
ATOM     48  C   UNL A   1      39.048  29.882  29.362  1.00  0.00     0.031 C 
ATOM     49  C   UNL A   1      42.875  27.897  31.962  1.00  0.00     0.029 A 
ATOM     50  N   UNL A   1      41.699  29.526  32.942  1.00  0.00    -0.354 N 
ATOM     51  C   UNL A   1      38.436  31.469  30.892  1.00  0.00     0.074 A 
ATOM     52  C   UNL A   1      38.244  30.915  29.570  1.00  0.00     0.031 C 
ATOM     53  C   UNL A   1      43.415  28.111  33.172  1.00  0.00     0.029 A 
ATOM     54  C   UNL A   1      42.693  29.193  33.832  1.00  0.00     0.049 A 
ATOM     55  H   UNL A   1      41.025  30.220  33.123  1.00  0.00     0.167 HD
ATOM     56  C   UNL A   1      37.689  32.469  31.420  1.00  0.00     0.037 A 
ATOM     57  C   UNL A   1      43.001  29.711  35.036  1.00  0.00     0.037 A 
ATOM     58  C   UNL A   1      37.869  33.004  32.744  1.00  0.00     0.049 A 
ATOM     59  C   UNL A   1      42.161  30.828  35.591  1.00  0.00     0.074 A 
ATOM     60  C   UNL A   1      37.115  33.967  33.394  1.00  0.00     0.029 A 
ATOM     61  N   UNL A   1      38.877  32.631  33.620  1.00  0.00    -0.354 N 
ATOM     62  N   UNL A   1      41.119  31.421  35.061  1.00  0.00    -0.248 NA
ATOM     63  C   UNL A   1      42.538  31.346  36.914  1.00  0.00     0.031 C 
ATOM     64  C   UNL A   1      37.702  34.218  34.638  1.00  0.00     0.029 A 
ATOM     65  C   UNL A   1      38.785  33.369  34.789  1.00  0.00     0.049 A 
ATOM     66  H   UNL A   1      39.559  31.943  33.438  1.00  0.00     0.167 HD
ATOM     67  C   UNL A   1      40.699  32.360  35.995  1.00  0.00     0.074 A 
ATOM     68  C   UNL A   1      41.588  32.244  37.133  1.00  0.00     0.031 C 
ATOM     69  C   UNL A   1      39.674  33.241  35.916  1.00  0.00     0.037 A 
BRANCH  56  70
ATOM     70  C   UNL A   1      36.600  33.056  30.568  1.00  0.00     0.057 A 
ATOM     71  C   UNL A   1      36.875  33.959  29.533  1.00  0.00     0.134 A 
ATOM     72  C   UNL A   1      35.268  32.660  30.740  1.00  0.00     0.134 A 
ATOM     73  F   UNL A   1      38.129  34.388  29.319  1.00  0.00    -0.206 F 
ATOM     74  C   UNL A   1      35.863  34.462  28.713  1.00  0.00     0.040 A 
ATOM     75  C   UNL A   1      34.251  33.132  29.908  1.00  0.00     0.040 A 
ATOM     76  F   UNL A   1      34.935  31.790  31.706  1.00  0.00    -0.206 F 
ATOM     77  C   UNL A   1      34.547  34.040  28.894  1.00  0.00     0.006 A 
ENDBRANCH  56  70
BRANCH  57  78
ATOM     78  C   UNL A   1      44.160  29.184  35.803  1.00  0.00     0.057 A 
ATOM     79  C   UNL A   1      44.021  28.096  36.674  1.00  0.00     0.134 A 
ATOM     80  C   UNL A   1      45.427  29.771  35.706  1.00  0.00     0.134 A 
ATOM     81  F   UNL A   1      42.828  27.502  36.827  1.00  0.00    -0.206 F 
ATOM     82  C   UNL A   1      45.090  27.631  37.441  1.00  0.00     0.040 A 
ATOM     83  C   UNL A   1      46.513  29.296  36.443  1.00  0.00     0.040 A 
ATOM     84  F   UNL A   1      45.631  30.811  34.884  1.00  0.00    -0.206 F 
ATOM     85  C   UNL A   1      46.343  28.230  37.323  1.00  0.00     0.006 A 
ENDBRANCH  57  78
BRANCH  69  86
ATOM     86  C   UNL A   1      39.435  34.128  37.105  1.00  0.00     0.057 A 
ATOM     87  C   UNL A   1      38.762  33.674  38.246  1.00  0.00     0.134 A 
ATOM     88  C   UNL A   1      39.916  35.445  37.120  1.00  0.00     0.134 A 
ATOM     89  F   UNL A   1      38.265  32.429  38.291  1.00  0.00    -0.206 F 
ATOM     90  C   UNL A   1      38.552  34.505  39.347  1.00  0.00     0.040 A 
ATOM     91  C   UNL A   1      39.740  36.274  38.228  1.00  0.00     0.040 A 
ATOM     92  F   UNL A   1      40.579  35.941  36.065  1.00  0.00    -0.206 F 
ATOM     93  C   UNL A   1      39.048  35.807  39.343  1.00  0.00     0.006 A 
ENDBRANCH  69  86
ENDBRANCH  43  44
ENDBRANCH  35  38
ENDBRANCH  33  34
ENDBRANCH  32  33
ENDBRANCH  31  32
ENDBRANCH   3  31
TORSDOF 15
ENDMDL
