MODEL 1
REMARK VINA RESULT:     -12.4      0.000      0.000
REMARK SMILES COC(=O)c1sc(SCC(=O)NCCCNC(=O)c2ccc(-c3c4nc(c(-c5c(F)cccc5F)c5ccc([nH]5)c(-c5c(F)cccc5F)c5nc(c(-c6c(F)cccc6F)c6ccc3[nH]6)C=C5)C=C4)cc2)c(NC(=O)c2ccccc2)c1O
REMARK SMILES IDX 13 1 12 2 10 3 11 4 9 6 8 7 7 8 5 9 6 10 83 11 73 12 3 13
REMARK SMILES IDX 4 14 2 15 1 16 84 17 74 19 75 20 76 22 77 23 78 24 82 25
REMARK SMILES IDX 79 26 81 27 80 28 14 29 15 30 16 31 17 32 18 34 19 35 20 36
REMARK SMILES IDX 72 37 21 38 71 39 22 40 23 41 24 42 65 43 25 44 70 45 64 46
REMARK SMILES IDX 66 47 26 48 69 49 63 50 62 51 27 53 53 54 36 55 52 56 37 57
REMARK SMILES IDX 40 58 51 59 67 60 38 61 39 62 50 64 68 65 41 66 28 67 29 68
REMARK SMILES IDX 34 69 30 70 31 71 33 72 35 73 32 74 54 75 55 76 60 77 56 78
REMARK SMILES IDX 57 79 59 80 61 81 58 82 42 83 43 84 48 85 44 86 45 87 47 88
REMARK SMILES IDX 49 89 46 90
REMARK H PARENT 12 5 84 18 74 21 16 33 66 52 40 63
REMARK Flexibility Score: inf
ROOT
ATOM      1  C   UNL A   1      39.688  19.704  25.893  1.00  0.00     0.117 C 
ENDROOT
BRANCH   1   2
ATOM      2  N   UNL A   1      39.656  21.135  26.144  1.00  0.00    -0.355 N 
ATOM      3  C   UNL A   1      38.690  22.077  25.894  1.00  0.00     0.230 C 
ATOM      4  O   UNL A   1      38.872  23.162  26.456  1.00  0.00    -0.274 OA
ATOM      5  H   UNL A   1      40.470  21.490  26.569  1.00  0.00     0.163 HD
BRANCH   3   6
ATOM      6  C   UNL A   1      37.271  21.671  24.962  1.00  0.00     0.175 C 
BRANCH   6   7
ATOM      7  S   UNL A   1      35.727  23.197  23.553  1.00  0.00    -0.103 SA
BRANCH   7   8
ATOM      8  C   UNL A   1      33.908  23.216  23.898  1.00  0.00     0.089 A 
ATOM      9  C   UNL A   1      31.720  23.010  25.105  1.00  0.00     0.157 A 
ATOM     10  S   UNL A   1      33.378  22.793  25.494  1.00  0.00    -0.116 S 
ATOM     11  C   UNL A   1      31.585  23.416  23.797  1.00  0.00     0.166 A 
ATOM     12  C   UNL A   1      32.817  23.575  23.106  1.00  0.00     0.109 A 
BRANCH   9  13
ATOM     13  C   UNL A   1      30.696  22.785  26.109  1.00  0.00     0.352 C 
ATOM     14  O   UNL A   1      29.949  21.821  26.201  1.00  0.00    -0.245 OA
BRANCH  13  15
ATOM     15  O   UNL A   1      30.702  23.838  26.987  1.00  0.00    -0.465 OA
ATOM     16  C   UNL A   1      30.447  25.125  26.420  1.00  0.00     0.282 C 
ENDBRANCH  13  15
ENDBRANCH   9  13
BRANCH  11  17
ATOM     17  O   UNL A   1      30.396  23.639  23.186  1.00  0.00    -0.504 OA
ATOM     18  H   UNL A   1      29.815  24.295  23.518  1.00  0.00     0.293 HD
ENDBRANCH  11  17
BRANCH  12  19
ATOM     19  N   UNL A   1      32.800  24.007  21.783  1.00  0.00    -0.317 N 
ATOM     20  C   UNL A   1      32.501  25.262  21.353  1.00  0.00     0.255 C 
ATOM     21  H   UNL A   1      33.024  23.340  21.093  1.00  0.00     0.170 HD
ATOM     22  O   UNL A   1      32.197  25.535  20.202  1.00  0.00    -0.269 OA
BRANCH  20  23
ATOM     23  C   UNL A   1      32.518  26.274  22.403  1.00  0.00     0.040 A 
ATOM     24  C   UNL A   1      34.062  27.152  22.644  1.00  0.00     0.014 A 
ATOM     25  C   UNL A   1      30.943  26.965  23.064  1.00  0.00     0.014 A 
ATOM     26  C   UNL A   1      34.053  28.704  23.544  1.00  0.00     0.001 A 
ATOM     27  C   UNL A   1      30.976  28.544  23.929  1.00  0.00     0.001 A 
ATOM     28  C   UNL A   1      32.530  29.412  24.154  1.00  0.00     0.000 A 
ENDBRANCH  20  23
ENDBRANCH  12  19
ENDBRANCH   7   8
ENDBRANCH   6   7
ENDBRANCH   3   6
ENDBRANCH   1   2
BRANCH   1  29
ATOM     29  C   UNL A   1      41.103  19.149  25.751  1.00  0.00     0.042 C 
BRANCH  29  30
ATOM     30  C   UNL A   1      42.159  20.165  26.096  1.00  0.00     0.118 C 
BRANCH  30  31
ATOM     31  N   UNL A   1      43.448  19.921  25.448  1.00  0.00    -0.352 N 
ATOM     32  C   UNL A   1      44.343  20.865  24.976  1.00  0.00     0.251 C 
ATOM     33  H   UNL A   1      43.708  18.979  25.336  1.00  0.00     0.163 HD
ATOM     34  O   UNL A   1      45.255  20.561  24.219  1.00  0.00    -0.269 OA
BRANCH  32  35
ATOM     35  C   UNL A   1      44.163  22.255  25.424  1.00  0.00     0.039 A 
ATOM     36  C   UNL A   1      43.371  23.179  24.740  1.00  0.00     0.014 A 
ATOM     37  C   UNL A   1      44.763  22.587  26.631  1.00  0.00     0.014 A 
ATOM     38  C   UNL A   1      43.167  24.426  25.322  1.00  0.00     0.010 A 
ATOM     39  C   UNL A   1      44.300  23.654  27.327  1.00  0.00     0.010 A 
ATOM     40  C   UNL A   1      43.643  24.645  26.622  1.00  0.00    -0.014 A 
BRANCH  40  41
ATOM     41  C   UNL A   1      43.472  25.896  27.336  1.00  0.00     0.031 A 
ATOM     42  C   UNL A   1      44.452  26.940  26.964  1.00  0.00     0.074 A 
ATOM     43  C   UNL A   1      42.343  26.141  28.041  1.00  0.00     0.049 A 
ATOM     44  N   UNL A   1      45.412  27.414  27.683  1.00  0.00    -0.248 NA
ATOM     45  C   UNL A   1      44.483  27.384  25.560  1.00  0.00     0.031 C 
ATOM     46  C   UNL A   1      41.139  25.303  28.177  1.00  0.00     0.029 A 
ATOM     47  N   UNL A   1      41.985  27.270  28.701  1.00  0.00    -0.354 N 
ATOM     48  C   UNL A   1      46.015  28.394  26.901  1.00  0.00     0.074 A 
ATOM     49  C   UNL A   1      45.570  28.158  25.556  1.00  0.00     0.031 C 
ATOM     50  C   UNL A   1      40.118  26.040  28.663  1.00  0.00     0.029 A 
ATOM     51  C   UNL A   1      40.638  27.334  29.051  1.00  0.00     0.049 A 
ATOM     52  H   UNL A   1      42.625  27.986  28.916  1.00  0.00     0.167 HD
ATOM     53  C   UNL A   1      46.593  29.486  27.478  1.00  0.00     0.037 A 
ATOM     54  C   UNL A   1      40.009  28.405  29.593  1.00  0.00     0.037 A 
ATOM     55  C   UNL A   1      46.797  29.263  28.891  1.00  0.00     0.049 A 
ATOM     56  C   UNL A   1      41.070  29.287  30.148  1.00  0.00     0.074 A 
ATOM     57  C   UNL A   1      47.500  28.337  29.638  1.00  0.00     0.029 A 
ATOM     58  N   UNL A   1      45.889  29.827  29.757  1.00  0.00    -0.354 N 
ATOM     59  N   UNL A   1      41.831  28.955  31.155  1.00  0.00    -0.248 NA
ATOM     60  C   UNL A   1      41.613  30.310  29.266  1.00  0.00     0.031 C 
ATOM     61  C   UNL A   1      46.658  28.048  30.753  1.00  0.00     0.029 A 
ATOM     62  C   UNL A   1      45.532  28.869  30.671  1.00  0.00     0.049 A 
ATOM     63  H   UNL A   1      45.555  30.752  29.726  1.00  0.00     0.167 HD
ATOM     64  C   UNL A   1      43.099  29.404  30.809  1.00  0.00     0.074 A 
ATOM     65  C   UNL A   1      42.888  30.291  29.667  1.00  0.00     0.031 C 
ATOM     66  C   UNL A   1      44.222  28.782  31.280  1.00  0.00     0.037 A 
BRANCH  53  67
ATOM     67  C   UNL A   1      46.590  30.877  26.882  1.00  0.00     0.057 A 
ATOM     68  C   UNL A   1      47.797  31.604  26.869  1.00  0.00     0.134 A 
ATOM     69  C   UNL A   1      45.439  31.641  26.597  1.00  0.00     0.134 A 
ATOM     70  F   UNL A   1      48.969  30.998  27.110  1.00  0.00    -0.206 F 
ATOM     71  C   UNL A   1      47.839  32.993  26.699  1.00  0.00     0.040 A 
ATOM     72  C   UNL A   1      45.477  33.021  26.375  1.00  0.00     0.040 A 
ATOM     73  F   UNL A   1      44.204  31.131  26.607  1.00  0.00    -0.206 F 
ATOM     74  C   UNL A   1      46.674  33.709  26.466  1.00  0.00     0.006 A 
ENDBRANCH  53  67
BRANCH  54  75
ATOM     75  C   UNL A   1      38.618  28.860  29.375  1.00  0.00     0.057 A 
ATOM     76  C   UNL A   1      37.704  28.944  30.435  1.00  0.00     0.134 A 
ATOM     77  C   UNL A   1      38.230  29.481  28.174  1.00  0.00     0.134 A 
ATOM     78  F   UNL A   1      38.004  28.418  31.631  1.00  0.00    -0.206 F 
ATOM     79  C   UNL A   1      36.484  29.623  30.314  1.00  0.00     0.040 A 
ATOM     80  C   UNL A   1      37.014  30.158  28.039  1.00  0.00     0.040 A 
ATOM     81  F   UNL A   1      39.060  29.528  27.121  1.00  0.00    -0.206 F 
ATOM     82  C   UNL A   1      36.140  30.243  29.116  1.00  0.00     0.006 A 
ENDBRANCH  54  75
BRANCH  66  83
ATOM     83  C   UNL A   1      44.060  27.745  32.361  1.00  0.00     0.057 A 
ATOM     84  C   UNL A   1      44.007  26.362  32.126  1.00  0.00     0.134 A 
ATOM     85  C   UNL A   1      44.153  28.151  33.695  1.00  0.00     0.134 A 
ATOM     86  F   UNL A   1      44.008  25.870  30.883  1.00  0.00    -0.206 F 
ATOM     87  C   UNL A   1      44.021  25.430  33.169  1.00  0.00     0.040 A 
ATOM     88  C   UNL A   1      44.200  27.231  34.747  1.00  0.00     0.040 A 
ATOM     89  F   UNL A   1      44.264  29.454  33.997  1.00  0.00    -0.206 F 
ATOM     90  C   UNL A   1      44.128  25.865  34.486  1.00  0.00     0.006 A 
ENDBRANCH  66  83
ENDBRANCH  40  41
ENDBRANCH  32  35
ENDBRANCH  30  31
ENDBRANCH  29  30
ENDBRANCH   1  29
TORSDOF 17
ENDMDL
MODEL 2
REMARK VINA RESULT:     -12.1      2.623      4.302
REMARK SMILES COC(=O)c1sc(SCC(=O)NCCCNC(=O)c2ccc(-c3c4nc(c(-c5c(F)cccc5F)c5ccc([nH]5)c(-c5c(F)cccc5F)c5nc(c(-c6c(F)cccc6F)c6ccc3[nH]6)C=C5)C=C4)cc2)c(NC(=O)c2ccccc2)c1O
REMARK SMILES IDX 13 1 12 2 10 3 11 4 9 6 8 7 7 8 5 9 6 10 83 11 73 12 3 13
REMARK SMILES IDX 4 14 2 15 1 16 84 17 74 19 75 20 76 22 77 23 78 24 82 25
REMARK SMILES IDX 79 26 81 27 80 28 14 29 15 30 16 31 17 32 18 34 19 35 20 36
REMARK SMILES IDX 72 37 21 38 71 39 22 40 23 41 24 42 65 43 25 44 70 45 64 46
REMARK SMILES IDX 66 47 26 48 69 49 63 50 62 51 27 53 53 54 36 55 52 56 37 57
REMARK SMILES IDX 40 58 51 59 67 60 38 61 39 62 50 64 68 65 41 66 28 67 29 68
REMARK SMILES IDX 34 69 30 70 31 71 33 72 35 73 32 74 54 75 55 76 60 77 56 78
REMARK SMILES IDX 57 79 59 80 61 81 58 82 42 83 43 84 48 85 44 86 45 87 47 88
REMARK SMILES IDX 49 89 46 90
REMARK H PARENT 12 5 84 18 74 21 16 33 66 52 40 63
REMARK Flexibility Score: inf
ROOT
ATOM      1  C   UNL A   1      34.968  22.644  25.099  1.00  0.00     0.117 C 
ENDROOT
BRANCH   1   2
ATOM      2  N   UNL A   1      34.504  22.558  26.473  1.00  0.00    -0.355 N 
ATOM      3  C   UNL A   1      33.245  22.650  27.012  1.00  0.00     0.230 C 
ATOM      4  O   UNL A   1      33.162  22.283  28.189  1.00  0.00    -0.274 OA
ATOM      5  H   UNL A   1      35.219  22.406  27.133  1.00  0.00     0.163 HD
BRANCH   3   6
ATOM      6  C   UNL A   1      31.887  23.124  26.023  1.00  0.00     0.175 C 
BRANCH   6   7
ATOM      7  S   UNL A   1      30.625  25.381  25.922  1.00  0.00    -0.103 SA
BRANCH   7   8
ATOM      8  C   UNL A   1      31.588  26.955  25.779  1.00  0.00     0.089 A 
ATOM      9  C   UNL A   1      32.723  29.106  26.392  1.00  0.00     0.157 A 
ATOM     10  S   UNL A   1      31.827  27.896  27.216  1.00  0.00    -0.116 S 
ATOM     11  C   UNL A   1      32.851  28.781  25.060  1.00  0.00     0.166 A 
ATOM     12  C   UNL A   1      32.245  27.547  24.700  1.00  0.00     0.109 A 
BRANCH   9  13
ATOM     13  C   UNL A   1      33.239  30.255  27.112  1.00  0.00     0.352 C 
ATOM     14  O   UNL A   1      32.836  31.409  27.053  1.00  0.00    -0.245 OA
BRANCH  13  15
ATOM     15  O   UNL A   1      34.269  29.843  27.918  1.00  0.00    -0.465 OA
ATOM     16  C   UNL A   1      35.566  29.829  27.315  1.00  0.00     0.282 C 
ENDBRANCH  13  15
ENDBRANCH   9  13
BRANCH  11  17
ATOM     17  O   UNL A   1      33.478  29.557  24.143  1.00  0.00    -0.504 OA
ATOM     18  H   UNL A   1      33.072  29.725  23.315  1.00  0.00     0.293 HD
ENDBRANCH  11  17
BRANCH  12  19
ATOM     19  N   UNL A   1      32.336  27.108  23.383  1.00  0.00    -0.317 N 
ATOM     20  C   UNL A   1      31.372  27.224  22.430  1.00  0.00     0.255 C 
ATOM     21  H   UNL A   1      33.177  26.671  23.115  1.00  0.00     0.170 HD
ATOM     22  O   UNL A   1      31.353  26.575  21.395  1.00  0.00    -0.269 OA
BRANCH  20  23
ATOM     23  C   UNL A   1      30.310  28.166  22.765  1.00  0.00     0.040 A 
ATOM     24  C   UNL A   1      30.479  29.829  22.120  1.00  0.00     0.014 A 
ATOM     25  C   UNL A   1      28.672  27.558  23.353  1.00  0.00     0.014 A 
ATOM     26  C   UNL A   1      29.036  30.895  22.062  1.00  0.00     0.001 A 
ATOM     27  C   UNL A   1      27.244  28.650  23.242  1.00  0.00     0.001 A 
ATOM     28  C   UNL A   1      27.431  30.309  22.585  1.00  0.00     0.000 A 
ENDBRANCH  20  23
ENDBRANCH  12  19
ENDBRANCH   7   8
ENDBRANCH   6   7
ENDBRANCH   3   6
ENDBRANCH   1   2
BRANCH   1  29
ATOM     29  C   UNL A   1      36.185  23.550  24.929  1.00  0.00     0.042 C 
BRANCH  29  30
ATOM     30  C   UNL A   1      37.104  23.512  26.122  1.00  0.00     0.118 C 
BRANCH  30  31
ATOM     31  N   UNL A   1      38.057  22.403  26.098  1.00  0.00    -0.352 N 
ATOM     32  C   UNL A   1      39.392  22.434  26.463  1.00  0.00     0.251 C 
ATOM     33  H   UNL A   1      37.710  21.536  25.788  1.00  0.00     0.163 HD
ATOM     34  O   UNL A   1      40.161  21.533  26.155  1.00  0.00    -0.269 OA
BRANCH  32  35
ATOM     35  C   UNL A   1      39.856  23.591  27.243  1.00  0.00     0.039 A 
ATOM     36  C   UNL A   1      41.124  23.661  27.822  1.00  0.00     0.014 A 
ATOM     37  C   UNL A   1      38.985  24.670  27.305  1.00  0.00     0.014 A 
ATOM     38  C   UNL A   1      41.505  24.855  28.426  1.00  0.00     0.010 A 
ATOM     39  C   UNL A   1      39.476  25.900  27.595  1.00  0.00     0.010 A 
ATOM     40  C   UNL A   1      40.662  25.968  28.302  1.00  0.00    -0.014 A 
BRANCH  40  41
ATOM     41  C   UNL A   1      40.964  27.267  28.871  1.00  0.00     0.031 A 
ATOM     42  C   UNL A   1      42.143  27.928  28.269  1.00  0.00     0.074 A 
ATOM     43  C   UNL A   1      40.066  27.902  29.659  1.00  0.00     0.049 A 
ATOM     44  N   UNL A   1      43.290  28.147  28.815  1.00  0.00    -0.248 NA
ATOM     45  C   UNL A   1      42.103  28.221  26.826  1.00  0.00     0.031 C 
ATOM     46  C   UNL A   1      38.702  27.485  30.028  1.00  0.00     0.029 A 
ATOM     47  N   UNL A   1      40.148  29.139  30.211  1.00  0.00    -0.354 N 
ATOM     48  C   UNL A   1      44.036  28.827  27.857  1.00  0.00     0.074 A 
ATOM     49  C   UNL A   1      43.356  28.625  26.608  1.00  0.00     0.031 C 
ATOM     50  C   UNL A   1      38.018  28.536  30.527  1.00  0.00     0.029 A 
ATOM     51  C   UNL A   1      38.941  29.639  30.694  1.00  0.00     0.049 A 
ATOM     52  H   UNL A   1      40.993  29.642  30.265  1.00  0.00     0.167 HD
ATOM     53  C   UNL A   1      44.981  29.737  28.229  1.00  0.00     0.037 A 
ATOM     54  C   UNL A   1      38.734  30.892  31.166  1.00  0.00     0.037 A 
ATOM     55  C   UNL A   1      45.308  29.583  29.628  1.00  0.00     0.049 A 
ATOM     56  C   UNL A   1      40.072  31.454  31.489  1.00  0.00     0.074 A 
ATOM     57  C   UNL A   1      45.809  28.554  30.402  1.00  0.00     0.029 A 
ATOM     58  N   UNL A   1      44.735  30.467  30.512  1.00  0.00    -0.354 N 
ATOM     59  N   UNL A   1      40.838  30.992  32.441  1.00  0.00    -0.248 NA
ATOM     60  C   UNL A   1      40.760  32.184  30.434  1.00  0.00     0.031 C 
ATOM     61  C   UNL A   1      45.086  28.630  31.629  1.00  0.00     0.029 A 
ATOM     62  C   UNL A   1      44.247  29.745  31.570  1.00  0.00     0.049 A 
ATOM     63  H   UNL A   1      44.684  31.444  30.404  1.00  0.00     0.167 HD
ATOM     64  C   UNL A   1      42.120  31.003  31.906  1.00  0.00     0.074 A 
ATOM     65  C   UNL A   1      42.017  31.813  30.693  1.00  0.00     0.031 C 
ATOM     66  C   UNL A   1      43.068  30.112  32.325  1.00  0.00     0.037 A 
BRANCH  53  67
ATOM     67  C   UNL A   1      45.299  31.007  27.471  1.00  0.00     0.057 A 
ATOM     68  C   UNL A   1      46.616  31.203  27.011  1.00  0.00     0.134 A 
ATOM     69  C   UNL A   1      44.481  32.156  27.423  1.00  0.00     0.134 A 
ATOM     70  F   UNL A   1      47.496  30.190  26.989  1.00  0.00    -0.206 F 
ATOM     71  C   UNL A   1      47.108  32.461  26.644  1.00  0.00     0.040 A 
ATOM     72  C   UNL A   1      44.950  33.407  27.009  1.00  0.00     0.040 A 
ATOM     73  F   UNL A   1      43.218  32.171  27.857  1.00  0.00    -0.206 F 
ATOM     74  C   UNL A   1      46.277  33.572  26.657  1.00  0.00     0.006 A 
ENDBRANCH  53  67
BRANCH  54  75
ATOM     75  C   UNL A   1      37.519  31.728  31.047  1.00  0.00     0.057 A 
ATOM     76  C   UNL A   1      37.124  32.267  29.814  1.00  0.00     0.134 A 
ATOM     77  C   UNL A   1      36.569  31.793  32.082  1.00  0.00     0.134 A 
ATOM     78  F   UNL A   1      37.946  32.214  28.757  1.00  0.00    -0.206 F 
ATOM     79  C   UNL A   1      35.851  32.821  29.617  1.00  0.00     0.040 A 
ATOM     80  C   UNL A   1      35.297  32.346  31.900  1.00  0.00     0.040 A 
ATOM     81  F   UNL A   1      36.813  31.239  33.279  1.00  0.00    -0.206 F 
ATOM     82  C   UNL A   1      34.928  32.851  30.659  1.00  0.00     0.006 A 
ENDBRANCH  54  75
BRANCH  66  83
ATOM     83  C   UNL A   1      42.765  29.269  33.536  1.00  0.00     0.057 A 
ATOM     84  C   UNL A   1      42.885  29.719  34.860  1.00  0.00     0.134 A 
ATOM     85  C   UNL A   1      42.151  28.027  33.349  1.00  0.00     0.134 A 
ATOM     86  F   UNL A   1      43.375  30.931  35.138  1.00  0.00    -0.206 F 
ATOM     87  C   UNL A   1      42.437  28.959  35.947  1.00  0.00     0.040 A 
ATOM     88  C   UNL A   1      41.671  27.271  34.422  1.00  0.00     0.040 A 
ATOM     89  F   UNL A   1      41.951  27.555  32.109  1.00  0.00    -0.206 F 
ATOM     90  C   UNL A   1      41.818  27.734  35.727  1.00  0.00     0.006 A 
ENDBRANCH  66  83
ENDBRANCH  40  41
ENDBRANCH  32  35
ENDBRANCH  30  31
ENDBRANCH  29  30
ENDBRANCH   1  29
TORSDOF 17
ENDMDL
MODEL 3
REMARK VINA RESULT:     -11.9      2.699      4.312
REMARK SMILES COC(=O)c1sc(SCC(=O)NCCCNC(=O)c2ccc(-c3c4nc(c(-c5c(F)cccc5F)c5ccc([nH]5)c(-c5c(F)cccc5F)c5nc(c(-c6c(F)cccc6F)c6ccc3[nH]6)C=C5)C=C4)cc2)c(NC(=O)c2ccccc2)c1O
REMARK SMILES IDX 13 1 12 2 10 3 11 4 9 6 8 7 7 8 5 9 6 10 83 11 73 12 3 13
REMARK SMILES IDX 4 14 2 15 1 16 84 17 74 19 75 20 76 22 77 23 78 24 82 25
REMARK SMILES IDX 79 26 81 27 80 28 14 29 15 30 16 31 17 32 18 34 19 35 20 36
REMARK SMILES IDX 72 37 21 38 71 39 22 40 23 41 24 42 65 43 25 44 70 45 64 46
REMARK SMILES IDX 66 47 26 48 69 49 63 50 62 51 27 53 53 54 36 55 52 56 37 57
REMARK SMILES IDX 40 58 51 59 67 60 38 61 39 62 50 64 68 65 41 66 28 67 29 68
REMARK SMILES IDX 34 69 30 70 31 71 33 72 35 73 32 74 54 75 55 76 60 77 56 78
REMARK SMILES IDX 57 79 59 80 61 81 58 82 42 83 43 84 48 85 44 86 45 87 47 88
REMARK SMILES IDX 49 89 46 90
REMARK H PARENT 12 5 84 18 74 21 16 33 66 52 40 63
REMARK Flexibility Score: inf
ROOT
ATOM      1  C   UNL A   1      35.914  22.486  24.262  1.00  0.00     0.117 C 
ENDROOT
BRANCH   1   2
ATOM      2  N   UNL A   1      35.201  22.953  23.086  1.00  0.00    -0.355 N 
ATOM      3  C   UNL A   1      33.935  23.459  22.935  1.00  0.00     0.230 C 
ATOM      4  O   UNL A   1      33.722  23.996  21.843  1.00  0.00    -0.274 OA
ATOM      5  H   UNL A   1      35.719  22.897  22.250  1.00  0.00     0.163 HD
BRANCH   3   6
ATOM      6  C   UNL A   1      32.804  23.438  24.265  1.00  0.00     0.175 C 
BRANCH   6   7
ATOM      7  S   UNL A   1      30.413  24.416  24.417  1.00  0.00    -0.103 SA
BRANCH   7   8
ATOM      8  C   UNL A   1      30.047  26.049  23.626  1.00  0.00     0.089 A 
ATOM      9  C   UNL A   1      28.851  28.155  22.975  1.00  0.00     0.157 A 
ATOM     10  S   UNL A   1      28.519  26.794  23.968  1.00  0.00    -0.116 S 
ATOM     11  C   UNL A   1      30.106  28.046  22.419  1.00  0.00     0.166 A 
ATOM     12  C   UNL A   1      30.815  26.875  22.806  1.00  0.00     0.109 A 
BRANCH   9  13
ATOM     13  C   UNL A   1      27.874  29.218  22.837  1.00  0.00     0.352 C 
ATOM     14  O   UNL A   1      26.789  29.305  23.396  1.00  0.00    -0.245 OA
BRANCH  13  15
ATOM     15  O   UNL A   1      28.368  30.161  21.973  1.00  0.00    -0.465 OA
ATOM     16  C   UNL A   1      28.106  31.524  22.319  1.00  0.00     0.282 C 
ENDBRANCH  13  15
ENDBRANCH   9  13
BRANCH  11  17
ATOM     17  O   UNL A   1      30.642  28.948  21.563  1.00  0.00    -0.504 OA
ATOM     18  H   UNL A   1      31.545  28.883  21.318  1.00  0.00     0.293 HD
ENDBRANCH  11  17
BRANCH  12  19
ATOM     19  N   UNL A   1      32.105  26.676  22.322  1.00  0.00    -0.317 N 
ATOM     20  C   UNL A   1      33.244  27.219  22.828  1.00  0.00     0.255 C 
ATOM     21  H   UNL A   1      32.201  26.087  21.539  1.00  0.00     0.170 HD
ATOM     22  O   UNL A   1      34.302  27.278  22.220  1.00  0.00    -0.269 OA
BRANCH  20  23
ATOM     23  C   UNL A   1      33.095  27.786  24.164  1.00  0.00     0.040 A 
ATOM     24  C   UNL A   1      32.642  29.518  24.253  1.00  0.00     0.014 A 
ATOM     25  C   UNL A   1      32.867  26.689  25.627  1.00  0.00     0.014 A 
ATOM     26  C   UNL A   1      31.974  30.169  25.786  1.00  0.00     0.001 A 
ATOM     27  C   UNL A   1      32.159  27.377  27.133  1.00  0.00     0.001 A 
ATOM     28  C   UNL A   1      31.705  29.112  27.200  1.00  0.00     0.000 A 
ENDBRANCH  20  23
ENDBRANCH  12  19
ENDBRANCH   7   8
ENDBRANCH   6   7
ENDBRANCH   3   6
ENDBRANCH   1   2
BRANCH   1  29
ATOM     29  C   UNL A   1      37.184  23.282  24.554  1.00  0.00     0.042 C 
BRANCH  29  30
ATOM     30  C   UNL A   1      37.563  23.250  26.010  1.00  0.00     0.118 C 
BRANCH  30  31
ATOM     31  N   UNL A   1      38.690  22.366  26.308  1.00  0.00    -0.352 N 
ATOM     32  C   UNL A   1      39.972  22.734  26.677  1.00  0.00     0.251 C 
ATOM     33  H   UNL A   1      38.516  21.400  26.240  1.00  0.00     0.163 HD
ATOM     34  O   UNL A   1      40.902  21.939  26.643  1.00  0.00    -0.269 OA
BRANCH  32  35
ATOM     35  C   UNL A   1      40.179  24.121  27.122  1.00  0.00     0.039 A 
ATOM     36  C   UNL A   1      39.318  25.166  26.783  1.00  0.00     0.014 A 
ATOM     37  C   UNL A   1      41.248  24.330  27.983  1.00  0.00     0.014 A 
ATOM     38  C   UNL A   1      39.537  26.411  27.365  1.00  0.00     0.010 A 
ATOM     39  C   UNL A   1      41.251  25.429  28.777  1.00  0.00     0.010 A 
ATOM     40  C   UNL A   1      40.514  26.523  28.363  1.00  0.00    -0.014 A 
BRANCH  40  41
ATOM     41  C   UNL A   1      40.815  27.762  29.052  1.00  0.00     0.031 A 
ATOM     42  C   UNL A   1      42.030  28.447  28.555  1.00  0.00     0.074 A 
ATOM     43  C   UNL A   1      39.897  28.347  29.855  1.00  0.00     0.049 A 
ATOM     44  N   UNL A   1      43.157  28.595  29.163  1.00  0.00    -0.248 NA
ATOM     45  C   UNL A   1      42.055  28.861  27.142  1.00  0.00     0.031 C 
ATOM     46  C   UNL A   1      38.512  27.929  30.133  1.00  0.00     0.029 A 
ATOM     47  N   UNL A   1      39.979  29.531  30.513  1.00  0.00    -0.354 N 
ATOM     48  C   UNL A   1      43.954  29.337  28.297  1.00  0.00     0.074 A 
ATOM     49  C   UNL A   1      43.322  29.256  27.008  1.00  0.00     0.031 C 
ATOM     50  C   UNL A   1      37.828  28.949  30.694  1.00  0.00     0.029 A 
ATOM     51  C   UNL A   1      38.762  30.013  30.990  1.00  0.00     0.049 A 
ATOM     52  H   UNL A   1      40.829  30.010  30.644  1.00  0.00     0.167 HD
ATOM     53  C   UNL A   1      44.898  30.192  28.781  1.00  0.00     0.037 A 
ATOM     54  C   UNL A   1      38.558  31.227  31.559  1.00  0.00     0.037 A 
ATOM     55  C   UNL A   1      45.165  29.913  30.174  1.00  0.00     0.049 A 
ATOM     56  C   UNL A   1      39.892  31.730  31.981  1.00  0.00     0.074 A 
ATOM     57  C   UNL A   1      45.616  28.812  30.876  1.00  0.00     0.029 A 
ATOM     58  N   UNL A   1      44.573  30.732  31.106  1.00  0.00    -0.354 N 
ATOM     59  N   UNL A   1      40.610  31.174  32.919  1.00  0.00    -0.248 NA
ATOM     60  C   UNL A   1      40.635  32.533  31.019  1.00  0.00     0.031 C 
ATOM     61  C   UNL A   1      44.844  28.800  32.076  1.00  0.00     0.029 A 
ATOM     62  C   UNL A   1      44.029  29.933  32.079  1.00  0.00     0.049 A 
ATOM     63  H   UNL A   1      44.543  31.715  31.080  1.00  0.00     0.167 HD
ATOM     64  C   UNL A   1      41.912  31.203  32.438  1.00  0.00     0.074 A 
ATOM     65  C   UNL A   1      41.873  32.115  31.295  1.00  0.00     0.031 C 
ATOM     66  C   UNL A   1      42.827  30.260  32.816  1.00  0.00     0.037 A 
BRANCH  53  67
ATOM     67  C   UNL A   1      45.270  31.515  28.147  1.00  0.00     0.057 A 
ATOM     68  C   UNL A   1      44.262  32.482  27.972  1.00  0.00     0.134 A 
ATOM     69  C   UNL A   1      46.466  31.777  27.447  1.00  0.00     0.134 A 
ATOM     70  F   UNL A   1      43.077  32.364  28.592  1.00  0.00    -0.206 F 
ATOM     71  C   UNL A   1      44.393  33.558  27.085  1.00  0.00     0.040 A 
ATOM     72  C   UNL A   1      46.625  32.877  26.598  1.00  0.00     0.040 A 
ATOM     73  F   UNL A   1      47.516  30.950  27.459  1.00  0.00    -0.206 F 
ATOM     74  C   UNL A   1      45.574  33.749  26.382  1.00  0.00     0.006 A 
ENDBRANCH  53  67
BRANCH  54  75
ATOM     75  C   UNL A   1      37.364  32.095  31.463  1.00  0.00     0.057 A 
ATOM     76  C   UNL A   1      37.015  32.724  30.260  1.00  0.00     0.134 A 
ATOM     77  C   UNL A   1      36.386  32.110  32.475  1.00  0.00     0.134 A 
ATOM     78  F   UNL A   1      37.865  32.724  29.224  1.00  0.00    -0.206 F 
ATOM     79  C   UNL A   1      35.760  33.317  30.067  1.00  0.00     0.040 A 
ATOM     80  C   UNL A   1      35.132  32.703  32.296  1.00  0.00     0.040 A 
ATOM     81  F   UNL A   1      36.585  31.472  33.637  1.00  0.00    -0.206 F 
ATOM     82  C   UNL A   1      34.808  33.298  31.083  1.00  0.00     0.006 A 
ENDBRANCH  54  75
BRANCH  66  83
ATOM     83  C   UNL A   1      42.460  29.324  33.938  1.00  0.00     0.057 A 
ATOM     84  C   UNL A   1      41.878  28.060  33.753  1.00  0.00     0.134 A 
ATOM     85  C   UNL A   1      42.886  29.635  35.233  1.00  0.00     0.134 A 
ATOM     86  F   UNL A   1      41.521  27.633  32.537  1.00  0.00    -0.206 F 
ATOM     87  C   UNL A   1      41.706  27.159  34.809  1.00  0.00     0.040 A 
ATOM     88  C   UNL A   1      42.749  28.733  36.292  1.00  0.00     0.040 A 
ATOM     89  F   UNL A   1      43.501  30.802  35.478  1.00  0.00    -0.206 F 
ATOM     90  C   UNL A   1      42.152  27.492  36.084  1.00  0.00     0.006 A 
ENDBRANCH  66  83
ENDBRANCH  40  41
ENDBRANCH  32  35
ENDBRANCH  30  31
ENDBRANCH  29  30
ENDBRANCH   1  29
TORSDOF 17
ENDMDL
