MODEL 1
REMARK VINA RESULT:     -12.2      0.000      0.000
REMARK SMILES Cc1cc(Cl)cc2c1O[C@H](C(F)(F)F)C(C(=O)NCCCNC(=O)c1ccc(-c3c4nc(c(-c5c(F)cccc5F)c5ccc([nH]5)c(-c5c(F)cccc5F)c5nc(c(-c6c(F)cccc6F)c6ccc3[nH]6)C=C5)C=C4)cc1)=C2
REMARK SMILES IDX 20 1 19 2 18 3 16 4 17 5 15 7 1 8 2 9 3 10 8 11 4 12 7 13
REMARK SMILES IDX 9 14 5 15 6 16 79 17 10 18 11 19 12 20 13 21 14 22 21 23
REMARK SMILES IDX 22 24 23 25 24 27 25 28 26 29 78 30 27 31 77 32 28 33 29 34
REMARK SMILES IDX 30 35 71 36 31 37 76 38 70 39 72 40 32 41 75 42 69 43 68 44
REMARK SMILES IDX 33 46 59 47 42 48 58 49 43 50 46 51 57 52 73 53 44 54 45 55
REMARK SMILES IDX 56 57 74 58 47 59 34 60 35 61 40 62 36 63 37 64 39 65 41 66
REMARK SMILES IDX 38 67 60 68 61 69 66 70 62 71 63 72 65 73 67 74 64 75 48 76
REMARK SMILES IDX 49 77 54 78 50 79 51 80 53 81 55 82 52 83
REMARK H PARENT 18 6 22 26 72 45 46 56
REMARK Flexibility Score: inf
ROOT
ATOM      1  C   UNL A   1      37.807  19.670  24.968  1.00  0.00     0.042 C 
ENDROOT
BRANCH   1   2
ATOM      2  C   UNL A   1      36.724  20.693  24.667  1.00  0.00     0.118 C 
BRANCH   2   3
ATOM      3  N   UNL A   1      35.791  20.836  25.774  1.00  0.00    -0.352 N 
ATOM      4  C   UNL A   1      34.784  21.671  26.123  1.00  0.00     0.251 C 
ATOM      5  O   UNL A   1      34.232  21.411  27.196  1.00  0.00    -0.270 OA
ATOM      6  H   UNL A   1      35.928  20.135  26.452  1.00  0.00     0.163 HD
BRANCH   4   7
ATOM      7  C   UNL A   1      34.329  22.840  25.319  1.00  0.00     0.067 C 
ATOM      8  C   UNL A   1      32.970  26.070  21.581  1.00  0.00     0.048 C 
ATOM      9  C   UNL A   1      33.349  26.222  23.028  1.00  0.00    -0.007 A 
ATOM     10  C   UNL A   1      33.278  27.471  23.655  1.00  0.00     0.027 A 
ATOM     11  C   UNL A   1      33.723  25.109  23.791  1.00  0.00     0.131 A 
ATOM     12  C   UNL A   1      33.606  27.597  25.006  1.00  0.00     0.042 A 
ATOM     13  C   UNL A   1      34.056  25.231  25.145  1.00  0.00     0.019 A 
ATOM     14  O   UNL A   1      33.792  23.910  23.138  1.00  0.00    -0.475 OA
ATOM     15  Cl  UNL A   1      33.528  29.143  25.757  1.00  0.00    -0.084 Cl
ATOM     16  C   UNL A   1      33.999  26.486  25.753  1.00  0.00     0.032 A 
ATOM     17  C   UNL A   1      34.491  24.051  25.883  1.00  0.00     0.025 C 
ATOM     18  C   UNL A   1      33.697  22.723  23.964  1.00  0.00     0.314 C 
BRANCH  18  19
ATOM     19  C   UNL A   1      32.229  22.259  24.028  1.00  0.00     0.429 C 
ATOM     20  F   UNL A   1      31.520  22.796  23.003  1.00  0.00    -0.167 F 
ATOM     21  F   UNL A   1      32.102  20.914  23.917  1.00  0.00    -0.167 F 
ATOM     22  F   UNL A   1      31.615  22.616  25.178  1.00  0.00    -0.167 F 
ENDBRANCH  18  19
ENDBRANCH   4   7
ENDBRANCH   2   3
ENDBRANCH   1   2
BRANCH   1  23
ATOM     23  C   UNL A   1      38.954  20.275  25.765  1.00  0.00     0.118 C 
BRANCH  23  24
ATOM     24  N   UNL A   1      40.075  19.345  25.889  1.00  0.00    -0.352 N 
ATOM     25  C   UNL A   1      41.405  19.587  26.109  1.00  0.00     0.251 C 
ATOM     26  H   UNL A   1      39.835  18.394  25.801  1.00  0.00     0.163 HD
ATOM     27  O   UNL A   1      42.233  18.705  25.891  1.00  0.00    -0.269 OA
BRANCH  25  28
ATOM     28  C   UNL A   1      41.841  20.903  26.608  1.00  0.00     0.039 A 
ATOM     29  C   UNL A   1      42.257  21.879  25.700  1.00  0.00     0.014 A 
ATOM     30  C   UNL A   1      41.863  21.160  27.980  1.00  0.00     0.014 A 
ATOM     31  C   UNL A   1      42.637  23.136  26.170  1.00  0.00     0.010 A 
ATOM     32  C   UNL A   1      42.135  22.441  28.437  1.00  0.00     0.010 A 
ATOM     33  C   UNL A   1      42.546  23.434  27.539  1.00  0.00    -0.014 A 
BRANCH  33  34
ATOM     34  C   UNL A   1      42.912  24.768  28.066  1.00  0.00     0.031 A 
ATOM     35  C   UNL A   1      41.845  25.802  28.286  1.00  0.00     0.074 A 
ATOM     36  C   UNL A   1      44.208  25.064  28.280  1.00  0.00     0.049 A 
ATOM     37  N   UNL A   1      41.967  27.043  28.680  1.00  0.00    -0.248 NA
ATOM     38  C   UNL A   1      40.459  25.401  27.992  1.00  0.00     0.031 C 
ATOM     39  C   UNL A   1      45.332  24.156  28.047  1.00  0.00     0.029 A 
ATOM     40  N   UNL A   1      44.798  26.215  28.736  1.00  0.00    -0.354 N 
ATOM     41  C   UNL A   1      40.682  27.569  28.665  1.00  0.00     0.074 A 
ATOM     42  C   UNL A   1      39.804  26.539  28.161  1.00  0.00     0.031 C 
ATOM     43  C   UNL A   1      46.473  24.773  28.395  1.00  0.00     0.029 A 
ATOM     44  C   UNL A   1      46.165  26.130  28.834  1.00  0.00     0.049 A 
ATOM     45  H   UNL A   1      44.289  27.025  28.970  1.00  0.00     0.167 HD
ATOM     46  C   UNL A   1      40.268  28.792  29.069  1.00  0.00     0.037 A 
ATOM     47  C   UNL A   1      47.067  27.046  29.233  1.00  0.00     0.037 A 
ATOM     48  C   UNL A   1      41.147  29.797  29.602  1.00  0.00     0.049 A 
ATOM     49  C   UNL A   1      46.586  28.398  29.677  1.00  0.00     0.074 A 
ATOM     50  C   UNL A   1      40.821  31.041  30.109  1.00  0.00     0.029 A 
ATOM     51  N   UNL A   1      42.526  29.672  29.695  1.00  0.00    -0.354 N 
ATOM     52  N   UNL A   1      45.359  28.858  29.732  1.00  0.00    -0.248 NA
ATOM     53  C   UNL A   1      47.609  29.357  30.116  1.00  0.00     0.031 C 
ATOM     54  C   UNL A   1      42.008  31.692  30.457  1.00  0.00     0.029 A 
ATOM     55  C   UNL A   1      43.069  30.831  30.220  1.00  0.00     0.049 A 
ATOM     56  H   UNL A   1      43.041  28.877  29.427  1.00  0.00     0.167 HD
ATOM     57  C   UNL A   1      45.458  30.153  30.226  1.00  0.00     0.074 A 
ATOM     58  C   UNL A   1      46.865  30.396  30.472  1.00  0.00     0.031 C 
ATOM     59  C   UNL A   1      44.474  31.057  30.452  1.00  0.00     0.037 A 
BRANCH  46  60
ATOM     60  C   UNL A   1      38.804  29.105  28.958  1.00  0.00     0.057 A 
ATOM     61  C   UNL A   1      37.940  28.999  30.056  1.00  0.00     0.134 A 
ATOM     62  C   UNL A   1      38.259  29.553  27.749  1.00  0.00     0.134 A 
ATOM     63  F   UNL A   1      38.394  28.562  31.241  1.00  0.00    -0.206 F 
ATOM     64  C   UNL A   1      36.582  29.307  29.950  1.00  0.00     0.040 A 
ATOM     65  C   UNL A   1      36.909  29.892  27.638  1.00  0.00     0.040 A 
ATOM     66  F   UNL A   1      39.028  29.679  26.658  1.00  0.00    -0.206 F 
ATOM     67  C   UNL A   1      36.065  29.764  28.740  1.00  0.00     0.006 A 
ENDBRANCH  46  60
BRANCH  47  68
ATOM     68  C   UNL A   1      48.506  26.685  29.264  1.00  0.00     0.057 A 
ATOM     69  C   UNL A   1      49.058  26.017  30.363  1.00  0.00     0.134 A 
ATOM     70  C   UNL A   1      49.352  26.950  28.180  1.00  0.00     0.134 A 
ATOM     71  F   UNL A   1      48.302  25.747  31.437  1.00  0.00    -0.206 F 
ATOM     72  C   UNL A   1      50.398  25.625  30.384  1.00  0.00     0.040 A 
ATOM     73  C   UNL A   1      50.687  26.543  28.176  1.00  0.00     0.040 A 
ATOM     74  F   UNL A   1      48.881  27.579  27.092  1.00  0.00    -0.206 F 
ATOM     75  C   UNL A   1      51.214  25.880  29.283  1.00  0.00     0.006 A 
ENDBRANCH  47  68
BRANCH  59  76
ATOM     76  C   UNL A   1      44.873  32.397  30.997  1.00  0.00     0.057 A 
ATOM     77  C   UNL A   1      45.011  32.616  32.374  1.00  0.00     0.134 A 
ATOM     78  C   UNL A   1      45.210  33.448  30.135  1.00  0.00     0.134 A 
ATOM     79  F   UNL A   1      44.695  31.653  33.251  1.00  0.00    -0.206 F 
ATOM     80  C   UNL A   1      45.462  33.839  32.873  1.00  0.00     0.040 A 
ATOM     81  C   UNL A   1      45.690  34.665  30.622  1.00  0.00     0.040 A 
ATOM     82  F   UNL A   1      45.113  33.298  28.806  1.00  0.00    -0.206 F 
ATOM     83  C   UNL A   1      45.815  34.863  31.995  1.00  0.00     0.006 A 
ENDBRANCH  59  76
ENDBRANCH  33  34
ENDBRANCH  25  28
ENDBRANCH  23  24
ENDBRANCH   1  23
TORSDOF 11
ENDMDL
MODEL 2
REMARK VINA RESULT:     -12.1      0.406      6.275
REMARK SMILES Cc1cc(Cl)cc2c1O[C@H](C(F)(F)F)C(C(=O)NCCCNC(=O)c1ccc(-c3c4nc(c(-c5c(F)cccc5F)c5ccc([nH]5)c(-c5c(F)cccc5F)c5nc(c(-c6c(F)cccc6F)c6ccc3[nH]6)C=C5)C=C4)cc1)=C2
REMARK SMILES IDX 20 1 19 2 18 3 16 4 17 5 15 7 1 8 2 9 3 10 8 11 4 12 7 13
REMARK SMILES IDX 9 14 5 15 6 16 79 17 10 18 11 19 12 20 13 21 14 22 21 23
REMARK SMILES IDX 22 24 23 25 24 27 25 28 26 29 78 30 27 31 77 32 28 33 29 34
REMARK SMILES IDX 30 35 71 36 31 37 76 38 70 39 72 40 32 41 75 42 69 43 68 44
REMARK SMILES IDX 33 46 59 47 42 48 58 49 43 50 46 51 57 52 73 53 44 54 45 55
REMARK SMILES IDX 56 57 74 58 47 59 34 60 35 61 40 62 36 63 37 64 39 65 41 66
REMARK SMILES IDX 38 67 60 68 61 69 66 70 62 71 63 72 65 73 67 74 64 75 48 76
REMARK SMILES IDX 49 77 54 78 50 79 51 80 53 81 55 82 52 83
REMARK H PARENT 18 6 22 26 72 45 46 56
REMARK Flexibility Score: inf
ROOT
ATOM      1  C   UNL A   1      37.820  19.518  24.937  1.00  0.00     0.042 C 
ENDROOT
BRANCH   1   2
ATOM      2  C   UNL A   1      36.708  20.507  24.629  1.00  0.00     0.118 C 
BRANCH   2   3
ATOM      3  N   UNL A   1      35.836  20.715  25.775  1.00  0.00    -0.352 N 
ATOM      4  C   UNL A   1      34.868  21.588  26.140  1.00  0.00     0.251 C 
ATOM      5  O   UNL A   1      34.366  21.384  27.249  1.00  0.00    -0.270 OA
ATOM      6  H   UNL A   1      35.991  20.038  26.472  1.00  0.00     0.163 HD
BRANCH   4   7
ATOM      7  C   UNL A   1      34.400  22.737  25.315  1.00  0.00     0.067 C 
ATOM      8  C   UNL A   1      32.981  25.873  21.520  1.00  0.00     0.048 C 
ATOM      9  C   UNL A   1      33.385  26.061  22.955  1.00  0.00    -0.007 A 
ATOM     10  C   UNL A   1      33.325  27.326  23.551  1.00  0.00     0.027 A 
ATOM     11  C   UNL A   1      33.770  24.968  23.740  1.00  0.00     0.131 A 
ATOM     12  C   UNL A   1      33.676  27.486  24.893  1.00  0.00     0.042 A 
ATOM     13  C   UNL A   1      34.126  25.124  25.085  1.00  0.00     0.019 A 
ATOM     14  O   UNL A   1      33.828  23.753  23.117  1.00  0.00    -0.475 OA
ATOM     15  Cl  UNL A   1      33.612  29.051  25.606  1.00  0.00    -0.084 Cl
ATOM     16  C   UNL A   1      34.081  26.394  25.662  1.00  0.00     0.032 A 
ATOM     17  C   UNL A   1      34.573  23.962  25.845  1.00  0.00     0.025 C 
ATOM     18  C   UNL A   1      33.746  22.587  23.974  1.00  0.00     0.314 C 
BRANCH  18  19
ATOM     19  C   UNL A   1      32.279  22.127  24.075  1.00  0.00     0.429 C 
ATOM     20  F   UNL A   1      32.217  20.778  24.209  1.00  0.00    -0.167 F 
ATOM     21  F   UNL A   1      31.642  22.646  25.153  1.00  0.00    -0.167 F 
ATOM     22  F   UNL A   1      31.547  22.462  22.991  1.00  0.00    -0.167 F 
ENDBRANCH  18  19
ENDBRANCH   4   7
ENDBRANCH   2   3
ENDBRANCH   1   2
BRANCH   1  23
ATOM     23  C   UNL A   1      38.920  20.146  25.782  1.00  0.00     0.118 C 
BRANCH  23  24
ATOM     24  N   UNL A   1      40.100  19.286  25.858  1.00  0.00    -0.352 N 
ATOM     25  C   UNL A   1      41.417  19.607  26.051  1.00  0.00     0.251 C 
ATOM     26  H   UNL A   1      39.918  18.324  25.754  1.00  0.00     0.163 HD
ATOM     27  O   UNL A   1      42.293  18.783  25.793  1.00  0.00    -0.269 OA
BRANCH  25  28
ATOM     28  C   UNL A   1      41.782  20.937  26.568  1.00  0.00     0.039 A 
ATOM     29  C   UNL A   1      42.208  21.928  25.680  1.00  0.00     0.014 A 
ATOM     30  C   UNL A   1      41.729  21.194  27.940  1.00  0.00     0.014 A 
ATOM     31  C   UNL A   1      42.520  23.197  26.167  1.00  0.00     0.010 A 
ATOM     32  C   UNL A   1      41.934  22.483  28.408  1.00  0.00     0.010 A 
ATOM     33  C   UNL A   1      42.353  23.491  27.530  1.00  0.00    -0.014 A 
BRANCH  33  34
ATOM     34  C   UNL A   1      42.646  24.837  28.072  1.00  0.00     0.031 A 
ATOM     35  C   UNL A   1      44.045  25.181  28.498  1.00  0.00     0.074 A 
ATOM     36  C   UNL A   1      41.642  25.718  28.238  1.00  0.00     0.049 A 
ATOM     37  N   UNL A   1      44.493  26.277  29.052  1.00  0.00    -0.248 NA
ATOM     38  C   UNL A   1      45.073  24.143  28.311  1.00  0.00     0.031 C 
ATOM     39  C   UNL A   1      40.237  25.471  27.911  1.00  0.00     0.029 A 
ATOM     40  N   UNL A   1      41.650  26.997  28.732  1.00  0.00    -0.354 N 
ATOM     41  C   UNL A   1      45.842  26.054  29.290  1.00  0.00     0.074 A 
ATOM     42  C   UNL A   1      46.129  24.697  28.885  1.00  0.00     0.031 C 
ATOM     43  C   UNL A   1      39.524  26.576  28.180  1.00  0.00     0.029 A 
ATOM     44  C   UNL A   1      40.412  27.592  28.736  1.00  0.00     0.049 A 
ATOM     45  H   UNL A   1      42.465  27.446  29.053  1.00  0.00     0.167 HD
ATOM     46  C   UNL A   1      46.767  26.915  29.772  1.00  0.00     0.037 A 
ATOM     47  C   UNL A   1      40.037  28.818  29.144  1.00  0.00     0.037 A 
ATOM     48  C   UNL A   1      46.477  28.275  30.139  1.00  0.00     0.049 A 
ATOM     49  C   UNL A   1      41.079  29.760  29.677  1.00  0.00     0.074 A 
ATOM     50  C   UNL A   1      47.353  29.254  30.568  1.00  0.00     0.029 A 
ATOM     51  N   UNL A   1      45.212  28.845  30.122  1.00  0.00    -0.354 N 
ATOM     52  N   UNL A   1      42.368  29.563  29.825  1.00  0.00    -0.248 NA
ATOM     53  C   UNL A   1      40.622  31.091  30.096  1.00  0.00     0.031 C 
ATOM     54  C   UNL A   1      46.611  30.401  30.863  1.00  0.00     0.029 A 
ATOM     55  C   UNL A   1      45.279  30.154  30.565  1.00  0.00     0.049 A 
ATOM     56  H   UNL A   1      44.389  28.386  29.836  1.00  0.00     0.167 HD
ATOM     57  C   UNL A   1      42.879  30.748  30.339  1.00  0.00     0.074 A 
ATOM     58  C   UNL A   1      41.762  31.664  30.459  1.00  0.00     0.031 C 
ATOM     59  C   UNL A   1      44.155  31.049  30.682  1.00  0.00     0.037 A 
BRANCH  46  60
ATOM     60  C   UNL A   1      48.175  26.417  29.920  1.00  0.00     0.057 A 
ATOM     61  C   UNL A   1      48.614  25.776  31.086  1.00  0.00     0.134 A 
ATOM     62  C   UNL A   1      49.092  26.545  28.870  1.00  0.00     0.134 A 
ATOM     63  F   UNL A   1      47.791  25.633  32.136  1.00  0.00    -0.206 F 
ATOM     64  C   UNL A   1      49.921  25.301  31.211  1.00  0.00     0.040 A 
ATOM     65  C   UNL A   1      50.393  26.048  28.972  1.00  0.00     0.040 A 
ATOM     66  F   UNL A   1      48.739  27.146  27.725  1.00  0.00    -0.206 F 
ATOM     67  C   UNL A   1      50.812  25.428  30.148  1.00  0.00     0.006 A 
ENDBRANCH  46  60
BRANCH  47  68
ATOM     68  C   UNL A   1      38.615  29.225  29.020  1.00  0.00     0.057 A 
ATOM     69  C   UNL A   1      38.093  29.657  27.796  1.00  0.00     0.134 A 
ATOM     70  C   UNL A   1      37.731  29.140  30.103  1.00  0.00     0.134 A 
ATOM     71  F   UNL A   1      38.893  29.772  26.725  1.00  0.00    -0.206 F 
ATOM     72  C   UNL A   1      36.746  29.992  27.652  1.00  0.00     0.040 A 
ATOM     73  C   UNL A   1      36.377  29.449  29.968  1.00  0.00     0.040 A 
ATOM     74  F   UNL A   1      38.167  28.722  31.302  1.00  0.00    -0.206 F 
ATOM     75  C   UNL A   1      35.881  29.879  28.739  1.00  0.00     0.006 A 
ENDBRANCH  47  68
BRANCH  59  76
ATOM     76  C   UNL A   1      44.425  32.424  31.218  1.00  0.00     0.057 A 
ATOM     77  C   UNL A   1      44.438  32.685  32.594  1.00  0.00     0.134 A 
ATOM     78  C   UNL A   1      44.764  33.474  30.355  1.00  0.00     0.134 A 
ATOM     79  F   UNL A   1      44.113  31.725  33.472  1.00  0.00    -0.206 F 
ATOM     80  C   UNL A   1      44.771  33.946  33.092  1.00  0.00     0.040 A 
ATOM     81  C   UNL A   1      45.126  34.731  30.843  1.00  0.00     0.040 A 
ATOM     82  F   UNL A   1      44.783  33.286  29.027  1.00  0.00    -0.206 F 
ATOM     83  C   UNL A   1      45.129  34.969  32.215  1.00  0.00     0.006 A 
ENDBRANCH  59  76
ENDBRANCH  33  34
ENDBRANCH  25  28
ENDBRANCH  23  24
ENDBRANCH   1  23
TORSDOF 11
ENDMDL
MODEL 3
REMARK VINA RESULT:     -12.1      5.081      9.685
REMARK SMILES Cc1cc(Cl)cc2c1O[C@H](C(F)(F)F)C(C(=O)NCCCNC(=O)c1ccc(-c3c4nc(c(-c5c(F)cccc5F)c5ccc([nH]5)c(-c5c(F)cccc5F)c5nc(c(-c6c(F)cccc6F)c6ccc3[nH]6)C=C5)C=C4)cc1)=C2
REMARK SMILES IDX 20 1 19 2 18 3 16 4 17 5 15 7 1 8 2 9 3 10 8 11 4 12 7 13
REMARK SMILES IDX 9 14 5 15 6 16 79 17 10 18 11 19 12 20 13 21 14 22 21 23
REMARK SMILES IDX 22 24 23 25 24 27 25 28 26 29 78 30 27 31 77 32 28 33 29 34
REMARK SMILES IDX 30 35 71 36 31 37 76 38 70 39 72 40 32 41 75 42 69 43 68 44
REMARK SMILES IDX 33 46 59 47 42 48 58 49 43 50 46 51 57 52 73 53 44 54 45 55
REMARK SMILES IDX 56 57 74 58 47 59 34 60 35 61 40 62 36 63 37 64 39 65 41 66
REMARK SMILES IDX 38 67 60 68 61 69 66 70 62 71 63 72 65 73 67 74 64 75 48 76
REMARK SMILES IDX 49 77 54 78 50 79 51 80 53 81 55 82 52 83
REMARK H PARENT 18 6 22 26 72 45 46 56
REMARK Flexibility Score: inf
ROOT
ATOM      1  C   UNL A   1      31.324  32.377  26.499  1.00  0.00     0.042 C 
ENDROOT
BRANCH   1   2
ATOM      2  C   UNL A   1      31.231  30.866  26.366  1.00  0.00     0.118 C 
BRANCH   2   3
ATOM      3  N   UNL A   1      31.099  30.453  24.977  1.00  0.00    -0.352 N 
ATOM      4  C   UNL A   1      31.285  29.322  24.256  1.00  0.00     0.251 C 
ATOM      5  O   UNL A   1      31.038  29.421  23.050  1.00  0.00    -0.270 OA
ATOM      6  H   UNL A   1      30.790  31.195  24.409  1.00  0.00     0.163 HD
BRANCH   4   7
ATOM      7  C   UNL A   1      31.756  28.023  24.812  1.00  0.00     0.067 C 
ATOM      8  C   UNL A   1      34.453  23.869  26.126  1.00  0.00     0.048 C 
ATOM      9  C   UNL A   1      32.992  24.223  26.110  1.00  0.00    -0.007 A 
ATOM     10  C   UNL A   1      32.039  23.337  26.624  1.00  0.00     0.027 A 
ATOM     11  C   UNL A   1      32.562  25.469  25.637  1.00  0.00     0.131 A 
ATOM     12  C   UNL A   1      30.688  23.686  26.630  1.00  0.00     0.042 A 
ATOM     13  C   UNL A   1      31.208  25.823  25.637  1.00  0.00     0.019 A 
ATOM     14  O   UNL A   1      33.523  26.300  25.132  1.00  0.00    -0.475 OA
ATOM     15  Cl  UNL A   1      29.527  22.578  27.251  1.00  0.00    -0.084 Cl
ATOM     16  C   UNL A   1      30.266  24.921  26.135  1.00  0.00     0.032 A 
ATOM     17  C   UNL A   1      30.805  27.110  25.083  1.00  0.00     0.025 C 
ATOM     18  C   UNL A   1      33.196  27.711  25.095  1.00  0.00     0.314 C 
BRANCH  18  19
ATOM     19  C   UNL A   1      33.712  28.391  26.379  1.00  0.00     0.429 C 
ATOM     20  F   UNL A   1      34.844  27.782  26.811  1.00  0.00    -0.167 F 
ATOM     21  F   UNL A   1      34.029  29.695  26.187  1.00  0.00    -0.167 F 
ATOM     22  F   UNL A   1      32.817  28.352  27.390  1.00  0.00    -0.167 F 
ENDBRANCH  18  19
ENDBRANCH   4   7
ENDBRANCH   2   3
ENDBRANCH   1   2
BRANCH   1  23
ATOM     23  C   UNL A   1      32.577  32.804  27.251  1.00  0.00     0.118 C 
BRANCH  23  24
ATOM     24  N   UNL A   1      32.526  34.216  27.626  1.00  0.00    -0.352 N 
ATOM     25  C   UNL A   1      33.138  34.881  28.656  1.00  0.00     0.251 C 
ATOM     26  H   UNL A   1      31.964  34.779  27.046  1.00  0.00     0.163 HD
ATOM     27  O   UNL A   1      32.746  35.999  28.983  1.00  0.00    -0.269 OA
BRANCH  25  28
ATOM     28  C   UNL A   1      34.264  34.255  29.370  1.00  0.00     0.039 A 
ATOM     29  C   UNL A   1      34.010  33.421  30.461  1.00  0.00     0.014 A 
ATOM     30  C   UNL A   1      35.577  34.517  28.973  1.00  0.00     0.014 A 
ATOM     31  C   UNL A   1      35.075  32.802  31.114  1.00  0.00     0.010 A 
ATOM     32  C   UNL A   1      36.625  33.817  29.551  1.00  0.00     0.010 A 
ATOM     33  C   UNL A   1      36.387  32.970  30.642  1.00  0.00    -0.014 A 
BRANCH  33  34
ATOM     34  C   UNL A   1      37.535  32.302  31.294  1.00  0.00     0.031 A 
ATOM     35  C   UNL A   1      38.219  31.154  30.607  1.00  0.00     0.074 A 
ATOM     36  C   UNL A   1      37.914  32.687  32.527  1.00  0.00     0.049 A 
ATOM     37  N   UNL A   1      39.197  30.400  31.036  1.00  0.00    -0.248 NA
ATOM     38  C   UNL A   1      37.715  30.779  29.275  1.00  0.00     0.031 C 
ATOM     39  C   UNL A   1      37.286  33.752  33.310  1.00  0.00     0.029 A 
ATOM     40  N   UNL A   1      38.915  32.221  33.340  1.00  0.00    -0.354 N 
ATOM     41  C   UNL A   1      39.412  29.460  30.038  1.00  0.00     0.074 A 
ATOM     42  C   UNL A   1      38.422  29.692  29.012  1.00  0.00     0.031 C 
ATOM     43  C   UNL A   1      37.938  33.882  34.476  1.00  0.00     0.029 A 
ATOM     44  C   UNL A   1      39.002  32.884  34.540  1.00  0.00     0.049 A 
ATOM     45  H   UNL A   1      39.514  31.482  33.088  1.00  0.00     0.167 HD
ATOM     46  C   UNL A   1      40.372  28.509  29.968  1.00  0.00     0.037 A 
ATOM     47  C   UNL A   1      39.844  32.704  35.574  1.00  0.00     0.037 A 
ATOM     48  C   UNL A   1      41.374  28.311  30.980  1.00  0.00     0.049 A 
ATOM     49  C   UNL A   1      40.902  31.643  35.477  1.00  0.00     0.074 A 
ATOM     50  C   UNL A   1      42.437  27.426  30.974  1.00  0.00     0.029 A 
ATOM     51  N   UNL A   1      41.435  29.007  32.178  1.00  0.00    -0.354 N 
ATOM     52  N   UNL A   1      41.144  30.809  34.493  1.00  0.00    -0.248 NA
ATOM     53  C   UNL A   1      41.805  31.496  36.626  1.00  0.00     0.031 C 
ATOM     54  C   UNL A   1      43.109  27.548  32.194  1.00  0.00     0.029 A 
ATOM     55  C   UNL A   1      42.499  28.548  32.936  1.00  0.00     0.049 A 
ATOM     56  H   UNL A   1      40.815  29.722  32.450  1.00  0.00     0.167 HD
ATOM     57  C   UNL A   1      42.235  30.050  34.896  1.00  0.00     0.074 A 
ATOM     58  C   UNL A   1      42.618  30.536  36.207  1.00  0.00     0.031 C 
ATOM     59  C   UNL A   1      42.860  29.041  34.241  1.00  0.00     0.037 A 
BRANCH  46  60
ATOM     60  C   UNL A   1      40.388  27.621  28.758  1.00  0.00     0.057 A 
ATOM     61  C   UNL A   1      41.156  27.927  27.627  1.00  0.00     0.134 A 
ATOM     62  C   UNL A   1      39.658  26.427  28.738  1.00  0.00     0.134 A 
ATOM     63  F   UNL A   1      41.869  29.063  27.574  1.00  0.00    -0.206 F 
ATOM     64  C   UNL A   1      41.180  27.089  26.510  1.00  0.00     0.040 A 
ATOM     65  C   UNL A   1      39.697  25.566  27.639  1.00  0.00     0.040 A 
ATOM     66  F   UNL A   1      38.903  26.071  29.787  1.00  0.00    -0.206 F 
ATOM     67  C   UNL A   1      40.455  25.899  26.519  1.00  0.00     0.006 A 
ENDBRANCH  46  60
BRANCH  47  68
ATOM     68  C   UNL A   1      39.733  33.583  36.765  1.00  0.00     0.057 A 
ATOM     69  C   UNL A   1      40.446  34.785  36.842  1.00  0.00     0.134 A 
ATOM     70  C   UNL A   1      38.876  33.274  37.828  1.00  0.00     0.134 A 
ATOM     71  F   UNL A   1      41.293  35.130  35.861  1.00  0.00    -0.206 F 
ATOM     72  C   UNL A   1      40.312  35.647  37.932  1.00  0.00     0.040 A 
ATOM     73  C   UNL A   1      38.713  34.137  38.913  1.00  0.00     0.040 A 
ATOM     74  F   UNL A   1      38.156  32.141  37.810  1.00  0.00    -0.206 F 
ATOM     75  C   UNL A   1      39.435  35.328  38.967  1.00  0.00     0.006 A 
ENDBRANCH  47  68
BRANCH  59  76
ATOM     76  C   UNL A   1      44.029  28.390  34.922  1.00  0.00     0.057 A 
ATOM     77  C   UNL A   1      43.875  27.231  35.693  1.00  0.00     0.134 A 
ATOM     78  C   UNL A   1      45.329  28.873  34.728  1.00  0.00     0.134 A 
ATOM     79  F   UNL A   1      42.655  26.724  35.924  1.00  0.00    -0.206 F 
ATOM     80  C   UNL A   1      44.974  26.581  36.256  1.00  0.00     0.040 A 
ATOM     81  C   UNL A   1      46.438  28.215  35.262  1.00  0.00     0.040 A 
ATOM     82  F   UNL A   1      45.546  29.971  33.989  1.00  0.00    -0.206 F 
ATOM     83  C   UNL A   1      46.261  27.066  36.030  1.00  0.00     0.006 A 
ENDBRANCH  59  76
ENDBRANCH  33  34
ENDBRANCH  25  28
ENDBRANCH  23  24
ENDBRANCH   1  23
TORSDOF 11
ENDMDL
