MODEL 1
REMARK VINA RESULT:     -11.0      0.000      0.000
REMARK SMILES CN(C)S(=O)(=O)c1ccc(N(CC(=O)NCCCNC(=O)c2ccc(-c3c4nc(c(-c5c(F)cccc5F)c5ccc([nH]5)c(-c5c(F)cccc5F)c5nc(c(-c6c(F)cccc6F)c6ccc3[nH]6)C=C5)C=C4)cc2)C(C)(C)C)cc1
REMARK SMILES IDX 16 1 15 2 13 3 14 4 12 6 11 7 10 8 7 9 8 10 81 11 9 12 80 13
REMARK SMILES IDX 4 14 5 15 6 16 2 17 1 18 3 19 76 20 77 21 78 22 79 23 17 24
REMARK SMILES IDX 18 25 19 26 20 27 21 29 22 30 23 31 75 32 24 33 74 34 25 35
REMARK SMILES IDX 26 36 27 37 68 38 28 39 73 40 67 41 69 42 29 43 72 44 66 45
REMARK SMILES IDX 65 46 30 48 56 49 39 50 55 51 40 52 43 53 54 54 70 55 41 56
REMARK SMILES IDX 42 57 53 59 71 60 44 61 31 62 32 63 37 64 33 65 34 66 36 67
REMARK SMILES IDX 38 68 35 69 57 70 58 71 63 72 59 73 60 74 62 75 64 76 61 77
REMARK SMILES IDX 45 78 46 79 51 80 47 81 48 82 50 83 52 84 49 85
REMARK H PARENT 15 5 19 28 69 47 43 58
REMARK Flexibility Score: inf
ROOT
ATOM      1  C   UNL A   1      31.516  30.609  25.928  1.00  0.00     0.117 C 
ENDROOT
BRANCH   1   2
ATOM      2  N   UNL A   1      32.378  29.782  26.747  1.00  0.00    -0.354 N 
ATOM      3  C   UNL A   1      33.309  28.863  26.360  1.00  0.00     0.239 C 
ATOM      4  O   UNL A   1      34.016  28.370  27.245  1.00  0.00    -0.273 OA
ATOM      5  H   UNL A   1      32.277  29.900  27.720  1.00  0.00     0.163 HD
BRANCH   3   6
ATOM      6  C   UNL A   1      33.533  28.540  24.876  1.00  0.00     0.217 C 
BRANCH   6   7
ATOM      7  N   UNL A   1      32.845  27.307  24.376  1.00  0.00    -0.357 N 
BRANCH   7   8
ATOM      8  C   UNL A   1      33.280  26.056  24.857  1.00  0.00     0.038 A 
ATOM      9  C   UNL A   1      34.018  23.399  25.664  1.00  0.00     0.082 A 
ATOM     10  C   UNL A   1      34.741  24.058  24.680  1.00  0.00     0.024 A 
ATOM     11  C   UNL A   1      32.978  24.059  26.299  1.00  0.00     0.024 A 
ATOM     12  C   UNL A   1      34.382  25.364  24.305  1.00  0.00     0.027 A 
ATOM     13  C   UNL A   1      32.640  25.364  25.904  1.00  0.00     0.027 A 
BRANCH   9  14
ATOM     14  S   UNL A   1      34.436  21.732  26.093  1.00  0.00     0.242 S 
ATOM     15  O   UNL A   1      33.744  21.400  27.322  1.00  0.00    -0.207 OA
ATOM     16  O   UNL A   1      35.875  21.629  25.988  1.00  0.00    -0.207 OA
BRANCH  14  17
ATOM     17  N   UNL A   1      33.742  20.768  24.854  1.00  0.00    -0.204 NA
ATOM     18  C   UNL A   1      34.338  19.410  24.799  1.00  0.00     0.124 C 
ATOM     19  C   UNL A   1      32.263  20.697  24.870  1.00  0.00     0.124 C 
ENDBRANCH  14  17
ENDBRANCH   9  14
ENDBRANCH   7   8
BRANCH   7  20
ATOM     20  C   UNL A   1      31.630  27.482  23.480  1.00  0.00     0.032 C 
ATOM     21  C   UNL A   1      31.650  28.845  22.755  1.00  0.00     0.034 C 
ATOM     22  C   UNL A   1      31.503  26.291  22.503  1.00  0.00     0.034 C 
ATOM     23  C   UNL A   1      30.278  27.480  24.245  1.00  0.00     0.034 C 
ENDBRANCH   7  20
ENDBRANCH   6   7
ENDBRANCH   3   6
ENDBRANCH   1   2
BRANCH   1  24
ATOM     24  C   UNL A   1      31.365  32.023  26.475  1.00  0.00     0.042 C 
BRANCH  24  25
ATOM     25  C   UNL A   1      32.603  32.544  27.199  1.00  0.00     0.118 C 
BRANCH  25  26
ATOM     26  N   UNL A   1      32.475  33.939  27.595  1.00  0.00    -0.352 N 
ATOM     27  C   UNL A   1      33.152  34.651  28.552  1.00  0.00     0.251 C 
ATOM     28  H   UNL A   1      31.796  34.450  27.098  1.00  0.00     0.163 HD
ATOM     29  O   UNL A   1      32.766  35.775  28.860  1.00  0.00    -0.269 OA
BRANCH  27  30
ATOM     30  C   UNL A   1      34.337  34.076  29.224  1.00  0.00     0.039 A 
ATOM     31  C   UNL A   1      34.140  33.200  30.297  1.00  0.00     0.014 A 
ATOM     32  C   UNL A   1      35.633  34.427  28.839  1.00  0.00     0.014 A 
ATOM     33  C   UNL A   1      35.240  32.632  30.942  1.00  0.00     0.010 A 
ATOM     34  C   UNL A   1      36.730  33.816  29.445  1.00  0.00     0.010 A 
ATOM     35  C   UNL A   1      36.544  32.912  30.501  1.00  0.00    -0.014 A 
BRANCH  35  36
ATOM     36  C   UNL A   1      37.722  32.255  31.123  1.00  0.00     0.031 A 
ATOM     37  C   UNL A   1      38.447  31.153  30.405  1.00  0.00     0.074 A 
ATOM     38  C   UNL A   1      38.096  32.609  32.368  1.00  0.00     0.049 A 
ATOM     39  N   UNL A   1      39.439  30.407  30.821  1.00  0.00    -0.248 NA
ATOM     40  C   UNL A   1      37.982  30.831  29.046  1.00  0.00     0.031 C 
ATOM     41  C   UNL A   1      37.450  33.636  33.186  1.00  0.00     0.029 A 
ATOM     42  N   UNL A   1      39.103  32.130  33.168  1.00  0.00    -0.354 N 
ATOM     43  C   UNL A   1      39.706  29.520  29.787  1.00  0.00     0.074 A 
ATOM     44  C   UNL A   1      38.748  29.794  28.737  1.00  0.00     0.031 C 
ATOM     45  C   UNL A   1      38.084  33.720  34.367  1.00  0.00     0.029 A 
ATOM     46  C   UNL A   1      39.156  32.729  34.402  1.00  0.00     0.049 A 
ATOM     47  H   UNL A   1      39.727  31.424  32.885  1.00  0.00     0.167 HD
ATOM     48  C   UNL A   1      40.674  28.575  29.713  1.00  0.00     0.037 A 
ATOM     49  C   UNL A   1      39.969  32.500  35.451  1.00  0.00     0.037 A 
ATOM     50  C   UNL A   1      41.644  28.320  30.746  1.00  0.00     0.049 A 
ATOM     51  C   UNL A   1      41.032  31.443  35.343  1.00  0.00     0.074 A 
ATOM     52  C   UNL A   1      42.701  27.426  30.734  1.00  0.00     0.029 A 
ATOM     53  N   UNL A   1      41.675  28.961  31.974  1.00  0.00    -0.354 N 
ATOM     54  N   UNL A   1      41.309  30.651  34.336  1.00  0.00    -0.248 NA
ATOM     55  C   UNL A   1      41.896  31.251  36.516  1.00  0.00     0.031 C 
ATOM     56  C   UNL A   1      43.350  27.499  31.972  1.00  0.00     0.029 A 
ATOM     57  C   UNL A   1      42.721  28.468  32.738  1.00  0.00     0.049 A 
ATOM     58  H   UNL A   1      41.048  29.663  32.262  1.00  0.00     0.167 HD
ATOM     59  C   UNL A   1      42.392  29.883  34.745  1.00  0.00     0.074 A 
ATOM     60  C   UNL A   1      42.730  30.314  36.085  1.00  0.00     0.031 C 
ATOM     61  C   UNL A   1      43.047  28.909  34.069  1.00  0.00     0.037 A 
BRANCH  48  62
ATOM     62  C   UNL A   1      40.735  27.743  28.466  1.00  0.00     0.057 A 
ATOM     63  C   UNL A   1      40.026  26.540  28.346  1.00  0.00     0.134 A 
ATOM     64  C   UNL A   1      41.475  28.170  27.355  1.00  0.00     0.134 A 
ATOM     65  F   UNL A   1      39.307  26.070  29.376  1.00  0.00    -0.206 F 
ATOM     66  C   UNL A   1      40.068  25.781  27.174  1.00  0.00     0.040 A 
ATOM     67  C   UNL A   1      41.504  27.433  26.171  1.00  0.00     0.040 A 
ATOM     68  F   UNL A   1      42.171  29.317  27.401  1.00  0.00    -0.206 F 
ATOM     69  C   UNL A   1      40.804  26.232  26.079  1.00  0.00     0.006 A 
ENDBRANCH  48  62
BRANCH  49  70
ATOM     70  C   UNL A   1      39.820  33.298  36.693  1.00  0.00     0.057 A 
ATOM     71  C   UNL A   1      38.922  32.912  37.693  1.00  0.00     0.134 A 
ATOM     72  C   UNL A   1      40.565  34.464  36.907  1.00  0.00     0.134 A 
ATOM     73  F   UNL A   1      38.167  31.814  37.535  1.00  0.00    -0.206 F 
ATOM     74  C   UNL A   1      38.756  33.664  38.856  1.00  0.00     0.040 A 
ATOM     75  C   UNL A   1      40.425  35.214  38.074  1.00  0.00     0.040 A 
ATOM     76  F   UNL A   1      41.447  34.883  35.987  1.00  0.00    -0.206 F 
ATOM     77  C   UNL A   1      39.513  34.818  39.051  1.00  0.00     0.006 A 
ENDBRANCH  49  70
BRANCH  61  78
ATOM     78  C   UNL A   1      44.211  28.262  34.760  1.00  0.00     0.057 A 
ATOM     79  C   UNL A   1      44.062  27.094  35.516  1.00  0.00     0.134 A 
ATOM     80  C   UNL A   1      45.499  28.797  34.639  1.00  0.00     0.134 A 
ATOM     81  F   UNL A   1      42.851  26.540  35.682  1.00  0.00    -0.206 F 
ATOM     82  C   UNL A   1      45.152  26.491  36.147  1.00  0.00     0.040 A 
ATOM     83  C   UNL A   1      46.600  28.191  35.245  1.00  0.00     0.040 A 
ATOM     84  F   UNL A   1      45.710  29.911  33.922  1.00  0.00    -0.206 F 
ATOM     85  C   UNL A   1      46.426  27.036  36.006  1.00  0.00     0.006 A 
ENDBRANCH  61  78
ENDBRANCH  35  36
ENDBRANCH  27  30
ENDBRANCH  25  26
ENDBRANCH  24  25
ENDBRANCH   1  24
TORSDOF 15
ENDMDL
MODEL 2
REMARK VINA RESULT:     -11.0      4.892     10.219
REMARK SMILES CN(C)S(=O)(=O)c1ccc(N(CC(=O)NCCCNC(=O)c2ccc(-c3c4nc(c(-c5c(F)cccc5F)c5ccc([nH]5)c(-c5c(F)cccc5F)c5nc(c(-c6c(F)cccc6F)c6ccc3[nH]6)C=C5)C=C4)cc2)C(C)(C)C)cc1
REMARK SMILES IDX 16 1 15 2 13 3 14 4 12 6 11 7 10 8 7 9 8 10 81 11 9 12 80 13
REMARK SMILES IDX 4 14 5 15 6 16 2 17 1 18 3 19 76 20 77 21 78 22 79 23 17 24
REMARK SMILES IDX 18 25 19 26 20 27 21 29 22 30 23 31 75 32 24 33 74 34 25 35
REMARK SMILES IDX 26 36 27 37 68 38 28 39 73 40 67 41 69 42 29 43 72 44 66 45
REMARK SMILES IDX 65 46 30 48 56 49 39 50 55 51 40 52 43 53 54 54 70 55 41 56
REMARK SMILES IDX 42 57 53 59 71 60 44 61 31 62 32 63 37 64 33 65 34 66 36 67
REMARK SMILES IDX 38 68 35 69 57 70 58 71 63 72 59 73 60 74 62 75 64 76 61 77
REMARK SMILES IDX 45 78 46 79 51 80 47 81 48 82 50 83 52 84 49 85
REMARK H PARENT 15 5 19 28 69 47 43 58
REMARK Flexibility Score: inf
ROOT
ATOM      1  C   UNL A   1      36.579  20.652  24.790  1.00  0.00     0.117 C 
ENDROOT
BRANCH   1   2
ATOM      2  N   UNL A   1      37.058  22.003  24.999  1.00  0.00    -0.354 N 
ATOM      3  C   UNL A   1      36.513  23.002  25.750  1.00  0.00     0.239 C 
ATOM      4  O   UNL A   1      37.175  24.037  25.877  1.00  0.00    -0.273 OA
ATOM      5  H   UNL A   1      37.893  22.232  24.530  1.00  0.00     0.163 HD
BRANCH   3   6
ATOM      6  C   UNL A   1      35.184  22.800  26.492  1.00  0.00     0.217 C 
BRANCH   6   7
ATOM      7  N   UNL A   1      33.951  23.101  25.694  1.00  0.00    -0.357 N 
BRANCH   7   8
ATOM      8  C   UNL A   1      33.716  24.434  25.305  1.00  0.00     0.038 A 
ATOM      9  C   UNL A   1      33.002  27.080  24.439  1.00  0.00     0.082 A 
ATOM     10  C   UNL A   1      32.756  26.680  25.745  1.00  0.00     0.024 A 
ATOM     11  C   UNL A   1      33.653  26.213  23.575  1.00  0.00     0.024 A 
ATOM     12  C   UNL A   1      33.125  25.389  26.162  1.00  0.00     0.027 A 
ATOM     13  C   UNL A   1      34.010  24.928  24.019  1.00  0.00     0.027 A 
BRANCH   9  14
ATOM     14  S   UNL A   1      32.484  28.685  23.899  1.00  0.00     0.242 S 
ATOM     15  O   UNL A   1      32.941  28.868  22.537  1.00  0.00    -0.207 OA
ATOM     16  O   UNL A   1      32.853  29.610  24.948  1.00  0.00    -0.207 OA
BRANCH  14  17
ATOM     17  N   UNL A   1      30.770  28.601  23.843  1.00  0.00    -0.204 NA
ATOM     18  C   UNL A   1      30.153  29.922  23.563  1.00  0.00     0.124 C 
ATOM     19  C   UNL A   1      30.223  27.560  22.942  1.00  0.00     0.124 C 
ENDBRANCH  14  17
ENDBRANCH   9  14
ENDBRANCH   7   8
BRANCH   7  20
ATOM     20  C   UNL A   1      33.095  21.931  25.237  1.00  0.00     0.032 C 
ATOM     21  C   UNL A   1      33.299  21.630  23.737  1.00  0.00     0.034 C 
ATOM     22  C   UNL A   1      33.347  20.696  26.132  1.00  0.00     0.034 C 
ATOM     23  C   UNL A   1      31.568  22.180  25.370  1.00  0.00     0.034 C 
ENDBRANCH   7  20
ENDBRANCH   6   7
ENDBRANCH   3   6
ENDBRANCH   1   2
BRANCH   1  24
ATOM     24  C   UNL A   1      37.665  19.605  24.998  1.00  0.00     0.042 C 
BRANCH  24  25
ATOM     25  C   UNL A   1      38.937  20.149  25.642  1.00  0.00     0.118 C 
BRANCH  25  26
ATOM     26  N   UNL A   1      39.978  19.140  25.766  1.00  0.00    -0.352 N 
ATOM     27  C   UNL A   1      41.322  19.281  26.003  1.00  0.00     0.251 C 
ATOM     28  H   UNL A   1      39.670  18.211  25.663  1.00  0.00     0.163 HD
ATOM     29  O   UNL A   1      42.065  18.311  25.888  1.00  0.00    -0.269 OA
BRANCH  27  30
ATOM     30  C   UNL A   1      41.887  20.593  26.387  1.00  0.00     0.039 A 
ATOM     31  C   UNL A   1      42.264  21.483  25.376  1.00  0.00     0.014 A 
ATOM     32  C   UNL A   1      42.091  20.932  27.728  1.00  0.00     0.014 A 
ATOM     33  C   UNL A   1      42.788  22.733  25.709  1.00  0.00     0.010 A 
ATOM     34  C   UNL A   1      42.561  22.202  28.060  1.00  0.00     0.010 A 
ATOM     35  C   UNL A   1      42.912  23.115  27.055  1.00  0.00    -0.014 A 
BRANCH  35  36
ATOM     36  C   UNL A   1      43.392  24.470  27.428  1.00  0.00     0.031 A 
ATOM     37  C   UNL A   1      42.420  25.528  27.867  1.00  0.00     0.074 A 
ATOM     38  C   UNL A   1      44.700  24.765  27.304  1.00  0.00     0.049 A 
ATOM     39  N   UNL A   1      42.641  26.787  28.149  1.00  0.00    -0.248 NA
ATOM     40  C   UNL A   1      41.011  25.124  27.985  1.00  0.00     0.031 C 
ATOM     41  C   UNL A   1      45.739  23.838  26.850  1.00  0.00     0.029 A 
ATOM     42  N   UNL A   1      45.377  25.937  27.534  1.00  0.00    -0.354 N 
ATOM     43  C   UNL A   1      41.401  27.329  28.460  1.00  0.00     0.074 A 
ATOM     44  C   UNL A   1      40.425  26.272  28.296  1.00  0.00     0.031 C 
ATOM     45  C   UNL A   1      46.922  24.472  26.848  1.00  0.00     0.029 A 
ATOM     46  C   UNL A   1      46.721  25.857  27.265  1.00  0.00     0.049 A 
ATOM     47  H   UNL A   1      44.941  26.756  27.861  1.00  0.00     0.167 HD
ATOM     48  C   UNL A   1      41.105  28.588  28.864  1.00  0.00     0.037 A 
ATOM     49  C   UNL A   1      47.684  26.796  27.334  1.00  0.00     0.037 A 
ATOM     50  C   UNL A   1      42.079  29.632  29.053  1.00  0.00     0.049 A 
ATOM     51  C   UNL A   1      47.328  28.186  27.781  1.00  0.00     0.074 A 
ATOM     52  C   UNL A   1      41.881  30.920  29.519  1.00  0.00     0.029 A 
ATOM     53  N   UNL A   1      43.433  29.506  28.786  1.00  0.00    -0.354 N 
ATOM     54  N   UNL A   1      46.159  28.668  28.126  1.00  0.00    -0.248 NA
ATOM     55  C   UNL A   1      48.425  29.161  27.848  1.00  0.00     0.031 C 
ATOM     56  C   UNL A   1      43.112  31.587  29.498  1.00  0.00     0.029 A 
ATOM     57  C   UNL A   1      44.081  30.700  29.057  1.00  0.00     0.049 A 
ATOM     58  H   UNL A   1      43.870  28.689  28.453  1.00  0.00     0.167 HD
ATOM     59  C   UNL A   1      46.383  29.993  28.475  1.00  0.00     0.074 A 
ATOM     60  C   UNL A   1      47.802  30.236  28.312  1.00  0.00     0.031 C 
ATOM     61  C   UNL A   1      45.493  30.925  28.892  1.00  0.00     0.037 A 
BRANCH  48  62
ATOM     62  C   UNL A   1      39.665  28.908  29.133  1.00  0.00     0.057 A 
ATOM     63  C   UNL A   1      38.809  29.362  28.120  1.00  0.00     0.134 A 
ATOM     64  C   UNL A   1      39.114  28.719  30.407  1.00  0.00     0.134 A 
ATOM     65  F   UNL A   1      39.275  29.573  26.881  1.00  0.00    -0.206 F 
ATOM     66  C   UNL A   1      37.462  29.637  28.370  1.00  0.00     0.040 A 
ATOM     67  C   UNL A   1      37.765  28.967  30.663  1.00  0.00     0.040 A 
ATOM     68  F   UNL A   1      39.878  28.280  31.420  1.00  0.00    -0.206 F 
ATOM     69  C   UNL A   1      36.936  29.432  29.645  1.00  0.00     0.006 A 
ENDBRANCH  48  62
BRANCH  49  70
ATOM     70  C   UNL A   1      49.084  26.449  26.984  1.00  0.00     0.057 A 
ATOM     71  C   UNL A   1      49.947  25.897  27.936  1.00  0.00     0.134 A 
ATOM     72  C   UNL A   1      49.591  26.666  25.698  1.00  0.00     0.134 A 
ATOM     73  F   UNL A   1      49.523  25.685  29.190  1.00  0.00    -0.206 F 
ATOM     74  C   UNL A   1      51.272  25.586  27.627  1.00  0.00     0.040 A 
ATOM     75  C   UNL A   1      50.907  26.340  25.369  1.00  0.00     0.040 A 
ATOM     76  F   UNL A   1      48.810  27.187  24.740  1.00  0.00    -0.206 F 
ATOM     77  C   UNL A   1      51.754  25.804  26.337  1.00  0.00     0.006 A 
ENDBRANCH  49  70
BRANCH  61  78
ATOM     78  C   UNL A   1      46.034  32.284  29.227  1.00  0.00     0.057 A 
ATOM     79  C   UNL A   1      46.515  32.590  30.506  1.00  0.00     0.134 A 
ATOM     80  C   UNL A   1      46.102  33.285  28.251  1.00  0.00     0.134 A 
ATOM     81  F   UNL A   1      46.463  31.678  31.488  1.00  0.00    -0.206 F 
ATOM     82  C   UNL A   1      47.028  33.853  30.807  1.00  0.00     0.040 A 
ATOM     83  C   UNL A   1      46.634  34.544  28.534  1.00  0.00     0.040 A 
ATOM     84  F   UNL A   1      45.664  33.053  27.005  1.00  0.00    -0.206 F 
ATOM     85  C   UNL A   1      47.094  34.832  29.818  1.00  0.00     0.006 A 
ENDBRANCH  61  78
ENDBRANCH  35  36
ENDBRANCH  27  30
ENDBRANCH  25  26
ENDBRANCH  24  25
ENDBRANCH   1  24
TORSDOF 15
ENDMDL
MODEL 3
REMARK VINA RESULT:     -10.9      2.372      4.213
REMARK SMILES CN(C)S(=O)(=O)c1ccc(N(CC(=O)NCCCNC(=O)c2ccc(-c3c4nc(c(-c5c(F)cccc5F)c5ccc([nH]5)c(-c5c(F)cccc5F)c5nc(c(-c6c(F)cccc6F)c6ccc3[nH]6)C=C5)C=C4)cc2)C(C)(C)C)cc1
REMARK SMILES IDX 16 1 15 2 13 3 14 4 12 6 11 7 10 8 7 9 8 10 81 11 9 12 80 13
REMARK SMILES IDX 4 14 5 15 6 16 2 17 1 18 3 19 76 20 77 21 78 22 79 23 17 24
REMARK SMILES IDX 18 25 19 26 20 27 21 29 22 30 23 31 75 32 24 33 74 34 25 35
REMARK SMILES IDX 26 36 27 37 68 38 28 39 73 40 67 41 69 42 29 43 72 44 66 45
REMARK SMILES IDX 65 46 30 48 56 49 39 50 55 51 40 52 43 53 54 54 70 55 41 56
REMARK SMILES IDX 42 57 53 59 71 60 44 61 31 62 32 63 37 64 33 65 34 66 36 67
REMARK SMILES IDX 38 68 35 69 57 70 58 71 63 72 59 73 60 74 62 75 64 76 61 77
REMARK SMILES IDX 45 78 46 79 51 80 47 81 48 82 50 83 52 84 49 85
REMARK H PARENT 15 5 19 28 69 47 43 58
REMARK Flexibility Score: inf
ROOT
ATOM      1  C   UNL A   1      31.850  30.685  26.171  1.00  0.00     0.117 C 
ENDROOT
BRANCH   1   2
ATOM      2  N   UNL A   1      31.567  29.563  27.043  1.00  0.00    -0.354 N 
ATOM      3  C   UNL A   1      32.067  28.295  27.001  1.00  0.00     0.239 C 
ATOM      4  O   UNL A   1      31.771  27.542  27.935  1.00  0.00    -0.273 OA
ATOM      5  H   UNL A   1      30.923  29.742  27.766  1.00  0.00     0.163 HD
BRANCH   3   6
ATOM      6  C   UNL A   1      33.041  27.863  25.895  1.00  0.00     0.217 C 
BRANCH   6   7
ATOM      7  N   UNL A   1      32.418  27.147  24.736  1.00  0.00    -0.357 N 
BRANCH   7   8
ATOM      8  C   UNL A   1      31.407  27.805  24.008  1.00  0.00     0.038 A 
ATOM      9  C   UNL A   1      29.328  29.311  22.717  1.00  0.00     0.082 A 
ATOM     10  C   UNL A   1      30.660  29.649  22.524  1.00  0.00     0.024 A 
ATOM     11  C   UNL A   1      29.014  28.202  23.485  1.00  0.00     0.024 A 
ATOM     12  C   UNL A   1      31.670  28.895  23.147  1.00  0.00     0.027 A 
ATOM     13  C   UNL A   1      30.043  27.467  24.097  1.00  0.00     0.027 A 
BRANCH   9  14
ATOM     14  S   UNL A   1      28.055  30.299  21.979  1.00  0.00     0.242 S 
ATOM     15  O   UNL A   1      26.962  30.397  22.923  1.00  0.00    -0.207 OA
ATOM     16  O   UNL A   1      27.853  29.778  20.644  1.00  0.00    -0.207 OA
BRANCH  14  17
ATOM     17  N   UNL A   1      28.737  31.868  21.840  1.00  0.00    -0.204 NA
ATOM     18  C   UNL A   1      28.148  32.638  20.716  1.00  0.00     0.124 C 
ATOM     19  C   UNL A   1      28.733  32.665  23.088  1.00  0.00     0.124 C 
ENDBRANCH  14  17
ENDBRANCH   9  14
ENDBRANCH   7   8
BRANCH   7  20
ATOM     20  C   UNL A   1      33.003  25.804  24.329  1.00  0.00     0.032 C 
ATOM     21  C   UNL A   1      34.225  25.431  25.196  1.00  0.00     0.034 C 
ATOM     22  C   UNL A   1      31.909  24.713  24.341  1.00  0.00     0.034 C 
ATOM     23  C   UNL A   1      33.547  25.770  22.874  1.00  0.00     0.034 C 
ENDBRANCH   7  20
ENDBRANCH   6   7
ENDBRANCH   3   6
ENDBRANCH   1   2
BRANCH   1  24
ATOM     24  C   UNL A   1      31.578  32.028  26.835  1.00  0.00     0.042 C 
BRANCH  24  25
ATOM     25  C   UNL A   1      32.837  32.836  27.139  1.00  0.00     0.118 C 
BRANCH  25  26
ATOM     26  N   UNL A   1      32.539  34.176  27.625  1.00  0.00    -0.352 N 
ATOM     27  C   UNL A   1      33.067  34.869  28.683  1.00  0.00     0.251 C 
ATOM     28  H   UNL A   1      31.850  34.659  27.113  1.00  0.00     0.163 HD
ATOM     29  O   UNL A   1      32.547  35.923  29.040  1.00  0.00    -0.269 OA
BRANCH  27  30
ATOM     30  C   UNL A   1      34.251  34.357  29.407  1.00  0.00     0.039 A 
ATOM     31  C   UNL A   1      34.066  33.759  30.657  1.00  0.00     0.014 A 
ATOM     32  C   UNL A   1      35.540  34.503  28.886  1.00  0.00     0.014 A 
ATOM     33  C   UNL A   1      35.164  33.255  31.356  1.00  0.00     0.010 A 
ATOM     34  C   UNL A   1      36.628  33.949  29.558  1.00  0.00     0.010 A 
ATOM     35  C   UNL A   1      36.451  33.318  30.798  1.00  0.00    -0.014 A 
BRANCH  35  36
ATOM     36  C   UNL A   1      37.619  32.716  31.490  1.00  0.00     0.031 A 
ATOM     37  C   UNL A   1      38.309  31.512  30.914  1.00  0.00     0.074 A 
ATOM     38  C   UNL A   1      38.015  33.216  32.677  1.00  0.00     0.049 A 
ATOM     39  N   UNL A   1      39.286  30.800  31.415  1.00  0.00    -0.248 NA
ATOM     40  C   UNL A   1      37.822  31.032  29.611  1.00  0.00     0.031 C 
ATOM     41  C   UNL A   1      37.403  34.356  33.361  1.00  0.00     0.029 A 
ATOM     42  N   UNL A   1      39.018  32.817  33.524  1.00  0.00    -0.354 N 
ATOM     43  C   UNL A   1      39.521  29.782  30.502  1.00  0.00     0.074 A 
ATOM     44  C   UNL A   1      38.558  29.944  29.433  1.00  0.00     0.031 C 
ATOM     45  C   UNL A   1      38.052  34.574  34.516  1.00  0.00     0.029 A 
ATOM     46  C   UNL A   1      39.099  33.569  34.671  1.00  0.00     0.049 A 
ATOM     47  H   UNL A   1      39.621  32.065  33.329  1.00  0.00     0.167 HD
ATOM     48  C   UNL A   1      40.464  28.810  30.542  1.00  0.00     0.037 A 
ATOM     49  C   UNL A   1      39.917  33.455  35.735  1.00  0.00     0.037 A 
ATOM     50  C   UNL A   1      41.438  28.665  31.592  1.00  0.00     0.049 A 
ATOM     51  C   UNL A   1      40.952  32.365  35.755  1.00  0.00     0.074 A 
ATOM     52  C   UNL A   1      42.472  27.749  31.688  1.00  0.00     0.029 A 
ATOM     53  N   UNL A   1      41.498  29.456  32.728  1.00  0.00    -0.354 N 
ATOM     54  N   UNL A   1      41.199  31.443  34.857  1.00  0.00    -0.248 NA
ATOM     55  C   UNL A   1      41.824  32.302  36.937  1.00  0.00     0.031 C 
ATOM     56  C   UNL A   1      43.136  27.963  32.901  1.00  0.00     0.029 A 
ATOM     57  C   UNL A   1      42.539  29.038  33.541  1.00  0.00     0.049 A 
ATOM     58  H   UNL A   1      40.892  30.206  32.928  1.00  0.00     0.167 HD
ATOM     59  C   UNL A   1      42.267  30.707  35.352  1.00  0.00     0.074 A 
ATOM     60  C   UNL A   1      42.629  31.297  36.624  1.00  0.00     0.031 C 
ATOM     61  C   UNL A   1      42.890  29.637  34.802  1.00  0.00     0.037 A 
BRANCH  48  62
ATOM     62  C   UNL A   1      40.491  27.824  29.412  1.00  0.00     0.057 A 
ATOM     63  C   UNL A   1      41.423  27.923  28.370  1.00  0.00     0.134 A 
ATOM     64  C   UNL A   1      39.606  26.739  29.385  1.00  0.00     0.134 A 
ATOM     65  F   UNL A   1      42.292  28.944  28.330  1.00  0.00    -0.206 F 
ATOM     66  C   UNL A   1      41.459  26.990  27.331  1.00  0.00     0.040 A 
ATOM     67  C   UNL A   1      39.648  25.788  28.365  1.00  0.00     0.040 A 
ATOM     68  F   UNL A   1      38.693  26.582  30.356  1.00  0.00    -0.206 F 
ATOM     69  C   UNL A   1      40.574  25.914  27.332  1.00  0.00     0.006 A 
ENDBRANCH  48  62
BRANCH  49  70
ATOM     70  C   UNL A   1      39.801  34.409  36.865  1.00  0.00     0.057 A 
ATOM     71  C   UNL A   1      40.465  35.640  36.838  1.00  0.00     0.134 A 
ATOM     72  C   UNL A   1      39.032  34.112  37.996  1.00  0.00     0.134 A 
ATOM     73  F   UNL A   1      41.232  35.970  35.789  1.00  0.00    -0.206 F 
ATOM     74  C   UNL A   1      40.382  36.538  37.903  1.00  0.00     0.040 A 
ATOM     75  C   UNL A   1      38.923  35.009  39.058  1.00  0.00     0.040 A 
ATOM     76  F   UNL A   1      38.367  32.950  38.078  1.00  0.00    -0.206 F 
ATOM     77  C   UNL A   1      39.604  36.224  39.016  1.00  0.00     0.006 A 
ENDBRANCH  49  70
BRANCH  61  78
ATOM     78  C   UNL A   1      44.045  29.054  35.562  1.00  0.00     0.057 A 
ATOM     79  C   UNL A   1      43.865  28.043  36.514  1.00  0.00     0.134 A 
ATOM     80  C   UNL A   1      45.353  29.487  35.314  1.00  0.00     0.134 A 
ATOM     81  F   UNL A   1      42.635  27.596  36.806  1.00  0.00    -0.206 F 
ATOM     82  C   UNL A   1      44.946  27.497  37.208  1.00  0.00     0.040 A 
ATOM     83  C   UNL A   1      46.444  28.933  35.985  1.00  0.00     0.040 A 
ATOM     84  F   UNL A   1      45.593  30.448  34.409  1.00  0.00    -0.206 F 
ATOM     85  C   UNL A   1      46.240  27.938  36.940  1.00  0.00     0.006 A 
ENDBRANCH  61  78
ENDBRANCH  35  36
ENDBRANCH  27  30
ENDBRANCH  25  26
ENDBRANCH  24  25
ENDBRANCH   1  24
TORSDOF 15
ENDMDL
