MODEL 1
REMARK VINA RESULT:     -12.0      0.000      0.000
REMARK SMILES O=C(Nc1nc(C2CC2)cs1)N[C@@H]1C=C[C@@H](C(=O)NCCCNC(=O)c2ccc(-c3c4nc(c(-c5c(F)cccc5F)c5ccc([nH]5)c(-c5c(F)cccc5F)c5nc(c(-c6c(F)cccc6F)c6ccc3[nH]6)C=C5)C=C4)cc2)C1
REMARK SMILES IDX 20 1 19 2 17 3 18 4 16 6 13 7 14 8 80 9 15 10 12 11 1 12
REMARK SMILES IDX 2 13 3 14 4 17 5 18 11 19 6 20 10 21 7 22 8 23 9 24 21 25
REMARK SMILES IDX 22 26 23 27 24 28 25 30 26 31 27 32 79 33 28 34 78 35 29 36
REMARK SMILES IDX 30 37 31 38 72 39 32 40 77 41 71 42 73 43 33 44 76 45 70 46
REMARK SMILES IDX 69 47 34 49 60 50 43 51 59 52 44 53 47 54 58 55 74 56 45 57
REMARK SMILES IDX 46 58 57 60 75 61 48 62 35 63 36 64 41 65 37 66 38 67 40 68
REMARK SMILES IDX 42 69 39 70 61 71 62 72 67 73 63 74 64 75 66 76 68 77 65 78
REMARK SMILES IDX 49 79 50 80 55 81 51 82 52 83 54 84 56 85 53 86
REMARK H PARENT 19 5 3 15 12 16 23 29 73 48 47 59
REMARK Flexibility Score: inf
ROOT
ATOM      1  C   UNL A   1      36.265  20.828  24.976  1.00  0.00     0.117 C 
ENDROOT
BRANCH   1   2
ATOM      2  N   UNL A   1      34.997  20.124  24.936  1.00  0.00    -0.356 N 
ATOM      3  C   UNL A   1      33.725  20.583  24.783  1.00  0.00     0.227 C 
ATOM      4  O   UNL A   1      32.824  19.739  24.793  1.00  0.00    -0.274 OA
ATOM      5  H   UNL A   1      35.069  19.147  25.038  1.00  0.00     0.163 HD
BRANCH   3   6
ATOM      6  C   UNL A   1      33.396  22.072  24.634  1.00  0.00     0.103 C 
ATOM      7  C   UNL A   1      32.536  23.487  22.815  1.00  0.00     0.107 C 
ATOM      8  C   UNL A   1      31.477  23.161  23.815  1.00  0.00    -0.006 C 
ATOM      9  C   UNL A   1      33.747  22.646  23.255  1.00  0.00     0.047 C 
ATOM     10  C   UNL A   1      31.942  22.394  24.810  1.00  0.00    -0.016 C 
BRANCH   7  11
ATOM     11  N   UNL A   1      32.805  24.909  22.759  1.00  0.00    -0.332 N 
ATOM     12  O   UNL A   1      33.155  25.138  20.505  1.00  0.00    -0.248 OA
ATOM     13  C   UNL A   1      32.991  25.629  21.620  1.00  0.00     0.321 C 
ATOM     14  N   UNL A   1      32.913  26.977  21.699  1.00  0.00    -0.284 N 
ATOM     15  H   UNL A   1      33.082  27.470  20.863  1.00  0.00     0.174 HD
ATOM     16  H   UNL A   1      32.857  25.394  23.615  1.00  0.00     0.165 HD
BRANCH  14  17
ATOM     17  C   UNL A   1      32.629  27.737  22.791  1.00  0.00     0.191 A 
ATOM     18  N   UNL A   1      33.334  27.947  23.877  1.00  0.00    -0.225 NA
ATOM     19  S   UNL A   1      31.086  28.464  22.709  1.00  0.00    -0.105 S 
ATOM     20  C   UNL A   1      32.584  28.743  24.730  1.00  0.00     0.057 A 
ATOM     21  C   UNL A   1      31.306  29.044  24.304  1.00  0.00     0.092 A 
BRANCH  20  22
ATOM     22  C   UNL A   1      33.112  29.300  26.045  1.00  0.00     0.039 C 
ATOM     23  C   UNL A   1      32.162  29.648  27.165  1.00  0.00     0.011 C 
ATOM     24  C   UNL A   1      32.993  28.412  27.266  1.00  0.00     0.011 C 
ENDBRANCH  20  22
ENDBRANCH  14  17
ENDBRANCH   7  11
ENDBRANCH   3   6
ENDBRANCH   1   2
BRANCH   1  25
ATOM     25  C   UNL A   1      37.449  19.875  24.955  1.00  0.00     0.042 C 
BRANCH  25  26
ATOM     26  C   UNL A   1      38.701  20.452  25.596  1.00  0.00     0.118 C 
BRANCH  26  27
ATOM     27  N   UNL A   1      39.768  19.466  25.719  1.00  0.00    -0.352 N 
ATOM     28  C   UNL A   1      41.081  19.628  26.077  1.00  0.00     0.251 C 
ATOM     29  H   UNL A   1      39.504  18.540  25.514  1.00  0.00     0.163 HD
ATOM     30  O   UNL A   1      41.874  18.698  25.922  1.00  0.00    -0.269 OA
BRANCH  28  31
ATOM     31  C   UNL A   1      41.556  20.913  26.628  1.00  0.00     0.039 A 
ATOM     32  C   UNL A   1      42.081  21.873  25.758  1.00  0.00     0.014 A 
ATOM     33  C   UNL A   1      41.505  21.167  28.001  1.00  0.00     0.014 A 
ATOM     34  C   UNL A   1      42.494  23.110  26.258  1.00  0.00     0.010 A 
ATOM     35  C   UNL A   1      41.825  22.430  28.484  1.00  0.00     0.010 A 
ATOM     36  C   UNL A   1      42.337  23.410  27.621  1.00  0.00    -0.014 A 
BRANCH  36  37
ATOM     37  C   UNL A   1      42.728  24.730  28.174  1.00  0.00     0.031 A 
ATOM     38  C   UNL A   1      41.688  25.796  28.380  1.00  0.00     0.074 A 
ATOM     39  C   UNL A   1      44.024  24.992  28.430  1.00  0.00     0.049 A 
ATOM     40  N   UNL A   1      41.837  27.035  28.775  1.00  0.00    -0.248 NA
ATOM     41  C   UNL A   1      40.296  25.429  28.068  1.00  0.00     0.031 C 
ATOM     42  C   UNL A   1      45.133  24.056  28.235  1.00  0.00     0.029 A 
ATOM     43  N   UNL A   1      44.628  26.128  28.904  1.00  0.00    -0.354 N 
ATOM     44  C   UNL A   1      40.566  27.596  28.744  1.00  0.00     0.074 A 
ATOM     45  C   UNL A   1      39.670  26.585  28.229  1.00  0.00     0.031 C 
ATOM     46  C   UNL A   1      46.277  24.647  28.617  1.00  0.00     0.029 A 
ATOM     47  C   UNL A   1      45.990  26.012  29.043  1.00  0.00     0.049 A 
ATOM     48  H   UNL A   1      44.132  26.950  29.125  1.00  0.00     0.167 HD
ATOM     49  C   UNL A   1      40.174  28.832  29.135  1.00  0.00     0.037 A 
ATOM     50  C   UNL A   1      46.902  26.907  29.464  1.00  0.00     0.037 A 
ATOM     51  C   UNL A   1      41.067  29.828  29.666  1.00  0.00     0.049 A 
ATOM     52  C   UNL A   1      46.448  28.280  29.874  1.00  0.00     0.074 A 
ATOM     53  C   UNL A   1      40.765  31.095  30.136  1.00  0.00     0.029 A 
ATOM     54  N   UNL A   1      42.438  29.669  29.797  1.00  0.00    -0.354 N 
ATOM     55  N   UNL A   1      45.235  28.780  29.893  1.00  0.00    -0.248 NA
ATOM     56  C   UNL A   1      47.490  29.213  30.326  1.00  0.00     0.031 C 
ATOM     57  C   UNL A   1      41.960  31.718  30.510  1.00  0.00     0.029 A 
ATOM     58  C   UNL A   1      43.000  30.821  30.322  1.00  0.00     0.049 A 
ATOM     59  H   UNL A   1      42.939  28.857  29.553  1.00  0.00     0.167 HD
ATOM     60  C   UNL A   1      45.363  30.070  30.391  1.00  0.00     0.074 A 
ATOM     61  C   UNL A   1      46.770  30.273  30.668  1.00  0.00     0.031 C 
ATOM     62  C   UNL A   1      44.402  31.003  30.602  1.00  0.00     0.037 A 
BRANCH  49  63
ATOM     63  C   UNL A   1      38.716  29.166  29.000  1.00  0.00     0.057 A 
ATOM     64  C   UNL A   1      38.161  29.578  27.780  1.00  0.00     0.134 A 
ATOM     65  C   UNL A   1      37.854  29.070  30.099  1.00  0.00     0.134 A 
ATOM     66  F   UNL A   1      38.933  29.704  26.690  1.00  0.00    -0.206 F 
ATOM     67  C   UNL A   1      36.813  29.918  27.668  1.00  0.00     0.040 A 
ATOM     68  C   UNL A   1      36.497  29.378  29.992  1.00  0.00     0.040 A 
ATOM     69  F   UNL A   1      38.316  28.677  31.296  1.00  0.00    -0.206 F 
ATOM     70  C   UNL A   1      35.974  29.813  28.776  1.00  0.00     0.006 A 
ENDBRANCH  49  63
BRANCH  50  71
ATOM     71  C   UNL A   1      48.333  26.522  29.555  1.00  0.00     0.057 A 
ATOM     72  C   UNL A   1      49.215  26.788  28.501  1.00  0.00     0.134 A 
ATOM     73  C   UNL A   1      48.853  25.884  30.687  1.00  0.00     0.134 A 
ATOM     74  F   UNL A   1      48.771  27.382  27.384  1.00  0.00    -0.206 F 
ATOM     75  C   UNL A   1      50.560  26.419  28.562  1.00  0.00     0.040 A 
ATOM     76  C   UNL A   1      50.201  25.530  30.771  1.00  0.00     0.040 A 
ATOM     77  F   UNL A   1      48.062  25.610  31.734  1.00  0.00    -0.206 F 
ATOM     78  C   UNL A   1      51.057  25.792  29.703  1.00  0.00     0.006 A 
ENDBRANCH  50  71
BRANCH  62  79
ATOM     79  C   UNL A   1      44.832  32.310  31.202  1.00  0.00     0.057 A 
ATOM     80  C   UNL A   1      44.899  32.504  32.588  1.00  0.00     0.134 A 
ATOM     81  C   UNL A   1      45.221  33.375  30.379  1.00  0.00     0.134 A 
ATOM     82  F   UNL A   1      44.529  31.528  33.430  1.00  0.00    -0.206 F 
ATOM     83  C   UNL A   1      45.316  33.720  33.132  1.00  0.00     0.040 A 
ATOM     84  C   UNL A   1      45.666  34.585  30.913  1.00  0.00     0.040 A 
ATOM     85  F   UNL A   1      45.188  33.252  29.043  1.00  0.00    -0.206 F 
ATOM     86  C   UNL A   1      45.708  34.762  32.294  1.00  0.00     0.006 A 
ENDBRANCH  62  79
ENDBRANCH  36  37
ENDBRANCH  28  31
ENDBRANCH  26  27
ENDBRANCH  25  26
ENDBRANCH   1  25
TORSDOF 13
ENDMDL
MODEL 2
REMARK VINA RESULT:     -11.8      3.829      9.019
REMARK SMILES O=C(Nc1nc(C2CC2)cs1)N[C@@H]1C=C[C@@H](C(=O)NCCCNC(=O)c2ccc(-c3c4nc(c(-c5c(F)cccc5F)c5ccc([nH]5)c(-c5c(F)cccc5F)c5nc(c(-c6c(F)cccc6F)c6ccc3[nH]6)C=C5)C=C4)cc2)C1
REMARK SMILES IDX 20 1 19 2 17 3 18 4 16 6 13 7 14 8 80 9 15 10 12 11 1 12
REMARK SMILES IDX 2 13 3 14 4 17 5 18 11 19 6 20 10 21 7 22 8 23 9 24 21 25
REMARK SMILES IDX 22 26 23 27 24 28 25 30 26 31 27 32 79 33 28 34 78 35 29 36
REMARK SMILES IDX 30 37 31 38 72 39 32 40 77 41 71 42 73 43 33 44 76 45 70 46
REMARK SMILES IDX 69 47 34 49 60 50 43 51 59 52 44 53 47 54 58 55 74 56 45 57
REMARK SMILES IDX 46 58 57 60 75 61 48 62 35 63 36 64 41 65 37 66 38 67 40 68
REMARK SMILES IDX 42 69 39 70 61 71 62 72 67 73 63 74 64 75 66 76 68 77 65 78
REMARK SMILES IDX 49 79 50 80 55 81 51 82 52 83 54 84 56 85 53 86
REMARK H PARENT 19 5 3 15 12 16 23 29 73 48 47 59
REMARK Flexibility Score: inf
ROOT
ATOM      1  C   UNL A   1      31.719  30.240  25.800  1.00  0.00     0.117 C 
ENDROOT
BRANCH   1   2
ATOM      2  N   UNL A   1      30.893  30.036  24.626  1.00  0.00    -0.356 N 
ATOM      3  C   UNL A   1      30.649  28.917  23.889  1.00  0.00     0.227 C 
ATOM      4  O   UNL A   1      29.892  29.043  22.921  1.00  0.00    -0.274 OA
ATOM      5  H   UNL A   1      30.430  30.844  24.306  1.00  0.00     0.163 HD
BRANCH   3   6
ATOM      6  C   UNL A   1      31.292  27.563  24.205  1.00  0.00     0.103 C 
ATOM      7  C   UNL A   1      30.455  25.380  24.969  1.00  0.00     0.107 C 
ATOM      8  C   UNL A   1      30.741  25.385  23.504  1.00  0.00    -0.006 C 
ATOM      9  C   UNL A   1      30.656  26.843  25.402  1.00  0.00     0.047 C 
ATOM     10  C   UNL A   1      31.201  26.571  23.084  1.00  0.00    -0.016 C 
BRANCH   7  11
ATOM     11  N   UNL A   1      31.301  24.442  25.679  1.00  0.00    -0.332 N 
ATOM     12  O   UNL A   1      29.804  23.703  27.251  1.00  0.00    -0.248 OA
ATOM     13  C   UNL A   1      30.891  23.619  26.681  1.00  0.00     0.321 C 
ATOM     14  N   UNL A   1      31.695  22.587  27.026  1.00  0.00    -0.284 N 
ATOM     15  H   UNL A   1      31.383  22.028  27.775  1.00  0.00     0.174 HD
ATOM     16  H   UNL A   1      32.248  24.397  25.415  1.00  0.00     0.165 HD
BRANCH  14  17
ATOM     17  C   UNL A   1      32.880  22.225  26.466  1.00  0.00     0.191 A 
ATOM     18  N   UNL A   1      34.075  22.748  26.612  1.00  0.00    -0.225 NA
ATOM     19  S   UNL A   1      32.726  20.922  25.374  1.00  0.00    -0.105 S 
ATOM     20  C   UNL A   1      34.947  22.067  25.776  1.00  0.00     0.057 A 
ATOM     21  C   UNL A   1      34.377  21.108  24.963  1.00  0.00     0.092 A 
BRANCH  20  22
ATOM     22  C   UNL A   1      36.451  22.308  25.752  1.00  0.00     0.039 C 
ATOM     23  C   UNL A   1      37.237  22.104  24.479  1.00  0.00     0.011 C 
ATOM     24  C   UNL A   1      36.946  23.492  24.948  1.00  0.00     0.011 C 
ENDBRANCH  20  22
ENDBRANCH  14  17
ENDBRANCH   7  11
ENDBRANCH   3   6
ENDBRANCH   1   2
BRANCH   1  25
ATOM     25  C   UNL A   1      31.473  31.594  26.444  1.00  0.00     0.042 C 
BRANCH  25  26
ATOM     26  C   UNL A   1      32.721  32.207  27.061  1.00  0.00     0.118 C 
BRANCH  26  27
ATOM     27  N   UNL A   1      32.505  33.577  27.510  1.00  0.00    -0.352 N 
ATOM     28  C   UNL A   1      33.175  34.313  28.451  1.00  0.00     0.251 C 
ATOM     29  H   UNL A   1      31.762  34.047  27.066  1.00  0.00     0.163 HD
ATOM     30  O   UNL A   1      32.708  35.388  28.832  1.00  0.00    -0.269 OA
BRANCH  28  31
ATOM     31  C   UNL A   1      34.443  33.820  29.026  1.00  0.00     0.039 A 
ATOM     32  C   UNL A   1      34.403  33.017  30.170  1.00  0.00     0.014 A 
ATOM     33  C   UNL A   1      35.671  34.162  28.455  1.00  0.00     0.014 A 
ATOM     34  C   UNL A   1      35.590  32.507  30.700  1.00  0.00     0.010 A 
ATOM     35  C   UNL A   1      36.841  33.577  28.924  1.00  0.00     0.010 A 
ATOM     36  C   UNL A   1      36.815  32.755  30.061  1.00  0.00    -0.014 A 
BRANCH  36  37
ATOM     37  C   UNL A   1      38.088  32.193  30.577  1.00  0.00     0.031 A 
ATOM     38  C   UNL A   1      38.638  30.922  29.992  1.00  0.00     0.074 A 
ATOM     39  C   UNL A   1      38.712  32.787  31.611  1.00  0.00     0.049 A 
ATOM     40  N   UNL A   1      39.688  30.229  30.355  1.00  0.00    -0.248 NA
ATOM     41  C   UNL A   1      37.890  30.333  28.869  1.00  0.00     0.031 C 
ATOM     42  C   UNL A   1      38.258  34.002  32.292  1.00  0.00     0.029 A 
ATOM     43  N   UNL A   1      39.862  32.444  32.276  1.00  0.00    -0.354 N 
ATOM     44  C   UNL A   1      39.715  29.120  29.518  1.00  0.00     0.074 A 
ATOM     45  C   UNL A   1      38.543  29.198  28.675  1.00  0.00     0.031 C 
ATOM     46  C   UNL A   1      39.137  34.318  33.256  1.00  0.00     0.029 A 
ATOM     47  C   UNL A   1      40.192  33.311  33.290  1.00  0.00     0.049 A 
ATOM     48  H   UNL A   1      40.400  31.652  32.048  1.00  0.00     0.167 HD
ATOM     49  C   UNL A   1      40.647  28.140  29.438  1.00  0.00     0.037 A 
ATOM     50  C   UNL A   1      41.227  33.292  34.150  1.00  0.00     0.037 A 
ATOM     51  C   UNL A   1      41.823  28.078  30.265  1.00  0.00     0.049 A 
ATOM     52  C   UNL A   1      42.238  32.183  34.056  1.00  0.00     0.074 A 
ATOM     53  C   UNL A   1      42.853  27.154  30.233  1.00  0.00     0.029 A 
ATOM     54  N   UNL A   1      42.125  28.979  31.275  1.00  0.00    -0.354 N 
ATOM     55  N   UNL A   1      42.283  31.171  33.223  1.00  0.00    -0.248 NA
ATOM     56  C   UNL A   1      43.346  32.217  35.021  1.00  0.00     0.031 C 
ATOM     57  C   UNL A   1      43.755  27.471  31.253  1.00  0.00     0.029 A 
ATOM     58  C   UNL A   1      43.315  28.622  31.887  1.00  0.00     0.049 A 
ATOM     59  H   UNL A   1      41.574  29.757  31.522  1.00  0.00     0.167 HD
ATOM     60  C   UNL A   1      43.439  30.469  33.539  1.00  0.00     0.074 A 
ATOM     61  C   UNL A   1      44.070  31.175  34.635  1.00  0.00     0.031 C 
ATOM     62  C   UNL A   1      43.935  29.343  32.971  1.00  0.00     0.037 A 
BRANCH  49  63
ATOM     63  C   UNL A   1      40.424  27.061  28.417  1.00  0.00     0.057 A 
ATOM     64  C   UNL A   1      41.073  27.072  27.174  1.00  0.00     0.134 A 
ATOM     65  C   UNL A   1      39.554  25.995  28.679  1.00  0.00     0.134 A 
ATOM     66  F   UNL A   1      41.910  28.072  26.854  1.00  0.00    -0.206 F 
ATOM     67  C   UNL A   1      40.838  26.086  26.217  1.00  0.00     0.040 A 
ATOM     68  C   UNL A   1      39.334  24.985  27.741  1.00  0.00     0.040 A 
ATOM     69  F   UNL A   1      38.903  25.917  29.849  1.00  0.00    -0.206 F 
ATOM     70  C   UNL A   1      39.969  25.034  26.501  1.00  0.00     0.006 A 
ENDBRANCH  49  63
BRANCH  50  71
ATOM     71  C   UNL A   1      41.381  34.378  35.151  1.00  0.00     0.057 A 
ATOM     72  C   UNL A   1      42.045  35.565  34.823  1.00  0.00     0.134 A 
ATOM     73  C   UNL A   1      40.871  34.260  36.448  1.00  0.00     0.134 A 
ATOM     74  F   UNL A   1      42.570  35.729  33.600  1.00  0.00    -0.206 F 
ATOM     75  C   UNL A   1      42.214  36.590  35.755  1.00  0.00     0.040 A 
ATOM     76  C   UNL A   1      41.012  35.286  37.384  1.00  0.00     0.040 A 
ATOM     77  F   UNL A   1      40.216  33.151  36.822  1.00  0.00    -0.206 F 
ATOM     78  C   UNL A   1      41.691  36.453  37.040  1.00  0.00     0.006 A 
ENDBRANCH  50  71
BRANCH  62  79
ATOM     79  C   UNL A   1      45.245  28.829  33.493  1.00  0.00     0.057 A 
ATOM     80  C   UNL A   1      46.472  29.262  32.974  1.00  0.00     0.134 A 
ATOM     81  C   UNL A   1      45.277  27.918  34.557  1.00  0.00     0.134 A 
ATOM     82  F   UNL A   1      46.509  30.124  31.947  1.00  0.00    -0.206 F 
ATOM     83  C   UNL A   1      47.684  28.788  33.479  1.00  0.00     0.040 A 
ATOM     84  C   UNL A   1      46.483  27.459  35.088  1.00  0.00     0.040 A 
ATOM     85  F   UNL A   1      44.138  27.470  35.105  1.00  0.00    -0.206 F 
ATOM     86  C   UNL A   1      47.691  27.889  34.545  1.00  0.00     0.006 A 
ENDBRANCH  62  79
ENDBRANCH  36  37
ENDBRANCH  28  31
ENDBRANCH  26  27
ENDBRANCH  25  26
ENDBRANCH   1  25
TORSDOF 13
ENDMDL
MODEL 3
REMARK VINA RESULT:     -11.7      3.558      8.756
REMARK SMILES O=C(Nc1nc(C2CC2)cs1)N[C@@H]1C=C[C@@H](C(=O)NCCCNC(=O)c2ccc(-c3c4nc(c(-c5c(F)cccc5F)c5ccc([nH]5)c(-c5c(F)cccc5F)c5nc(c(-c6c(F)cccc6F)c6ccc3[nH]6)C=C5)C=C4)cc2)C1
REMARK SMILES IDX 20 1 19 2 17 3 18 4 16 6 13 7 14 8 80 9 15 10 12 11 1 12
REMARK SMILES IDX 2 13 3 14 4 17 5 18 11 19 6 20 10 21 7 22 8 23 9 24 21 25
REMARK SMILES IDX 22 26 23 27 24 28 25 30 26 31 27 32 79 33 28 34 78 35 29 36
REMARK SMILES IDX 30 37 31 38 72 39 32 40 77 41 71 42 73 43 33 44 76 45 70 46
REMARK SMILES IDX 69 47 34 49 60 50 43 51 59 52 44 53 47 54 58 55 74 56 45 57
REMARK SMILES IDX 46 58 57 60 75 61 48 62 35 63 36 64 41 65 37 66 38 67 40 68
REMARK SMILES IDX 42 69 39 70 61 71 62 72 67 73 63 74 64 75 66 76 68 77 65 78
REMARK SMILES IDX 49 79 50 80 55 81 51 82 52 83 54 84 56 85 53 86
REMARK H PARENT 19 5 3 15 12 16 23 29 73 48 47 59
REMARK Flexibility Score: inf
ROOT
ATOM      1  C   UNL A   1      31.530  30.117  25.460  1.00  0.00     0.117 C 
ENDROOT
BRANCH   1   2
ATOM      2  N   UNL A   1      30.708  29.862  24.293  1.00  0.00    -0.356 N 
ATOM      3  C   UNL A   1      30.465  28.712  23.606  1.00  0.00     0.227 C 
ATOM      4  O   UNL A   1      29.713  28.796  22.630  1.00  0.00    -0.274 OA
ATOM      5  H   UNL A   1      30.249  30.656  23.935  1.00  0.00     0.163 HD
BRANCH   3   6
ATOM      6  C   UNL A   1      31.103  27.372  23.985  1.00  0.00     0.103 C 
ATOM      7  C   UNL A   1      30.301  25.307  25.053  1.00  0.00     0.107 C 
ATOM      8  C   UNL A   1      30.420  25.158  23.572  1.00  0.00    -0.006 C 
ATOM      9  C   UNL A   1      30.588  26.796  25.310  1.00  0.00     0.047 C 
ATOM     10  C   UNL A   1      30.861  26.280  22.986  1.00  0.00    -0.016 C 
BRANCH   7  11
ATOM     11  N   UNL A   1      31.196  24.412  25.757  1.00  0.00    -0.332 N 
ATOM     12  O   UNL A   1      29.736  23.563  27.307  1.00  0.00    -0.248 OA
ATOM     13  C   UNL A   1      30.829  23.552  26.744  1.00  0.00     0.321 C 
ATOM     14  N   UNL A   1      31.691  22.566  27.082  1.00  0.00    -0.284 N 
ATOM     15  H   UNL A   1      31.409  21.979  27.821  1.00  0.00     0.174 HD
ATOM     16  H   UNL A   1      32.147  24.427  25.500  1.00  0.00     0.165 HD
BRANCH  14  17
ATOM     17  C   UNL A   1      32.900  22.283  26.527  1.00  0.00     0.191 A 
ATOM     18  N   UNL A   1      34.050  22.904  26.652  1.00  0.00    -0.225 NA
ATOM     19  S   UNL A   1      32.848  20.940  25.474  1.00  0.00    -0.105 S 
ATOM     20  C   UNL A   1      34.971  22.270  25.831  1.00  0.00     0.057 A 
ATOM     21  C   UNL A   1      34.477  21.245  25.049  1.00  0.00     0.092 A 
BRANCH  20  22
ATOM     22  C   UNL A   1      36.451  22.629  25.792  1.00  0.00     0.039 C 
ATOM     23  C   UNL A   1      37.319  22.171  24.645  1.00  0.00     0.011 C 
ATOM     24  C   UNL A   1      36.896  23.600  24.719  1.00  0.00     0.011 C 
ENDBRANCH  20  22
ENDBRANCH  14  17
ENDBRANCH   7  11
ENDBRANCH   3   6
ENDBRANCH   1   2
BRANCH   1  25
ATOM     25  C   UNL A   1      31.259  31.486  26.063  1.00  0.00     0.042 C 
BRANCH  25  26
ATOM     26  C   UNL A   1      32.286  31.903  27.104  1.00  0.00     0.118 C 
BRANCH  26  27
ATOM     27  N   UNL A   1      32.225  33.328  27.406  1.00  0.00    -0.352 N 
ATOM     28  C   UNL A   1      33.051  34.102  28.179  1.00  0.00     0.251 C 
ATOM     29  H   UNL A   1      31.474  33.809  26.989  1.00  0.00     0.163 HD
ATOM     30  O   UNL A   1      32.711  35.249  28.475  1.00  0.00    -0.269 OA
BRANCH  28  31
ATOM     31  C   UNL A   1      34.335  33.566  28.674  1.00  0.00     0.039 A 
ATOM     32  C   UNL A   1      34.362  32.887  29.895  1.00  0.00     0.014 A 
ATOM     33  C   UNL A   1      35.515  33.748  27.948  1.00  0.00     0.014 A 
ATOM     34  C   UNL A   1      35.561  32.338  30.356  1.00  0.00     0.010 A 
ATOM     35  C   UNL A   1      36.684  33.119  28.358  1.00  0.00     0.010 A 
ATOM     36  C   UNL A   1      36.723  32.420  29.574  1.00  0.00    -0.014 A 
BRANCH  36  37
ATOM     37  C   UNL A   1      38.001  31.810  30.017  1.00  0.00     0.031 A 
ATOM     38  C   UNL A   1      38.872  32.531  31.009  1.00  0.00     0.074 A 
ATOM     39  C   UNL A   1      38.409  30.645  29.481  1.00  0.00     0.049 A 
ATOM     40  N   UNL A   1      40.058  32.206  31.461  1.00  0.00    -0.248 NA
ATOM     41  C   UNL A   1      38.355  33.803  31.541  1.00  0.00     0.031 C 
ATOM     42  C   UNL A   1      37.675  29.868  28.480  1.00  0.00     0.029 A 
ATOM     43  N   UNL A   1      39.548  29.912  29.700  1.00  0.00    -0.354 N 
ATOM     44  C   UNL A   1      40.431  33.238  32.314  1.00  0.00     0.074 A 
ATOM     45  C   UNL A   1      39.379  34.229  32.265  1.00  0.00     0.031 C 
ATOM     46  C   UNL A   1      38.367  28.753  28.196  1.00  0.00     0.029 A 
ATOM     47  C   UNL A   1      39.610  28.755  28.960  1.00  0.00     0.049 A 
ATOM     48  H   UNL A   1      40.255  30.188  30.327  1.00  0.00     0.167 HD
ATOM     49  C   UNL A   1      41.537  33.340  33.089  1.00  0.00     0.037 A 
ATOM     50  C   UNL A   1      40.563  27.807  28.905  1.00  0.00     0.037 A 
ATOM     51  C   UNL A   1      42.571  32.342  33.151  1.00  0.00     0.049 A 
ATOM     52  C   UNL A   1      41.792  27.950  29.759  1.00  0.00     0.074 A 
ATOM     53  C   UNL A   1      43.709  32.325  33.939  1.00  0.00     0.029 A 
ATOM     54  N   UNL A   1      42.593  31.181  32.392  1.00  0.00    -0.354 N 
ATOM     55  N   UNL A   1      42.107  28.903  30.603  1.00  0.00    -0.248 NA
ATOM     56  C   UNL A   1      42.796  26.882  29.656  1.00  0.00     0.031 C 
ATOM     57  C   UNL A   1      44.441  31.176  33.624  1.00  0.00     0.029 A 
ATOM     58  C   UNL A   1      43.734  30.451  32.678  1.00  0.00     0.049 A 
ATOM     59  H   UNL A   1      41.900  30.916  31.745  1.00  0.00     0.167 HD
ATOM     60  C   UNL A   1      43.325  28.533  31.158  1.00  0.00     0.074 A 
ATOM     61  C   UNL A   1      43.688  27.265  30.559  1.00  0.00     0.031 C 
ATOM     62  C   UNL A   1      44.075  29.184  32.080  1.00  0.00     0.037 A 
BRANCH  49  63
ATOM     63  C   UNL A   1      41.674  34.576  33.932  1.00  0.00     0.057 A 
ATOM     64  C   UNL A   1      41.145  34.650  35.229  1.00  0.00     0.134 A 
ATOM     65  C   UNL A   1      42.346  35.704  33.446  1.00  0.00     0.134 A 
ATOM     66  F   UNL A   1      40.478  33.609  35.751  1.00  0.00    -0.206 F 
ATOM     67  C   UNL A   1      41.247  35.811  35.994  1.00  0.00     0.040 A 
ATOM     68  C   UNL A   1      42.481  36.861  34.214  1.00  0.00     0.040 A 
ATOM     69  F   UNL A   1      42.881  35.702  32.216  1.00  0.00    -0.206 F 
ATOM     70  C   UNL A   1      41.922  36.921  35.490  1.00  0.00     0.006 A 
ENDBRANCH  49  63
BRANCH  50  71
ATOM     71  C   UNL A   1      40.377  26.617  28.035  1.00  0.00     0.057 A 
ATOM     72  C   UNL A   1      40.969  26.556  26.769  1.00  0.00     0.134 A 
ATOM     73  C   UNL A   1      39.610  25.520  28.444  1.00  0.00     0.134 A 
ATOM     74  F   UNL A   1      41.701  27.584  26.316  1.00  0.00    -0.206 F 
ATOM     75  C   UNL A   1      40.792  25.454  25.931  1.00  0.00     0.040 A 
ATOM     76  C   UNL A   1      39.444  24.401  27.626  1.00  0.00     0.040 A 
ATOM     77  F   UNL A   1      39.024  25.514  29.650  1.00  0.00    -0.206 F 
ATOM     78  C   UNL A   1      40.031  24.369  26.363  1.00  0.00     0.006 A 
ENDBRANCH  50  71
BRANCH  62  79
ATOM     79  C   UNL A   1      45.340  28.514  32.534  1.00  0.00     0.057 A 
ATOM     80  C   UNL A   1      46.576  28.771  31.927  1.00  0.00     0.134 A 
ATOM     81  C   UNL A   1      45.324  27.629  33.619  1.00  0.00     0.134 A 
ATOM     82  F   UNL A   1      46.657  29.600  30.875  1.00  0.00    -0.206 F 
ATOM     83  C   UNL A   1      47.747  28.153  32.369  1.00  0.00     0.040 A 
ATOM     84  C   UNL A   1      46.492  27.026  34.087  1.00  0.00     0.040 A 
ATOM     85  F   UNL A   1      44.174  27.345  34.251  1.00  0.00    -0.206 F 
ATOM     86  C   UNL A   1      47.708  27.283  33.457  1.00  0.00     0.006 A 
ENDBRANCH  62  79
ENDBRANCH  36  37
ENDBRANCH  28  31
ENDBRANCH  26  27
ENDBRANCH  25  26
ENDBRANCH   1  25
TORSDOF 13
ENDMDL
