MODEL 1
REMARK VINA RESULT:     -12.9      0.000      0.000
REMARK SMILES O=C(NCCCNC(=O)c1ccc(-c2c3nc(c(-c4c(F)cccc4F)c4ccc([nH]4)c(-c4c(F)cccc4F)c4nc(c(-c5c(F)cccc5F)c5ccc2[nH]5)C=C4)C=C3)cc1)C1=Cc2c(ccc(Cl)c2Oc2ccccc2)O[C@H]1C(F)(F)F
REMARK SMILES IDX 5 1 4 2 3 3 1 4 2 5 64 7 65 8 81 9 66 10 80 11 67 12 72 13
REMARK SMILES IDX 68 14 70 15 69 16 71 17 82 18 83 19 84 20 85 21 73 22 74 23
REMARK SMILES IDX 75 24 79 25 76 26 78 27 77 28 6 29 7 30 8 31 9 33 10 34
REMARK SMILES IDX 11 35 63 36 12 37 62 38 13 39 14 40 15 41 56 42 16 43 61 44
REMARK SMILES IDX 55 45 57 46 17 47 60 48 54 49 53 50 18 52 44 53 27 54 43 55
REMARK SMILES IDX 28 56 31 57 42 58 58 59 29 60 30 61 41 63 59 64 32 65 19 66
REMARK SMILES IDX 20 67 25 68 21 69 22 70 24 71 26 72 23 73 45 74 46 75 51 76
REMARK SMILES IDX 47 77 48 78 50 79 52 80 49 81 33 82 34 83 39 84 35 85 36 86
REMARK SMILES IDX 38 87 40 88 37 89
REMARK H PARENT 3 6 7 32 57 51 31 62
REMARK Flexibility Score: inf
ROOT
ATOM      1  C   UNL A   1      37.847  19.959  24.952  1.00  0.00     0.042 C 
ENDROOT
BRANCH   1   2
ATOM      2  C   UNL A   1      36.789  21.046  25.013  1.00  0.00     0.118 C 
BRANCH   2   3
ATOM      3  N   UNL A   1      36.109  21.157  26.291  1.00  0.00    -0.352 N 
ATOM      4  O   UNL A   1      34.442  21.580  27.734  1.00  0.00    -0.270 OA
ATOM      5  C   UNL A   1      34.802  21.439  26.568  1.00  0.00     0.251 C 
ATOM      6  H   UNL A   1      36.679  21.007  27.079  1.00  0.00     0.163 HD
BRANCH   5   7
ATOM      7  C   UNL A   1      33.808  21.617  25.490  1.00  0.00     0.067 C 
ATOM      8  C   UNL A   1      33.694  22.759  24.801  1.00  0.00     0.029 C 
ATOM      9  C   UNL A   1      32.700  20.629  25.353  1.00  0.00     0.314 C 
ATOM     10  C   UNL A   1      32.475  23.485  25.233  1.00  0.00     0.061 A 
ATOM     11  O   UNL A   1      31.394  21.283  25.528  1.00  0.00    -0.475 OA
ATOM     12  C   UNL A   1      31.378  22.665  25.610  1.00  0.00     0.131 A 
ATOM     13  C   UNL A   1      32.470  24.877  25.501  1.00  0.00     0.156 A 
ATOM     14  C   UNL A   1      30.279  23.223  26.255  1.00  0.00     0.049 A 
ATOM     15  C   UNL A   1      31.365  25.401  26.196  1.00  0.00     0.084 A 
ATOM     16  C   UNL A   1      30.287  24.584  26.570  1.00  0.00     0.028 A 
ATOM     17  Cl  UNL A   1      31.331  27.051  26.716  1.00  0.00    -0.080 Cl
BRANCH   9  18
ATOM     18  C   UNL A   1      32.764  19.883  24.005  1.00  0.00     0.429 C 
ATOM     19  F   UNL A   1      32.482  20.683  22.949  1.00  0.00    -0.167 F 
ATOM     20  F   UNL A   1      33.997  19.366  23.789  1.00  0.00    -0.167 F 
ATOM     21  F   UNL A   1      31.881  18.855  23.956  1.00  0.00    -0.167 F 
ENDBRANCH   9  18
BRANCH  13  22
ATOM     22  O   UNL A   1      33.512  25.776  25.272  1.00  0.00    -0.455 OA
BRANCH  22  23
ATOM     23  C   UNL A   1      33.459  26.586  24.164  1.00  0.00     0.127 A 
ATOM     24  C   UNL A   1      33.685  27.957  24.320  1.00  0.00     0.047 A 
ATOM     25  C   UNL A   1      33.295  26.026  22.895  1.00  0.00     0.047 A 
ATOM     26  C   UNL A   1      33.913  28.744  23.189  1.00  0.00     0.004 A 
ATOM     27  C   UNL A   1      33.517  26.820  21.769  1.00  0.00     0.004 A 
ATOM     28  C   UNL A   1      33.856  28.168  21.917  1.00  0.00     0.000 A 
ENDBRANCH  22  23
ENDBRANCH  13  22
ENDBRANCH   5   7
ENDBRANCH   2   3
ENDBRANCH   1   2
BRANCH   1  29
ATOM     29  C   UNL A   1      39.095  20.291  25.752  1.00  0.00     0.118 C 
BRANCH  29  30
ATOM     30  N   UNL A   1      40.079  19.208  25.809  1.00  0.00    -0.352 N 
ATOM     31  C   UNL A   1      41.425  19.199  26.104  1.00  0.00     0.251 C 
ATOM     32  H   UNL A   1      39.709  18.320  25.599  1.00  0.00     0.163 HD
ATOM     33  O   UNL A   1      42.049  18.141  26.037  1.00  0.00    -0.269 OA
BRANCH  31  34
ATOM     34  C   UNL A   1      42.151  20.447  26.431  1.00  0.00     0.039 A 
ATOM     35  C   UNL A   1      42.768  21.162  25.397  1.00  0.00     0.014 A 
ATOM     36  C   UNL A   1      42.202  20.941  27.730  1.00  0.00     0.014 A 
ATOM     37  C   UNL A   1      43.293  22.432  25.646  1.00  0.00     0.010 A 
ATOM     38  C   UNL A   1      42.601  22.254  27.951  1.00  0.00     0.010 A 
ATOM     39  C   UNL A   1      43.132  23.025  26.908  1.00  0.00    -0.014 A 
BRANCH  39  40
ATOM     40  C   UNL A   1      43.462  24.453  27.160  1.00  0.00     0.031 A 
ATOM     41  C   UNL A   1      44.890  24.924  27.088  1.00  0.00     0.074 A 
ATOM     42  C   UNL A   1      42.496  25.296  27.578  1.00  0.00     0.049 A 
ATOM     43  N   UNL A   1      45.400  26.077  27.439  1.00  0.00    -0.248 NA
ATOM     44  C   UNL A   1      45.882  23.955  26.596  1.00  0.00     0.031 C 
ATOM     45  C   UNL A   1      41.082  24.949  27.752  1.00  0.00     0.029 A 
ATOM     46  N   UNL A   1      42.557  26.615  27.954  1.00  0.00    -0.354 N 
ATOM     47  C   UNL A   1      46.770  25.960  27.242  1.00  0.00     0.074 A 
ATOM     48  C   UNL A   1      47.018  24.606  26.794  1.00  0.00     0.031 C 
ATOM     49  C   UNL A   1      40.409  26.032  28.173  1.00  0.00     0.029 A 
ATOM     50  C   UNL A   1      41.347  27.133  28.351  1.00  0.00     0.049 A 
ATOM     51  H   UNL A   1      43.389  27.140  27.941  1.00  0.00     0.167 HD
ATOM     52  C   UNL A   1      47.732  26.901  27.395  1.00  0.00     0.037 A 
ATOM     53  C   UNL A   1      41.029  28.353  28.824  1.00  0.00     0.037 A 
ATOM     54  C   UNL A   1      47.475  28.257  27.799  1.00  0.00     0.049 A 
ATOM     55  C   UNL A   1      42.113  29.381  28.981  1.00  0.00     0.074 A 
ATOM     56  C   UNL A   1      48.368  29.309  27.903  1.00  0.00     0.029 A 
ATOM     57  N   UNL A   1      46.231  28.749  28.165  1.00  0.00    -0.354 N 
ATOM     58  N   UNL A   1      43.395  29.275  28.725  1.00  0.00    -0.248 NA
ATOM     59  C   UNL A   1      41.710  30.696  29.497  1.00  0.00     0.031 C 
ATOM     60  C   UNL A   1      47.671  30.427  28.374  1.00  0.00     0.029 A 
ATOM     61  C   UNL A   1      46.337  30.083  28.521  1.00  0.00     0.049 A 
ATOM     62  H   UNL A   1      45.396  28.227  28.171  1.00  0.00     0.167 HD
ATOM     63  C   UNL A   1      43.947  30.512  29.031  1.00  0.00     0.074 A 
ATOM     64  C   UNL A   1      42.858  31.359  29.470  1.00  0.00     0.031 C 
ATOM     65  C   UNL A   1      45.241  30.909  28.959  1.00  0.00     0.037 A 
BRANCH  52  66
ATOM     66  C   UNL A   1      49.149  26.495  27.112  1.00  0.00     0.057 A 
ATOM     67  C   UNL A   1      49.977  25.953  28.106  1.00  0.00     0.134 A 
ATOM     68  C   UNL A   1      49.686  26.617  25.824  1.00  0.00     0.134 A 
ATOM     69  F   UNL A   1      49.528  25.820  29.364  1.00  0.00    -0.206 F 
ATOM     70  C   UNL A   1      51.293  25.578  27.837  1.00  0.00     0.040 A 
ATOM     71  C   UNL A   1      50.993  26.218  25.536  1.00  0.00     0.040 A 
ATOM     72  F   UNL A   1      48.949  27.121  24.823  1.00  0.00    -0.206 F 
ATOM     73  C   UNL A   1      51.803  25.704  26.546  1.00  0.00     0.006 A 
ENDBRANCH  52  66
BRANCH  53  74
ATOM     74  C   UNL A   1      39.622  28.676  29.175  1.00  0.00     0.057 A 
ATOM     75  C   UNL A   1      38.752  29.222  28.225  1.00  0.00     0.134 A 
ATOM     76  C   UNL A   1      39.114  28.451  30.461  1.00  0.00     0.134 A 
ATOM     77  F   UNL A   1      39.185  29.477  26.983  1.00  0.00    -0.206 F 
ATOM     78  C   UNL A   1      37.433  29.553  28.544  1.00  0.00     0.040 A 
ATOM     79  C   UNL A   1      37.791  28.753  30.787  1.00  0.00     0.040 A 
ATOM     80  F   UNL A   1      39.893  27.921  31.415  1.00  0.00    -0.206 F 
ATOM     81  C   UNL A   1      36.948  29.313  29.828  1.00  0.00     0.006 A 
ENDBRANCH  53  74
BRANCH  65  82
ATOM     82  C   UNL A   1      45.543  32.325  29.351  1.00  0.00     0.057 A 
ATOM     83  C   UNL A   1      45.457  33.377  28.431  1.00  0.00     0.134 A 
ATOM     84  C   UNL A   1      45.888  32.644  30.670  1.00  0.00     0.134 A 
ATOM     85  F   UNL A   1      45.146  33.135  27.148  1.00  0.00    -0.206 F 
ATOM     86  C   UNL A   1      45.721  34.695  28.806  1.00  0.00     0.040 A 
ATOM     87  C   UNL A   1      46.129  33.960  31.063  1.00  0.00     0.040 A 
ATOM     88  F   UNL A   1      45.982  31.682  31.602  1.00  0.00    -0.206 F 
ATOM     89  C   UNL A   1      46.052  34.990  30.127  1.00  0.00     0.006 A 
ENDBRANCH  65  82
ENDBRANCH  39  40
ENDBRANCH  31  34
ENDBRANCH  29  30
ENDBRANCH   1  29
TORSDOF 13
ENDMDL
MODEL 2
REMARK VINA RESULT:     -12.8      4.413      8.084
REMARK SMILES O=C(NCCCNC(=O)c1ccc(-c2c3nc(c(-c4c(F)cccc4F)c4ccc([nH]4)c(-c4c(F)cccc4F)c4nc(c(-c5c(F)cccc5F)c5ccc2[nH]5)C=C4)C=C3)cc1)C1=Cc2c(ccc(Cl)c2Oc2ccccc2)O[C@H]1C(F)(F)F
REMARK SMILES IDX 5 1 4 2 3 3 1 4 2 5 64 7 65 8 81 9 66 10 80 11 67 12 72 13
REMARK SMILES IDX 68 14 70 15 69 16 71 17 82 18 83 19 84 20 85 21 73 22 74 23
REMARK SMILES IDX 75 24 79 25 76 26 78 27 77 28 6 29 7 30 8 31 9 33 10 34
REMARK SMILES IDX 11 35 63 36 12 37 62 38 13 39 14 40 15 41 56 42 16 43 61 44
REMARK SMILES IDX 55 45 57 46 17 47 60 48 54 49 53 50 18 52 44 53 27 54 43 55
REMARK SMILES IDX 28 56 31 57 42 58 58 59 29 60 30 61 41 63 59 64 32 65 19 66
REMARK SMILES IDX 20 67 25 68 21 69 22 70 24 71 26 72 23 73 45 74 46 75 51 76
REMARK SMILES IDX 47 77 48 78 50 79 52 80 49 81 33 82 34 83 39 84 35 85 36 86
REMARK SMILES IDX 38 87 40 88 37 89
REMARK H PARENT 3 6 7 32 57 51 31 62
REMARK Flexibility Score: inf
ROOT
ATOM      1  C   UNL A   1      31.765  28.245  26.868  1.00  0.00     0.042 C 
ENDROOT
BRANCH   1   2
ATOM      2  C   UNL A   1      31.525  26.971  26.079  1.00  0.00     0.118 C 
BRANCH   2   3
ATOM      3  N   UNL A   1      31.555  25.755  26.872  1.00  0.00    -0.352 N 
ATOM      4  O   UNL A   1      31.584  23.552  27.309  1.00  0.00    -0.270 OA
ATOM      5  C   UNL A   1      31.674  24.452  26.477  1.00  0.00     0.251 C 
ATOM      6  H   UNL A   1      31.478  25.889  27.844  1.00  0.00     0.163 HD
BRANCH   5   7
ATOM      7  C   UNL A   1      31.872  24.093  25.058  1.00  0.00     0.067 C 
ATOM      8  C   UNL A   1      32.130  22.841  24.665  1.00  0.00     0.029 C 
ATOM      9  C   UNL A   1      32.090  25.177  24.058  1.00  0.00     0.314 C 
ATOM     10  C   UNL A   1      33.557  22.723  24.275  1.00  0.00     0.061 A 
ATOM     11  O   UNL A   1      33.404  25.034  23.414  1.00  0.00    -0.475 OA
ATOM     12  C   UNL A   1      34.125  23.883  23.682  1.00  0.00     0.131 A 
ATOM     13  C   UNL A   1      34.374  21.641  24.687  1.00  0.00     0.156 A 
ATOM     14  C   UNL A   1      35.501  23.970  23.500  1.00  0.00     0.049 A 
ATOM     15  C   UNL A   1      35.765  21.782  24.533  1.00  0.00     0.084 A 
ATOM     16  C   UNL A   1      36.320  22.932  23.951  1.00  0.00     0.028 A 
ATOM     17  Cl  UNL A   1      36.862  20.594  25.150  1.00  0.00    -0.080 Cl
BRANCH   9  18
ATOM     18  C   UNL A   1      30.963  25.219  23.006  1.00  0.00     0.429 C 
ATOM     19  F   UNL A   1      30.143  26.285  23.158  1.00  0.00    -0.167 F 
ATOM     20  F   UNL A   1      31.466  25.285  21.751  1.00  0.00    -0.167 F 
ATOM     21  F   UNL A   1      30.177  24.116  23.068  1.00  0.00    -0.167 F 
ENDBRANCH   9  18
BRANCH  13  22
ATOM     22  O   UNL A   1      33.962  20.492  25.364  1.00  0.00    -0.455 OA
BRANCH  22  23
ATOM     23  C   UNL A   1      33.660  19.367  24.638  1.00  0.00     0.127 A 
ATOM     24  C   UNL A   1      32.519  19.373  23.828  1.00  0.00     0.047 A 
ATOM     25  C   UNL A   1      34.541  18.284  24.626  1.00  0.00     0.047 A 
ATOM     26  C   UNL A   1      32.350  18.361  22.881  1.00  0.00     0.004 A 
ATOM     27  C   UNL A   1      34.361  17.272  23.681  1.00  0.00     0.004 A 
ATOM     28  C   UNL A   1      33.286  17.328  22.790  1.00  0.00     0.000 A 
ENDBRANCH  22  23
ENDBRANCH  13  22
ENDBRANCH   5   7
ENDBRANCH   2   3
ENDBRANCH   1   2
BRANCH   1  29
ATOM     29  C   UNL A   1      32.483  29.320  26.067  1.00  0.00     0.118 C 
BRANCH  29  30
ATOM     30  N   UNL A   1      32.261  30.682  26.556  1.00  0.00    -0.352 N 
ATOM     31  C   UNL A   1      33.069  31.556  27.250  1.00  0.00     0.251 C 
ATOM     32  H   UNL A   1      31.368  31.042  26.348  1.00  0.00     0.163 HD
ATOM     33  O   UNL A   1      32.621  32.650  27.589  1.00  0.00    -0.269 OA
BRANCH  31  34
ATOM     34  C   UNL A   1      34.440  31.179  27.659  1.00  0.00     0.039 A 
ATOM     35  C   UNL A   1      35.401  32.186  27.816  1.00  0.00     0.014 A 
ATOM     36  C   UNL A   1      34.785  29.858  27.926  1.00  0.00     0.014 A 
ATOM     37  C   UNL A   1      36.642  31.883  28.381  1.00  0.00     0.010 A 
ATOM     38  C   UNL A   1      35.962  29.578  28.609  1.00  0.00     0.010 A 
ATOM     39  C   UNL A   1      36.897  30.591  28.865  1.00  0.00    -0.014 A 
BRANCH  39  40
ATOM     40  C   UNL A   1      38.102  30.273  29.678  1.00  0.00     0.031 A 
ATOM     41  C   UNL A   1      39.142  29.322  29.151  1.00  0.00     0.074 A 
ATOM     42  C   UNL A   1      38.195  30.740  30.940  1.00  0.00     0.049 A 
ATOM     43  N   UNL A   1      40.164  28.788  29.768  1.00  0.00    -0.248 NA
ATOM     44  C   UNL A   1      38.986  28.879  27.756  1.00  0.00     0.031 C 
ATOM     45  C   UNL A   1      37.222  31.619  31.596  1.00  0.00     0.029 A 
ATOM     46  N   UNL A   1      39.144  30.524  31.908  1.00  0.00    -0.354 N 
ATOM     47  C   UNL A   1      40.752  27.926  28.851  1.00  0.00     0.074 A 
ATOM     48  C   UNL A   1      39.939  27.965  27.654  1.00  0.00     0.031 C 
ATOM     49  C   UNL A   1      37.638  31.888  32.843  1.00  0.00     0.029 A 
ATOM     50  C   UNL A   1      38.874  31.160  33.097  1.00  0.00     0.049 A 
ATOM     51  H   UNL A   1      39.942  29.967  31.765  1.00  0.00     0.167 HD
ATOM     52  C   UNL A   1      41.879  27.188  28.983  1.00  0.00     0.037 A 
ATOM     53  C   UNL A   1      39.538  31.145  34.269  1.00  0.00     0.037 A 
ATOM     54  C   UNL A   1      42.707  27.186  30.160  1.00  0.00     0.049 A 
ATOM     55  C   UNL A   1      40.789  30.322  34.389  1.00  0.00     0.074 A 
ATOM     56  C   UNL A   1      43.913  26.538  30.363  1.00  0.00     0.029 A 
ATOM     57  N   UNL A   1      42.414  27.866  31.332  1.00  0.00    -0.354 N 
ATOM     58  N   UNL A   1      41.370  29.565  33.489  1.00  0.00    -0.248 NA
ATOM     59  C   UNL A   1      41.476  30.346  35.688  1.00  0.00     0.031 C 
ATOM     60  C   UNL A   1      44.329  26.792  31.675  1.00  0.00     0.029 A 
ATOM     61  C   UNL A   1      43.403  27.633  32.273  1.00  0.00     0.049 A 
ATOM     62  H   UNL A   1      41.620  28.430  31.474  1.00  0.00     0.167 HD
ATOM     63  C   UNL A   1      42.496  29.037  34.105  1.00  0.00     0.074 A 
ATOM     64  C   UNL A   1      42.530  29.578  35.448  1.00  0.00     0.031 C 
ATOM     65  C   UNL A   1      43.418  28.178  33.606  1.00  0.00     0.037 A 
BRANCH  52  66
ATOM     66  C   UNL A   1      42.287  26.331  27.819  1.00  0.00     0.057 A 
ATOM     67  C   UNL A   1      43.098  26.822  26.786  1.00  0.00     0.134 A 
ATOM     68  C   UNL A   1      41.891  24.989  27.744  1.00  0.00     0.134 A 
ATOM     69  F   UNL A   1      43.502  28.102  26.791  1.00  0.00    -0.206 F 
ATOM     70  C   UNL A   1      43.472  26.021  25.708  1.00  0.00     0.040 A 
ATOM     71  C   UNL A   1      42.284  24.170  26.685  1.00  0.00     0.040 A 
ATOM     72  F   UNL A   1      41.120  24.452  28.701  1.00  0.00    -0.206 F 
ATOM     73  C   UNL A   1      43.071  24.687  25.658  1.00  0.00     0.006 A 
ENDBRANCH  52  66
BRANCH  53  74
ATOM     74  C   UNL A   1      39.042  31.942  35.420  1.00  0.00     0.057 A 
ATOM     75  C   UNL A   1      39.362  33.299  35.546  1.00  0.00     0.134 A 
ATOM     76  C   UNL A   1      38.243  31.373  36.419  1.00  0.00     0.134 A 
ATOM     77  F   UNL A   1      40.139  33.895  34.631  1.00  0.00    -0.206 F 
ATOM     78  C   UNL A   1      38.923  34.057  36.634  1.00  0.00     0.040 A 
ATOM     79  C   UNL A   1      37.776  32.125  37.499  1.00  0.00     0.040 A 
ATOM     80  F   UNL A   1      37.892  30.080  36.353  1.00  0.00    -0.206 F 
ATOM     81  C   UNL A   1      38.122  33.470  37.611  1.00  0.00     0.006 A 
ENDBRANCH  53  74
BRANCH  65  82
ATOM     82  C   UNL A   1      44.546  27.783  34.512  1.00  0.00     0.057 A 
ATOM     83  C   UNL A   1      44.483  26.630  35.305  1.00  0.00     0.134 A 
ATOM     84  C   UNL A   1      45.721  28.543  34.564  1.00  0.00     0.134 A 
ATOM     85  F   UNL A   1      43.378  25.869  35.311  1.00  0.00    -0.206 F 
ATOM     86  C   UNL A   1      45.543  26.258  36.133  1.00  0.00     0.040 A 
ATOM     87  C   UNL A   1      46.797  28.166  35.367  1.00  0.00     0.040 A 
ATOM     88  F   UNL A   1      45.847  29.655  33.824  1.00  0.00    -0.206 F 
ATOM     89  C   UNL A   1      46.707  27.023  36.160  1.00  0.00     0.006 A 
ENDBRANCH  65  82
ENDBRANCH  39  40
ENDBRANCH  31  34
ENDBRANCH  29  30
ENDBRANCH   1  29
TORSDOF 13
ENDMDL
MODEL 3
REMARK VINA RESULT:     -12.7      0.580      5.981
REMARK SMILES O=C(NCCCNC(=O)c1ccc(-c2c3nc(c(-c4c(F)cccc4F)c4ccc([nH]4)c(-c4c(F)cccc4F)c4nc(c(-c5c(F)cccc5F)c5ccc2[nH]5)C=C4)C=C3)cc1)C1=Cc2c(ccc(Cl)c2Oc2ccccc2)O[C@H]1C(F)(F)F
REMARK SMILES IDX 5 1 4 2 3 3 1 4 2 5 64 7 65 8 81 9 66 10 80 11 67 12 72 13
REMARK SMILES IDX 68 14 70 15 69 16 71 17 82 18 83 19 84 20 85 21 73 22 74 23
REMARK SMILES IDX 75 24 79 25 76 26 78 27 77 28 6 29 7 30 8 31 9 33 10 34
REMARK SMILES IDX 11 35 63 36 12 37 62 38 13 39 14 40 15 41 56 42 16 43 61 44
REMARK SMILES IDX 55 45 57 46 17 47 60 48 54 49 53 50 18 52 44 53 27 54 43 55
REMARK SMILES IDX 28 56 31 57 42 58 58 59 29 60 30 61 41 63 59 64 32 65 19 66
REMARK SMILES IDX 20 67 25 68 21 69 22 70 24 71 26 72 23 73 45 74 46 75 51 76
REMARK SMILES IDX 47 77 48 78 50 79 52 80 49 81 33 82 34 83 39 84 35 85 36 86
REMARK SMILES IDX 38 87 40 88 37 89
REMARK H PARENT 3 6 7 32 57 51 31 62
REMARK Flexibility Score: inf
ROOT
ATOM      1  C   UNL A   1      37.734  20.685  25.002  1.00  0.00     0.042 C 
ENDROOT
BRANCH   1   2
ATOM      2  C   UNL A   1      36.690  21.752  25.278  1.00  0.00     0.118 C 
BRANCH   2   3
ATOM      3  N   UNL A   1      35.940  21.561  26.506  1.00  0.00    -0.352 N 
ATOM      4  O   UNL A   1      34.158  21.496  27.871  1.00  0.00    -0.270 OA
ATOM      5  C   UNL A   1      34.592  21.591  26.725  1.00  0.00     0.251 C 
ATOM      6  H   UNL A   1      36.487  21.383  27.305  1.00  0.00     0.163 HD
BRANCH   5   7
ATOM      7  C   UNL A   1      33.635  21.775  25.615  1.00  0.00     0.067 C 
ATOM      8  C   UNL A   1      33.560  22.913  24.915  1.00  0.00     0.029 C 
ATOM      9  C   UNL A   1      32.519  20.801  25.449  1.00  0.00     0.314 C 
ATOM     10  C   UNL A   1      32.337  23.658  25.303  1.00  0.00     0.061 A 
ATOM     11  O   UNL A   1      31.218  21.473  25.578  1.00  0.00    -0.475 OA
ATOM     12  C   UNL A   1      31.217  22.856  25.650  1.00  0.00     0.131 A 
ATOM     13  C   UNL A   1      32.343  25.052  25.561  1.00  0.00     0.156 A 
ATOM     14  C   UNL A   1      30.106  23.434  26.255  1.00  0.00     0.049 A 
ATOM     15  C   UNL A   1      31.223  25.596  26.217  1.00  0.00     0.084 A 
ATOM     16  C   UNL A   1      30.122  24.796  26.561  1.00  0.00     0.028 A 
ATOM     17  Cl  UNL A   1      31.195  27.250  26.724  1.00  0.00    -0.080 Cl
BRANCH   9  18
ATOM     18  C   UNL A   1      32.617  20.044  24.108  1.00  0.00     0.429 C 
ATOM     19  F   UNL A   1      31.941  18.871  24.118  1.00  0.00    -0.167 F 
ATOM     20  F   UNL A   1      32.111  20.781  23.092  1.00  0.00    -0.167 F 
ATOM     21  F   UNL A   1      33.901  19.747  23.791  1.00  0.00    -0.167 F 
ENDBRANCH   9  18
BRANCH  13  22
ATOM     22  O   UNL A   1      33.403  25.936  25.360  1.00  0.00    -0.455 OA
BRANCH  22  23
ATOM     23  C   UNL A   1      33.411  26.718  24.231  1.00  0.00     0.127 A 
ATOM     24  C   UNL A   1      33.723  28.076  24.354  1.00  0.00     0.047 A 
ATOM     25  C   UNL A   1      33.223  26.137  22.975  1.00  0.00     0.047 A 
ATOM     26  C   UNL A   1      34.009  28.817  23.205  1.00  0.00     0.004 A 
ATOM     27  C   UNL A   1      33.503  26.886  21.831  1.00  0.00     0.004 A 
ATOM     28  C   UNL A   1      33.927  28.213  21.949  1.00  0.00     0.000 A 
ENDBRANCH  22  23
ENDBRANCH  13  22
ENDBRANCH   5   7
ENDBRANCH   2   3
ENDBRANCH   1   2
BRANCH   1  29
ATOM     29  C   UNL A   1      39.014  20.879  25.797  1.00  0.00     0.118 C 
BRANCH  29  30
ATOM     30  N   UNL A   1      39.932  19.740  25.746  1.00  0.00    -0.352 N 
ATOM     31  C   UNL A   1      41.265  19.614  26.070  1.00  0.00     0.251 C 
ATOM     32  H   UNL A   1      39.519  18.907  25.420  1.00  0.00     0.163 HD
ATOM     33  O   UNL A   1      41.830  18.536  25.891  1.00  0.00    -0.269 OA
BRANCH  31  34
ATOM     34  C   UNL A   1      42.051  20.767  26.565  1.00  0.00     0.039 A 
ATOM     35  C   UNL A   1      42.647  21.628  25.636  1.00  0.00     0.014 A 
ATOM     36  C   UNL A   1      42.177  21.033  27.924  1.00  0.00     0.014 A 
ATOM     37  C   UNL A   1      43.230  22.823  26.067  1.00  0.00     0.010 A 
ATOM     38  C   UNL A   1      42.633  22.278  28.342  1.00  0.00     0.010 A 
ATOM     39  C   UNL A   1      43.146  23.198  27.417  1.00  0.00    -0.014 A 
BRANCH  39  40
ATOM     40  C   UNL A   1      43.539  24.553  27.888  1.00  0.00     0.031 A 
ATOM     41  C   UNL A   1      42.485  25.579  28.209  1.00  0.00     0.074 A 
ATOM     42  C   UNL A   1      44.843  24.900  27.904  1.00  0.00     0.049 A 
ATOM     43  N   UNL A   1      42.622  26.854  28.465  1.00  0.00    -0.248 NA
ATOM     44  C   UNL A   1      41.088  25.116  28.198  1.00  0.00     0.031 C 
ATOM     45  C   UNL A   1      45.962  24.020  27.553  1.00  0.00     0.029 A 
ATOM     46  N   UNL A   1      45.449  26.094  28.207  1.00  0.00    -0.354 N 
ATOM     47  C   UNL A   1      41.333  27.351  28.613  1.00  0.00     0.074 A 
ATOM     48  C   UNL A   1      40.426  26.251  28.362  1.00  0.00     0.031 C 
ATOM     49  C   UNL A   1      47.114  24.694  27.688  1.00  0.00     0.029 A 
ATOM     50  C   UNL A   1      46.818  26.065  28.080  1.00  0.00     0.049 A 
ATOM     51  H   UNL A   1      44.952  26.894  28.490  1.00  0.00     0.167 HD
ATOM     52  C   UNL A   1      40.941  28.601  28.952  1.00  0.00     0.037 A 
ATOM     53  C   UNL A   1      47.733  27.040  28.243  1.00  0.00     0.037 A 
ATOM     54  C   UNL A   1      41.848  29.680  29.241  1.00  0.00     0.049 A 
ATOM     55  C   UNL A   1      47.273  28.419  28.623  1.00  0.00     0.074 A 
ATOM     56  C   UNL A   1      41.553  30.961  29.675  1.00  0.00     0.029 A 
ATOM     57  N   UNL A   1      43.227  29.602  29.129  1.00  0.00    -0.354 N 
ATOM     58  N   UNL A   1      46.053  28.855  28.826  1.00  0.00    -0.248 NA
ATOM     59  C   UNL A   1      48.314  29.442  28.793  1.00  0.00     0.031 C 
ATOM     60  C   UNL A   1      42.753  31.672  29.783  1.00  0.00     0.029 A 
ATOM     61  C   UNL A   1      43.798  30.821  29.459  1.00  0.00     0.049 A 
ATOM     62  H   UNL A   1      43.728  28.800  28.854  1.00  0.00     0.167 HD
ATOM     63  C   UNL A   1      46.180  30.196  29.163  1.00  0.00     0.074 A 
ATOM     64  C   UNL A   1      47.597  30.495  29.160  1.00  0.00     0.031 C 
ATOM     65  C   UNL A   1      45.211  31.100  29.446  1.00  0.00     0.037 A 
BRANCH  52  66
ATOM     66  C   UNL A   1      39.465  28.865  29.037  1.00  0.00     0.057 A 
ATOM     67  C   UNL A   1      38.752  28.708  30.234  1.00  0.00     0.134 A 
ATOM     68  C   UNL A   1      38.751  29.311  27.917  1.00  0.00     0.134 A 
ATOM     69  F   UNL A   1      39.374  28.271  31.341  1.00  0.00    -0.206 F 
ATOM     70  C   UNL A   1      37.381  28.954  30.306  1.00  0.00     0.040 A 
ATOM     71  C   UNL A   1      37.385  29.589  27.985  1.00  0.00     0.040 A 
ATOM     72  F   UNL A   1      39.370  29.490  26.740  1.00  0.00    -0.206 F 
ATOM     73  C   UNL A   1      36.694  29.403  29.180  1.00  0.00     0.006 A 
ENDBRANCH  52  66
BRANCH  53  74
ATOM     74  C   UNL A   1      49.178  26.748  28.059  1.00  0.00     0.057 A 
ATOM     75  C   UNL A   1      49.777  26.853  26.798  1.00  0.00     0.134 A 
ATOM     76  C   UNL A   1      49.992  26.356  29.129  1.00  0.00     0.134 A 
ATOM     77  F   UNL A   1      49.045  27.206  25.732  1.00  0.00    -0.206 F 
ATOM     78  C   UNL A   1      51.128  26.560  26.602  1.00  0.00     0.040 A 
ATOM     79  C   UNL A   1      51.350  26.084  28.952  1.00  0.00     0.040 A 
ATOM     80  F   UNL A   1      49.482  26.245  30.364  1.00  0.00    -0.206 F 
ATOM     81  C   UNL A   1      51.920  26.179  27.684  1.00  0.00     0.006 A 
ENDBRANCH  53  74
BRANCH  65  82
ATOM     82  C   UNL A   1      45.653  32.491  29.788  1.00  0.00     0.057 A 
ATOM     83  C   UNL A   1      45.774  33.486  28.809  1.00  0.00     0.134 A 
ATOM     84  C   UNL A   1      45.924  32.851  31.114  1.00  0.00     0.134 A 
ATOM     85  F   UNL A   1      45.543  33.201  27.518  1.00  0.00    -0.206 F 
ATOM     86  C   UNL A   1      46.168  34.784  29.135  1.00  0.00     0.040 A 
ATOM     87  C   UNL A   1      46.292  34.152  31.456  1.00  0.00     0.040 A 
ATOM     88  F   UNL A   1      45.819  31.946  32.100  1.00  0.00    -0.206 F 
ATOM     89  C   UNL A   1      46.422  35.122  30.463  1.00  0.00     0.006 A 
ENDBRANCH  65  82
ENDBRANCH  39  40
ENDBRANCH  31  34
ENDBRANCH  29  30
ENDBRANCH   1  29
TORSDOF 13
ENDMDL
