MODEL 1
REMARK VINA RESULT:     -12.8      0.000      0.000
REMARK SMILES O=C(CCc1cn(-c2ccc(Br)cc2)nc1-c1ccccc1)NCCCNC(=O)c1ccc(-c2c3nc(c(-c4c(F)cccc4F)c4ccc([nH]4)c(-c4c(F)cccc4F)c4nc(c(-c5c(F)cccc5F)c5ccc2[nH]5)C=C4)C=C3)cc1
REMARK SMILES IDX 24 1 23 2 1 3 2 4 3 6 4 7 5 8 6 9 16 10 7 11 15 12 17 13
REMARK SMILES IDX 18 14 22 15 19 16 21 17 20 18 8 19 9 20 14 21 10 22 13 23
REMARK SMILES IDX 11 24 12 25 25 26 26 27 27 28 28 29 29 31 30 32 31 33 83 34
REMARK SMILES IDX 32 35 82 36 33 37 34 38 35 39 76 40 36 41 81 42 75 43 77 44
REMARK SMILES IDX 37 45 80 46 74 47 73 48 38 50 64 51 47 52 63 53 48 54 51 55
REMARK SMILES IDX 62 56 78 57 49 58 50 59 61 61 79 62 52 63 39 64 40 65 45 66
REMARK SMILES IDX 41 67 42 68 44 69 46 70 43 71 65 72 66 73 71 74 67 75 68 76
REMARK SMILES IDX 70 77 72 78 69 79 53 80 54 81 59 82 55 83 56 84 58 85 60 86
REMARK SMILES IDX 57 87
REMARK H PARENT 23 5 27 30 77 49 51 60
REMARK Flexibility Score: inf
ROOT
ATOM      1  C   UNL A   1      36.381  19.011  24.962  1.00  0.00     0.117 C 
ENDROOT
BRANCH   1   2
ATOM      2  N   UNL A   1      35.292  19.978  25.045  1.00  0.00    -0.356 N 
ATOM      3  O   UNL A   1      33.622  18.700  24.126  1.00  0.00    -0.275 OA
ATOM      4  C   UNL A   1      33.990  19.739  24.664  1.00  0.00     0.220 C 
ATOM      5  H   UNL A   1      35.505  20.872  25.402  1.00  0.00     0.163 HD
BRANCH   4   6
ATOM      6  C   UNL A   1      33.023  20.891  24.933  1.00  0.00     0.105 C 
BRANCH   6   7
ATOM      7  C   UNL A   1      32.309  21.425  23.680  1.00  0.00     0.049 C 
BRANCH   7   8
ATOM      8  C   UNL A   1      32.182  22.910  23.682  1.00  0.00    -0.001 A 
ATOM      9  C   UNL A   1      31.019  23.660  23.589  1.00  0.00     0.119 A 
ATOM     10  C   UNL A   1      33.200  23.893  23.754  1.00  0.00     0.096 A 
ATOM     11  N   UNL A   1      31.418  24.960  23.387  1.00  0.00    -0.240 N 
ATOM     12  N   UNL A   1      32.741  25.066  23.325  1.00  0.00    -0.168 NA
BRANCH  10  13
ATOM     13  C   UNL A   1      34.583  23.865  24.163  1.00  0.00     0.002 A 
ATOM     14  C   UNL A   1      35.515  23.330  23.254  1.00  0.00     0.010 A 
ATOM     15  C   UNL A   1      34.954  24.132  25.476  1.00  0.00     0.010 A 
ATOM     16  C   UNL A   1      36.810  23.039  23.665  1.00  0.00     0.001 A 
ATOM     17  C   UNL A   1      36.254  23.838  25.885  1.00  0.00     0.001 A 
ATOM     18  C   UNL A   1      37.175  23.287  24.986  1.00  0.00     0.000 A 
ENDBRANCH  10  13
BRANCH  11  19
ATOM     19  C   UNL A   1      30.666  26.135  23.322  1.00  0.00     0.065 A 
ATOM     20  C   UNL A   1      31.155  27.206  22.603  1.00  0.00     0.029 A 
ATOM     21  C   UNL A   1      29.364  26.157  23.864  1.00  0.00     0.029 A 
ATOM     22  C   UNL A   1      30.274  28.242  22.349  1.00  0.00     0.018 A 
ATOM     23  C   UNL A   1      28.563  27.287  23.729  1.00  0.00     0.018 A 
ATOM     24  C   UNL A   1      29.023  28.334  22.956  1.00  0.00     0.018 A 
ATOM     25  Br  UNL A   1      27.960  29.878  22.717  1.00  0.00    -0.051 Br
ENDBRANCH  11  19
ENDBRANCH   7   8
ENDBRANCH   6   7
ENDBRANCH   4   6
ENDBRANCH   1   2
BRANCH   1  26
ATOM     26  C   UNL A   1      37.722  19.643  24.554  1.00  0.00     0.042 C 
BRANCH  26  27
ATOM     27  C   UNL A   1      38.646  19.943  25.734  1.00  0.00     0.118 C 
BRANCH  27  28
ATOM     28  N   UNL A   1      39.853  19.140  25.832  1.00  0.00    -0.352 N 
ATOM     29  C   UNL A   1      41.169  19.528  26.067  1.00  0.00     0.251 C 
ATOM     30  H   UNL A   1      39.720  18.171  25.715  1.00  0.00     0.163 HD
ATOM     31  O   UNL A   1      42.057  18.712  25.888  1.00  0.00    -0.269 OA
BRANCH  29  32
ATOM     32  C   UNL A   1      41.529  20.893  26.576  1.00  0.00     0.039 A 
ATOM     33  C   UNL A   1      42.196  21.808  25.740  1.00  0.00     0.014 A 
ATOM     34  C   UNL A   1      41.349  21.246  27.907  1.00  0.00     0.014 A 
ATOM     35  C   UNL A   1      42.665  23.039  26.245  1.00  0.00     0.010 A 
ATOM     36  C   UNL A   1      41.814  22.443  28.412  1.00  0.00     0.010 A 
ATOM     37  C   UNL A   1      42.503  23.338  27.599  1.00  0.00    -0.014 A 
BRANCH  37  38
ATOM     38  C   UNL A   1      42.642  24.677  28.186  1.00  0.00     0.031 A 
ATOM     39  C   UNL A   1      41.445  25.497  27.956  1.00  0.00     0.074 A 
ATOM     40  C   UNL A   1      43.504  24.978  29.184  1.00  0.00     0.049 A 
ATOM     41  N   UNL A   1      41.437  26.580  27.257  1.00  0.00    -0.248 NA
ATOM     42  C   UNL A   1      40.110  25.019  28.347  1.00  0.00     0.031 C 
ATOM     43  C   UNL A   1      44.740  24.304  29.502  1.00  0.00     0.029 A 
ATOM     44  N   UNL A   1      43.411  25.871  30.216  1.00  0.00    -0.354 N 
ATOM     45  C   UNL A   1      40.158  27.075  27.417  1.00  0.00     0.074 A 
ATOM     46  C   UNL A   1      39.341  25.952  27.782  1.00  0.00     0.031 C 
ATOM     47  C   UNL A   1      45.106  24.514  30.784  1.00  0.00     0.029 A 
ATOM     48  C   UNL A   1      44.245  25.564  31.297  1.00  0.00     0.049 A 
ATOM     49  H   UNL A   1      42.815  26.654  30.200  1.00  0.00     0.167 HD
ATOM     50  C   UNL A   1      39.995  28.400  27.678  1.00  0.00     0.037 A 
ATOM     51  C   UNL A   1      44.498  26.261  32.432  1.00  0.00     0.037 A 
ATOM     52  C   UNL A   1      41.212  29.136  27.378  1.00  0.00     0.049 A 
ATOM     53  C   UNL A   1      44.251  27.675  32.096  1.00  0.00     0.074 A 
ATOM     54  C   UNL A   1      42.026  29.277  26.270  1.00  0.00     0.029 A 
ATOM     55  N   UNL A   1      41.956  29.547  28.457  1.00  0.00    -0.354 N 
ATOM     56  N   UNL A   1      44.998  28.349  31.264  1.00  0.00    -0.248 NA
ATOM     57  C   UNL A   1      42.918  28.208  32.316  1.00  0.00     0.031 C 
ATOM     58  C   UNL A   1      43.349  29.445  26.777  1.00  0.00     0.029 A 
ATOM     59  C   UNL A   1      43.294  29.474  28.171  1.00  0.00     0.049 A 
ATOM     60  H   UNL A   1      41.581  29.849  29.316  1.00  0.00     0.167 HD
ATOM     61  C   UNL A   1      44.089  29.064  30.502  1.00  0.00     0.074 A 
ATOM     62  C   UNL A   1      42.860  29.067  31.295  1.00  0.00     0.031 C 
ATOM     63  C   UNL A   1      44.326  29.303  29.178  1.00  0.00     0.037 A 
BRANCH  50  64
ATOM     64  C   UNL A   1      38.947  28.941  28.626  1.00  0.00     0.057 A 
ATOM     65  C   UNL A   1      38.998  28.532  29.969  1.00  0.00     0.134 A 
ATOM     66  C   UNL A   1      37.758  29.608  28.253  1.00  0.00     0.134 A 
ATOM     67  F   UNL A   1      40.065  27.874  30.445  1.00  0.00    -0.206 F 
ATOM     68  C   UNL A   1      37.922  28.704  30.848  1.00  0.00     0.040 A 
ATOM     69  C   UNL A   1      36.701  29.835  29.138  1.00  0.00     0.040 A 
ATOM     70  F   UNL A   1      37.491  29.993  27.001  1.00  0.00    -0.206 F 
ATOM     71  C   UNL A   1      36.767  29.353  30.432  1.00  0.00     0.006 A 
ENDBRANCH  50  64
BRANCH  51  72
ATOM     72  C   UNL A   1      44.734  25.752  33.805  1.00  0.00     0.057 A 
ATOM     73  C   UNL A   1      43.672  25.475  34.679  1.00  0.00     0.134 A 
ATOM     74  C   UNL A   1      45.996  25.274  34.206  1.00  0.00     0.134 A 
ATOM     75  F   UNL A   1      42.426  25.869  34.380  1.00  0.00    -0.206 F 
ATOM     76  C   UNL A   1      43.843  24.737  35.860  1.00  0.00     0.040 A 
ATOM     77  C   UNL A   1      46.180  24.532  35.382  1.00  0.00     0.040 A 
ATOM     78  F   UNL A   1      47.077  25.446  33.430  1.00  0.00    -0.206 F 
ATOM     79  C   UNL A   1      45.099  24.246  36.206  1.00  0.00     0.006 A 
ENDBRANCH  51  72
BRANCH  63  80
ATOM     80  C   UNL A   1      45.747  29.180  28.684  1.00  0.00     0.057 A 
ATOM     81  C   UNL A   1      46.757  30.127  28.903  1.00  0.00     0.134 A 
ATOM     82  C   UNL A   1      46.141  27.982  28.078  1.00  0.00     0.134 A 
ATOM     83  F   UNL A   1      46.502  31.276  29.532  1.00  0.00    -0.206 F 
ATOM     84  C   UNL A   1      48.086  29.904  28.524  1.00  0.00     0.040 A 
ATOM     85  C   UNL A   1      47.468  27.733  27.715  1.00  0.00     0.040 A 
ATOM     86  F   UNL A   1      45.243  27.006  27.868  1.00  0.00    -0.206 F 
ATOM     87  C   UNL A   1      48.447  28.698  27.935  1.00  0.00     0.006 A 
ENDBRANCH  63  80
ENDBRANCH  37  38
ENDBRANCH  29  32
ENDBRANCH  27  28
ENDBRANCH  26  27
ENDBRANCH   1  26
TORSDOF 14
ENDMDL
MODEL 2
REMARK VINA RESULT:     -12.5      0.910      1.998
REMARK SMILES O=C(CCc1cn(-c2ccc(Br)cc2)nc1-c1ccccc1)NCCCNC(=O)c1ccc(-c2c3nc(c(-c4c(F)cccc4F)c4ccc([nH]4)c(-c4c(F)cccc4F)c4nc(c(-c5c(F)cccc5F)c5ccc2[nH]5)C=C4)C=C3)cc1
REMARK SMILES IDX 24 1 23 2 1 3 2 4 3 6 4 7 5 8 6 9 16 10 7 11 15 12 17 13
REMARK SMILES IDX 18 14 22 15 19 16 21 17 20 18 8 19 9 20 14 21 10 22 13 23
REMARK SMILES IDX 11 24 12 25 25 26 26 27 27 28 28 29 29 31 30 32 31 33 83 34
REMARK SMILES IDX 32 35 82 36 33 37 34 38 35 39 76 40 36 41 81 42 75 43 77 44
REMARK SMILES IDX 37 45 80 46 74 47 73 48 38 50 64 51 47 52 63 53 48 54 51 55
REMARK SMILES IDX 62 56 78 57 49 58 50 59 61 61 79 62 52 63 39 64 40 65 45 66
REMARK SMILES IDX 41 67 42 68 44 69 46 70 43 71 65 72 66 73 71 74 67 75 68 76
REMARK SMILES IDX 70 77 72 78 69 79 53 80 54 81 59 82 55 83 56 84 58 85 60 86
REMARK SMILES IDX 57 87
REMARK H PARENT 23 5 27 30 77 49 51 60
REMARK Flexibility Score: inf
ROOT
ATOM      1  C   UNL A   1      36.138  19.977  25.012  1.00  0.00     0.117 C 
ENDROOT
BRANCH   1   2
ATOM      2  N   UNL A   1      36.065  21.434  25.009  1.00  0.00    -0.356 N 
ATOM      3  O   UNL A   1      35.051  21.735  27.046  1.00  0.00    -0.275 OA
ATOM      4  C   UNL A   1      35.569  22.204  26.038  1.00  0.00     0.220 C 
ATOM      5  H   UNL A   1      36.396  21.904  24.209  1.00  0.00     0.163 HD
BRANCH   4   6
ATOM      6  C   UNL A   1      35.685  23.713  25.822  1.00  0.00     0.105 C 
BRANCH   6   7
ATOM      7  C   UNL A   1      35.401  24.169  24.381  1.00  0.00     0.049 C 
BRANCH   7   8
ATOM      8  C   UNL A   1      34.033  24.740  24.221  1.00  0.00    -0.001 A 
ATOM      9  C   UNL A   1      33.680  26.078  24.126  1.00  0.00     0.119 A 
ATOM     10  C   UNL A   1      32.788  24.067  24.151  1.00  0.00     0.096 A 
ATOM     11  N   UNL A   1      32.311  26.120  24.237  1.00  0.00    -0.240 N 
ATOM     12  N   UNL A   1      31.793  24.910  24.417  1.00  0.00    -0.168 NA
BRANCH  10  13
ATOM     13  C   UNL A   1      32.408  22.702  23.884  1.00  0.00     0.002 A 
ATOM     14  C   UNL A   1      32.367  21.816  24.976  1.00  0.00     0.010 A 
ATOM     15  C   UNL A   1      32.314  22.221  22.582  1.00  0.00     0.010 A 
ATOM     16  C   UNL A   1      32.258  20.447  24.766  1.00  0.00     0.001 A 
ATOM     17  C   UNL A   1      32.206  20.845  22.377  1.00  0.00     0.001 A 
ATOM     18  C   UNL A   1      32.186  19.963  23.463  1.00  0.00     0.000 A 
ENDBRANCH  10  13
BRANCH  11  19
ATOM     19  C   UNL A   1      31.428  27.196  24.113  1.00  0.00     0.065 A 
ATOM     20  C   UNL A   1      31.703  28.369  24.784  1.00  0.00     0.029 A 
ATOM     21  C   UNL A   1      30.360  27.116  23.196  1.00  0.00     0.029 A 
ATOM     22  C   UNL A   1      30.956  29.480  24.432  1.00  0.00     0.018 A 
ATOM     23  C   UNL A   1      29.524  28.209  22.990  1.00  0.00     0.018 A 
ATOM     24  C   UNL A   1      29.834  29.404  23.610  1.00  0.00     0.018 A 
ATOM     25  Br  UNL A   1      28.748  30.925  23.337  1.00  0.00    -0.051 Br
ENDBRANCH  11  19
ENDBRANCH   7   8
ENDBRANCH   6   7
ENDBRANCH   4   6
ENDBRANCH   1   2
BRANCH   1  26
ATOM     26  C   UNL A   1      37.540  19.440  24.679  1.00  0.00     0.042 C 
BRANCH  26  27
ATOM     27  C   UNL A   1      38.646  20.019  25.559  1.00  0.00     0.118 C 
BRANCH  27  28
ATOM     28  N   UNL A   1      39.819  19.185  25.758  1.00  0.00    -0.352 N 
ATOM     29  C   UNL A   1      41.127  19.542  26.072  1.00  0.00     0.251 C 
ATOM     30  H   UNL A   1      39.666  18.218  25.655  1.00  0.00     0.163 HD
ATOM     31  O   UNL A   1      42.001  18.697  25.973  1.00  0.00    -0.269 OA
BRANCH  29  32
ATOM     32  C   UNL A   1      41.494  20.908  26.571  1.00  0.00     0.039 A 
ATOM     33  C   UNL A   1      42.141  21.825  25.721  1.00  0.00     0.014 A 
ATOM     34  C   UNL A   1      41.339  21.263  27.905  1.00  0.00     0.014 A 
ATOM     35  C   UNL A   1      42.616  23.058  26.214  1.00  0.00     0.010 A 
ATOM     36  C   UNL A   1      41.811  22.463  28.399  1.00  0.00     0.010 A 
ATOM     37  C   UNL A   1      42.481  23.358  27.571  1.00  0.00    -0.014 A 
BRANCH  37  38
ATOM     38  C   UNL A   1      42.627  24.698  28.154  1.00  0.00     0.031 A 
ATOM     39  C   UNL A   1      41.428  25.518  27.937  1.00  0.00     0.074 A 
ATOM     40  C   UNL A   1      43.502  25.002  29.139  1.00  0.00     0.049 A 
ATOM     41  N   UNL A   1      41.411  26.600  27.236  1.00  0.00    -0.248 NA
ATOM     42  C   UNL A   1      40.098  25.041  28.346  1.00  0.00     0.031 C 
ATOM     43  C   UNL A   1      44.742  24.328  29.442  1.00  0.00     0.029 A 
ATOM     44  N   UNL A   1      43.423  25.897  30.170  1.00  0.00    -0.354 N 
ATOM     45  C   UNL A   1      40.133  27.095  27.411  1.00  0.00     0.074 A 
ATOM     46  C   UNL A   1      39.321  25.973  27.790  1.00  0.00     0.031 C 
ATOM     47  C   UNL A   1      45.125  24.542  30.719  1.00  0.00     0.029 A 
ATOM     48  C   UNL A   1      44.271  25.593  31.241  1.00  0.00     0.049 A 
ATOM     49  H   UNL A   1      42.826  26.680  30.160  1.00  0.00     0.167 HD
ATOM     50  C   UNL A   1      39.974  28.420  27.672  1.00  0.00     0.037 A 
ATOM     51  C   UNL A   1      44.538  26.292  32.371  1.00  0.00     0.037 A 
ATOM     52  C   UNL A   1      41.187  29.156  27.354  1.00  0.00     0.049 A 
ATOM     53  C   UNL A   1      44.286  27.705  32.035  1.00  0.00     0.074 A 
ATOM     54  C   UNL A   1      41.987  29.294  26.236  1.00  0.00     0.029 A 
ATOM     55  N   UNL A   1      41.945  29.569  28.423  1.00  0.00    -0.354 N 
ATOM     56  N   UNL A   1      45.022  28.377  31.193  1.00  0.00    -0.248 NA
ATOM     57  C   UNL A   1      42.957  28.239  32.272  1.00  0.00     0.031 C 
ATOM     58  C   UNL A   1      43.316  29.463  26.724  1.00  0.00     0.029 A 
ATOM     59  C   UNL A   1      43.279  29.496  28.119  1.00  0.00     0.049 A 
ATOM     60  H   UNL A   1      41.581  29.873  29.285  1.00  0.00     0.167 HD
ATOM     61  C   UNL A   1      44.104  29.090  30.441  1.00  0.00     0.074 A 
ATOM     62  C   UNL A   1      42.886  29.095  31.249  1.00  0.00     0.031 C 
ATOM     63  C   UNL A   1      44.324  29.327  29.113  1.00  0.00     0.037 A 
BRANCH  50  64
ATOM     64  C   UNL A   1      38.939  28.964  28.632  1.00  0.00     0.057 A 
ATOM     65  C   UNL A   1      39.008  28.561  29.975  1.00  0.00     0.134 A 
ATOM     66  C   UNL A   1      37.743  29.627  28.273  1.00  0.00     0.134 A 
ATOM     67  F   UNL A   1      40.084  27.906  30.439  1.00  0.00    -0.206 F 
ATOM     68  C   UNL A   1      37.945  28.734  30.869  1.00  0.00     0.040 A 
ATOM     69  C   UNL A   1      36.698  29.855  29.171  1.00  0.00     0.040 A 
ATOM     70  F   UNL A   1      37.458  30.006  27.023  1.00  0.00    -0.206 F 
ATOM     71  C   UNL A   1      36.783  29.379  30.466  1.00  0.00     0.006 A 
ENDBRANCH  50  64
BRANCH  51  72
ATOM     72  C   UNL A   1      44.791  25.785  33.742  1.00  0.00     0.057 A 
ATOM     73  C   UNL A   1      43.741  25.477  34.618  1.00  0.00     0.134 A 
ATOM     74  C   UNL A   1      46.068  25.343  34.139  1.00  0.00     0.134 A 
ATOM     75  F   UNL A   1      42.483  25.836  34.323  1.00  0.00    -0.206 F 
ATOM     76  C   UNL A   1      43.935  24.740  35.797  1.00  0.00     0.040 A 
ATOM     77  C   UNL A   1      46.276  24.602  35.312  1.00  0.00     0.040 A 
ATOM     78  F   UNL A   1      47.142  25.548  33.361  1.00  0.00    -0.206 F 
ATOM     79  C   UNL A   1      45.205  24.284  36.138  1.00  0.00     0.006 A 
ENDBRANCH  51  72
BRANCH  63  80
ATOM     80  C   UNL A   1      45.739  29.202  28.601  1.00  0.00     0.057 A 
ATOM     81  C   UNL A   1      46.265  28.069  27.965  1.00  0.00     0.134 A 
ATOM     82  C   UNL A   1      46.561  30.334  28.634  1.00  0.00     0.134 A 
ATOM     83  F   UNL A   1      45.539  26.959  27.822  1.00  0.00    -0.206 F 
ATOM     84  C   UNL A   1      47.547  28.054  27.404  1.00  0.00     0.040 A 
ATOM     85  C   UNL A   1      47.835  30.343  28.058  1.00  0.00     0.040 A 
ATOM     86  F   UNL A   1      46.119  31.472  29.190  1.00  0.00    -0.206 F 
ATOM     87  C   UNL A   1      48.335  29.199  27.443  1.00  0.00     0.006 A 
ENDBRANCH  63  80
ENDBRANCH  37  38
ENDBRANCH  29  32
ENDBRANCH  27  28
ENDBRANCH  26  27
ENDBRANCH   1  26
TORSDOF 14
ENDMDL
MODEL 3
REMARK VINA RESULT:     -12.4      5.776     10.217
REMARK SMILES O=C(CCc1cn(-c2ccc(Br)cc2)nc1-c1ccccc1)NCCCNC(=O)c1ccc(-c2c3nc(c(-c4c(F)cccc4F)c4ccc([nH]4)c(-c4c(F)cccc4F)c4nc(c(-c5c(F)cccc5F)c5ccc2[nH]5)C=C4)C=C3)cc1
REMARK SMILES IDX 24 1 23 2 1 3 2 4 3 6 4 7 5 8 6 9 16 10 7 11 15 12 17 13
REMARK SMILES IDX 18 14 22 15 19 16 21 17 20 18 8 19 9 20 14 21 10 22 13 23
REMARK SMILES IDX 11 24 12 25 25 26 26 27 27 28 28 29 29 31 30 32 31 33 83 34
REMARK SMILES IDX 32 35 82 36 33 37 34 38 35 39 76 40 36 41 81 42 75 43 77 44
REMARK SMILES IDX 37 45 80 46 74 47 73 48 38 50 64 51 47 52 63 53 48 54 51 55
REMARK SMILES IDX 62 56 78 57 49 58 50 59 61 61 79 62 52 63 39 64 40 65 45 66
REMARK SMILES IDX 41 67 42 68 44 69 46 70 43 71 65 72 66 73 71 74 67 75 68 76
REMARK SMILES IDX 70 77 72 78 69 79 53 80 54 81 59 82 55 83 56 84 58 85 60 86
REMARK SMILES IDX 57 87
REMARK H PARENT 23 5 27 30 77 49 51 60
REMARK Flexibility Score: inf
ROOT
ATOM      1  C   UNL A   1      32.910  36.537  30.732  1.00  0.00     0.117 C 
ENDROOT
BRANCH   1   2
ATOM      2  N   UNL A   1      33.998  35.739  30.178  1.00  0.00    -0.356 N 
ATOM      3  O   UNL A   1      32.749  34.243  28.967  1.00  0.00    -0.275 OA
ATOM      4  C   UNL A   1      33.842  34.684  29.307  1.00  0.00     0.220 C 
ATOM      5  H   UNL A   1      34.916  35.973  30.448  1.00  0.00     0.163 HD
BRANCH   4   6
ATOM      6  C   UNL A   1      35.147  34.068  28.806  1.00  0.00     0.105 C 
BRANCH   6   7
ATOM      7  C   UNL A   1      35.495  32.713  29.445  1.00  0.00     0.049 C 
BRANCH   7   8
ATOM      8  C   UNL A   1      35.101  31.558  28.589  1.00  0.00    -0.001 A 
ATOM      9  C   UNL A   1      34.148  31.539  27.581  1.00  0.00     0.119 A 
ATOM     10  C   UNL A   1      35.578  30.225  28.614  1.00  0.00     0.096 A 
ATOM     11  N   UNL A   1      33.967  30.216  27.253  1.00  0.00    -0.240 N 
ATOM     12  N   UNL A   1      34.719  29.415  28.000  1.00  0.00    -0.168 NA
BRANCH  10  13
ATOM     13  C   UNL A   1      36.752  29.598  29.171  1.00  0.00     0.002 A 
ATOM     14  C   UNL A   1      37.614  28.933  28.280  1.00  0.00     0.010 A 
ATOM     15  C   UNL A   1      36.908  29.451  30.545  1.00  0.00     0.010 A 
ATOM     16  C   UNL A   1      38.618  28.101  28.763  1.00  0.00     0.001 A 
ATOM     17  C   UNL A   1      37.915  28.614  31.025  1.00  0.00     0.001 A 
ATOM     18  C   UNL A   1      38.760  27.937  30.138  1.00  0.00     0.000 A 
ENDBRANCH  10  13
BRANCH  11  19
ATOM     19  C   UNL A   1      33.199  29.634  26.241  1.00  0.00     0.065 A 
ATOM     20  C   UNL A   1      31.924  30.106  26.011  1.00  0.00     0.029 A 
ATOM     21  C   UNL A   1      33.788  28.683  25.383  1.00  0.00     0.029 A 
ATOM     22  C   UNL A   1      31.304  29.689  24.847  1.00  0.00     0.018 A 
ATOM     23  C   UNL A   1      33.070  28.159  24.312  1.00  0.00     0.018 A 
ATOM     24  C   UNL A   1      31.819  28.676  24.040  1.00  0.00     0.018 A 
ATOM     25  Br  UNL A   1      30.818  28.020  22.578  1.00  0.00    -0.051 Br
ENDBRANCH  11  19
ENDBRANCH   7   8
ENDBRANCH   6   7
ENDBRANCH   4   6
ENDBRANCH   1   2
BRANCH   1  26
ATOM     26  C   UNL A   1      33.311  37.307  32.002  1.00  0.00     0.042 C 
BRANCH  26  27
ATOM     27  C   UNL A   1      34.055  36.456  33.030  1.00  0.00     0.118 C 
BRANCH  27  28
ATOM     28  N   UNL A   1      33.501  35.142  33.306  1.00  0.00    -0.352 N 
ATOM     29  C   UNL A   1      34.070  33.881  33.149  1.00  0.00     0.251 C 
ATOM     30  H   UNL A   1      32.582  35.142  33.659  1.00  0.00     0.163 HD
ATOM     31  O   UNL A   1      33.347  32.902  33.233  1.00  0.00    -0.269 OA
BRANCH  29  32
ATOM     32  C   UNL A   1      35.540  33.680  32.929  1.00  0.00     0.039 A 
ATOM     33  C   UNL A   1      36.101  32.391  33.009  1.00  0.00     0.014 A 
ATOM     34  C   UNL A   1      36.409  34.754  32.783  1.00  0.00     0.014 A 
ATOM     35  C   UNL A   1      37.497  32.205  32.945  1.00  0.00     0.010 A 
ATOM     36  C   UNL A   1      37.778  34.582  32.730  1.00  0.00     0.010 A 
ATOM     37  C   UNL A   1      38.339  33.313  32.842  1.00  0.00    -0.014 A 
BRANCH  37  38
ATOM     38  C   UNL A   1      39.753  33.261  32.447  1.00  0.00     0.031 A 
ATOM     39  C   UNL A   1      40.644  33.521  33.586  1.00  0.00     0.074 A 
ATOM     40  C   UNL A   1      40.207  32.616  31.349  1.00  0.00     0.049 A 
ATOM     41  N   UNL A   1      41.438  34.534  33.664  1.00  0.00    -0.248 NA
ATOM     42  C   UNL A   1      40.539  32.737  34.827  1.00  0.00     0.031 C 
ATOM     43  C   UNL A   1      39.473  32.334  30.138  1.00  0.00     0.029 A 
ATOM     44  N   UNL A   1      41.382  31.957  31.112  1.00  0.00    -0.354 N 
ATOM     45  C   UNL A   1      42.161  34.308  34.818  1.00  0.00     0.074 A 
ATOM     46  C   UNL A   1      41.360  33.427  35.621  1.00  0.00     0.031 C 
ATOM     47  C   UNL A   1      40.014  31.300  29.459  1.00  0.00     0.029 A 
ATOM     48  C   UNL A   1      41.299  31.021  30.075  1.00  0.00     0.049 A 
ATOM     49  H   UNL A   1      42.207  32.125  31.622  1.00  0.00     0.167 HD
ATOM     50  C   UNL A   1      43.508  34.491  34.795  1.00  0.00     0.037 A 
ATOM     51  C   UNL A   1      42.266  30.268  29.497  1.00  0.00     0.037 A 
ATOM     52  C   UNL A   1      43.902  35.258  33.624  1.00  0.00     0.049 A 
ATOM     53  C   UNL A   1      43.522  31.014  29.690  1.00  0.00     0.074 A 
ATOM     54  C   UNL A   1      43.551  36.482  33.088  1.00  0.00     0.029 A 
ATOM     55  N   UNL A   1      44.503  34.552  32.610  1.00  0.00    -0.354 N 
ATOM     56  N   UNL A   1      43.768  32.155  29.106  1.00  0.00    -0.248 NA
ATOM     57  C   UNL A   1      44.309  30.735  30.878  1.00  0.00     0.031 C 
ATOM     58  C   UNL A   1      43.650  36.333  31.673  1.00  0.00     0.029 A 
ATOM     59  C   UNL A   1      44.126  35.051  31.391  1.00  0.00     0.049 A 
ATOM     60  H   UNL A   1      45.118  33.794  32.741  1.00  0.00     0.167 HD
ATOM     61  C   UNL A   1      44.345  32.923  30.102  1.00  0.00     0.074 A 
ATOM     62  C   UNL A   1      44.800  31.957  31.101  1.00  0.00     0.031 C 
ATOM     63  C   UNL A   1      44.113  34.269  30.168  1.00  0.00     0.037 A 
BRANCH  50  64
ATOM     64  C   UNL A   1      44.485  33.602  35.533  1.00  0.00     0.057 A 
ATOM     65  C   UNL A   1      45.416  34.213  36.388  1.00  0.00     0.134 A 
ATOM     66  C   UNL A   1      44.739  32.240  35.255  1.00  0.00     0.134 A 
ATOM     67  F   UNL A   1      45.298  35.508  36.718  1.00  0.00    -0.206 F 
ATOM     68  C   UNL A   1      46.550  33.545  36.865  1.00  0.00     0.040 A 
ATOM     69  C   UNL A   1      45.837  31.548  35.770  1.00  0.00     0.040 A 
ATOM     70  F   UNL A   1      44.014  31.516  34.395  1.00  0.00    -0.206 F 
ATOM     71  C   UNL A   1      46.766  32.209  36.552  1.00  0.00     0.006 A 
ENDBRANCH  50  64
BRANCH  51  72
ATOM     72  C   UNL A   1      42.183  28.877  28.987  1.00  0.00     0.057 A 
ATOM     73  C   UNL A   1      42.201  28.595  27.613  1.00  0.00     0.134 A 
ATOM     74  C   UNL A   1      42.346  27.770  29.841  1.00  0.00     0.134 A 
ATOM     75  F   UNL A   1      42.074  29.582  26.715  1.00  0.00    -0.206 F 
ATOM     76  C   UNL A   1      42.409  27.300  27.114  1.00  0.00     0.040 A 
ATOM     77  C   UNL A   1      42.557  26.471  29.356  1.00  0.00     0.040 A 
ATOM     78  F   UNL A   1      42.383  27.925  31.173  1.00  0.00    -0.206 F 
ATOM     79  C   UNL A   1      42.605  26.234  27.987  1.00  0.00     0.006 A 
ENDBRANCH  51  72
BRANCH  63  80
ATOM     80  C   UNL A   1      43.609  34.957  28.923  1.00  0.00     0.057 A 
ATOM     81  C   UNL A   1      42.267  35.278  28.671  1.00  0.00     0.134 A 
ATOM     82  C   UNL A   1      44.546  35.438  28.001  1.00  0.00     0.134 A 
ATOM     83  F   UNL A   1      41.302  34.923  29.521  1.00  0.00    -0.206 F 
ATOM     84  C   UNL A   1      41.874  36.023  27.553  1.00  0.00     0.040 A 
ATOM     85  C   UNL A   1      44.172  36.204  26.893  1.00  0.00     0.040 A 
ATOM     86  F   UNL A   1      45.855  35.208  28.190  1.00  0.00    -0.206 F 
ATOM     87  C   UNL A   1      42.831  36.496  26.662  1.00  0.00     0.006 A 
ENDBRANCH  63  80
ENDBRANCH  37  38
ENDBRANCH  29  32
ENDBRANCH  27  28
ENDBRANCH  26  27
ENDBRANCH   1  26
TORSDOF 14
ENDMDL
