MODEL 1
REMARK VINA RESULT:     -11.7      0.000      0.000
REMARK SMILES C[C@@H]1CN(C(=O)C[N@H+]2CCO[C@H](CC(=O)NCCCNC(=O)c3ccc(-c4c5nc(c(-c6c(F)cccc6F)c6ccc([nH]6)c(-c6c(F)cccc6F)c6nc(c(-c7c(F)cccc7F)c7ccc4[nH]7)C=C6)C=C5)cc3)C2)C[C@H](C)O1
REMARK SMILES IDX 17 1 16 2 14 3 15 4 13 6 12 7 8 8 9 9 77 10 10 12 11 13 7 14
REMARK SMILES IDX 5 15 6 16 4 17 1 18 2 19 3 20 81 21 79 22 78 23 80 24 18 25
REMARK SMILES IDX 19 26 20 27 21 28 22 30 23 31 24 32 76 33 25 34 75 35 26 36
REMARK SMILES IDX 27 37 28 38 69 39 29 40 74 41 68 42 70 43 30 44 73 45 67 46
REMARK SMILES IDX 66 47 31 49 57 50 40 51 56 52 41 53 44 54 55 55 71 56 42 57
REMARK SMILES IDX 43 58 54 60 72 61 45 62 32 63 33 64 38 65 34 66 35 67 37 68
REMARK SMILES IDX 39 69 36 70 58 71 59 72 64 73 60 74 61 75 63 76 65 77 62 78
REMARK SMILES IDX 46 79 47 80 52 81 48 82 49 83 51 84 53 85 50 86
REMARK H PARENT 16 5 8 11 20 29 70 48 44 59
REMARK Flexibility Score: inf
ROOT
ATOM      1  C   UNL A   1      31.554  30.614  25.727  1.00  0.00     0.117 C 
ENDROOT
BRANCH   1   2
ATOM      2  N   UNL A   1      32.798  29.976  26.117  1.00  0.00    -0.356 N 
ATOM      3  C   UNL A   1      32.961  28.831  26.836  1.00  0.00     0.222 C 
ATOM      4  O   UNL A   1      34.076  28.521  27.251  1.00  0.00    -0.275 OA
ATOM      5  H   UNL A   1      33.624  30.426  25.827  1.00  0.00     0.163 HD
BRANCH   3   6
ATOM      6  C   UNL A   1      31.773  27.937  27.006  1.00  0.00     0.138 C 
BRANCH   6   7
ATOM      7  C   UNL A   1      31.859  26.540  26.398  1.00  0.00     0.182 C 
ATOM      8  N   UNL A   1      32.094  25.386  24.206  1.00  0.00    -0.323 N 
ATOM      9  C   UNL A   1      31.328  24.273  24.798  1.00  0.00     0.291 C 
ATOM     10  C   UNL A   1      31.764  26.644  24.870  1.00  0.00     0.295 C 
ATOM     11  H   UNL A   1      31.775  25.419  23.238  1.00  0.00     0.348 HD
ATOM     12  C   UNL A   1      31.239  24.276  26.344  1.00  0.00     0.222 C 
ATOM     13  O   UNL A   1      30.907  25.582  26.871  1.00  0.00    -0.366 OA
BRANCH   8  14
ATOM     14  C   UNL A   1      33.542  25.194  24.006  1.00  0.00     0.363 C 
BRANCH  14  15
ATOM     15  C   UNL A   1      33.988  24.021  23.131  1.00  0.00     0.277 C 
ATOM     16  O   UNL A   1      33.642  23.990  21.944  1.00  0.00    -0.268 OA
BRANCH  15  17
ATOM     17  N   UNL A   1      34.854  23.063  23.636  1.00  0.00    -0.333 N 
ATOM     18  C   UNL A   1      37.518  23.624  25.756  1.00  0.00     0.040 C 
ATOM     19  C   UNL A   1      37.041  22.524  24.809  1.00  0.00     0.135 C 
ATOM     20  C   UNL A   1      36.314  22.953  23.488  1.00  0.00     0.151 C 
ATOM     21  O   UNL A   1      36.324  21.540  25.573  1.00  0.00    -0.372 OA
ATOM     22  C   UNL A   1      34.919  21.782  25.736  1.00  0.00     0.135 C 
ATOM     23  C   UNL A   1      34.263  21.945  24.370  1.00  0.00     0.151 C 
ATOM     24  C   UNL A   1      34.587  22.940  26.675  1.00  0.00     0.040 C 
ENDBRANCH  15  17
ENDBRANCH  14  15
ENDBRANCH   8  14
ENDBRANCH   6   7
ENDBRANCH   3   6
ENDBRANCH   1   2
BRANCH   1  25
ATOM     25  C   UNL A   1      31.322  31.898  26.512  1.00  0.00     0.042 C 
BRANCH  25  26
ATOM     26  C   UNL A   1      32.606  32.411  27.144  1.00  0.00     0.118 C 
BRANCH  26  27
ATOM     27  N   UNL A   1      32.486  33.831  27.447  1.00  0.00    -0.352 N 
ATOM     28  C   UNL A   1      33.038  34.506  28.508  1.00  0.00     0.251 C 
ATOM     29  H   UNL A   1      31.947  34.367  26.821  1.00  0.00     0.163 HD
ATOM     30  O   UNL A   1      32.533  35.542  28.919  1.00  0.00    -0.269 OA
BRANCH  28  31
ATOM     31  C   UNL A   1      34.256  33.960  29.139  1.00  0.00     0.039 A 
ATOM     32  C   UNL A   1      35.515  34.412  28.740  1.00  0.00     0.014 A 
ATOM     33  C   UNL A   1      34.136  32.969  30.117  1.00  0.00     0.014 A 
ATOM     34  C   UNL A   1      36.656  33.893  29.354  1.00  0.00     0.010 A 
ATOM     35  C   UNL A   1      35.261  32.527  30.792  1.00  0.00     0.010 A 
ATOM     36  C   UNL A   1      36.534  32.961  30.397  1.00  0.00    -0.014 A 
BRANCH  36  37
ATOM     37  C   UNL A   1      37.712  32.359  31.063  1.00  0.00     0.031 A 
ATOM     38  C   UNL A   1      38.455  31.250  30.368  1.00  0.00     0.074 A 
ATOM     39  C   UNL A   1      38.043  32.729  32.314  1.00  0.00     0.049 A 
ATOM     40  N   UNL A   1      39.389  30.460  30.832  1.00  0.00    -0.248 NA
ATOM     41  C   UNL A   1      38.065  30.965  28.977  1.00  0.00     0.031 C 
ATOM     42  C   UNL A   1      37.368  33.763  33.101  1.00  0.00     0.029 A 
ATOM     43  N   UNL A   1      39.019  32.256  33.151  1.00  0.00    -0.354 N 
ATOM     44  C   UNL A   1      39.670  29.568  29.804  1.00  0.00     0.074 A 
ATOM     45  C   UNL A   1      38.774  29.878  28.712  1.00  0.00     0.031 C 
ATOM     46  C   UNL A   1      37.962  33.857  34.301  1.00  0.00     0.029 A 
ATOM     47  C   UNL A   1      39.025  32.861  34.384  1.00  0.00     0.049 A 
ATOM     48  H   UNL A   1      39.656  31.550  32.894  1.00  0.00     0.167 HD
ATOM     49  C   UNL A   1      40.607  28.594  29.766  1.00  0.00     0.037 A 
ATOM     50  C   UNL A   1      39.795  32.623  35.463  1.00  0.00     0.037 A 
ATOM     51  C   UNL A   1      41.528  28.327  30.837  1.00  0.00     0.049 A 
ATOM     52  C   UNL A   1      40.830  31.536  35.395  1.00  0.00     0.074 A 
ATOM     53  C   UNL A   1      42.568  27.417  30.874  1.00  0.00     0.029 A 
ATOM     54  N   UNL A   1      41.520  28.981  32.059  1.00  0.00    -0.354 N 
ATOM     55  N   UNL A   1      41.121  30.733  34.400  1.00  0.00    -0.248 NA
ATOM     56  C   UNL A   1      41.638  31.315  36.603  1.00  0.00     0.031 C 
ATOM     57  C   UNL A   1      43.171  27.498  32.133  1.00  0.00     0.029 A 
ATOM     58  C   UNL A   1      42.527  28.482  32.866  1.00  0.00     0.049 A 
ATOM     59  H   UNL A   1      40.891  29.693  32.316  1.00  0.00     0.167 HD
ATOM     60  C   UNL A   1      42.157  29.927  34.852  1.00  0.00     0.074 A 
ATOM     61  C   UNL A   1      42.454  30.347  36.206  1.00  0.00     0.031 C 
ATOM     62  C   UNL A   1      42.804  28.925  34.208  1.00  0.00     0.037 A 
BRANCH  49  63
ATOM     63  C   UNL A   1      40.695  27.764  28.520  1.00  0.00     0.057 A 
ATOM     64  C   UNL A   1      40.003  26.553  28.391  1.00  0.00     0.134 A 
ATOM     65  C   UNL A   1      41.458  28.191  27.426  1.00  0.00     0.134 A 
ATOM     66  F   UNL A   1      39.266  26.079  29.408  1.00  0.00    -0.206 F 
ATOM     67  C   UNL A   1      40.086  25.783  27.230  1.00  0.00     0.040 A 
ATOM     68  C   UNL A   1      41.528  27.443  26.249  1.00  0.00     0.040 A 
ATOM     69  F   UNL A   1      42.143  29.343  27.481  1.00  0.00    -0.206 F 
ATOM     70  C   UNL A   1      40.846  26.232  26.151  1.00  0.00     0.006 A 
ENDBRANCH  49  63
BRANCH  50  71
ATOM     71  C   UNL A   1      39.625  33.436  36.692  1.00  0.00     0.057 A 
ATOM     72  C   UNL A   1      38.721  33.051  37.688  1.00  0.00     0.134 A 
ATOM     73  C   UNL A   1      40.353  34.614  36.902  1.00  0.00     0.134 A 
ATOM     74  F   UNL A   1      37.983  31.941  37.535  1.00  0.00    -0.206 F 
ATOM     75  C   UNL A   1      38.531  33.815  38.841  1.00  0.00     0.040 A 
ATOM     76  C   UNL A   1      40.190  35.376  38.060  1.00  0.00     0.040 A 
ATOM     77  F   UNL A   1      41.241  35.034  35.988  1.00  0.00    -0.206 F 
ATOM     78  C   UNL A   1      39.272  34.980  39.031  1.00  0.00     0.006 A 
ENDBRANCH  50  71
BRANCH  62  79
ATOM     79  C   UNL A   1      43.904  28.233  34.951  1.00  0.00     0.057 A 
ATOM     80  C   UNL A   1      43.670  27.062  35.682  1.00  0.00     0.134 A 
ATOM     81  C   UNL A   1      45.219  28.709  34.885  1.00  0.00     0.134 A 
ATOM     82  F   UNL A   1      42.429  26.565  35.792  1.00  0.00    -0.206 F 
ATOM     83  C   UNL A   1      44.707  26.393  36.333  1.00  0.00     0.040 A 
ATOM     84  C   UNL A   1      46.267  28.038  35.515  1.00  0.00     0.040 A 
ATOM     85  F   UNL A   1      45.507  29.822  34.194  1.00  0.00    -0.206 F 
ATOM     86  C   UNL A   1      46.012  26.878  36.243  1.00  0.00     0.006 A 
ENDBRANCH  62  79
ENDBRANCH  36  37
ENDBRANCH  28  31
ENDBRANCH  26  27
ENDBRANCH  25  26
ENDBRANCH   1  25
TORSDOF 14
ENDMDL
MODEL 2
REMARK VINA RESULT:     -11.7      4.837     10.385
REMARK SMILES C[C@@H]1CN(C(=O)C[N@H+]2CCO[C@H](CC(=O)NCCCNC(=O)c3ccc(-c4c5nc(c(-c6c(F)cccc6F)c6ccc([nH]6)c(-c6c(F)cccc6F)c6nc(c(-c7c(F)cccc7F)c7ccc4[nH]7)C=C6)C=C5)cc3)C2)C[C@H](C)O1
REMARK SMILES IDX 17 1 16 2 14 3 15 4 13 6 12 7 8 8 9 9 77 10 10 12 11 13 7 14
REMARK SMILES IDX 5 15 6 16 4 17 1 18 2 19 3 20 81 21 79 22 78 23 80 24 18 25
REMARK SMILES IDX 19 26 20 27 21 28 22 30 23 31 24 32 76 33 25 34 75 35 26 36
REMARK SMILES IDX 27 37 28 38 69 39 29 40 74 41 68 42 70 43 30 44 73 45 67 46
REMARK SMILES IDX 66 47 31 49 57 50 40 51 56 52 41 53 44 54 55 55 71 56 42 57
REMARK SMILES IDX 43 58 54 60 72 61 45 62 32 63 33 64 38 65 34 66 35 67 37 68
REMARK SMILES IDX 39 69 36 70 58 71 59 72 64 73 60 74 61 75 63 76 65 77 62 78
REMARK SMILES IDX 46 79 47 80 52 81 48 82 49 83 51 84 53 85 50 86
REMARK H PARENT 16 5 8 11 20 29 70 48 44 59
REMARK Flexibility Score: inf
ROOT
ATOM      1  C   UNL A   1      36.697  20.409  25.008  1.00  0.00     0.117 C 
ENDROOT
BRANCH   1   2
ATOM      2  N   UNL A   1      36.995  21.733  25.522  1.00  0.00    -0.356 N 
ATOM      3  C   UNL A   1      36.912  22.923  24.864  1.00  0.00     0.222 C 
ATOM      4  O   UNL A   1      37.382  23.939  25.373  1.00  0.00    -0.275 OA
ATOM      5  H   UNL A   1      37.293  21.777  26.458  1.00  0.00     0.163 HD
BRANCH   3   6
ATOM      6  C   UNL A   1      36.152  22.958  23.575  1.00  0.00     0.138 C 
BRANCH   6   7
ATOM      7  C   UNL A   1      34.825  23.711  23.568  1.00  0.00     0.182 C 
ATOM      8  N   UNL A   1      32.678  23.874  24.815  1.00  0.00    -0.323 N 
ATOM      9  C   UNL A   1      32.055  24.266  23.536  1.00  0.00     0.291 C 
ATOM     10  C   UNL A   1      33.867  23.062  24.577  1.00  0.00     0.295 C 
ATOM     11  H   UNL A   1      31.965  23.306  25.273  1.00  0.00     0.348 HD
ATOM     12  C   UNL A   1      33.039  24.725  22.432  1.00  0.00     0.222 C 
ATOM     13  O   UNL A   1      34.172  23.835  22.302  1.00  0.00    -0.366 OA
BRANCH   8  14
ATOM     14  C   UNL A   1      32.880  24.924  25.830  1.00  0.00     0.363 C 
BRANCH  14  15
ATOM     15  C   UNL A   1      31.648  25.687  26.318  1.00  0.00     0.277 C 
ATOM     16  O   UNL A   1      30.736  25.064  26.876  1.00  0.00    -0.268 OA
BRANCH  15  17
ATOM     17  N   UNL A   1      31.602  27.070  26.228  1.00  0.00    -0.333 N 
ATOM     18  C   UNL A   1      34.142  29.260  27.037  1.00  0.00     0.040 C 
ATOM     19  C   UNL A   1      32.630  29.314  26.826  1.00  0.00     0.135 C 
ATOM     20  C   UNL A   1      31.778  28.081  27.283  1.00  0.00     0.151 C 
ATOM     21  O   UNL A   1      32.370  29.729  25.475  1.00  0.00    -0.372 OA
ATOM     22  C   UNL A   1      32.304  28.676  24.502  1.00  0.00     0.135 C 
ATOM     23  C   UNL A   1      31.265  27.647  24.928  1.00  0.00     0.151 C 
ATOM     24  C   UNL A   1      33.652  28.033  24.181  1.00  0.00     0.040 C 
ENDBRANCH  15  17
ENDBRANCH  14  15
ENDBRANCH   8  14
ENDBRANCH   6   7
ENDBRANCH   3   6
ENDBRANCH   1   2
BRANCH   1  25
ATOM     25  C   UNL A   1      37.958  19.563  24.898  1.00  0.00     0.042 C 
BRANCH  25  26
ATOM     26  C   UNL A   1      39.086  20.121  25.751  1.00  0.00     0.118 C 
BRANCH  26  27
ATOM     27  N   UNL A   1      40.109  19.105  25.961  1.00  0.00    -0.352 N 
ATOM     28  C   UNL A   1      41.469  19.291  26.022  1.00  0.00     0.251 C 
ATOM     29  H   UNL A   1      39.790  18.180  26.072  1.00  0.00     0.163 HD
ATOM     30  O   UNL A   1      42.236  18.376  25.751  1.00  0.00    -0.269 OA
BRANCH  28  31
ATOM     31  C   UNL A   1      41.986  20.613  26.425  1.00  0.00     0.039 A 
ATOM     32  C   UNL A   1      42.153  20.918  27.777  1.00  0.00     0.014 A 
ATOM     33  C   UNL A   1      42.279  21.563  25.443  1.00  0.00     0.014 A 
ATOM     34  C   UNL A   1      42.653  22.169  28.141  1.00  0.00     0.010 A 
ATOM     35  C   UNL A   1      42.866  22.766  25.800  1.00  0.00     0.010 A 
ATOM     36  C   UNL A   1      43.030  23.093  27.153  1.00  0.00    -0.014 A 
BRANCH  36  37
ATOM     37  C   UNL A   1      43.539  24.443  27.484  1.00  0.00     0.031 A 
ATOM     38  C   UNL A   1      42.566  25.503  27.926  1.00  0.00     0.074 A 
ATOM     39  C   UNL A   1      44.837  24.742  27.290  1.00  0.00     0.049 A 
ATOM     40  N   UNL A   1      42.754  26.787  28.089  1.00  0.00    -0.248 NA
ATOM     41  C   UNL A   1      41.182  25.063  28.178  1.00  0.00     0.031 C 
ATOM     42  C   UNL A   1      45.863  23.807  26.825  1.00  0.00     0.029 A 
ATOM     43  N   UNL A   1      45.507  25.928  27.438  1.00  0.00    -0.354 N 
ATOM     44  C   UNL A   1      41.512  27.308  28.427  1.00  0.00     0.074 A 
ATOM     45  C   UNL A   1      40.566  26.215  28.396  1.00  0.00     0.031 C 
ATOM     46  C   UNL A   1      47.038  24.452  26.742  1.00  0.00     0.029 A 
ATOM     47  C   UNL A   1      46.837  25.852  27.102  1.00  0.00     0.049 A 
ATOM     48  H   UNL A   1      45.078  26.755  27.756  1.00  0.00     0.167 HD
ATOM     49  C   UNL A   1      41.193  28.581  28.758  1.00  0.00     0.037 A 
ATOM     50  C   UNL A   1      47.780  26.813  27.073  1.00  0.00     0.037 A 
ATOM     51  C   UNL A   1      42.150  29.651  28.837  1.00  0.00     0.049 A 
ATOM     52  C   UNL A   1      47.401  28.219  27.445  1.00  0.00     0.074 A 
ATOM     53  C   UNL A   1      41.950  30.959  29.237  1.00  0.00     0.029 A 
ATOM     54  N   UNL A   1      43.493  29.527  28.514  1.00  0.00    -0.354 N 
ATOM     55  N   UNL A   1      46.234  28.690  27.813  1.00  0.00    -0.248 NA
ATOM     56  C   UNL A   1      48.468  29.228  27.391  1.00  0.00     0.031 C 
ATOM     57  C   UNL A   1      43.169  31.637  29.127  1.00  0.00     0.029 A 
ATOM     58  C   UNL A   1      44.131  30.741  28.690  1.00  0.00     0.049 A 
ATOM     59  H   UNL A   1      43.927  28.699  28.206  1.00  0.00     0.167 HD
ATOM     60  C   UNL A   1      46.429  30.044  28.053  1.00  0.00     0.074 A 
ATOM     61  C   UNL A   1      47.830  30.315  27.804  1.00  0.00     0.031 C 
ATOM     62  C   UNL A   1      45.529  30.981  28.441  1.00  0.00     0.037 A 
BRANCH  49  63
ATOM     63  C   UNL A   1      39.758  28.876  29.078  1.00  0.00     0.057 A 
ATOM     64  C   UNL A   1      39.254  28.759  30.380  1.00  0.00     0.134 A 
ATOM     65  C   UNL A   1      38.875  29.306  28.080  1.00  0.00     0.134 A 
ATOM     66  F   UNL A   1      40.044  28.336  31.380  1.00  0.00    -0.206 F 
ATOM     67  C   UNL A   1      37.918  29.035  30.675  1.00  0.00     0.040 A 
ATOM     68  C   UNL A   1      37.543  29.611  28.367  1.00  0.00     0.040 A 
ATOM     69  F   UNL A   1      39.292  29.442  26.813  1.00  0.00    -0.206 F 
ATOM     70  C   UNL A   1      37.060  29.470  29.667  1.00  0.00     0.006 A 
ENDBRANCH  49  63
BRANCH  50  71
ATOM     71  C   UNL A   1      49.173  26.477  26.690  1.00  0.00     0.057 A 
ATOM     72  C   UNL A   1      49.620  26.659  25.377  1.00  0.00     0.134 A 
ATOM     73  C   UNL A   1      50.088  25.964  27.617  1.00  0.00     0.134 A 
ATOM     74  F   UNL A   1      48.784  27.131  24.440  1.00  0.00    -0.206 F 
ATOM     75  C   UNL A   1      50.921  26.328  24.993  1.00  0.00     0.040 A 
ATOM     76  C   UNL A   1      51.398  25.649  27.253  1.00  0.00     0.040 A 
ATOM     77  F   UNL A   1      49.724  25.772  28.894  1.00  0.00    -0.206 F 
ATOM     78  C   UNL A   1      51.816  25.825  25.935  1.00  0.00     0.006 A 
ENDBRANCH  50  71
BRANCH  62  79
ATOM     79  C   UNL A   1      46.038  32.375  28.638  1.00  0.00     0.057 A 
ATOM     80  C   UNL A   1      46.004  33.319  27.604  1.00  0.00     0.134 A 
ATOM     81  C   UNL A   1      46.509  32.793  29.888  1.00  0.00     0.134 A 
ATOM     82  F   UNL A   1      45.576  32.974  26.381  1.00  0.00    -0.206 F 
ATOM     83  C   UNL A   1      46.434  34.631  27.806  1.00  0.00     0.040 A 
ATOM     84  C   UNL A   1      46.922  34.107  30.108  1.00  0.00     0.040 A 
ATOM     85  F   UNL A   1      46.558  31.936  30.919  1.00  0.00    -0.206 F 
ATOM     86  C   UNL A   1      46.887  35.030  29.064  1.00  0.00     0.006 A 
ENDBRANCH  62  79
ENDBRANCH  36  37
ENDBRANCH  28  31
ENDBRANCH  26  27
ENDBRANCH  25  26
ENDBRANCH   1  25
TORSDOF 14
ENDMDL
MODEL 3
REMARK VINA RESULT:     -11.5      0.697      1.568
REMARK SMILES C[C@@H]1CN(C(=O)C[N@H+]2CCO[C@H](CC(=O)NCCCNC(=O)c3ccc(-c4c5nc(c(-c6c(F)cccc6F)c6ccc([nH]6)c(-c6c(F)cccc6F)c6nc(c(-c7c(F)cccc7F)c7ccc4[nH]7)C=C6)C=C5)cc3)C2)C[C@H](C)O1
REMARK SMILES IDX 17 1 16 2 14 3 15 4 13 6 12 7 8 8 9 9 77 10 10 12 11 13 7 14
REMARK SMILES IDX 5 15 6 16 4 17 1 18 2 19 3 20 81 21 79 22 78 23 80 24 18 25
REMARK SMILES IDX 19 26 20 27 21 28 22 30 23 31 24 32 76 33 25 34 75 35 26 36
REMARK SMILES IDX 27 37 28 38 69 39 29 40 74 41 68 42 70 43 30 44 73 45 67 46
REMARK SMILES IDX 66 47 31 49 57 50 40 51 56 52 41 53 44 54 55 55 71 56 42 57
REMARK SMILES IDX 43 58 54 60 72 61 45 62 32 63 33 64 38 65 34 66 35 67 37 68
REMARK SMILES IDX 39 69 36 70 58 71 59 72 64 73 60 74 61 75 63 76 65 77 62 78
REMARK SMILES IDX 46 79 47 80 52 81 48 82 49 83 51 84 53 85 50 86
REMARK H PARENT 16 5 8 11 20 29 70 48 44 59
REMARK Flexibility Score: inf
ROOT
ATOM      1  C   UNL A   1      31.482  30.916  26.102  1.00  0.00     0.117 C 
ENDROOT
BRANCH   1   2
ATOM      2  N   UNL A   1      32.744  30.309  26.484  1.00  0.00    -0.356 N 
ATOM      3  C   UNL A   1      32.941  29.165  27.197  1.00  0.00     0.222 C 
ATOM      4  O   UNL A   1      34.065  28.883  27.605  1.00  0.00    -0.275 OA
ATOM      5  H   UNL A   1      33.557  30.781  26.192  1.00  0.00     0.163 HD
BRANCH   3   6
ATOM      6  C   UNL A   1      31.777  28.239  27.369  1.00  0.00     0.138 C 
BRANCH   6   7
ATOM      7  C   UNL A   1      31.798  26.939  26.572  1.00  0.00     0.182 C 
ATOM      8  N   UNL A   1      32.158  26.079  24.265  1.00  0.00    -0.323 N 
ATOM      9  C   UNL A   1      31.234  24.983  24.612  1.00  0.00     0.291 C 
ATOM     10  C   UNL A   1      31.877  27.261  25.073  1.00  0.00     0.295 C 
ATOM     11  H   UNL A   1      31.949  26.279  23.286  1.00  0.00     0.348 HD
ATOM     12  C   UNL A   1      30.981  24.783  26.126  1.00  0.00     0.222 C 
ATOM     13  O   UNL A   1      30.717  26.032  26.808  1.00  0.00    -0.366 OA
BRANCH   8  14
ATOM     14  C   UNL A   1      33.596  25.762  24.173  1.00  0.00     0.363 C 
BRANCH  14  15
ATOM     15  C   UNL A   1      34.019  24.658  23.203  1.00  0.00     0.277 C 
ATOM     16  O   UNL A   1      33.767  24.787  21.998  1.00  0.00    -0.268 OA
BRANCH  15  17
ATOM     17  N   UNL A   1      34.765  23.581  23.654  1.00  0.00    -0.333 N 
ATOM     18  C   UNL A   1      37.414  23.704  25.861  1.00  0.00     0.040 C 
ATOM     19  C   UNL A   1      36.851  22.730  24.827  1.00  0.00     0.135 C 
ATOM     20  C   UNL A   1      36.209  23.326  23.527  1.00  0.00     0.151 C 
ATOM     21  O   UNL A   1      36.014  21.777  25.503  1.00  0.00    -0.372 OA
ATOM     22  C   UNL A   1      34.638  22.155  25.655  1.00  0.00     0.135 C 
ATOM     23  C   UNL A   1      34.041  22.483  24.292  1.00  0.00     0.151 C 
ATOM     24  C   UNL A   1      34.403  23.273  26.669  1.00  0.00     0.040 C 
ENDBRANCH  15  17
ENDBRANCH  14  15
ENDBRANCH   8  14
ENDBRANCH   6   7
ENDBRANCH   3   6
ENDBRANCH   1   2
BRANCH   1  25
ATOM     25  C   UNL A   1      31.322  32.295  26.727  1.00  0.00     0.042 C 
BRANCH  25  26
ATOM     26  C   UNL A   1      32.635  32.813  27.291  1.00  0.00     0.118 C 
BRANCH  26  27
ATOM     27  N   UNL A   1      32.533  34.238  27.575  1.00  0.00    -0.352 N 
ATOM     28  C   UNL A   1      33.031  34.909  28.667  1.00  0.00     0.251 C 
ATOM     29  H   UNL A   1      32.054  34.783  26.911  1.00  0.00     0.163 HD
ATOM     30  O   UNL A   1      32.528  35.962  29.035  1.00  0.00    -0.269 OA
BRANCH  28  31
ATOM     31  C   UNL A   1      34.188  34.335  29.383  1.00  0.00     0.039 A 
ATOM     32  C   UNL A   1      33.997  33.633  30.573  1.00  0.00     0.014 A 
ATOM     33  C   UNL A   1      35.474  34.526  28.870  1.00  0.00     0.014 A 
ATOM     34  C   UNL A   1      35.100  33.087  31.233  1.00  0.00     0.010 A 
ATOM     35  C   UNL A   1      36.555  33.902  29.472  1.00  0.00     0.010 A 
ATOM     36  C   UNL A   1      36.383  33.203  30.675  1.00  0.00    -0.014 A 
BRANCH  36  37
ATOM     37  C   UNL A   1      37.590  32.668  31.345  1.00  0.00     0.031 A 
ATOM     38  C   UNL A   1      38.294  31.482  30.742  1.00  0.00     0.074 A 
ATOM     39  C   UNL A   1      37.984  33.171  32.529  1.00  0.00     0.049 A 
ATOM     40  N   UNL A   1      39.247  30.740  31.244  1.00  0.00    -0.248 NA
ATOM     41  C   UNL A   1      37.834  31.048  29.412  1.00  0.00     0.031 C 
ATOM     42  C   UNL A   1      37.353  34.291  33.229  1.00  0.00     0.029 A 
ATOM     43  N   UNL A   1      38.999  32.785  33.365  1.00  0.00    -0.354 N 
ATOM     44  C   UNL A   1      39.473  29.738  30.309  1.00  0.00     0.074 A 
ATOM     45  C   UNL A   1      38.526  29.933  29.235  1.00  0.00     0.031 C 
ATOM     46  C   UNL A   1      38.006  34.513  34.381  1.00  0.00     0.029 A 
ATOM     47  C   UNL A   1      39.069  33.523  34.521  1.00  0.00     0.049 A 
ATOM     48  H   UNL A   1      39.620  32.049  33.156  1.00  0.00     0.167 HD
ATOM     49  C   UNL A   1      40.405  28.757  30.332  1.00  0.00     0.037 A 
ATOM     50  C   UNL A   1      39.891  33.398  35.581  1.00  0.00     0.037 A 
ATOM     51  C   UNL A   1      41.377  28.602  31.380  1.00  0.00     0.049 A 
ATOM     52  C   UNL A   1      40.917  32.300  35.583  1.00  0.00     0.074 A 
ATOM     53  C   UNL A   1      42.414  27.692  31.467  1.00  0.00     0.029 A 
ATOM     54  N   UNL A   1      41.431  29.387  32.522  1.00  0.00    -0.354 N 
ATOM     55  N   UNL A   1      41.156  31.390  34.670  1.00  0.00    -0.248 NA
ATOM     56  C   UNL A   1      41.784  32.208  36.767  1.00  0.00     0.031 C 
ATOM     57  C   UNL A   1      43.079  27.906  32.678  1.00  0.00     0.029 A 
ATOM     58  C   UNL A   1      42.475  28.971  33.328  1.00  0.00     0.049 A 
ATOM     59  H   UNL A   1      40.818  30.129  32.728  1.00  0.00     0.167 HD
ATOM     60  C   UNL A   1      42.210  30.630  35.158  1.00  0.00     0.074 A 
ATOM     61  C   UNL A   1      42.575  31.195  36.441  1.00  0.00     0.031 C 
ATOM     62  C   UNL A   1      42.820  29.557  34.597  1.00  0.00     0.037 A 
BRANCH  49  63
ATOM     63  C   UNL A   1      40.427  27.793  29.184  1.00  0.00     0.057 A 
ATOM     64  C   UNL A   1      39.645  26.631  29.180  1.00  0.00     0.134 A 
ATOM     65  C   UNL A   1      41.220  28.041  28.056  1.00  0.00     0.134 A 
ATOM     66  F   UNL A   1      38.875  26.327  30.238  1.00  0.00    -0.206 F 
ATOM     67  C   UNL A   1      39.668  25.737  28.110  1.00  0.00     0.040 A 
ATOM     68  C   UNL A   1      41.232  27.167  26.966  1.00  0.00     0.040 A 
ATOM     69  F   UNL A   1      41.991  29.137  27.992  1.00  0.00    -0.206 F 
ATOM     70  C   UNL A   1      40.458  26.008  26.994  1.00  0.00     0.006 A 
ENDBRANCH  49  63
BRANCH  50  71
ATOM     71  C   UNL A   1      39.785  34.344  36.719  1.00  0.00     0.057 A 
ATOM     72  C   UNL A   1      40.476  35.560  36.708  1.00  0.00     0.134 A 
ATOM     73  C   UNL A   1      39.002  34.057  37.844  1.00  0.00     0.134 A 
ATOM     74  F   UNL A   1      41.256  35.882  35.665  1.00  0.00    -0.206 F 
ATOM     75  C   UNL A   1      40.406  36.452  37.779  1.00  0.00     0.040 A 
ATOM     76  C   UNL A   1      38.905  34.949  38.913  1.00  0.00     0.040 A 
ATOM     77  F   UNL A   1      38.310  32.910  37.913  1.00  0.00    -0.206 F 
ATOM     78  C   UNL A   1      39.615  36.149  38.885  1.00  0.00     0.006 A 
ENDBRANCH  50  71
BRANCH  62  79
ATOM     79  C   UNL A   1      43.954  28.942  35.358  1.00  0.00     0.057 A 
ATOM     80  C   UNL A   1      45.273  29.377  35.184  1.00  0.00     0.134 A 
ATOM     81  C   UNL A   1      43.715  27.949  36.316  1.00  0.00     0.134 A 
ATOM     82  F   UNL A   1      45.565  30.316  34.272  1.00  0.00    -0.206 F 
ATOM     83  C   UNL A   1      46.320  28.835  35.930  1.00  0.00     0.040 A 
ATOM     84  C   UNL A   1      44.750  27.415  37.083  1.00  0.00     0.040 A 
ATOM     85  F   UNL A   1      42.470  27.498  36.534  1.00  0.00    -0.206 F 
ATOM     86  C   UNL A   1      46.058  27.856  36.889  1.00  0.00     0.006 A 
ENDBRANCH  62  79
ENDBRANCH  36  37
ENDBRANCH  28  31
ENDBRANCH  26  27
ENDBRANCH  25  26
ENDBRANCH   1  25
TORSDOF 14
ENDMDL
