MODEL 1
REMARK VINA RESULT:     -13.2      0.000      0.000
REMARK SMILES O=C(NCCCNC(=O)[C@@H]1[C@@H](C(=O)Nc2cccc([N+](=O)[O-])c2)[C@H]2C=C[C@@H]1O2)c1ccc(-c2c3nc(c(-c4c(F)cccc4F)c4ccc([nH]4)c(-c4c(F)cccc4F)c4nc(c(-c5c(F)cccc5F)c5ccc2[nH]5)C=C4)C=C3)cc1
REMARK SMILES IDX 5 1 4 2 3 3 1 4 2 5 29 7 30 8 82 9 31 10 81 11 32 12 33 13
REMARK SMILES IDX 34 14 75 15 35 16 80 17 74 18 76 19 36 20 79 21 73 22 72 23
REMARK SMILES IDX 37 25 63 26 46 27 62 28 47 29 50 30 61 31 77 32 48 33 49 34
REMARK SMILES IDX 60 36 78 37 51 38 38 39 39 40 44 41 40 42 41 43 43 44 45 45
REMARK SMILES IDX 42 46 64 47 65 48 70 49 66 50 67 51 69 52 71 53 68 54 52 55
REMARK SMILES IDX 53 56 58 57 54 58 55 59 57 60 59 61 56 62 6 63 7 64 8 65
REMARK SMILES IDX 9 67 10 68 11 69 27 70 24 71 26 72 28 73 25 74 12 75 13 76
REMARK SMILES IDX 14 77 15 79 16 80 23 81 17 82 19 83 18 84 20 85 21 86 22 87
REMARK H PARENT 3 6 76 24 50 35 7 66 14 78
REMARK Flexibility Score: inf
ROOT
ATOM      1  C   UNL A   1      37.775  19.635  25.007  1.00  0.00     0.042 C 
ENDROOT
BRANCH   1   2
ATOM      2  C   UNL A   1      38.993  20.201  25.740  1.00  0.00     0.118 C 
BRANCH   2   3
ATOM      3  N   UNL A   1      40.045  19.202  25.890  1.00  0.00    -0.352 N 
ATOM      4  O   UNL A   1      42.141  18.402  25.754  1.00  0.00    -0.269 OA
ATOM      5  C   UNL A   1      41.403  19.357  25.976  1.00  0.00     0.251 C 
ATOM      6  H   UNL A   1      39.730  18.271  25.937  1.00  0.00     0.163 HD
BRANCH   5   7
ATOM      7  C   UNL A   1      41.984  20.661  26.352  1.00  0.00     0.039 A 
ATOM      8  C   UNL A   1      42.289  21.612  25.373  1.00  0.00     0.014 A 
ATOM      9  C   UNL A   1      42.130  20.975  27.707  1.00  0.00     0.014 A 
ATOM     10  C   UNL A   1      42.827  22.840  25.742  1.00  0.00     0.010 A 
ATOM     11  C   UNL A   1      42.607  22.232  28.078  1.00  0.00     0.010 A 
ATOM     12  C   UNL A   1      42.969  23.169  27.097  1.00  0.00    -0.014 A 
BRANCH  12  13
ATOM     13  C   UNL A   1      43.430  24.521  27.486  1.00  0.00     0.031 A 
ATOM     14  C   UNL A   1      42.451  25.563  27.933  1.00  0.00     0.074 A 
ATOM     15  C   UNL A   1      44.743  24.808  27.401  1.00  0.00     0.049 A 
ATOM     16  N   UNL A   1      42.662  26.820  28.228  1.00  0.00    -0.248 NA
ATOM     17  C   UNL A   1      41.048  25.141  28.053  1.00  0.00     0.031 C 
ATOM     18  C   UNL A   1      45.783  23.871  26.970  1.00  0.00     0.029 A 
ATOM     19  N   UNL A   1      45.424  25.969  27.658  1.00  0.00    -0.354 N 
ATOM     20  C   UNL A   1      41.417  27.347  28.544  1.00  0.00     0.074 A 
ATOM     21  C   UNL A   1      40.454  26.277  28.388  1.00  0.00     0.031 C 
ATOM     22  C   UNL A   1      46.971  24.491  27.003  1.00  0.00     0.029 A 
ATOM     23  C   UNL A   1      46.769  25.881  27.400  1.00  0.00     0.049 A 
ATOM     24  H   UNL A   1      44.991  26.787  27.996  1.00  0.00     0.167 HD
ATOM     25  C   UNL A   1      41.112  28.609  28.930  1.00  0.00     0.037 A 
ATOM     26  C   UNL A   1      47.730  26.821  27.444  1.00  0.00     0.037 A 
ATOM     27  C   UNL A   1      42.082  29.660  29.092  1.00  0.00     0.049 A 
ATOM     28  C   UNL A   1      47.366  28.217  27.854  1.00  0.00     0.074 A 
ATOM     29  C   UNL A   1      41.882  30.961  29.518  1.00  0.00     0.029 A 
ATOM     30  N   UNL A   1      43.438  29.530  28.826  1.00  0.00    -0.354 N 
ATOM     31  N   UNL A   1      46.191  28.697  28.181  1.00  0.00    -0.248 NA
ATOM     32  C   UNL A   1      48.455  29.201  27.898  1.00  0.00     0.031 C 
ATOM     33  C   UNL A   1      43.110  31.630  29.471  1.00  0.00     0.029 A 
ATOM     34  C   UNL A   1      44.083  30.733  29.057  1.00  0.00     0.049 A 
ATOM     35  H   UNL A   1      43.876  28.705  28.517  1.00  0.00     0.167 HD
ATOM     36  C   UNL A   1      46.398  30.033  28.488  1.00  0.00     0.074 A 
ATOM     37  C   UNL A   1      47.814  30.287  28.313  1.00  0.00     0.031 C 
ATOM     38  C   UNL A   1      45.496  30.964  28.882  1.00  0.00     0.037 A 
BRANCH  25  39
ATOM     39  C   UNL A   1      39.664  28.923  29.171  1.00  0.00     0.057 A 
ATOM     40  C   UNL A   1      39.084  28.828  30.441  1.00  0.00     0.134 A 
ATOM     41  C   UNL A   1      38.842  29.339  28.116  1.00  0.00     0.134 A 
ATOM     42  F   UNL A   1      39.813  28.422  31.493  1.00  0.00    -0.206 F 
ATOM     43  C   UNL A   1      37.732  29.106  30.650  1.00  0.00     0.040 A 
ATOM     44  C   UNL A   1      37.494  29.642  28.315  1.00  0.00     0.040 A 
ATOM     45  F   UNL A   1      39.336  29.458  26.873  1.00  0.00    -0.206 F 
ATOM     46  C   UNL A   1      36.934  29.519  29.584  1.00  0.00     0.006 A 
ENDBRANCH  25  39
BRANCH  26  47
ATOM     47  C   UNL A   1      49.118  26.454  27.076  1.00  0.00     0.057 A 
ATOM     48  C   UNL A   1      50.017  25.972  28.032  1.00  0.00     0.134 A 
ATOM     49  C   UNL A   1      49.555  26.514  25.747  1.00  0.00     0.134 A 
ATOM     50  F   UNL A   1      49.658  25.904  29.322  1.00  0.00    -0.206 F 
ATOM     51  C   UNL A   1      51.304  25.559  27.679  1.00  0.00     0.040 A 
ATOM     52  C   UNL A   1      50.830  26.085  25.376  1.00  0.00     0.040 A 
ATOM     53  F   UNL A   1      48.733  26.956  24.784  1.00  0.00    -0.206 F 
ATOM     54  C   UNL A   1      51.709  25.606  26.346  1.00  0.00     0.006 A 
ENDBRANCH  26  47
BRANCH  38  55
ATOM     55  C   UNL A   1      46.016  32.336  29.183  1.00  0.00     0.057 A 
ATOM     56  C   UNL A   1      46.041  33.344  28.213  1.00  0.00     0.134 A 
ATOM     57  C   UNL A   1      46.438  32.666  30.477  1.00  0.00     0.134 A 
ATOM     58  F   UNL A   1      45.662  33.084  26.952  1.00  0.00    -0.206 F 
ATOM     59  C   UNL A   1      46.476  34.634  28.517  1.00  0.00     0.040 A 
ATOM     60  C   UNL A   1      46.857  33.957  30.798  1.00  0.00     0.040 A 
ATOM     61  F   UNL A   1      46.432  31.744  31.452  1.00  0.00    -0.206 F 
ATOM     62  C   UNL A   1      46.877  34.945  29.815  1.00  0.00     0.006 A 
ENDBRANCH  38  55
ENDBRANCH  12  13
ENDBRANCH   5   7
ENDBRANCH   2   3
ENDBRANCH   1   2
BRANCH   1  63
ATOM     63  C   UNL A   1      36.600  20.606  24.979  1.00  0.00     0.117 C 
BRANCH  63  64
ATOM     64  N   UNL A   1      36.779  21.636  23.974  1.00  0.00    -0.356 N 
ATOM     65  C   UNL A   1      36.133  22.759  23.609  1.00  0.00     0.227 C 
ATOM     66  H   UNL A   1      37.575  21.474  23.417  1.00  0.00     0.163 HD
ATOM     67  O   UNL A   1      36.774  23.434  22.789  1.00  0.00    -0.275 OA
BRANCH  65  68
ATOM     68  C   UNL A   1      34.744  23.241  24.054  1.00  0.00     0.127 C 
ATOM     69  C   UNL A   1      33.752  22.039  23.873  1.00  0.00     0.127 C 
ATOM     70  C   UNL A   1      34.100  24.317  23.188  1.00  0.00     0.155 C 
ATOM     71  C   UNL A   1      32.797  22.635  22.795  1.00  0.00     0.155 C 
ATOM     72  C   UNL A   1      32.741  24.724  23.673  1.00  0.00     0.004 C 
ATOM     73  O   UNL A   1      33.713  23.497  22.057  1.00  0.00    -0.365 OA
ATOM     74  C   UNL A   1      31.924  23.715  23.363  1.00  0.00     0.004 C 
BRANCH  69  75
ATOM     75  C   UNL A   1      32.946  21.494  25.063  1.00  0.00     0.231 C 
ATOM     76  O   UNL A   1      32.431  22.259  25.890  1.00  0.00    -0.274 OA
ATOM     77  N   UNL A   1      32.533  20.200  25.180  1.00  0.00    -0.325 N 
ATOM     78  H   UNL A   1      31.829  20.082  25.859  1.00  0.00     0.169 HD
BRANCH  77  79
ATOM     79  C   UNL A   1      32.887  19.007  24.552  1.00  0.00     0.048 A 
ATOM     80  C   UNL A   1      32.528  18.848  23.209  1.00  0.00     0.026 A 
ATOM     81  C   UNL A   1      33.466  17.942  25.228  1.00  0.00     0.111 A 
ATOM     82  C   UNL A   1      32.870  17.687  22.510  1.00  0.00     0.009 A 
ATOM     83  C   UNL A   1      33.841  16.790  24.521  1.00  0.00     0.271 A 
ATOM     84  C   UNL A   1      33.553  16.660  23.159  1.00  0.00     0.086 A 
BRANCH  83  85
ATOM     85  N   UNL A   1      34.578  15.729  25.219  1.00  0.00     0.062 N 
ATOM     86  O   UNL A   1      34.010  14.639  25.376  1.00  0.00    -0.258 OA
ATOM     87  O   UNL A   1      35.724  15.987  25.621  1.00  0.00    -0.258 OA
ENDBRANCH  83  85
ENDBRANCH  77  79
ENDBRANCH  69  75
ENDBRANCH  65  68
ENDBRANCH  63  64
ENDBRANCH   1  63
TORSDOF 13
ENDMDL
MODEL 2
REMARK VINA RESULT:     -12.9      6.394     11.280
REMARK SMILES O=C(NCCCNC(=O)[C@@H]1[C@@H](C(=O)Nc2cccc([N+](=O)[O-])c2)[C@H]2C=C[C@@H]1O2)c1ccc(-c2c3nc(c(-c4c(F)cccc4F)c4ccc([nH]4)c(-c4c(F)cccc4F)c4nc(c(-c5c(F)cccc5F)c5ccc2[nH]5)C=C4)C=C3)cc1
REMARK SMILES IDX 5 1 4 2 3 3 1 4 2 5 29 7 30 8 82 9 31 10 81 11 32 12 33 13
REMARK SMILES IDX 34 14 75 15 35 16 80 17 74 18 76 19 36 20 79 21 73 22 72 23
REMARK SMILES IDX 37 25 63 26 46 27 62 28 47 29 50 30 61 31 77 32 48 33 49 34
REMARK SMILES IDX 60 36 78 37 51 38 38 39 39 40 44 41 40 42 41 43 43 44 45 45
REMARK SMILES IDX 42 46 64 47 65 48 70 49 66 50 67 51 69 52 71 53 68 54 52 55
REMARK SMILES IDX 53 56 58 57 54 58 55 59 57 60 59 61 56 62 6 63 7 64 8 65
REMARK SMILES IDX 9 67 10 68 11 69 27 70 24 71 26 72 28 73 25 74 12 75 13 76
REMARK SMILES IDX 14 77 15 79 16 80 23 81 17 82 19 83 18 84 20 85 21 86 22 87
REMARK H PARENT 3 6 76 24 50 35 7 66 14 78
REMARK Flexibility Score: inf
ROOT
ATOM      1  C   UNL A   1      31.417  32.271  26.516  1.00  0.00     0.042 C 
ENDROOT
BRANCH   1   2
ATOM      2  C   UNL A   1      32.658  32.802  27.235  1.00  0.00     0.118 C 
BRANCH   2   3
ATOM      3  N   UNL A   1      32.499  34.197  27.626  1.00  0.00    -0.352 N 
ATOM      4  O   UNL A   1      32.544  35.943  29.041  1.00  0.00    -0.269 OA
ATOM      5  C   UNL A   1      33.051  34.889  28.672  1.00  0.00     0.251 C 
ATOM      6  H   UNL A   1      31.902  34.725  27.049  1.00  0.00     0.163 HD
BRANCH   5   7
ATOM      7  C   UNL A   1      34.264  34.383  29.345  1.00  0.00     0.039 A 
ATOM      8  C   UNL A   1      34.166  33.660  30.538  1.00  0.00     0.014 A 
ATOM      9  C   UNL A   1      35.505  34.547  28.721  1.00  0.00     0.014 A 
ATOM     10  C   UNL A   1      35.316  33.182  31.157  1.00  0.00     0.010 A 
ATOM     11  C   UNL A   1      36.650  34.008  29.308  1.00  0.00     0.010 A 
ATOM     12  C   UNL A   1      36.563  33.332  30.536  1.00  0.00    -0.014 A 
BRANCH  12  13
ATOM     13  C   UNL A   1      37.768  32.717  31.139  1.00  0.00     0.031 A 
ATOM     14  C   UNL A   1      38.416  31.525  30.505  1.00  0.00     0.074 A 
ATOM     15  C   UNL A   1      38.252  33.229  32.286  1.00  0.00     0.049 A 
ATOM     16  N   UNL A   1      39.421  30.806  30.935  1.00  0.00    -0.248 NA
ATOM     17  C   UNL A   1      37.856  31.073  29.223  1.00  0.00     0.031 C 
ATOM     18  C   UNL A   1      37.695  34.383  32.994  1.00  0.00     0.029 A 
ATOM     19  N   UNL A   1      39.312  32.840  33.064  1.00  0.00    -0.354 N 
ATOM     20  C   UNL A   1      39.597  29.801  29.994  1.00  0.00     0.074 A 
ATOM     21  C   UNL A   1      38.585  29.994  28.976  1.00  0.00     0.031 C 
ATOM     22  C   UNL A   1      38.422  34.615  34.096  1.00  0.00     0.029 A 
ATOM     23  C   UNL A   1      39.459  33.593  34.201  1.00  0.00     0.049 A 
ATOM     24  H   UNL A   1      39.910  32.093  32.829  1.00  0.00     0.167 HD
ATOM     25  C   UNL A   1      40.523  28.813  29.982  1.00  0.00     0.037 A 
ATOM     26  C   UNL A   1      40.311  33.459  35.233  1.00  0.00     0.037 A 
ATOM     27  C   UNL A   1      41.531  28.639  30.995  1.00  0.00     0.049 A 
ATOM     28  C   UNL A   1      41.314  32.344  35.210  1.00  0.00     0.074 A 
ATOM     29  C   UNL A   1      42.540  27.695  31.056  1.00  0.00     0.029 A 
ATOM     30  N   UNL A   1      41.652  29.427  32.131  1.00  0.00    -0.354 N 
ATOM     31  N   UNL A   1      41.492  31.418  34.299  1.00  0.00    -0.248 NA
ATOM     32  C   UNL A   1      42.229  32.250  36.355  1.00  0.00     0.031 C 
ATOM     33  C   UNL A   1      43.247  27.886  32.248  1.00  0.00     0.029 A 
ATOM     34  C   UNL A   1      42.704  28.977  32.910  1.00  0.00     0.049 A 
ATOM     35  H   UNL A   1      41.074  30.193  32.351  1.00  0.00     0.167 HD
ATOM     36  C   UNL A   1      42.550  30.641  34.747  1.00  0.00     0.074 A 
ATOM     37  C   UNL A   1      42.978  31.209  36.011  1.00  0.00     0.031 C 
ATOM     38  C   UNL A   1      43.117  29.559  34.163  1.00  0.00     0.037 A 
BRANCH  25  39
ATOM     39  C   UNL A   1      40.460  27.825  28.854  1.00  0.00     0.057 A 
ATOM     40  C   UNL A   1      39.667  26.673  28.918  1.00  0.00     0.134 A 
ATOM     41  C   UNL A   1      41.195  28.038  27.681  1.00  0.00     0.134 A 
ATOM     42  F   UNL A   1      38.948  26.401  30.019  1.00  0.00    -0.206 F 
ATOM     43  C   UNL A   1      39.631  25.753  27.869  1.00  0.00     0.040 A 
ATOM     44  C   UNL A   1      41.149  27.138  26.615  1.00  0.00     0.040 A 
ATOM     45  F   UNL A   1      41.970  29.126  27.551  1.00  0.00    -0.206 F 
ATOM     46  C   UNL A   1      40.371  25.987  26.710  1.00  0.00     0.006 A 
ENDBRANCH  25  39
BRANCH  26  47
ATOM     47  C   UNL A   1      40.229  34.409  36.367  1.00  0.00     0.057 A 
ATOM     48  C   UNL A   1      40.894  35.638  36.334  1.00  0.00     0.134 A 
ATOM     49  C   UNL A   1      39.427  34.136  37.484  1.00  0.00     0.134 A 
ATOM     50  F   UNL A   1      41.686  35.948  35.297  1.00  0.00    -0.206 F 
ATOM     51  C   UNL A   1      40.764  36.565  37.370  1.00  0.00     0.040 A 
ATOM     52  C   UNL A   1      39.270  35.063  38.515  1.00  0.00     0.040 A 
ATOM     53  F   UNL A   1      38.754  32.979  37.567  1.00  0.00    -0.206 F 
ATOM     54  C   UNL A   1      39.942  36.282  38.459  1.00  0.00     0.006 A 
ENDBRANCH  26  47
BRANCH  38  55
ATOM     55  C   UNL A   1      44.283  28.934  34.866  1.00  0.00     0.057 A 
ATOM     56  C   UNL A   1      44.119  27.880  35.772  1.00  0.00     0.134 A 
ATOM     57  C   UNL A   1      45.590  29.354  34.584  1.00  0.00     0.134 A 
ATOM     58  F   UNL A   1      42.891  27.444  36.092  1.00  0.00    -0.206 F 
ATOM     59  C   UNL A   1      45.215  27.268  36.380  1.00  0.00     0.040 A 
ATOM     60  C   UNL A   1      46.694  28.737  35.172  1.00  0.00     0.040 A 
ATOM     61  F   UNL A   1      45.811  30.356  33.720  1.00  0.00    -0.206 F 
ATOM     62  C   UNL A   1      46.507  27.691  36.073  1.00  0.00     0.006 A 
ENDBRANCH  38  55
ENDBRANCH  12  13
ENDBRANCH   5   7
ENDBRANCH   2   3
ENDBRANCH   1   2
BRANCH   1  63
ATOM     63  C   UNL A   1      31.535  30.796  26.147  1.00  0.00     0.117 C 
BRANCH  63  64
ATOM     64  N   UNL A   1      32.783  30.224  26.615  1.00  0.00    -0.356 N 
ATOM     65  C   UNL A   1      33.556  29.174  26.279  1.00  0.00     0.227 C 
ATOM     66  H   UNL A   1      33.162  30.732  27.369  1.00  0.00     0.163 HD
ATOM     67  O   UNL A   1      34.652  29.185  26.857  1.00  0.00    -0.275 OA
BRANCH  65  68
ATOM     68  C   UNL A   1      33.217  28.012  25.333  1.00  0.00     0.127 C 
ATOM     69  C   UNL A   1      31.975  28.449  24.480  1.00  0.00     0.127 C 
ATOM     70  C   UNL A   1      32.714  26.736  25.996  1.00  0.00     0.155 C 
ATOM     71  C   UNL A   1      30.934  27.391  24.954  1.00  0.00     0.155 C 
ATOM     72  C   UNL A   1      32.388  25.653  25.011  1.00  0.00     0.004 C 
ATOM     73  O   UNL A   1      31.370  27.167  26.327  1.00  0.00    -0.365 OA
ATOM     74  C   UNL A   1      31.249  26.024  24.421  1.00  0.00     0.004 C 
BRANCH  69  75
ATOM     75  C   UNL A   1      32.044  28.486  22.945  1.00  0.00     0.231 C 
ATOM     76  O   UNL A   1      32.993  27.973  22.336  1.00  0.00    -0.274 OA
ATOM     77  N   UNL A   1      31.005  28.846  22.139  1.00  0.00    -0.325 N 
ATOM     78  H   UNL A   1      31.135  28.576  21.202  1.00  0.00     0.169 HD
BRANCH  77  79
ATOM     79  C   UNL A   1      29.799  29.514  22.350  1.00  0.00     0.048 A 
ATOM     80  C   UNL A   1      28.713  28.763  22.814  1.00  0.00     0.026 A 
ATOM     81  C   UNL A   1      29.605  30.845  22.011  1.00  0.00     0.111 A 
ATOM     82  C   UNL A   1      27.480  29.370  23.068  1.00  0.00     0.009 A 
ATOM     83  C   UNL A   1      28.380  31.464  22.297  1.00  0.00     0.271 A 
ATOM     84  C   UNL A   1      27.315  30.734  22.834  1.00  0.00     0.086 A 
BRANCH  83  85
ATOM     85  N   UNL A   1      28.233  32.906  22.062  1.00  0.00     0.062 N 
ATOM     86  O   UNL A   1      27.641  33.267  21.035  1.00  0.00    -0.258 OA
ATOM     87  O   UNL A   1      28.720  33.683  22.899  1.00  0.00    -0.258 OA
ENDBRANCH  83  85
ENDBRANCH  77  79
ENDBRANCH  69  75
ENDBRANCH  65  68
ENDBRANCH  63  64
ENDBRANCH   1  63
TORSDOF 13
ENDMDL
MODEL 3
REMARK VINA RESULT:     -12.8      1.118      6.213
REMARK SMILES O=C(NCCCNC(=O)[C@@H]1[C@@H](C(=O)Nc2cccc([N+](=O)[O-])c2)[C@H]2C=C[C@@H]1O2)c1ccc(-c2c3nc(c(-c4c(F)cccc4F)c4ccc([nH]4)c(-c4c(F)cccc4F)c4nc(c(-c5c(F)cccc5F)c5ccc2[nH]5)C=C4)C=C3)cc1
REMARK SMILES IDX 5 1 4 2 3 3 1 4 2 5 29 7 30 8 82 9 31 10 81 11 32 12 33 13
REMARK SMILES IDX 34 14 75 15 35 16 80 17 74 18 76 19 36 20 79 21 73 22 72 23
REMARK SMILES IDX 37 25 63 26 46 27 62 28 47 29 50 30 61 31 77 32 48 33 49 34
REMARK SMILES IDX 60 36 78 37 51 38 38 39 39 40 44 41 40 42 41 43 43 44 45 45
REMARK SMILES IDX 42 46 64 47 65 48 70 49 66 50 67 51 69 52 71 53 68 54 52 55
REMARK SMILES IDX 53 56 58 57 54 58 55 59 57 60 59 61 56 62 6 63 7 64 8 65
REMARK SMILES IDX 9 67 10 68 11 69 27 70 24 71 26 72 28 73 25 74 12 75 13 76
REMARK SMILES IDX 14 77 15 79 16 80 23 81 17 82 19 83 18 84 20 85 21 86 22 87
REMARK H PARENT 3 6 76 24 50 35 7 66 14 78
REMARK Flexibility Score: inf
ROOT
ATOM      1  C   UNL A   1      38.144  19.552  25.001  1.00  0.00     0.042 C 
ENDROOT
BRANCH   1   2
ATOM      2  C   UNL A   1      39.179  20.069  26.002  1.00  0.00     0.118 C 
BRANCH   2   3
ATOM      3  N   UNL A   1      40.350  19.203  26.061  1.00  0.00    -0.352 N 
ATOM      4  O   UNL A   1      42.518  18.672  25.793  1.00  0.00    -0.269 OA
ATOM      5  C   UNL A   1      41.683  19.522  26.086  1.00  0.00     0.251 C 
ATOM      6  H   UNL A   1      40.154  18.239  26.088  1.00  0.00     0.163 HD
BRANCH   5   7
ATOM      7  C   UNL A   1      42.120  20.875  26.482  1.00  0.00     0.039 A 
ATOM      8  C   UNL A   1      42.405  21.842  25.513  1.00  0.00     0.014 A 
ATOM      9  C   UNL A   1      42.147  21.210  27.840  1.00  0.00     0.014 A 
ATOM     10  C   UNL A   1      42.807  23.115  25.900  1.00  0.00     0.010 A 
ATOM     11  C   UNL A   1      42.486  22.507  28.225  1.00  0.00     0.010 A 
ATOM     12  C   UNL A   1      42.829  23.465  27.257  1.00  0.00    -0.014 A 
BRANCH  12  13
ATOM     13  C   UNL A   1      43.142  24.856  27.658  1.00  0.00     0.031 A 
ATOM     14  C   UNL A   1      44.563  25.301  27.825  1.00  0.00     0.074 A 
ATOM     15  C   UNL A   1      42.126  25.706  27.900  1.00  0.00     0.049 A 
ATOM     16  N   UNL A   1      45.022  26.449  28.250  1.00  0.00    -0.248 NA
ATOM     17  C   UNL A   1      45.605  24.324  27.480  1.00  0.00     0.031 C 
ATOM     18  C   UNL A   1      40.705  25.375  27.775  1.00  0.00     0.029 A 
ATOM     19  N   UNL A   1      42.131  27.013  28.312  1.00  0.00    -0.354 N 
ATOM     20  C   UNL A   1      46.405  26.327  28.250  1.00  0.00     0.074 A 
ATOM     21  C   UNL A   1      46.709  24.985  27.797  1.00  0.00     0.031 C 
ATOM     22  C   UNL A   1      39.975  26.454  28.094  1.00  0.00     0.029 A 
ATOM     23  C   UNL A   1      40.874  27.530  28.500  1.00  0.00     0.049 A 
ATOM     24  H   UNL A   1      42.956  27.531  28.458  1.00  0.00     0.167 HD
ATOM     25  C   UNL A   1      47.331  27.252  28.594  1.00  0.00     0.037 A 
ATOM     26  C   UNL A   1      40.484  28.725  28.977  1.00  0.00     0.037 A 
ATOM     27  C   UNL A   1      47.015  28.587  29.033  1.00  0.00     0.049 A 
ATOM     28  C   UNL A   1      41.527  29.728  29.373  1.00  0.00     0.074 A 
ATOM     29  C   UNL A   1      47.880  29.614  29.366  1.00  0.00     0.029 A 
ATOM     30  N   UNL A   1      45.728  29.076  29.205  1.00  0.00    -0.354 N 
ATOM     31  N   UNL A   1      42.832  29.612  29.338  1.00  0.00    -0.248 NA
ATOM     32  C   UNL A   1      41.048  31.021  29.876  1.00  0.00     0.031 C 
ATOM     33  C   UNL A   1      47.117  30.711  29.778  1.00  0.00     0.029 A 
ATOM     34  C   UNL A   1      45.775  30.382  29.661  1.00  0.00     0.049 A 
ATOM     35  H   UNL A   1      44.903  28.569  29.029  1.00  0.00     0.167 HD
ATOM     36  C   UNL A   1      43.334  30.821  29.796  1.00  0.00     0.074 A 
ATOM     37  C   UNL A   1      42.190  31.660  30.097  1.00  0.00     0.031 C 
ATOM     38  C   UNL A   1      44.624  31.202  29.950  1.00  0.00     0.037 A 
BRANCH  25  39
ATOM     39  C   UNL A   1      48.772  26.836  28.541  1.00  0.00     0.057 A 
ATOM     40  C   UNL A   1      49.417  26.249  29.637  1.00  0.00     0.134 A 
ATOM     41  C   UNL A   1      49.521  27.014  27.372  1.00  0.00     0.134 A 
ATOM     42  F   UNL A   1      48.760  26.062  30.793  1.00  0.00    -0.206 F 
ATOM     43  C   UNL A   1      50.762  25.881  29.581  1.00  0.00     0.040 A 
ATOM     44  C   UNL A   1      50.861  26.629  27.295  1.00  0.00     0.040 A 
ATOM     45  F   UNL A   1      48.963  27.564  26.282  1.00  0.00    -0.206 F 
ATOM     46  C   UNL A   1      51.488  26.068  28.405  1.00  0.00     0.006 A 
ENDBRANCH  25  39
BRANCH  26  47
ATOM     47  C   UNL A   1      39.037  29.014  29.109  1.00  0.00     0.057 A 
ATOM     48  C   UNL A   1      38.374  28.857  30.330  1.00  0.00     0.134 A 
ATOM     49  C   UNL A   1      38.297  29.518  28.031  1.00  0.00     0.134 A 
ATOM     50  F   UNL A   1      39.028  28.367  31.393  1.00  0.00    -0.206 F 
ATOM     51  C   UNL A   1      37.027  29.193  30.477  1.00  0.00     0.040 A 
ATOM     52  C   UNL A   1      36.956  29.879  28.168  1.00  0.00     0.040 A 
ATOM     53  F   UNL A   1      38.881  29.702  26.837  1.00  0.00    -0.206 F 
ATOM     54  C   UNL A   1      36.318  29.715  29.396  1.00  0.00     0.006 A 
ENDBRANCH  26  47
BRANCH  38  55
ATOM     55  C   UNL A   1      44.873  32.597  30.436  1.00  0.00     0.057 A 
ATOM     56  C   UNL A   1      44.968  32.897  31.799  1.00  0.00     0.134 A 
ATOM     57  C   UNL A   1      45.080  33.640  29.523  1.00  0.00     0.134 A 
ATOM     58  F   UNL A   1      44.765  31.942  32.721  1.00  0.00    -0.206 F 
ATOM     59  C   UNL A   1      45.254  34.189  32.241  1.00  0.00     0.040 A 
ATOM     60  C   UNL A   1      45.385  34.931  29.953  1.00  0.00     0.040 A 
ATOM     61  F   UNL A   1      45.007  33.414  28.203  1.00  0.00    -0.206 F 
ATOM     62  C   UNL A   1      45.472  35.208  31.315  1.00  0.00     0.006 A 
ENDBRANCH  38  55
ENDBRANCH  12  13
ENDBRANCH   5   7
ENDBRANCH   2   3
ENDBRANCH   1   2
BRANCH   1  63
ATOM     63  C   UNL A   1      37.099  20.601  24.638  1.00  0.00     0.117 C 
BRANCH  63  64
ATOM     64  N   UNL A   1      37.399  21.888  25.239  1.00  0.00    -0.356 N 
ATOM     65  C   UNL A   1      36.689  22.946  25.670  1.00  0.00     0.227 C 
ATOM     66  H   UNL A   1      38.367  22.020  25.362  1.00  0.00     0.163 HD
ATOM     67  O   UNL A   1      37.383  23.765  26.292  1.00  0.00    -0.275 OA
BRANCH  65  68
ATOM     68  C   UNL A   1      35.198  23.242  25.449  1.00  0.00     0.127 C 
ATOM     69  C   UNL A   1      34.493  21.878  25.127  1.00  0.00     0.127 C 
ATOM     70  C   UNL A   1      34.856  24.074  24.219  1.00  0.00     0.155 C 
ATOM     71  C   UNL A   1      34.004  22.161  23.675  1.00  0.00     0.155 C 
ATOM     72  C   UNL A   1      33.384  24.307  24.060  1.00  0.00     0.004 C 
ATOM     73  O   UNL A   1      35.048  23.061  23.200  1.00  0.00    -0.365 OA
ATOM     74  C   UNL A   1      32.870  23.144  23.653  1.00  0.00     0.004 C 
BRANCH  69  75
ATOM     75  C   UNL A   1      33.332  21.364  25.995  1.00  0.00     0.231 C 
ATOM     76  O   UNL A   1      32.808  22.087  26.853  1.00  0.00    -0.274 OA
ATOM     77  N   UNL A   1      32.644  20.213  25.750  1.00  0.00    -0.325 N 
ATOM     78  H   UNL A   1      31.790  20.166  26.239  1.00  0.00     0.169 HD
BRANCH  77  79
ATOM     79  C   UNL A   1      32.880  19.089  24.960  1.00  0.00     0.048 A 
ATOM     80  C   UNL A   1      32.529  19.160  23.607  1.00  0.00     0.026 A 
ATOM     81  C   UNL A   1      33.332  17.885  25.479  1.00  0.00     0.111 A 
ATOM     82  C   UNL A   1      32.758  18.079  22.751  1.00  0.00     0.009 A 
ATOM     83  C   UNL A   1      33.595  16.810  24.616  1.00  0.00     0.271 A 
ATOM     84  C   UNL A   1      33.317  16.904  23.249  1.00  0.00     0.086 A 
BRANCH  83  85
ATOM     85  N   UNL A   1      34.203  15.589  25.158  1.00  0.00     0.062 N 
ATOM     86  O   UNL A   1      33.460  14.621  25.376  1.00  0.00    -0.258 OA
ATOM     87  O   UNL A   1      35.426  15.597  25.376  1.00  0.00    -0.258 OA
ENDBRANCH  83  85
ENDBRANCH  77  79
ENDBRANCH  69  75
ENDBRANCH  65  68
ENDBRANCH  63  64
ENDBRANCH   1  63
TORSDOF 13
ENDMDL
