MODEL 1
REMARK VINA RESULT:     -11.4      0.000      0.000
REMARK SMILES CCOc1ccccc1Nc1ccc(C(=O)NCCCNC(=O)c2ccc(-c3c4nc(c(-c5c(F)cccc5F)c5ccc([nH]5)c(-c5c(F)cccc5F)c5nc(c(-c6c(F)cccc6F)c6ccc3[nH]6)C=C5)C=C4)cc2)cc1N
REMARK SMILES IDX 18 1 17 2 15 3 16 4 14 6 11 7 12 8 79 9 13 10 78 11 10 12
REMARK SMILES IDX 9 14 4 15 5 16 6 17 8 18 7 19 3 20 2 21 1 22 80 23 19 26
REMARK SMILES IDX 20 27 21 28 22 29 23 31 24 32 25 33 77 34 26 35 76 36 27 37
REMARK SMILES IDX 28 38 29 39 70 40 30 41 75 42 69 43 71 44 31 45 74 46 68 47
REMARK SMILES IDX 67 48 32 50 58 51 41 52 57 53 42 54 45 55 56 56 72 57 43 58
REMARK SMILES IDX 44 59 55 61 73 62 46 63 33 64 34 65 39 66 35 67 36 68 38 69
REMARK SMILES IDX 40 70 37 71 59 72 60 73 65 74 61 75 62 76 64 77 66 78 63 79
REMARK SMILES IDX 47 80 48 81 53 82 49 83 50 84 52 85 54 86 51 87
REMARK H PARENT 17 5 10 13 80 24 80 25 21 30 71 49 45 60
REMARK Flexibility Score: inf
ROOT
ATOM      1  C   UNL A   1      31.497  30.403  26.267  1.00  0.00     0.118 C 
ENDROOT
BRANCH   1   2
ATOM      2  N   UNL A   1      31.340  30.074  24.860  1.00  0.00    -0.352 N 
ATOM      3  C   UNL A   1      31.421  28.881  24.188  1.00  0.00     0.251 C 
ATOM      4  O   UNL A   1      31.212  28.880  22.976  1.00  0.00    -0.269 OA
ATOM      5  H   UNL A   1      31.137  30.848  24.286  1.00  0.00     0.163 HD
BRANCH   3   6
ATOM      6  C   UNL A   1      31.671  27.597  24.885  1.00  0.00     0.041 A 
ATOM      7  C   UNL A   1      32.281  25.112  26.050  1.00  0.00     0.062 A 
ATOM      8  C   UNL A   1      33.302  25.971  25.623  1.00  0.00     0.029 A 
ATOM      9  C   UNL A   1      30.935  25.528  25.936  1.00  0.00     0.056 A 
ATOM     10  C   UNL A   1      33.001  27.198  25.034  1.00  0.00     0.016 A 
ATOM     11  C   UNL A   1      30.655  26.794  25.408  1.00  0.00     0.041 A 
BRANCH   7  12
ATOM     12  N   UNL A   1      32.654  23.846  26.536  1.00  0.00    -0.351 N 
ATOM     13  H   UNL A   1      32.763  23.806  27.514  1.00  0.00     0.167 HD
BRANCH  12  14
ATOM     14  C   UNL A   1      32.900  22.629  25.878  1.00  0.00     0.081 A 
ATOM     15  C   UNL A   1      34.216  22.147  25.801  1.00  0.00     0.142 A 
ATOM     16  C   UNL A   1      34.511  20.942  25.161  1.00  0.00     0.048 A 
ATOM     17  C   UNL A   1      33.474  20.178  24.626  1.00  0.00     0.004 A 
ATOM     18  C   UNL A   1      31.871  21.838  25.357  1.00  0.00     0.030 A 
ATOM     19  C   UNL A   1      32.156  20.622  24.728  1.00  0.00     0.002 A 
BRANCH  15  20
ATOM     20  O   UNL A   1      35.242  22.905  26.311  1.00  0.00    -0.492 OA
BRANCH  20  21
ATOM     21  C   UNL A   1      36.078  23.431  25.269  1.00  0.00     0.226 C 
ATOM     22  C   UNL A   1      37.472  23.710  25.806  1.00  0.00     0.049 C 
ENDBRANCH  20  21
ENDBRANCH  15  20
ENDBRANCH  12  14
ENDBRANCH   7  12
BRANCH   9  23
ATOM     23  N   UNL A   1      29.886  24.798  26.499  1.00  0.00    -0.397 N 
ATOM     24  H   UNL A   1      29.080  25.263  26.821  1.00  0.00     0.156 HD
ATOM     25  H   UNL A   1      29.952  23.819  26.571  1.00  0.00     0.156 HD
ENDBRANCH   9  23
ENDBRANCH   3   6
ENDBRANCH   1   2
BRANCH   1  26
ATOM     26  C   UNL A   1      31.391  31.912  26.483  1.00  0.00     0.042 C 
BRANCH  26  27
ATOM     27  C   UNL A   1      32.685  32.531  27.005  1.00  0.00     0.118 C 
BRANCH  27  28
ATOM     28  N   UNL A   1      32.487  33.900  27.459  1.00  0.00    -0.352 N 
ATOM     29  C   UNL A   1      33.079  34.567  28.498  1.00  0.00     0.251 C 
ATOM     30  H   UNL A   1      31.832  34.423  26.943  1.00  0.00     0.163 HD
ATOM     31  O   UNL A   1      32.626  35.653  28.861  1.00  0.00    -0.269 OA
BRANCH  29  32
ATOM     32  C   UNL A   1      34.247  33.991  29.195  1.00  0.00     0.039 A 
ATOM     33  C   UNL A   1      34.028  33.116  30.264  1.00  0.00     0.014 A 
ATOM     34  C   UNL A   1      35.552  34.340  28.832  1.00  0.00     0.014 A 
ATOM     35  C   UNL A   1      35.114  32.556  30.938  1.00  0.00     0.010 A 
ATOM     36  C   UNL A   1      36.635  33.733  29.464  1.00  0.00     0.010 A 
ATOM     37  C   UNL A   1      36.426  32.842  30.528  1.00  0.00    -0.014 A 
BRANCH  37  38
ATOM     38  C   UNL A   1      37.592  32.227  31.207  1.00  0.00     0.031 A 
ATOM     39  C   UNL A   1      38.337  31.095  30.556  1.00  0.00     0.074 A 
ATOM     40  C   UNL A   1      37.944  32.648  32.437  1.00  0.00     0.049 A 
ATOM     41  N   UNL A   1      39.333  30.384  31.021  1.00  0.00    -0.248 NA
ATOM     42  C   UNL A   1      37.887  30.693  29.214  1.00  0.00     0.031 C 
ATOM     43  C   UNL A   1      37.274  33.710  33.191  1.00  0.00     0.029 A 
ATOM     44  N   UNL A   1      38.944  32.226  33.274  1.00  0.00    -0.354 N 
ATOM     45  C   UNL A   1      39.616  29.444  30.039  1.00  0.00     0.074 A 
ATOM     46  C   UNL A   1      38.661  29.645  28.971  1.00  0.00     0.031 C 
ATOM     47  C   UNL A   1      37.893  33.866  34.372  1.00  0.00     0.029 A 
ATOM     48  C   UNL A   1      38.979  32.897  34.472  1.00  0.00     0.049 A 
ATOM     49  H   UNL A   1      39.578  31.510  33.038  1.00  0.00     0.167 HD
ATOM     50  C   UNL A   1      40.596  28.509  30.020  1.00  0.00     0.037 A 
ATOM     51  C   UNL A   1      39.791  32.742  35.534  1.00  0.00     0.037 A 
ATOM     52  C   UNL A   1      41.564  28.330  31.071  1.00  0.00     0.049 A 
ATOM     53  C   UNL A   1      40.872  31.700  35.489  1.00  0.00     0.074 A 
ATOM     54  C   UNL A   1      42.635  27.456  31.116  1.00  0.00     0.029 A 
ATOM     55  N   UNL A   1      41.577  29.042  32.261  1.00  0.00    -0.354 N 
ATOM     56  N   UNL A   1      41.168  30.859  34.527  1.00  0.00    -0.248 NA
ATOM     57  C   UNL A   1      41.735  31.586  36.673  1.00  0.00     0.031 C 
ATOM     58  C   UNL A   1      43.277  27.613  32.350  1.00  0.00     0.029 A 
ATOM     59  C   UNL A   1      42.627  28.613  33.056  1.00  0.00     0.049 A 
ATOM     60  H   UNL A   1      40.936  29.749  32.504  1.00  0.00     0.167 HD
ATOM     61  C   UNL A   1      42.262  30.134  34.980  1.00  0.00     0.074 A 
ATOM     62  C   UNL A   1      42.585  30.643  36.297  1.00  0.00     0.031 C 
ATOM     63  C   UNL A   1      42.937  29.136  34.361  1.00  0.00     0.037 A 
BRANCH  50  64
ATOM     64  C   UNL A   1      40.673  27.612  28.821  1.00  0.00     0.057 A 
ATOM     65  C   UNL A   1      41.537  27.883  27.752  1.00  0.00     0.134 A 
ATOM     66  C   UNL A   1      39.903  26.444  28.751  1.00  0.00     0.134 A 
ATOM     67  F   UNL A   1      42.292  28.993  27.754  1.00  0.00    -0.206 F 
ATOM     68  C   UNL A   1      41.613  27.039  26.643  1.00  0.00     0.040 A 
ATOM     69  C   UNL A   1      39.989  25.579  27.658  1.00  0.00     0.040 A 
ATOM     70  F   UNL A   1      39.062  26.122  29.744  1.00  0.00    -0.206 F 
ATOM     71  C   UNL A   1      40.842  25.880  26.598  1.00  0.00     0.006 A 
ENDBRANCH  50  64
BRANCH  51  72
ATOM     72  C   UNL A   1      39.626  33.610  36.726  1.00  0.00     0.057 A 
ATOM     73  C   UNL A   1      38.821  33.212  37.800  1.00  0.00     0.134 A 
ATOM     74  C   UNL A   1      40.262  34.854  36.820  1.00  0.00     0.134 A 
ATOM     75  F   UNL A   1      38.173  32.039  37.757  1.00  0.00    -0.206 F 
ATOM     76  C   UNL A   1      38.641  34.026  38.919  1.00  0.00     0.040 A 
ATOM     77  C   UNL A   1      40.108  35.668  37.943  1.00  0.00     0.040 A 
ATOM     78  F   UNL A   1      41.052  35.287  35.827  1.00  0.00    -0.206 F 
ATOM     79  C   UNL A   1      39.290  35.257  38.994  1.00  0.00     0.006 A 
ENDBRANCH  51  72
BRANCH  63  80
ATOM     80  C   UNL A   1      44.108  28.547  35.090  1.00  0.00     0.057 A 
ATOM     81  C   UNL A   1      45.398  29.075  34.960  1.00  0.00     0.134 A 
ATOM     82  C   UNL A   1      43.933  27.465  35.961  1.00  0.00     0.134 A 
ATOM     83  F   UNL A   1      45.631  30.101  34.129  1.00  0.00    -0.206 F 
ATOM     84  C   UNL A   1      46.479  28.535  35.659  1.00  0.00     0.040 A 
ATOM     85  C   UNL A   1      45.002  26.931  36.684  1.00  0.00     0.040 A 
ATOM     86  F   UNL A   1      42.721  26.918  36.135  1.00  0.00    -0.206 F 
ATOM     87  C   UNL A   1      46.280  27.465  36.529  1.00  0.00     0.006 A 
ENDBRANCH  63  80
ENDBRANCH  37  38
ENDBRANCH  29  32
ENDBRANCH  27  28
ENDBRANCH  26  27
ENDBRANCH   1  26
TORSDOF 15
ENDMDL
MODEL 2
REMARK VINA RESULT:     -11.4      4.290      9.006
REMARK SMILES CCOc1ccccc1Nc1ccc(C(=O)NCCCNC(=O)c2ccc(-c3c4nc(c(-c5c(F)cccc5F)c5ccc([nH]5)c(-c5c(F)cccc5F)c5nc(c(-c6c(F)cccc6F)c6ccc3[nH]6)C=C5)C=C4)cc2)cc1N
REMARK SMILES IDX 18 1 17 2 15 3 16 4 14 6 11 7 12 8 79 9 13 10 78 11 10 12
REMARK SMILES IDX 9 14 4 15 5 16 6 17 8 18 7 19 3 20 2 21 1 22 80 23 19 26
REMARK SMILES IDX 20 27 21 28 22 29 23 31 24 32 25 33 77 34 26 35 76 36 27 37
REMARK SMILES IDX 28 38 29 39 70 40 30 41 75 42 69 43 71 44 31 45 74 46 68 47
REMARK SMILES IDX 67 48 32 50 58 51 41 52 57 53 42 54 45 55 56 56 72 57 43 58
REMARK SMILES IDX 44 59 55 61 73 62 46 63 33 64 34 65 39 66 35 67 36 68 38 69
REMARK SMILES IDX 40 70 37 71 59 72 60 73 65 74 61 75 62 76 64 77 66 78 63 79
REMARK SMILES IDX 47 80 48 81 53 82 49 83 50 84 52 85 54 86 51 87
REMARK H PARENT 17 5 10 13 80 24 80 25 21 30 71 49 45 60
REMARK Flexibility Score: inf
ROOT
ATOM      1  C   UNL A   1      36.217  20.241  25.010  1.00  0.00     0.118 C 
ENDROOT
BRANCH   1   2
ATOM      2  N   UNL A   1      35.110  19.304  24.932  1.00  0.00    -0.352 N 
ATOM      3  C   UNL A   1      33.756  19.496  24.829  1.00  0.00     0.251 C 
ATOM      4  O   UNL A   1      33.031  18.506  24.750  1.00  0.00    -0.269 OA
ATOM      5  H   UNL A   1      35.382  18.357  24.957  1.00  0.00     0.163 HD
BRANCH   3   6
ATOM      6  C   UNL A   1      33.156  20.848  24.730  1.00  0.00     0.041 A 
ATOM      7  C   UNL A   1      32.154  23.452  24.384  1.00  0.00     0.062 A 
ATOM      8  C   UNL A   1      32.325  22.600  23.285  1.00  0.00     0.029 A 
ATOM      9  C   UNL A   1      32.443  22.972  25.681  1.00  0.00     0.056 A 
ATOM     10  C   UNL A   1      32.833  21.313  23.453  1.00  0.00     0.016 A 
ATOM     11  C   UNL A   1      32.884  21.653  25.838  1.00  0.00     0.041 A 
BRANCH   7  12
ATOM     12  N   UNL A   1      31.739  24.771  24.128  1.00  0.00    -0.351 N 
ATOM     13  H   UNL A   1      30.766  24.906  24.186  1.00  0.00     0.167 HD
BRANCH  12  14
ATOM     14  C   UNL A   1      32.463  25.931  23.805  1.00  0.00     0.081 A 
ATOM     15  C   UNL A   1      32.849  26.806  24.833  1.00  0.00     0.142 A 
ATOM     16  C   UNL A   1      33.572  27.969  24.563  1.00  0.00     0.048 A 
ATOM     17  C   UNL A   1      33.958  28.247  23.253  1.00  0.00     0.004 A 
ATOM     18  C   UNL A   1      32.882  26.214  22.501  1.00  0.00     0.030 A 
ATOM     19  C   UNL A   1      33.620  27.369  22.223  1.00  0.00     0.002 A 
BRANCH  15  20
ATOM     20  O   UNL A   1      32.454  26.545  26.123  1.00  0.00    -0.492 OA
BRANCH  20  21
ATOM     21  C   UNL A   1      31.324  27.345  26.501  1.00  0.00     0.226 C 
ATOM     22  C   UNL A   1      31.694  28.263  27.655  1.00  0.00     0.049 C 
ENDBRANCH  20  21
ENDBRANCH  15  20
ENDBRANCH  12  14
ENDBRANCH   7  12
BRANCH   9  23
ATOM     23  N   UNL A   1      32.131  23.707  26.827  1.00  0.00    -0.397 N 
ATOM     24  H   UNL A   1      31.191  23.817  27.100  1.00  0.00     0.156 HD
ATOM     25  H   UNL A   1      32.850  24.113  27.362  1.00  0.00     0.156 HD
ENDBRANCH   9  23
ENDBRANCH   3   6
ENDBRANCH   1   2
BRANCH   1  26
ATOM     26  C   UNL A   1      37.551  19.520  24.820  1.00  0.00     0.042 C 
BRANCH  26  27
ATOM     27  C   UNL A   1      38.697  20.177  25.584  1.00  0.00     0.118 C 
BRANCH  27  28
ATOM     28  N   UNL A   1      39.834  19.281  25.732  1.00  0.00    -0.352 N 
ATOM     29  C   UNL A   1      41.127  19.564  26.086  1.00  0.00     0.251 C 
ATOM     30  H   UNL A   1      39.647  18.331  25.552  1.00  0.00     0.163 HD
ATOM     31  O   UNL A   1      41.998  18.705  25.948  1.00  0.00    -0.269 OA
BRANCH  29  32
ATOM     32  C   UNL A   1      41.487  20.894  26.618  1.00  0.00     0.039 A 
ATOM     33  C   UNL A   1      42.073  21.826  25.756  1.00  0.00     0.014 A 
ATOM     34  C   UNL A   1      41.292  21.212  27.965  1.00  0.00     0.014 A 
ATOM     35  C   UNL A   1      42.421  23.091  26.233  1.00  0.00     0.010 A 
ATOM     36  C   UNL A   1      41.583  22.494  28.426  1.00  0.00     0.010 A 
ATOM     37  C   UNL A   1      42.157  23.443  27.566  1.00  0.00    -0.014 A 
BRANCH  37  38
ATOM     38  C   UNL A   1      42.484  24.794  28.081  1.00  0.00     0.031 A 
ATOM     39  C   UNL A   1      43.891  25.127  28.492  1.00  0.00     0.074 A 
ATOM     40  C   UNL A   1      41.503  25.704  28.232  1.00  0.00     0.049 A 
ATOM     41  N   UNL A   1      44.358  26.226  29.029  1.00  0.00    -0.248 NA
ATOM     42  C   UNL A   1      44.903  24.077  28.297  1.00  0.00     0.031 C 
ATOM     43  C   UNL A   1      40.091  25.487  27.909  1.00  0.00     0.029 A 
ATOM     44  N   UNL A   1      41.541  26.989  28.711  1.00  0.00    -0.354 N 
ATOM     45  C   UNL A   1      45.709  25.993  29.250  1.00  0.00     0.074 A 
ATOM     46  C   UNL A   1      45.980  24.636  28.831  1.00  0.00     0.031 C 
ATOM     47  C   UNL A   1      39.402  26.607  28.181  1.00  0.00     0.029 A 
ATOM     48  C   UNL A   1      40.314  27.605  28.729  1.00  0.00     0.049 A 
ATOM     49  H   UNL A   1      42.369  27.428  29.011  1.00  0.00     0.167 HD
ATOM     50  C   UNL A   1      46.644  26.842  29.741  1.00  0.00     0.037 A 
ATOM     51  C   UNL A   1      39.963  28.836  29.147  1.00  0.00     0.037 A 
ATOM     52  C   UNL A   1      46.379  28.201  30.130  1.00  0.00     0.049 A 
ATOM     53  C   UNL A   1      41.019  29.759  29.686  1.00  0.00     0.074 A 
ATOM     54  C   UNL A   1      47.271  29.160  30.577  1.00  0.00     0.029 A 
ATOM     55  N   UNL A   1      45.126  28.796  30.117  1.00  0.00    -0.354 N 
ATOM     56  N   UNL A   1      42.305  29.547  29.831  1.00  0.00    -0.248 NA
ATOM     57  C   UNL A   1      40.577  31.093  30.116  1.00  0.00     0.031 C 
ATOM     58  C   UNL A   1      46.553  30.325  30.869  1.00  0.00     0.029 A 
ATOM     59  C   UNL A   1      45.219  30.103  30.566  1.00  0.00     0.049 A 
ATOM     60  H   UNL A   1      44.294  28.354  29.830  1.00  0.00     0.167 HD
ATOM     61  C   UNL A   1      42.829  30.725  30.346  1.00  0.00     0.074 A 
ATOM     62  C   UNL A   1      41.723  31.653  30.476  1.00  0.00     0.031 C 
ATOM     63  C   UNL A   1      44.109  31.013  30.682  1.00  0.00     0.037 A 
BRANCH  50  64
ATOM     64  C   UNL A   1      48.045  26.323  29.878  1.00  0.00     0.057 A 
ATOM     65  C   UNL A   1      48.506  25.754  31.072  1.00  0.00     0.134 A 
ATOM     66  C   UNL A   1      48.931  26.359  28.794  1.00  0.00     0.134 A 
ATOM     67  F   UNL A   1      47.710  25.701  32.151  1.00  0.00    -0.206 F 
ATOM     68  C   UNL A   1      49.807  25.262  31.192  1.00  0.00     0.040 A 
ATOM     69  C   UNL A   1      50.226  25.848  28.894  1.00  0.00     0.040 A 
ATOM     70  F   UNL A   1      48.550  26.883  27.619  1.00  0.00    -0.206 F 
ATOM     71  C   UNL A   1      50.669  25.302  30.098  1.00  0.00     0.006 A 
ENDBRANCH  50  64
BRANCH  51  72
ATOM     72  C   UNL A   1      38.549  29.275  29.056  1.00  0.00     0.057 A 
ATOM     73  C   UNL A   1      37.705  29.222  30.171  1.00  0.00     0.134 A 
ATOM     74  C   UNL A   1      38.007  29.753  27.857  1.00  0.00     0.134 A 
ATOM     75  F   UNL A   1      38.165  28.756  31.342  1.00  0.00    -0.206 F 
ATOM     76  C   UNL A   1      36.368  29.613  30.096  1.00  0.00     0.040 A 
ATOM     77  C   UNL A   1      36.677  30.168  27.772  1.00  0.00     0.040 A 
ATOM     78  F   UNL A   1      38.767  29.834  26.755  1.00  0.00    -0.206 F 
ATOM     79  C   UNL A   1      35.852  30.092  28.893  1.00  0.00     0.006 A 
ENDBRANCH  51  72
BRANCH  63  80
ATOM     80  C   UNL A   1      44.388  32.393  31.198  1.00  0.00     0.057 A 
ATOM     81  C   UNL A   1      44.690  33.454  30.336  1.00  0.00     0.134 A 
ATOM     82  C   UNL A   1      44.313  32.670  32.568  1.00  0.00     0.134 A 
ATOM     83  F   UNL A   1      44.791  33.248  29.014  1.00  0.00    -0.206 F 
ATOM     84  C   UNL A   1      44.927  34.741  30.821  1.00  0.00     0.040 A 
ATOM     85  C   UNL A   1      44.524  33.957  33.064  1.00  0.00     0.040 A 
ATOM     86  F   UNL A   1      44.021  31.698  33.445  1.00  0.00    -0.206 F 
ATOM     87  C   UNL A   1      44.837  34.996  32.189  1.00  0.00     0.006 A 
ENDBRANCH  63  80
ENDBRANCH  37  38
ENDBRANCH  29  32
ENDBRANCH  27  28
ENDBRANCH  26  27
ENDBRANCH   1  26
TORSDOF 15
ENDMDL
MODEL 3
REMARK VINA RESULT:     -11.4      0.733      6.171
REMARK SMILES CCOc1ccccc1Nc1ccc(C(=O)NCCCNC(=O)c2ccc(-c3c4nc(c(-c5c(F)cccc5F)c5ccc([nH]5)c(-c5c(F)cccc5F)c5nc(c(-c6c(F)cccc6F)c6ccc3[nH]6)C=C5)C=C4)cc2)cc1N
REMARK SMILES IDX 18 1 17 2 15 3 16 4 14 6 11 7 12 8 79 9 13 10 78 11 10 12
REMARK SMILES IDX 9 14 4 15 5 16 6 17 8 18 7 19 3 20 2 21 1 22 80 23 19 26
REMARK SMILES IDX 20 27 21 28 22 29 23 31 24 32 25 33 77 34 26 35 76 36 27 37
REMARK SMILES IDX 28 38 29 39 70 40 30 41 75 42 69 43 71 44 31 45 74 46 68 47
REMARK SMILES IDX 67 48 32 50 58 51 41 52 57 53 42 54 45 55 56 56 72 57 43 58
REMARK SMILES IDX 44 59 55 61 73 62 46 63 33 64 34 65 39 66 35 67 36 68 38 69
REMARK SMILES IDX 40 70 37 71 59 72 60 73 65 74 61 75 62 76 64 77 66 78 63 79
REMARK SMILES IDX 47 80 48 81 53 82 49 83 50 84 52 85 54 86 51 87
REMARK H PARENT 17 5 10 13 80 24 80 25 21 30 71 49 45 60
REMARK Flexibility Score: inf
ROOT
ATOM      1  C   UNL A   1      31.511  30.486  26.389  1.00  0.00     0.118 C 
ENDROOT
BRANCH   1   2
ATOM      2  N   UNL A   1      31.326  30.166  24.984  1.00  0.00    -0.352 N 
ATOM      3  C   UNL A   1      31.396  28.978  24.301  1.00  0.00     0.251 C 
ATOM      4  O   UNL A   1      31.162  28.986  23.093  1.00  0.00    -0.269 OA
ATOM      5  H   UNL A   1      31.111  30.944  24.419  1.00  0.00     0.163 HD
BRANCH   3   6
ATOM      6  C   UNL A   1      31.661  27.689  24.984  1.00  0.00     0.041 A 
ATOM      7  C   UNL A   1      32.306  25.202  26.124  1.00  0.00     0.062 A 
ATOM      8  C   UNL A   1      33.315  26.096  25.741  1.00  0.00     0.029 A 
ATOM      9  C   UNL A   1      30.953  25.584  25.979  1.00  0.00     0.056 A 
ATOM     10  C   UNL A   1      32.997  27.324  25.164  1.00  0.00     0.016 A 
ATOM     11  C   UNL A   1      30.654  26.850  25.464  1.00  0.00     0.041 A 
BRANCH   7  12
ATOM     12  N   UNL A   1      32.700  23.939  26.600  1.00  0.00    -0.351 N 
ATOM     13  H   UNL A   1      32.736  23.870  27.581  1.00  0.00     0.167 HD
BRANCH  12  14
ATOM     14  C   UNL A   1      33.053  22.757  25.926  1.00  0.00     0.081 A 
ATOM     15  C   UNL A   1      34.395  22.343  25.927  1.00  0.00     0.142 A 
ATOM     16  C   UNL A   1      34.795  21.175  25.276  1.00  0.00     0.048 A 
ATOM     17  C   UNL A   1      33.838  20.378  24.649  1.00  0.00     0.004 A 
ATOM     18  C   UNL A   1      32.105  21.932  25.314  1.00  0.00     0.030 A 
ATOM     19  C   UNL A   1      32.494  20.752  24.672  1.00  0.00     0.002 A 
BRANCH  15  20
ATOM     20  O   UNL A   1      35.343  23.136  26.528  1.00  0.00    -0.492 OA
BRANCH  20  21
ATOM     21  C   UNL A   1      36.171  23.794  25.558  1.00  0.00     0.226 C 
ATOM     22  C   UNL A   1      37.626  23.399  25.756  1.00  0.00     0.049 C 
ENDBRANCH  20  21
ENDBRANCH  15  20
ENDBRANCH  12  14
ENDBRANCH   7  12
BRANCH   9  23
ATOM     23  N   UNL A   1      29.909  24.816  26.500  1.00  0.00    -0.397 N 
ATOM     24  H   UNL A   1      29.252  25.226  27.108  1.00  0.00     0.156 HD
ATOM     25  H   UNL A   1      29.830  23.866  26.257  1.00  0.00     0.156 HD
ENDBRANCH   9  23
ENDBRANCH   3   6
ENDBRANCH   1   2
BRANCH   1  26
ATOM     26  C   UNL A   1      31.375  31.989  26.623  1.00  0.00     0.042 C 
BRANCH  26  27
ATOM     27  C   UNL A   1      32.714  32.676  26.877  1.00  0.00     0.118 C 
BRANCH  27  28
ATOM     28  N   UNL A   1      32.548  33.969  27.523  1.00  0.00    -0.352 N 
ATOM     29  C   UNL A   1      33.164  34.473  28.637  1.00  0.00     0.251 C 
ATOM     30  H   UNL A   1      31.896  34.571  27.095  1.00  0.00     0.163 HD
ATOM     31  O   UNL A   1      32.735  35.503  29.156  1.00  0.00    -0.269 OA
BRANCH  29  32
ATOM     32  C   UNL A   1      34.329  33.784  29.228  1.00  0.00     0.039 A 
ATOM     33  C   UNL A   1      34.106  32.738  30.128  1.00  0.00     0.014 A 
ATOM     34  C   UNL A   1      35.635  34.190  28.937  1.00  0.00     0.014 A 
ATOM     35  C   UNL A   1      35.190  32.069  30.700  1.00  0.00     0.010 A 
ATOM     36  C   UNL A   1      36.716  33.483  29.459  1.00  0.00     0.010 A 
ATOM     37  C   UNL A   1      36.503  32.421  30.351  1.00  0.00    -0.014 A 
BRANCH  37  38
ATOM     38  C   UNL A   1      37.667  31.697  30.918  1.00  0.00     0.031 A 
ATOM     39  C   UNL A   1      38.179  32.043  32.288  1.00  0.00     0.074 A 
ATOM     40  C   UNL A   1      38.298  30.767  30.176  1.00  0.00     0.049 A 
ATOM     41  N   UNL A   1      39.222  31.573  32.924  1.00  0.00    -0.248 NA
ATOM     42  C   UNL A   1      37.435  33.072  33.032  1.00  0.00     0.031 C 
ATOM     43  C   UNL A   1      37.922  30.372  28.817  1.00  0.00     0.029 A 
ATOM     44  N   UNL A   1      39.396  29.996  30.454  1.00  0.00    -0.354 N 
ATOM     45  C   UNL A   1      39.268  32.259  34.132  1.00  0.00     0.074 A 
ATOM     46  C   UNL A   1      38.176  33.207  34.123  1.00  0.00     0.031 C 
ATOM     47  C   UNL A   1      38.765  29.420  28.388  1.00  0.00     0.029 A 
ATOM     48  C   UNL A   1      39.759  29.162  29.425  1.00  0.00     0.049 A 
ATOM     49  H   UNL A   1      39.879  30.035  31.312  1.00  0.00     0.167 HD
ATOM     50  C   UNL A   1      40.131  32.099  35.163  1.00  0.00     0.037 A 
ATOM     51  C   UNL A   1      40.782  28.293  29.326  1.00  0.00     0.037 A 
ATOM     52  C   UNL A   1      41.200  31.135  35.182  1.00  0.00     0.049 A 
ATOM     53  C   UNL A   1      41.726  28.133  30.485  1.00  0.00     0.074 A 
ATOM     54  C   UNL A   1      42.087  30.850  36.205  1.00  0.00     0.029 A 
ATOM     55  N   UNL A   1      41.524  30.295  34.127  1.00  0.00    -0.354 N 
ATOM     56  N   UNL A   1      41.720  28.743  31.645  1.00  0.00    -0.248 NA
ATOM     57  C   UNL A   1      42.816  27.160  30.322  1.00  0.00     0.031 C 
ATOM     58  C   UNL A   1      42.972  29.863  35.756  1.00  0.00     0.029 A 
ATOM     59  C   UNL A   1      42.610  29.506  34.467  1.00  0.00     0.049 A 
ATOM     60  H   UNL A   1      41.051  30.264  33.263  1.00  0.00     0.167 HD
ATOM     61  C   UNL A   1      42.787  28.214  32.358  1.00  0.00     0.074 A 
ATOM     62  C   UNL A   1      43.411  27.224  31.505  1.00  0.00     0.031 C 
ATOM     63  C   UNL A   1      43.213  28.521  33.607  1.00  0.00     0.037 A 
BRANCH  50  64
ATOM     64  C   UNL A   1      39.951  32.984  36.360  1.00  0.00     0.057 A 
ATOM     65  C   UNL A   1      40.684  34.168  36.518  1.00  0.00     0.134 A 
ATOM     66  C   UNL A   1      39.009  32.670  37.347  1.00  0.00     0.134 A 
ATOM     67  F   UNL A   1      41.610  34.519  35.612  1.00  0.00    -0.206 F 
ATOM     68  C   UNL A   1      40.504  34.994  37.628  1.00  0.00     0.040 A 
ATOM     69  C   UNL A   1      38.804  33.502  38.450  1.00  0.00     0.040 A 
ATOM     70  F   UNL A   1      38.269  31.555  37.253  1.00  0.00    -0.206 F 
ATOM     71  C   UNL A   1      39.557  34.665  38.594  1.00  0.00     0.006 A 
ENDBRANCH  50  64
BRANCH  51  72
ATOM     72  C   UNL A   1      40.957  27.492  28.090  1.00  0.00     0.057 A 
ATOM     73  C   UNL A   1      40.349  26.239  27.953  1.00  0.00     0.134 A 
ATOM     74  C   UNL A   1      41.735  27.954  27.022  1.00  0.00     0.134 A 
ATOM     75  F   UNL A   1      39.607  25.737  28.951  1.00  0.00    -0.206 F 
ATOM     76  C   UNL A   1      40.520  25.465  26.804  1.00  0.00     0.040 A 
ATOM     77  C   UNL A   1      41.897  27.201  25.858  1.00  0.00     0.040 A 
ATOM     78  F   UNL A   1      42.338  29.150  27.091  1.00  0.00    -0.206 F 
ATOM     79  C   UNL A   1      41.294  25.949  25.750  1.00  0.00     0.006 A 
ENDBRANCH  51  72
BRANCH  63  80
ATOM     80  C   UNL A   1      44.393  27.761  34.134  1.00  0.00     0.057 A 
ATOM     81  C   UNL A   1      45.699  28.245  34.004  1.00  0.00     0.134 A 
ATOM     82  C   UNL A   1      44.213  26.550  34.815  1.00  0.00     0.134 A 
ATOM     83  F   UNL A   1      45.936  29.392  33.350  1.00  0.00    -0.206 F 
ATOM     84  C   UNL A   1      46.791  27.543  34.518  1.00  0.00     0.040 A 
ATOM     85  C   UNL A   1      45.294  25.849  35.353  1.00  0.00     0.040 A 
ATOM     86  F   UNL A   1      42.985  26.036  34.978  1.00  0.00    -0.206 F 
ATOM     87  C   UNL A   1      46.588  26.345  35.201  1.00  0.00     0.006 A 
ENDBRANCH  63  80
ENDBRANCH  37  38
ENDBRANCH  29  32
ENDBRANCH  27  28
ENDBRANCH  26  27
ENDBRANCH   1  26
TORSDOF 15
ENDMDL
