MODEL 1
REMARK VINA RESULT:     -13.3      0.000      0.000
REMARK SMILES Cc1ccc(N2C(=O)C[C@H](Sc3ccccc3C(=O)NCCCNC(=O)c3ccc(-c4c5nc(c(-c6c(F)cccc6F)c6ccc([nH]6)c(-c6c(F)cccc6F)c6nc(c(-c7c(F)cccc7F)c7ccc4[nH]7)C=C6)C=C5)cc3)C2=O)cc1
REMARK SMILES IDX 21 1 20 2 18 3 19 4 17 6 12 7 13 8 14 9 16 10 15 11 11 12
REMARK SMILES IDX 10 13 6 14 7 15 81 16 8 17 9 18 82 19 5 20 1 21 2 22 3 23
REMARK SMILES IDX 84 24 4 25 83 26 22 27 23 28 24 29 25 30 26 32 27 33 28 34
REMARK SMILES IDX 80 35 29 36 79 37 30 38 31 39 32 40 73 41 33 42 78 43 72 44
REMARK SMILES IDX 74 45 34 46 77 47 71 48 70 49 35 51 61 52 44 53 60 54 45 55
REMARK SMILES IDX 48 56 59 57 75 58 46 59 47 60 58 62 76 63 49 64 36 65 37 66
REMARK SMILES IDX 42 67 38 68 39 69 41 70 43 71 40 72 62 73 63 74 68 75 64 76
REMARK SMILES IDX 65 77 67 78 69 79 66 80 50 81 51 82 56 83 52 84 53 85 55 86
REMARK SMILES IDX 57 87 54 88
REMARK H PARENT 20 5 24 31 74 50 48 61
REMARK Flexibility Score: inf
ROOT
ATOM      1  C   UNL A   1      37.522  21.255  25.142  1.00  0.00     0.118 C 
ENDROOT
BRANCH   1   2
ATOM      2  N   UNL A   1      36.587  22.173  25.778  1.00  0.00    -0.352 N 
ATOM      3  C   UNL A   1      35.224  22.256  25.931  1.00  0.00     0.252 C 
ATOM      4  O   UNL A   1      34.858  23.094  26.756  1.00  0.00    -0.269 OA
ATOM      5  H   UNL A   1      37.051  22.926  26.211  1.00  0.00     0.163 HD
BRANCH   3   6
ATOM      6  C   UNL A   1      34.204  21.457  25.171  1.00  0.00     0.053 A 
ATOM      7  C   UNL A   1      33.666  21.912  23.933  1.00  0.00     0.021 A 
ATOM      8  C   UNL A   1      32.632  21.177  23.314  1.00  0.00     0.016 A 
ATOM      9  C   UNL A   1      32.135  20.008  23.879  1.00  0.00     0.001 A 
ATOM     10  C   UNL A   1      33.676  20.274  25.715  1.00  0.00     0.015 A 
ATOM     11  C   UNL A   1      32.660  19.553  25.077  1.00  0.00     0.001 A 
BRANCH   7  12
ATOM     12  S   UNL A   1      34.000  23.483  23.115  1.00  0.00    -0.111 SA
BRANCH  12  13
ATOM     13  C   UNL A   1      32.585  24.553  23.547  1.00  0.00     0.151 C 
ATOM     14  N   UNL A   1      32.616  26.207  25.203  1.00  0.00    -0.250 N 
ATOM     15  C   UNL A   1      32.087  25.083  25.798  1.00  0.00     0.235 C 
ATOM     16  C   UNL A   1      32.975  25.968  23.892  1.00  0.00     0.247 C 
ATOM     17  O   UNL A   1      31.810  24.885  26.974  1.00  0.00    -0.274 OA
ATOM     18  C   UNL A   1      31.750  24.101  24.720  1.00  0.00     0.126 C 
ATOM     19  O   UNL A   1      33.548  26.725  23.117  1.00  0.00    -0.273 OA
BRANCH  14  20
ATOM     20  C   UNL A   1      32.734  27.468  25.848  1.00  0.00     0.052 A 
ATOM     21  C   UNL A   1      33.270  31.423  27.536  1.00  0.00     0.044 C 
ATOM     22  C   UNL A   1      33.066  30.043  26.985  1.00  0.00    -0.051 A 
ATOM     23  C   UNL A   1      34.098  29.103  27.040  1.00  0.00     0.005 A 
ATOM     24  C   UNL A   1      31.869  29.690  26.358  1.00  0.00     0.005 A 
ATOM     25  C   UNL A   1      33.926  27.825  26.498  1.00  0.00     0.027 A 
ATOM     26  C   UNL A   1      31.710  28.421  25.787  1.00  0.00     0.027 A 
ENDBRANCH  14  20
ENDBRANCH  12  13
ENDBRANCH   7  12
ENDBRANCH   3   6
ENDBRANCH   1   2
BRANCH   1  27
ATOM     27  C   UNL A   1      38.960  21.377  25.630  1.00  0.00     0.042 C 
BRANCH  27  28
ATOM     28  C   UNL A   1      39.254  22.744  26.242  1.00  0.00     0.118 C 
BRANCH  28  29
ATOM     29  N   UNL A   1      40.667  22.980  26.557  1.00  0.00    -0.352 N 
ATOM     30  C   UNL A   1      41.276  24.168  26.944  1.00  0.00     0.251 C 
ATOM     31  H   UNL A   1      41.260  22.196  26.487  1.00  0.00     0.163 HD
ATOM     32  O   UNL A   1      42.458  24.207  27.237  1.00  0.00    -0.269 OA
BRANCH  30  33
ATOM     33  C   UNL A   1      40.419  25.366  27.102  1.00  0.00     0.039 A 
ATOM     34  C   UNL A   1      40.750  26.507  26.367  1.00  0.00     0.014 A 
ATOM     35  C   UNL A   1      39.523  25.431  28.165  1.00  0.00     0.014 A 
ATOM     36  C   UNL A   1      40.403  27.755  26.876  1.00  0.00     0.010 A 
ATOM     37  C   UNL A   1      39.257  26.668  28.719  1.00  0.00     0.010 A 
ATOM     38  C   UNL A   1      39.776  27.823  28.121  1.00  0.00    -0.014 A 
BRANCH  38  39
ATOM     39  C   UNL A   1      39.815  29.025  28.954  1.00  0.00     0.031 A 
ATOM     40  C   UNL A   1      38.776  30.067  28.852  1.00  0.00     0.074 A 
ATOM     41  C   UNL A   1      40.780  29.137  29.896  1.00  0.00     0.049 A 
ATOM     42  N   UNL A   1      38.921  31.279  29.272  1.00  0.00    -0.248 NA
ATOM     43  C   UNL A   1      37.485  29.826  28.225  1.00  0.00     0.031 C 
ATOM     44  C   UNL A   1      40.843  30.098  30.995  1.00  0.00     0.029 A 
ATOM     45  N   UNL A   1      42.042  28.522  29.901  1.00  0.00    -0.354 N 
ATOM     46  C   UNL A   1      37.695  31.899  29.213  1.00  0.00     0.074 A 
ATOM     47  C   UNL A   1      36.846  30.964  28.508  1.00  0.00     0.031 C 
ATOM     48  C   UNL A   1      42.124  30.245  31.362  1.00  0.00     0.029 A 
ATOM     49  C   UNL A   1      42.933  29.489  30.423  1.00  0.00     0.049 A 
ATOM     50  H   UNL A   1      42.260  27.609  29.605  1.00  0.00     0.167 HD
ATOM     51  C   UNL A   1      37.511  33.085  29.864  1.00  0.00     0.037 A 
ATOM     52  C   UNL A   1      43.933  30.005  29.652  1.00  0.00     0.037 A 
ATOM     53  C   UNL A   1      38.757  33.584  30.447  1.00  0.00     0.049 A 
ATOM     54  C   UNL A   1      43.851  31.498  29.411  1.00  0.00     0.074 A 
ATOM     55  C   UNL A   1      39.311  33.582  31.717  1.00  0.00     0.029 A 
ATOM     56  N   UNL A   1      39.776  33.966  29.593  1.00  0.00    -0.354 N 
ATOM     57  N   UNL A   1      42.894  32.270  29.848  1.00  0.00    -0.248 NA
ATOM     58  C   UNL A   1      44.802  32.221  28.563  1.00  0.00     0.031 C 
ATOM     59  C   UNL A   1      40.680  33.962  31.609  1.00  0.00     0.029 A 
ATOM     60  C   UNL A   1      40.955  34.193  30.274  1.00  0.00     0.049 A 
ATOM     61  H   UNL A   1      39.673  34.064  28.619  1.00  0.00     0.167 HD
ATOM     62  C   UNL A   1      43.045  33.523  29.316  1.00  0.00     0.074 A 
ATOM     63  C   UNL A   1      44.258  33.449  28.525  1.00  0.00     0.031 C 
ATOM     64  C   UNL A   1      42.144  34.527  29.512  1.00  0.00     0.037 A 
BRANCH  51  65
ATOM     65  C   UNL A   1      36.153  33.679  30.164  1.00  0.00     0.057 A 
ATOM     66  C   UNL A   1      35.333  34.169  29.129  1.00  0.00     0.134 A 
ATOM     67  C   UNL A   1      35.615  33.845  31.451  1.00  0.00     0.134 A 
ATOM     68  F   UNL A   1      35.637  33.984  27.838  1.00  0.00    -0.206 F 
ATOM     69  C   UNL A   1      34.149  34.881  29.364  1.00  0.00     0.040 A 
ATOM     70  C   UNL A   1      34.465  34.609  31.707  1.00  0.00     0.040 A 
ATOM     71  F   UNL A   1      36.137  33.224  32.515  1.00  0.00    -0.206 F 
ATOM     72  C   UNL A   1      33.735  35.146  30.659  1.00  0.00     0.006 A 
ENDBRANCH  51  65
BRANCH  52  73
ATOM     73  C   UNL A   1      44.500  29.021  28.694  1.00  0.00     0.057 A 
ATOM     74  C   UNL A   1      45.388  28.042  29.172  1.00  0.00     0.134 A 
ATOM     75  C   UNL A   1      43.946  28.815  27.429  1.00  0.00     0.134 A 
ATOM     76  F   UNL A   1      45.953  28.177  30.383  1.00  0.00    -0.206 F 
ATOM     77  C   UNL A   1      45.635  26.861  28.469  1.00  0.00     0.040 A 
ATOM     78  C   UNL A   1      44.195  27.641  26.709  1.00  0.00     0.040 A 
ATOM     79  F   UNL A   1      43.070  29.689  26.915  1.00  0.00    -0.206 F 
ATOM     80  C   UNL A   1      45.012  26.646  27.244  1.00  0.00     0.006 A 
ENDBRANCH  52  73
BRANCH  64  81
ATOM     81  C   UNL A   1      42.323  35.912  28.963  1.00  0.00     0.057 A 
ATOM     82  C   UNL A   1      41.765  36.311  27.741  1.00  0.00     0.134 A 
ATOM     83  C   UNL A   1      43.164  36.851  29.588  1.00  0.00     0.134 A 
ATOM     84  F   UNL A   1      40.993  35.475  27.029  1.00  0.00    -0.206 F 
ATOM     85  C   UNL A   1      41.994  37.579  27.195  1.00  0.00     0.040 A 
ATOM     86  C   UNL A   1      43.439  38.102  29.031  1.00  0.00     0.040 A 
ATOM     87  F   UNL A   1      43.739  36.601  30.774  1.00  0.00    -0.206 F 
ATOM     88  C   UNL A   1      42.844  38.476  27.835  1.00  0.00     0.006 A 
ENDBRANCH  64  81
ENDBRANCH  38  39
ENDBRANCH  30  33
ENDBRANCH  28  29
ENDBRANCH  27  28
ENDBRANCH   1  27
TORSDOF 13
ENDMDL
MODEL 2
REMARK VINA RESULT:     -13.3      3.686      9.468
REMARK SMILES Cc1ccc(N2C(=O)C[C@H](Sc3ccccc3C(=O)NCCCNC(=O)c3ccc(-c4c5nc(c(-c6c(F)cccc6F)c6ccc([nH]6)c(-c6c(F)cccc6F)c6nc(c(-c7c(F)cccc7F)c7ccc4[nH]7)C=C6)C=C5)cc3)C2=O)cc1
REMARK SMILES IDX 21 1 20 2 18 3 19 4 17 6 12 7 13 8 14 9 16 10 15 11 11 12
REMARK SMILES IDX 10 13 6 14 7 15 81 16 8 17 9 18 82 19 5 20 1 21 2 22 3 23
REMARK SMILES IDX 84 24 4 25 83 26 22 27 23 28 24 29 25 30 26 32 27 33 28 34
REMARK SMILES IDX 80 35 29 36 79 37 30 38 31 39 32 40 73 41 33 42 78 43 72 44
REMARK SMILES IDX 74 45 34 46 77 47 71 48 70 49 35 51 61 52 44 53 60 54 45 55
REMARK SMILES IDX 48 56 59 57 75 58 46 59 47 60 58 62 76 63 49 64 36 65 37 66
REMARK SMILES IDX 42 67 38 68 39 69 41 70 43 71 40 72 62 73 63 74 68 75 64 76
REMARK SMILES IDX 65 77 67 78 69 79 66 80 50 81 51 82 56 83 52 84 53 85 55 86
REMARK SMILES IDX 57 87 54 88
REMARK H PARENT 20 5 24 31 74 50 48 61
REMARK Flexibility Score: inf
ROOT
ATOM      1  C   UNL A   1      32.553  30.783  26.376  1.00  0.00     0.118 C 
ENDROOT
BRANCH   1   2
ATOM      2  N   UNL A   1      33.201  29.655  25.721  1.00  0.00    -0.352 N 
ATOM      3  C   UNL A   1      32.891  28.785  24.703  1.00  0.00     0.252 C 
ATOM      4  O   UNL A   1      33.843  28.109  24.308  1.00  0.00    -0.269 OA
ATOM      5  H   UNL A   1      34.088  29.468  26.105  1.00  0.00     0.163 HD
BRANCH   3   6
ATOM      6  C   UNL A   1      31.530  28.591  24.097  1.00  0.00     0.053 A 
ATOM      7  C   UNL A   1      30.639  27.582  24.563  1.00  0.00     0.021 A 
ATOM      8  C   UNL A   1      29.418  27.371  23.888  1.00  0.00     0.016 A 
ATOM      9  C   UNL A   1      29.056  28.136  22.784  1.00  0.00     0.001 A 
ATOM     10  C   UNL A   1      31.136  29.343  22.977  1.00  0.00     0.015 A 
ATOM     11  C   UNL A   1      29.914  29.125  22.331  1.00  0.00     0.001 A 
BRANCH   7  12
ATOM     12  S   UNL A   1      30.966  26.344  25.831  1.00  0.00    -0.111 SA
BRANCH  12  13
ATOM     13  C   UNL A   1      31.461  24.846  24.914  1.00  0.00     0.151 C 
ATOM     14  N   UNL A   1      33.671  24.141  24.598  1.00  0.00    -0.250 N 
ATOM     15  C   UNL A   1      33.333  24.852  23.467  1.00  0.00     0.235 C 
ATOM     16  C   UNL A   1      32.642  24.126  25.516  1.00  0.00     0.247 C 
ATOM     17  O   UNL A   1      34.038  25.199  22.529  1.00  0.00    -0.274 OA
ATOM     18  C   UNL A   1      31.849  25.053  23.471  1.00  0.00     0.126 C 
ATOM     19  O   UNL A   1      32.649  23.660  26.650  1.00  0.00    -0.273 OA
BRANCH  14  20
ATOM     20  C   UNL A   1      34.910  23.468  24.773  1.00  0.00     0.052 A 
ATOM     21  C   UNL A   1      38.591  21.351  25.635  1.00  0.00     0.044 C 
ATOM     22  C   UNL A   1      37.331  22.091  25.301  1.00  0.00    -0.051 A 
ATOM     23  C   UNL A   1      37.161  23.414  25.716  1.00  0.00     0.005 A 
ATOM     24  C   UNL A   1      36.286  21.461  24.622  1.00  0.00     0.005 A 
ATOM     25  C   UNL A   1      35.974  24.101  25.437  1.00  0.00     0.027 A 
ATOM     26  C   UNL A   1      35.087  22.138  24.371  1.00  0.00     0.027 A 
ENDBRANCH  14  20
ENDBRANCH  12  13
ENDBRANCH   7  12
ENDBRANCH   3   6
ENDBRANCH   1   2
BRANCH   1  27
ATOM     27  C   UNL A   1      33.292  31.313  27.599  1.00  0.00     0.042 C 
BRANCH  27  28
ATOM     28  C   UNL A   1      34.785  30.996  27.562  1.00  0.00     0.118 C 
BRANCH  28  29
ATOM     29  N   UNL A   1      35.590  31.738  28.537  1.00  0.00    -0.352 N 
ATOM     30  C   UNL A   1      36.737  31.322  29.202  1.00  0.00     0.251 C 
ATOM     31  H   UNL A   1      35.279  32.649  28.748  1.00  0.00     0.163 HD
ATOM     32  O   UNL A   1      37.346  32.071  29.946  1.00  0.00    -0.269 OA
BRANCH  30  33
ATOM     33  C   UNL A   1      37.267  29.974  28.890  1.00  0.00     0.039 A 
ATOM     34  C   UNL A   1      37.402  29.065  29.942  1.00  0.00     0.014 A 
ATOM     35  C   UNL A   1      37.885  29.749  27.663  1.00  0.00     0.014 A 
ATOM     36  C   UNL A   1      38.382  28.080  29.856  1.00  0.00     0.010 A 
ATOM     37  C   UNL A   1      38.918  28.833  27.611  1.00  0.00     0.010 A 
ATOM     38  C   UNL A   1      39.222  28.064  28.741  1.00  0.00    -0.014 A 
BRANCH  38  39
ATOM     39  C   UNL A   1      40.543  27.437  28.765  1.00  0.00     0.031 A 
ATOM     40  C   UNL A   1      40.725  26.011  28.437  1.00  0.00     0.074 A 
ATOM     41  C   UNL A   1      41.629  28.207  29.010  1.00  0.00     0.049 A 
ATOM     42  N   UNL A   1      41.761  25.316  28.770  1.00  0.00    -0.248 NA
ATOM     43  C   UNL A   1      39.718  25.237  27.727  1.00  0.00     0.031 C 
ATOM     44  C   UNL A   1      43.033  27.853  28.816  1.00  0.00     0.029 A 
ATOM     45  N   UNL A   1      41.672  29.418  29.719  1.00  0.00    -0.354 N 
ATOM     46  C   UNL A   1      41.689  24.106  28.120  1.00  0.00     0.074 A 
ATOM     47  C   UNL A   1      40.372  24.090  27.522  1.00  0.00     0.031 C 
ATOM     48  C   UNL A   1      43.783  28.614  29.627  1.00  0.00     0.029 A 
ATOM     49  C   UNL A   1      42.876  29.380  30.461  1.00  0.00     0.049 A 
ATOM     50  H   UNL A   1      41.005  30.142  29.702  1.00  0.00     0.167 HD
ATOM     51  C   UNL A   1      42.793  23.304  28.071  1.00  0.00     0.037 A 
ATOM     52  C   UNL A   1      42.854  29.360  31.825  1.00  0.00     0.037 A 
ATOM     53  C   UNL A   1      43.894  23.846  28.869  1.00  0.00     0.049 A 
ATOM     54  C   UNL A   1      43.460  28.124  32.458  1.00  0.00     0.074 A 
ATOM     55  C   UNL A   1      45.050  24.554  28.586  1.00  0.00     0.029 A 
ATOM     56  N   UNL A   1      43.740  23.911  30.242  1.00  0.00    -0.354 N 
ATOM     57  N   UNL A   1      43.939  27.108  31.793  1.00  0.00    -0.248 NA
ATOM     58  C   UNL A   1      43.478  27.897  33.905  1.00  0.00     0.031 C 
ATOM     59  C   UNL A   1      45.582  25.052  29.810  1.00  0.00     0.029 A 
ATOM     60  C   UNL A   1      44.748  24.646  30.835  1.00  0.00     0.049 A 
ATOM     61  H   UNL A   1      43.002  23.488  30.737  1.00  0.00     0.167 HD
ATOM     62  C   UNL A   1      44.255  26.104  32.669  1.00  0.00     0.074 A 
ATOM     63  C   UNL A   1      43.959  26.646  33.981  1.00  0.00     0.031 C 
ATOM     64  C   UNL A   1      44.691  24.876  32.266  1.00  0.00     0.037 A 
BRANCH  51  65
ATOM     65  C   UNL A   1      42.948  22.143  27.116  1.00  0.00     0.057 A 
ATOM     66  C   UNL A   1      42.147  20.991  27.241  1.00  0.00     0.134 A 
ATOM     67  C   UNL A   1      43.899  22.070  26.085  1.00  0.00     0.134 A 
ATOM     68  F   UNL A   1      41.113  20.937  28.091  1.00  0.00    -0.206 F 
ATOM     69  C   UNL A   1      42.364  19.823  26.497  1.00  0.00     0.040 A 
ATOM     70  C   UNL A   1      44.171  20.891  25.374  1.00  0.00     0.040 A 
ATOM     71  F   UNL A   1      44.566  23.154  25.670  1.00  0.00    -0.206 F 
ATOM     72  C   UNL A   1      43.411  19.753  25.592  1.00  0.00     0.006 A 
ENDBRANCH  51  65
BRANCH  52  73
ATOM     73  C   UNL A   1      41.736  30.148  32.404  1.00  0.00     0.057 A 
ATOM     74  C   UNL A   1      40.565  29.477  32.800  1.00  0.00     0.134 A 
ATOM     75  C   UNL A   1      41.914  31.450  32.876  1.00  0.00     0.134 A 
ATOM     76  F   UNL A   1      40.335  28.221  32.385  1.00  0.00    -0.206 F 
ATOM     77  C   UNL A   1      39.663  30.036  33.706  1.00  0.00     0.040 A 
ATOM     78  C   UNL A   1      41.010  32.027  33.776  1.00  0.00     0.040 A 
ATOM     79  F   UNL A   1      43.016  32.146  32.565  1.00  0.00    -0.206 F 
ATOM     80  C   UNL A   1      39.902  31.307  34.220  1.00  0.00     0.006 A 
ENDBRANCH  52  73
BRANCH  64  81
ATOM     81  C   UNL A   1      45.074  23.785  33.222  1.00  0.00     0.057 A 
ATOM     82  C   UNL A   1      44.165  22.805  33.643  1.00  0.00     0.134 A 
ATOM     83  C   UNL A   1      46.337  23.757  33.842  1.00  0.00     0.134 A 
ATOM     84  F   UNL A   1      42.913  22.772  33.161  1.00  0.00    -0.206 F 
ATOM     85  C   UNL A   1      44.503  21.832  34.591  1.00  0.00     0.040 A 
ATOM     86  C   UNL A   1      46.672  22.821  34.823  1.00  0.00     0.040 A 
ATOM     87  F   UNL A   1      47.304  24.624  33.508  1.00  0.00    -0.206 F 
ATOM     88  C   UNL A   1      45.757  21.845  35.193  1.00  0.00     0.006 A 
ENDBRANCH  64  81
ENDBRANCH  38  39
ENDBRANCH  30  33
ENDBRANCH  28  29
ENDBRANCH  27  28
ENDBRANCH   1  27
TORSDOF 13
ENDMDL
MODEL 3
REMARK VINA RESULT:     -13.2      1.293      1.629
REMARK SMILES Cc1ccc(N2C(=O)C[C@H](Sc3ccccc3C(=O)NCCCNC(=O)c3ccc(-c4c5nc(c(-c6c(F)cccc6F)c6ccc([nH]6)c(-c6c(F)cccc6F)c6nc(c(-c7c(F)cccc7F)c7ccc4[nH]7)C=C6)C=C5)cc3)C2=O)cc1
REMARK SMILES IDX 21 1 20 2 18 3 19 4 17 6 12 7 13 8 14 9 16 10 15 11 11 12
REMARK SMILES IDX 10 13 6 14 7 15 81 16 8 17 9 18 82 19 5 20 1 21 2 22 3 23
REMARK SMILES IDX 84 24 4 25 83 26 22 27 23 28 24 29 25 30 26 32 27 33 28 34
REMARK SMILES IDX 80 35 29 36 79 37 30 38 31 39 32 40 73 41 33 42 78 43 72 44
REMARK SMILES IDX 74 45 34 46 77 47 71 48 70 49 35 51 61 52 44 53 60 54 45 55
REMARK SMILES IDX 48 56 59 57 75 58 46 59 47 60 58 62 76 63 49 64 36 65 37 66
REMARK SMILES IDX 42 67 38 68 39 69 41 70 43 71 40 72 62 73 63 74 68 75 64 76
REMARK SMILES IDX 65 77 67 78 69 79 66 80 50 81 51 82 56 83 52 84 53 85 55 86
REMARK SMILES IDX 57 87 54 88
REMARK H PARENT 20 5 24 31 74 50 48 61
REMARK Flexibility Score: inf
ROOT
ATOM      1  C   UNL A   1      37.451  21.454  25.091  1.00  0.00     0.118 C 
ENDROOT
BRANCH   1   2
ATOM      2  N   UNL A   1      36.375  21.806  26.008  1.00  0.00    -0.352 N 
ATOM      3  C   UNL A   1      35.036  21.518  26.125  1.00  0.00     0.252 C 
ATOM      4  O   UNL A   1      34.541  21.846  27.204  1.00  0.00    -0.269 OA
ATOM      5  H   UNL A   1      36.687  22.400  26.728  1.00  0.00     0.163 HD
BRANCH   3   6
ATOM      6  C   UNL A   1      34.175  20.894  25.064  1.00  0.00     0.053 A 
ATOM      7  C   UNL A   1      33.406  21.684  24.162  1.00  0.00     0.021 A 
ATOM      8  C   UNL A   1      32.531  21.048  23.255  1.00  0.00     0.016 A 
ATOM      9  C   UNL A   1      32.411  19.662  23.213  1.00  0.00     0.001 A 
ATOM     10  C   UNL A   1      34.027  19.498  24.997  1.00  0.00     0.015 A 
ATOM     11  C   UNL A   1      33.163  18.887  24.081  1.00  0.00     0.001 A 
BRANCH   7  12
ATOM     12  S   UNL A   1      33.239  23.478  24.159  1.00  0.00    -0.111 SA
BRANCH  12  13
ATOM     13  C   UNL A   1      31.448  23.787  23.986  1.00  0.00     0.151 C 
ATOM     14  N   UNL A   1      30.424  25.880  24.214  1.00  0.00    -0.250 N 
ATOM     15  C   UNL A   1      30.309  25.264  25.441  1.00  0.00     0.235 C 
ATOM     16  C   UNL A   1      31.119  25.097  23.314  1.00  0.00     0.247 C 
ATOM     17  O   UNL A   1      29.900  25.718  26.502  1.00  0.00    -0.274 OA
ATOM     18  C   UNL A   1      30.657  23.818  25.270  1.00  0.00     0.126 C 
ATOM     19  O   UNL A   1      31.466  25.384  22.175  1.00  0.00    -0.273 OA
BRANCH  14  20
ATOM     20  C   UNL A   1      29.856  27.144  23.902  1.00  0.00     0.052 A 
ATOM     21  C   UNL A   1      28.262  30.969  22.633  1.00  0.00     0.044 C 
ATOM     22  C   UNL A   1      28.799  29.652  23.108  1.00  0.00    -0.051 A 
ATOM     23  C   UNL A   1      30.136  29.535  23.495  1.00  0.00     0.005 A 
ATOM     24  C   UNL A   1      27.995  28.510  23.118  1.00  0.00     0.005 A 
ATOM     25  C   UNL A   1      30.652  28.301  23.907  1.00  0.00     0.027 A 
ATOM     26  C   UNL A   1      28.520  27.270  23.500  1.00  0.00     0.027 A 
ENDBRANCH  14  20
ENDBRANCH  12  13
ENDBRANCH   7  12
ENDBRANCH   3   6
ENDBRANCH   1   2
BRANCH   1  27
ATOM     27  C   UNL A   1      38.838  21.438  25.722  1.00  0.00     0.042 C 
BRANCH  27  28
ATOM     28  C   UNL A   1      39.144  22.721  26.492  1.00  0.00     0.118 C 
BRANCH  28  29
ATOM     29  N   UNL A   1      40.570  22.960  26.736  1.00  0.00    -0.352 N 
ATOM     30  C   UNL A   1      41.205  24.163  27.019  1.00  0.00     0.251 C 
ATOM     31  H   UNL A   1      41.152  22.166  26.695  1.00  0.00     0.163 HD
ATOM     32  O   UNL A   1      42.398  24.208  27.264  1.00  0.00    -0.269 OA
BRANCH  30  33
ATOM     33  C   UNL A   1      40.366  25.379  27.130  1.00  0.00     0.039 A 
ATOM     34  C   UNL A   1      40.748  26.505  26.397  1.00  0.00     0.014 A 
ATOM     35  C   UNL A   1      39.431  25.473  28.157  1.00  0.00     0.014 A 
ATOM     36  C   UNL A   1      40.405  27.766  26.878  1.00  0.00     0.010 A 
ATOM     37  C   UNL A   1      39.167  26.722  28.686  1.00  0.00     0.010 A 
ATOM     38  C   UNL A   1      39.732  27.860  28.097  1.00  0.00    -0.014 A 
BRANCH  38  39
ATOM     39  C   UNL A   1      39.762  29.070  28.917  1.00  0.00     0.031 A 
ATOM     40  C   UNL A   1      38.720  30.107  28.799  1.00  0.00     0.074 A 
ATOM     41  C   UNL A   1      40.721  29.196  29.864  1.00  0.00     0.049 A 
ATOM     42  N   UNL A   1      38.858  31.324  29.207  1.00  0.00    -0.248 NA
ATOM     43  C   UNL A   1      37.434  29.855  28.167  1.00  0.00     0.031 C 
ATOM     44  C   UNL A   1      40.774  30.168  30.953  1.00  0.00     0.029 A 
ATOM     45  N   UNL A   1      41.985  28.585  29.883  1.00  0.00    -0.354 N 
ATOM     46  C   UNL A   1      37.630  31.940  29.135  1.00  0.00     0.074 A 
ATOM     47  C   UNL A   1      36.789  30.994  28.434  1.00  0.00     0.031 C 
ATOM     48  C   UNL A   1      42.053  30.324  31.326  1.00  0.00     0.029 A 
ATOM     49  C   UNL A   1      42.869  29.561  30.399  1.00  0.00     0.049 A 
ATOM     50  H   UNL A   1      42.208  27.670  29.597  1.00  0.00     0.167 HD
ATOM     51  C   UNL A   1      37.438  33.131  29.772  1.00  0.00     0.037 A 
ATOM     52  C   UNL A   1      43.872  30.072  29.629  1.00  0.00     0.037 A 
ATOM     53  C   UNL A   1      38.680  33.641  30.357  1.00  0.00     0.049 A 
ATOM     54  C   UNL A   1      43.786  31.563  29.372  1.00  0.00     0.074 A 
ATOM     55  C   UNL A   1      39.226  33.654  31.630  1.00  0.00     0.029 A 
ATOM     56  N   UNL A   1      39.701  34.018  29.505  1.00  0.00    -0.354 N 
ATOM     57  N   UNL A   1      42.824  32.336  29.795  1.00  0.00    -0.248 NA
ATOM     58  C   UNL A   1      44.739  32.280  28.522  1.00  0.00     0.031 C 
ATOM     59  C   UNL A   1      40.595  34.038  31.526  1.00  0.00     0.029 A 
ATOM     60  C   UNL A   1      40.876  34.256  30.191  1.00  0.00     0.049 A 
ATOM     61  H   UNL A   1      39.604  34.105  28.530  1.00  0.00     0.167 HD
ATOM     62  C   UNL A   1      42.974  33.584  29.251  1.00  0.00     0.074 A 
ATOM     63  C   UNL A   1      44.192  33.505  28.468  1.00  0.00     0.031 C 
ATOM     64  C   UNL A   1      42.068  34.587  29.432  1.00  0.00     0.037 A 
BRANCH  51  65
ATOM     65  C   UNL A   1      36.077  33.724  30.058  1.00  0.00     0.057 A 
ATOM     66  C   UNL A   1      35.262  34.203  29.014  1.00  0.00     0.134 A 
ATOM     67  C   UNL A   1      35.529  33.899  31.340  1.00  0.00     0.134 A 
ATOM     68  F   UNL A   1      35.575  34.009  27.727  1.00  0.00    -0.206 F 
ATOM     69  C   UNL A   1      34.075  34.913  29.235  1.00  0.00     0.040 A 
ATOM     70  C   UNL A   1      34.375  34.660  31.583  1.00  0.00     0.040 A 
ATOM     71  F   UNL A   1      36.046  33.288  32.413  1.00  0.00    -0.206 F 
ATOM     72  C   UNL A   1      33.651  35.187  30.525  1.00  0.00     0.006 A 
ENDBRANCH  51  65
BRANCH  52  73
ATOM     73  C   UNL A   1      44.448  29.080  28.685  1.00  0.00     0.057 A 
ATOM     74  C   UNL A   1      45.327  28.102  29.180  1.00  0.00     0.134 A 
ATOM     75  C   UNL A   1      43.909  28.868  27.414  1.00  0.00     0.134 A 
ATOM     76  F   UNL A   1      45.877  28.243  30.397  1.00  0.00    -0.206 F 
ATOM     77  C   UNL A   1      45.579  26.916  28.488  1.00  0.00     0.040 A 
ATOM     78  C   UNL A   1      44.164  27.689  26.704  1.00  0.00     0.040 A 
ATOM     79  F   UNL A   1      43.043  29.742  26.883  1.00  0.00    -0.206 F 
ATOM     80  C   UNL A   1      44.971  26.695  27.257  1.00  0.00     0.006 A 
ENDBRANCH  52  73
BRANCH  64  81
ATOM     81  C   UNL A   1      42.246  35.966  28.869  1.00  0.00     0.057 A 
ATOM     82  C   UNL A   1      41.741  36.334  27.615  1.00  0.00     0.134 A 
ATOM     83  C   UNL A   1      43.035  36.933  29.520  1.00  0.00     0.134 A 
ATOM     84  F   UNL A   1      41.023  35.470  26.879  1.00  0.00    -0.206 F 
ATOM     85  C   UNL A   1      41.971  37.598  27.060  1.00  0.00     0.040 A 
ATOM     86  C   UNL A   1      43.311  38.181  28.957  1.00  0.00     0.040 A 
ATOM     87  F   UNL A   1      43.554  36.714  30.737  1.00  0.00    -0.206 F 
ATOM     88  C   UNL A   1      42.768  38.523  27.726  1.00  0.00     0.006 A 
ENDBRANCH  64  81
ENDBRANCH  38  39
ENDBRANCH  30  33
ENDBRANCH  28  29
ENDBRANCH  27  28
ENDBRANCH   1  27
TORSDOF 13
ENDMDL
