MODEL 1
REMARK VINA RESULT:     -12.0      0.000      0.000
REMARK SMILES O=C(Cc1ccccc1Nc1c(F)cccc1C(F)(F)F)NCCCNC(=O)c1ccc(-c2c3nc(c(-c4c(F)cccc4F)c4ccc([nH]4)c(-c4c(F)cccc4F)c4nc(c(-c5c(F)cccc5F)c5ccc2[nH]5)C=C4)C=C3)cc1
REMARK SMILES IDX 23 1 22 2 1 3 2 4 3 6 4 7 5 8 9 9 6 10 8 11 7 12 10 13 11 15
REMARK SMILES IDX 12 16 17 17 13 18 14 19 16 20 15 21 18 22 19 23 20 24 21 25
REMARK SMILES IDX 24 26 25 27 26 28 27 29 28 31 29 32 30 33 82 34 31 35 81 36
REMARK SMILES IDX 32 37 33 38 34 39 75 40 35 41 80 42 74 43 76 44 36 45 79 46
REMARK SMILES IDX 73 47 72 48 37 50 63 51 46 52 62 53 47 54 50 55 61 56 77 57
REMARK SMILES IDX 48 58 49 59 60 61 78 62 51 63 38 64 39 65 44 66 40 67 41 68
REMARK SMILES IDX 43 69 45 70 42 71 64 72 65 73 70 74 66 75 67 76 69 77 71 78
REMARK SMILES IDX 68 79 52 80 53 81 58 82 54 83 55 84 57 85 59 86 56 87
REMARK H PARENT 22 5 10 14 26 30 76 49 50 60
REMARK Flexibility Score: inf
ROOT
ATOM      1  C   UNL A   1      37.388  20.886  24.879  1.00  0.00     0.117 C 
ENDROOT
BRANCH   1   2
ATOM      2  N   UNL A   1      36.023  20.494  25.168  1.00  0.00    -0.356 N 
ATOM      3  O   UNL A   1      35.483  22.354  26.401  1.00  0.00    -0.275 OA
ATOM      4  C   UNL A   1      35.151  21.298  25.870  1.00  0.00     0.224 C 
ATOM      5  H   UNL A   1      35.706  19.617  24.851  1.00  0.00     0.163 HD
BRANCH   4   6
ATOM      6  C   UNL A   1      33.719  20.788  25.936  1.00  0.00     0.137 C 
BRANCH   6   7
ATOM      7  C   UNL A   1      33.024  20.818  24.589  1.00  0.00    -0.015 A 
ATOM      8  C   UNL A   1      32.752  19.589  23.955  1.00  0.00     0.006 A 
ATOM      9  C   UNL A   1      32.677  22.031  23.950  1.00  0.00     0.042 A 
ATOM     10  C   UNL A   1      32.166  19.553  22.692  1.00  0.00     0.000 A 
ATOM     11  C   UNL A   1      32.102  21.963  22.673  1.00  0.00     0.026 A 
ATOM     12  C   UNL A   1      31.851  20.741  22.047  1.00  0.00     0.002 A 
BRANCH   9  13
ATOM     13  N   UNL A   1      32.853  23.267  24.608  1.00  0.00    -0.352 N 
ATOM     14  H   UNL A   1      33.752  23.407  24.986  1.00  0.00     0.167 HD
BRANCH  13  15
ATOM     15  C   UNL A   1      31.955  24.337  24.816  1.00  0.00     0.087 A 
ATOM     16  C   UNL A   1      32.160  25.506  24.055  1.00  0.00     0.147 A 
ATOM     17  C   UNL A   1      30.844  24.291  25.675  1.00  0.00     0.082 A 
ATOM     18  F   UNL A   1      33.225  25.578  23.240  1.00  0.00    -0.205 F 
ATOM     19  C   UNL A   1      31.288  26.588  24.096  1.00  0.00     0.041 A 
ATOM     20  C   UNL A   1      29.949  25.389  25.692  1.00  0.00     0.015 A 
ATOM     21  C   UNL A   1      30.166  26.524  24.910  1.00  0.00     0.004 A 
BRANCH  17  22
ATOM     22  C   UNL A   1      30.563  23.151  26.626  1.00  0.00     0.418 C 
ATOM     23  F   UNL A   1      29.474  23.408  27.416  1.00  0.00    -0.166 F 
ATOM     24  F   UNL A   1      30.252  21.994  25.977  1.00  0.00    -0.166 F 
ATOM     25  F   UNL A   1      31.559  22.856  27.502  1.00  0.00    -0.166 F 
ENDBRANCH  17  22
ENDBRANCH  13  15
ENDBRANCH   9  13
ENDBRANCH   6   7
ENDBRANCH   4   6
ENDBRANCH   1   2
BRANCH   1  26
ATOM     26  C   UNL A   1      38.361  19.715  24.926  1.00  0.00     0.042 C 
BRANCH  26  27
ATOM     27  C   UNL A   1      39.341  19.736  26.095  1.00  0.00     0.118 C 
BRANCH  27  28
ATOM     28  N   UNL A   1      40.502  18.879  25.901  1.00  0.00    -0.352 N 
ATOM     29  C   UNL A   1      41.842  19.158  26.002  1.00  0.00     0.251 C 
ATOM     30  H   UNL A   1      40.292  17.948  25.657  1.00  0.00     0.163 HD
ATOM     31  O   UNL A   1      42.659  18.289  25.694  1.00  0.00    -0.269 OA
BRANCH  29  32
ATOM     32  C   UNL A   1      42.328  20.487  26.441  1.00  0.00     0.039 A 
ATOM     33  C   UNL A   1      42.808  21.369  25.467  1.00  0.00     0.014 A 
ATOM     34  C   UNL A   1      42.349  20.866  27.786  1.00  0.00     0.014 A 
ATOM     35  C   UNL A   1      43.244  22.645  25.831  1.00  0.00     0.010 A 
ATOM     36  C   UNL A   1      42.721  22.164  28.141  1.00  0.00     0.010 A 
ATOM     37  C   UNL A   1      43.169  23.069  27.168  1.00  0.00    -0.014 A 
BRANCH  37  38
ATOM     38  C   UNL A   1      43.527  24.463  27.540  1.00  0.00     0.031 A 
ATOM     39  C   UNL A   1      44.956  24.930  27.513  1.00  0.00     0.074 A 
ATOM     40  C   UNL A   1      42.558  25.306  27.948  1.00  0.00     0.049 A 
ATOM     41  N   UNL A   1      45.445  26.110  27.805  1.00  0.00    -0.248 NA
ATOM     42  C   UNL A   1      45.972  23.938  27.131  1.00  0.00     0.031 C 
ATOM     43  C   UNL A   1      41.140  24.964  28.081  1.00  0.00     0.029 A 
ATOM     44  N   UNL A   1      42.617  26.624  28.327  1.00  0.00    -0.354 N 
ATOM     45  C   UNL A   1      46.821  26.000  27.651  1.00  0.00     0.074 A 
ATOM     46  C   UNL A   1      47.094  24.626  27.287  1.00  0.00     0.031 C 
ATOM     47  C   UNL A   1      40.461  26.050  28.479  1.00  0.00     0.029 A 
ATOM     48  C   UNL A   1      41.395  27.158  28.655  1.00  0.00     0.049 A 
ATOM     49  H   UNL A   1      43.456  27.138  28.359  1.00  0.00     0.167 HD
ATOM     50  C   UNL A   1      47.768  26.960  27.780  1.00  0.00     0.037 A 
ATOM     51  C   UNL A   1      41.060  28.401  29.048  1.00  0.00     0.037 A 
ATOM     52  C   UNL A   1      47.498  28.334  28.121  1.00  0.00     0.049 A 
ATOM     53  C   UNL A   1      42.126  29.454  29.154  1.00  0.00     0.074 A 
ATOM     54  C   UNL A   1      48.389  29.389  28.220  1.00  0.00     0.029 A 
ATOM     55  N   UNL A   1      46.243  28.842  28.419  1.00  0.00    -0.354 N 
ATOM     56  N   UNL A   1      43.414  29.352  28.935  1.00  0.00    -0.248 NA
ATOM     57  C   UNL A   1      41.687  30.801  29.549  1.00  0.00     0.031 C 
ATOM     58  C   UNL A   1      47.677  30.530  28.609  1.00  0.00     0.029 A 
ATOM     59  C   UNL A   1      46.338  30.193  28.713  1.00  0.00     0.049 A 
ATOM     60  H   UNL A   1      45.409  28.320  28.420  1.00  0.00     0.167 HD
ATOM     61  C   UNL A   1      43.936  30.623  29.140  1.00  0.00     0.074 A 
ATOM     62  C   UNL A   1      42.822  31.482  29.484  1.00  0.00     0.031 C 
ATOM     63  C   UNL A   1      45.222  31.039  29.051  1.00  0.00     0.037 A 
BRANCH  50  64
ATOM     64  C   UNL A   1      49.196  26.557  27.543  1.00  0.00     0.057 A 
ATOM     65  C   UNL A   1      50.024  26.134  28.591  1.00  0.00     0.134 A 
ATOM     66  C   UNL A   1      49.735  26.555  26.251  1.00  0.00     0.134 A 
ATOM     67  F   UNL A   1      49.571  26.122  29.853  1.00  0.00    -0.206 F 
ATOM     68  C   UNL A   1      51.346  25.746  28.365  1.00  0.00     0.040 A 
ATOM     69  C   UNL A   1      51.049  26.147  26.010  1.00  0.00     0.040 A 
ATOM     70  F   UNL A   1      48.995  26.942  25.202  1.00  0.00    -0.206 F 
ATOM     71  C   UNL A   1      51.859  25.746  27.070  1.00  0.00     0.006 A 
ENDBRANCH  50  64
BRANCH  51  72
ATOM     72  C   UNL A   1      39.642  28.732  29.328  1.00  0.00     0.057 A 
ATOM     73  C   UNL A   1      39.109  28.580  30.614  1.00  0.00     0.134 A 
ATOM     74  C   UNL A   1      38.787  29.202  28.325  1.00  0.00     0.134 A 
ATOM     75  F   UNL A   1      39.876  28.116  31.612  1.00  0.00    -0.206 F 
ATOM     76  C   UNL A   1      37.771  28.866  30.889  1.00  0.00     0.040 A 
ATOM     77  C   UNL A   1      37.453  29.513  28.591  1.00  0.00     0.040 A 
ATOM     78  F   UNL A   1      39.242  29.375  27.076  1.00  0.00    -0.206 F 
ATOM     79  C   UNL A   1      36.940  29.338  29.875  1.00  0.00     0.006 A 
ENDBRANCH  51  72
BRANCH  63  80
ATOM     80  C   UNL A   1      45.484  32.495  29.301  1.00  0.00     0.057 A 
ATOM     81  C   UNL A   1      45.795  32.984  30.576  1.00  0.00     0.134 A 
ATOM     82  C   UNL A   1      45.432  33.419  28.249  1.00  0.00     0.134 A 
ATOM     83  F   UNL A   1      45.847  32.153  31.628  1.00  0.00    -0.206 F 
ATOM     84  C   UNL A   1      46.013  34.343  30.803  1.00  0.00     0.040 A 
ATOM     85  C   UNL A   1      45.672  34.777  28.459  1.00  0.00     0.040 A 
ATOM     86  F   UNL A   1      45.146  33.015  27.001  1.00  0.00    -0.206 F 
ATOM     87  C   UNL A   1      45.956  35.244  29.740  1.00  0.00     0.006 A 
ENDBRANCH  63  80
ENDBRANCH  37  38
ENDBRANCH  29  32
ENDBRANCH  27  28
ENDBRANCH  26  27
ENDBRANCH   1  26
TORSDOF 14
ENDMDL
MODEL 2
REMARK VINA RESULT:     -11.9      2.053      2.959
REMARK SMILES O=C(Cc1ccccc1Nc1c(F)cccc1C(F)(F)F)NCCCNC(=O)c1ccc(-c2c3nc(c(-c4c(F)cccc4F)c4ccc([nH]4)c(-c4c(F)cccc4F)c4nc(c(-c5c(F)cccc5F)c5ccc2[nH]5)C=C4)C=C3)cc1
REMARK SMILES IDX 23 1 22 2 1 3 2 4 3 6 4 7 5 8 9 9 6 10 8 11 7 12 10 13 11 15
REMARK SMILES IDX 12 16 17 17 13 18 14 19 16 20 15 21 18 22 19 23 20 24 21 25
REMARK SMILES IDX 24 26 25 27 26 28 27 29 28 31 29 32 30 33 82 34 31 35 81 36
REMARK SMILES IDX 32 37 33 38 34 39 75 40 35 41 80 42 74 43 76 44 36 45 79 46
REMARK SMILES IDX 73 47 72 48 37 50 63 51 46 52 62 53 47 54 50 55 61 56 77 57
REMARK SMILES IDX 48 58 49 59 60 61 78 62 51 63 38 64 39 65 44 66 40 67 41 68
REMARK SMILES IDX 43 69 45 70 42 71 64 72 65 73 70 74 66 75 67 76 69 77 71 78
REMARK SMILES IDX 68 79 52 80 53 81 58 82 54 83 55 84 57 85 59 86 56 87
REMARK H PARENT 22 5 10 14 26 30 76 49 50 60
REMARK Flexibility Score: inf
ROOT
ATOM      1  C   UNL A   1      36.204  20.068  25.024  1.00  0.00     0.117 C 
ENDROOT
BRANCH   1   2
ATOM      2  N   UNL A   1      35.839  21.181  25.877  1.00  0.00    -0.356 N 
ATOM      3  O   UNL A   1      34.462  22.219  24.360  1.00  0.00    -0.275 OA
ATOM      4  C   UNL A   1      34.941  22.153  25.489  1.00  0.00     0.224 C 
ATOM      5  H   UNL A   1      36.250  21.248  26.770  1.00  0.00     0.163 HD
BRANCH   4   6
ATOM      6  C   UNL A   1      34.563  23.149  26.575  1.00  0.00     0.137 C 
BRANCH   6   7
ATOM      7  C   UNL A   1      33.107  23.564  26.510  1.00  0.00    -0.015 A 
ATOM      8  C   UNL A   1      32.135  22.649  26.962  1.00  0.00     0.006 A 
ATOM      9  C   UNL A   1      32.707  24.815  25.985  1.00  0.00     0.042 A 
ATOM     10  C   UNL A   1      30.778  22.951  26.875  1.00  0.00     0.000 A 
ATOM     11  C   UNL A   1      31.333  25.084  25.897  1.00  0.00     0.026 A 
ATOM     12  C   UNL A   1      30.378  24.164  26.333  1.00  0.00     0.002 A 
BRANCH   9  13
ATOM     13  N   UNL A   1      33.666  25.782  25.617  1.00  0.00    -0.352 N 
ATOM     14  H   UNL A   1      34.515  25.727  26.113  1.00  0.00     0.167 HD
BRANCH  13  15
ATOM     15  C   UNL A   1      33.613  26.815  24.657  1.00  0.00     0.087 A 
ATOM     16  C   UNL A   1      33.776  26.447  23.305  1.00  0.00     0.147 A 
ATOM     17  C   UNL A   1      33.345  28.164  24.949  1.00  0.00     0.082 A 
ATOM     18  F   UNL A   1      34.049  25.167  23.004  1.00  0.00    -0.205 F 
ATOM     19  C   UNL A   1      33.645  27.356  22.261  1.00  0.00     0.041 A 
ATOM     20  C   UNL A   1      33.190  29.077  23.877  1.00  0.00     0.015 A 
ATOM     21  C   UNL A   1      33.336  28.678  22.547  1.00  0.00     0.004 A 
BRANCH  17  22
ATOM     22  C   UNL A   1      33.255  28.718  26.351  1.00  0.00     0.418 C 
ATOM     23  F   UNL A   1      33.402  30.080  26.367  1.00  0.00    -0.166 F 
ATOM     24  F   UNL A   1      32.038  28.496  26.924  1.00  0.00    -0.166 F 
ATOM     25  F   UNL A   1      34.190  28.263  27.225  1.00  0.00    -0.166 F 
ENDBRANCH  17  22
ENDBRANCH  13  15
ENDBRANCH   9  13
ENDBRANCH   6   7
ENDBRANCH   4   6
ENDBRANCH   1   2
BRANCH   1  26
ATOM     26  C   UNL A   1      37.668  20.100  24.606  1.00  0.00     0.042 C 
BRANCH  26  27
ATOM     27  C   UNL A   1      38.661  20.319  25.744  1.00  0.00     0.118 C 
BRANCH  27  28
ATOM     28  N   UNL A   1      39.804  19.418  25.706  1.00  0.00    -0.352 N 
ATOM     29  C   UNL A   1      41.116  19.629  26.047  1.00  0.00     0.251 C 
ATOM     30  H   UNL A   1      39.603  18.510  25.380  1.00  0.00     0.163 HD
ATOM     31  O   UNL A   1      41.940  18.737  25.836  1.00  0.00    -0.269 OA
BRANCH  29  32
ATOM     32  C   UNL A   1      41.570  20.912  26.631  1.00  0.00     0.039 A 
ATOM     33  C   UNL A   1      42.002  21.918  25.759  1.00  0.00     0.014 A 
ATOM     34  C   UNL A   1      41.609  21.132  28.011  1.00  0.00     0.014 A 
ATOM     35  C   UNL A   1      42.405  23.157  26.264  1.00  0.00     0.010 A 
ATOM     36  C   UNL A   1      41.949  22.390  28.510  1.00  0.00     0.010 A 
ATOM     37  C   UNL A   1      42.347  23.418  27.643  1.00  0.00    -0.014 A 
BRANCH  37  38
ATOM     38  C   UNL A   1      42.670  24.769  28.170  1.00  0.00     0.031 A 
ATOM     39  C   UNL A   1      44.083  25.150  28.516  1.00  0.00     0.074 A 
ATOM     40  C   UNL A   1      41.672  25.650  28.380  1.00  0.00     0.049 A 
ATOM     41  N   UNL A   1      44.542  26.283  28.985  1.00  0.00    -0.248 NA
ATOM     42  C   UNL A   1      45.113  24.116  28.334  1.00  0.00     0.031 C 
ATOM     43  C   UNL A   1      40.250  25.389  28.146  1.00  0.00     0.029 A 
ATOM     44  N   UNL A   1      41.700  26.944  28.838  1.00  0.00    -0.354 N 
ATOM     45  C   UNL A   1      45.906  26.097  29.162  1.00  0.00     0.074 A 
ATOM     46  C   UNL A   1      46.195  24.727  28.795  1.00  0.00     0.031 C 
ATOM     47  C   UNL A   1      39.547  26.496  28.431  1.00  0.00     0.029 A 
ATOM     48  C   UNL A   1      40.462  27.536  28.892  1.00  0.00     0.049 A 
ATOM     49  H   UNL A   1      42.529  27.404  29.101  1.00  0.00     0.167 HD
ATOM     50  C   UNL A   1      46.839  26.991  29.572  1.00  0.00     0.037 A 
ATOM     51  C   UNL A   1      40.102  28.779  29.263  1.00  0.00     0.037 A 
ATOM     52  C   UNL A   1      46.560  28.362  29.917  1.00  0.00     0.049 A 
ATOM     53  C   UNL A   1      41.158  29.760  29.685  1.00  0.00     0.074 A 
ATOM     54  C   UNL A   1      47.449  29.356  30.289  1.00  0.00     0.029 A 
ATOM     55  N   UNL A   1      45.296  28.932  29.931  1.00  0.00    -0.354 N 
ATOM     56  N   UNL A   1      42.455  29.590  29.778  1.00  0.00    -0.248 NA
ATOM     57  C   UNL A   1      40.702  31.112  30.039  1.00  0.00     0.031 C 
ATOM     58  C   UNL A   1      46.719  30.520  30.560  1.00  0.00     0.029 A 
ATOM     59  C   UNL A   1      45.381  30.260  30.317  1.00  0.00     0.049 A 
ATOM     60  H   UNL A   1      44.463  28.462  29.701  1.00  0.00     0.167 HD
ATOM     61  C   UNL A   1      42.971  30.815  30.175  1.00  0.00     0.074 A 
ATOM     62  C   UNL A   1      41.849  31.725  30.289  1.00  0.00     0.031 C 
ATOM     63  C   UNL A   1      44.259  31.157  30.424  1.00  0.00     0.037 A 
BRANCH  50  64
ATOM     64  C   UNL A   1      48.260  26.513  29.663  1.00  0.00     0.057 A 
ATOM     65  C   UNL A   1      48.755  25.898  30.820  1.00  0.00     0.134 A 
ATOM     66  C   UNL A   1      49.129  26.635  28.573  1.00  0.00     0.134 A 
ATOM     67  F   UNL A   1      47.977  25.759  31.903  1.00  0.00    -0.206 F 
ATOM     68  C   UNL A   1      50.073  25.441  30.897  1.00  0.00     0.040 A 
ATOM     69  C   UNL A   1      50.442  26.161  28.630  1.00  0.00     0.040 A 
ATOM     70  F   UNL A   1      48.717  27.208  27.433  1.00  0.00    -0.206 F 
ATOM     71  C   UNL A   1      50.918  25.567  29.796  1.00  0.00     0.006 A 
ENDBRANCH  50  64
BRANCH  51  72
ATOM     72  C   UNL A   1      38.675  29.182  29.212  1.00  0.00     0.057 A 
ATOM     73  C   UNL A   1      38.096  29.627  28.017  1.00  0.00     0.134 A 
ATOM     74  C   UNL A   1      37.860  29.138  30.348  1.00  0.00     0.134 A 
ATOM     75  F   UNL A   1      38.833  29.708  26.899  1.00  0.00    -0.206 F 
ATOM     76  C   UNL A   1      36.762  30.031  27.958  1.00  0.00     0.040 A 
ATOM     77  C   UNL A   1      36.519  29.518  30.299  1.00  0.00     0.040 A 
ATOM     78  F   UNL A   1      38.356  28.714  31.519  1.00  0.00    -0.206 F 
ATOM     79  C   UNL A   1      35.968  29.973  29.101  1.00  0.00     0.006 A 
ENDBRANCH  51  72
BRANCH  63  80
ATOM     80  C   UNL A   1      44.521  32.582  30.814  1.00  0.00     0.057 A 
ATOM     81  C   UNL A   1      44.766  33.577  29.861  1.00  0.00     0.134 A 
ATOM     82  C   UNL A   1      44.521  32.962  32.163  1.00  0.00     0.134 A 
ATOM     83  F   UNL A   1      44.793  33.274  28.554  1.00  0.00    -0.206 F 
ATOM     84  C   UNL A   1      45.033  34.895  30.234  1.00  0.00     0.040 A 
ATOM     85  C   UNL A   1      44.762  34.282  32.548  1.00  0.00     0.040 A 
ATOM     86  F   UNL A   1      44.286  32.058  33.126  1.00  0.00    -0.206 F 
ATOM     87  C   UNL A   1      45.027  35.251  31.583  1.00  0.00     0.006 A 
ENDBRANCH  63  80
ENDBRANCH  37  38
ENDBRANCH  29  32
ENDBRANCH  27  28
ENDBRANCH  26  27
ENDBRANCH   1  26
TORSDOF 14
ENDMDL
MODEL 3
REMARK VINA RESULT:     -11.9      2.659      7.711
REMARK SMILES O=C(Cc1ccccc1Nc1c(F)cccc1C(F)(F)F)NCCCNC(=O)c1ccc(-c2c3nc(c(-c4c(F)cccc4F)c4ccc([nH]4)c(-c4c(F)cccc4F)c4nc(c(-c5c(F)cccc5F)c5ccc2[nH]5)C=C4)C=C3)cc1
REMARK SMILES IDX 23 1 22 2 1 3 2 4 3 6 4 7 5 8 9 9 6 10 8 11 7 12 10 13 11 15
REMARK SMILES IDX 12 16 17 17 13 18 14 19 16 20 15 21 18 22 19 23 20 24 21 25
REMARK SMILES IDX 24 26 25 27 26 28 27 29 28 31 29 32 30 33 82 34 31 35 81 36
REMARK SMILES IDX 32 37 33 38 34 39 75 40 35 41 80 42 74 43 76 44 36 45 79 46
REMARK SMILES IDX 73 47 72 48 37 50 63 51 46 52 62 53 47 54 50 55 61 56 77 57
REMARK SMILES IDX 48 58 49 59 60 61 78 62 51 63 38 64 39 65 44 66 40 67 41 68
REMARK SMILES IDX 43 69 45 70 42 71 64 72 65 73 70 74 66 75 67 76 69 77 71 78
REMARK SMILES IDX 68 79 52 80 53 81 58 82 54 83 55 84 57 85 59 86 56 87
REMARK H PARENT 22 5 10 14 26 30 76 49 50 60
REMARK Flexibility Score: inf
ROOT
ATOM      1  C   UNL A   1      32.614  26.735  26.001  1.00  0.00     0.117 C 
ENDROOT
BRANCH   1   2
ATOM      2  N   UNL A   1      32.929  25.399  26.466  1.00  0.00    -0.356 N 
ATOM      3  O   UNL A   1      34.042  24.729  24.572  1.00  0.00    -0.275 OA
ATOM      4  C   UNL A   1      33.676  24.510  25.724  1.00  0.00     0.224 C 
ATOM      5  H   UNL A   1      32.594  25.114  27.347  1.00  0.00     0.163 HD
BRANCH   4   6
ATOM      6  C   UNL A   1      34.037  23.218  26.442  1.00  0.00     0.137 C 
BRANCH   6   7
ATOM      7  C   UNL A   1      35.371  22.653  25.998  1.00  0.00    -0.015 A 
ATOM      8  C   UNL A   1      36.501  23.493  26.057  1.00  0.00     0.006 A 
ATOM      9  C   UNL A   1      35.500  21.334  25.505  1.00  0.00     0.042 A 
ATOM     10  C   UNL A   1      37.743  23.049  25.611  1.00  0.00     0.000 A 
ATOM     11  C   UNL A   1      36.761  20.920  25.050  1.00  0.00     0.026 A 
ATOM     12  C   UNL A   1      37.870  21.766  25.098  1.00  0.00     0.002 A 
BRANCH   9  13
ATOM     13  N   UNL A   1      34.403  20.446  25.528  1.00  0.00    -0.352 N 
ATOM     14  H   UNL A   1      33.942  20.385  26.396  1.00  0.00     0.167 HD
BRANCH  13  15
ATOM     15  C   UNL A   1      33.857  19.629  24.514  1.00  0.00     0.087 A 
ATOM     16  C   UNL A   1      34.323  18.300  24.437  1.00  0.00     0.147 A 
ATOM     17  C   UNL A   1      32.842  20.028  23.627  1.00  0.00     0.082 A 
ATOM     18  F   UNL A   1      35.305  17.903  25.263  1.00  0.00    -0.205 F 
ATOM     19  C   UNL A   1      33.793  17.371  23.548  1.00  0.00     0.041 A 
ATOM     20  C   UNL A   1      32.292  19.068  22.743  1.00  0.00     0.015 A 
ATOM     21  C   UNL A   1      32.761  17.754  22.704  1.00  0.00     0.004 A 
BRANCH  17  22
ATOM     22  C   UNL A   1      32.324  21.443  23.525  1.00  0.00     0.418 C 
ATOM     23  F   UNL A   1      33.324  22.327  23.217  1.00  0.00    -0.166 F 
ATOM     24  F   UNL A   1      31.411  21.595  22.525  1.00  0.00    -0.166 F 
ATOM     25  F   UNL A   1      31.759  21.946  24.653  1.00  0.00    -0.166 F 
ENDBRANCH  17  22
ENDBRANCH  13  15
ENDBRANCH   9  13
ENDBRANCH   6   7
ENDBRANCH   4   6
ENDBRANCH   1   2
BRANCH   1  26
ATOM     26  C   UNL A   1      32.831  27.798  27.070  1.00  0.00     0.042 C 
BRANCH  26  27
ATOM     27  C   UNL A   1      33.946  28.797  26.772  1.00  0.00     0.118 C 
BRANCH  27  28
ATOM     28  N   UNL A   1      33.844  30.033  27.535  1.00  0.00    -0.352 N 
ATOM     29  C   UNL A   1      34.751  30.645  28.362  1.00  0.00     0.251 C 
ATOM     30  H   UNL A   1      32.984  30.505  27.444  1.00  0.00     0.163 HD
ATOM     31  O   UNL A   1      34.407  31.649  28.989  1.00  0.00    -0.269 OA
BRANCH  29  32
ATOM     32  C   UNL A   1      36.121  30.111  28.543  1.00  0.00     0.039 A 
ATOM     33  C   UNL A   1      37.006  30.179  27.461  1.00  0.00     0.014 A 
ATOM     34  C   UNL A   1      36.538  29.520  29.739  1.00  0.00     0.014 A 
ATOM     35  C   UNL A   1      38.317  29.719  27.598  1.00  0.00     0.010 A 
ATOM     36  C   UNL A   1      37.867  29.121  29.896  1.00  0.00     0.010 A 
ATOM     37  C   UNL A   1      38.772  29.220  28.830  1.00  0.00    -0.014 A 
BRANCH  37  38
ATOM     38  C   UNL A   1      40.196  28.834  29.009  1.00  0.00     0.031 A 
ATOM     39  C   UNL A   1      41.183  29.779  29.638  1.00  0.00     0.074 A 
ATOM     40  C   UNL A   1      40.615  27.634  28.562  1.00  0.00     0.049 A 
ATOM     41  N   UNL A   1      42.460  29.605  29.871  1.00  0.00    -0.248 NA
ATOM     42  C   UNL A   1      40.676  31.101  30.035  1.00  0.00     0.031 C 
ATOM     43  C   UNL A   1      39.777  26.646  27.878  1.00  0.00     0.029 A 
ATOM     44  N   UNL A   1      41.851  27.038  28.615  1.00  0.00    -0.354 N 
ATOM     45  C   UNL A   1      42.910  30.793  30.432  1.00  0.00     0.074 A 
ATOM     46  C   UNL A   1      41.780  31.699  30.460  1.00  0.00     0.031 C 
ATOM     47  C   UNL A   1      40.513  25.558  27.604  1.00  0.00     0.029 A 
ATOM     48  C   UNL A   1      41.879  25.779  28.069  1.00  0.00     0.049 A 
ATOM     49  H   UNL A   1      42.641  27.473  29.009  1.00  0.00     0.167 HD
ATOM     50  C   UNL A   1      44.144  31.096  30.901  1.00  0.00     0.037 A 
ATOM     51  C   UNL A   1      42.889  24.896  27.958  1.00  0.00     0.037 A 
ATOM     52  C   UNL A   1      45.265  30.191  30.895  1.00  0.00     0.049 A 
ATOM     53  C   UNL A   1      44.241  25.245  28.513  1.00  0.00     0.074 A 
ATOM     54  C   UNL A   1      46.539  30.392  31.400  1.00  0.00     0.029 A 
ATOM     55  N   UNL A   1      45.246  28.913  30.358  1.00  0.00    -0.354 N 
ATOM     56  N   UNL A   1      44.632  26.347  29.106  1.00  0.00    -0.248 NA
ATOM     57  C   UNL A   1      45.289  24.221  28.396  1.00  0.00     0.031 C 
ATOM     58  C   UNL A   1      47.301  29.247  31.139  1.00  0.00     0.029 A 
ATOM     59  C   UNL A   1      46.489  28.318  30.508  1.00  0.00     0.049 A 
ATOM     60  H   UNL A   1      44.465  28.491  29.933  1.00  0.00     0.167 HD
ATOM     61  C   UNL A   1      45.959  26.140  29.454  1.00  0.00     0.074 A 
ATOM     62  C   UNL A   1      46.302  24.801  29.022  1.00  0.00     0.031 C 
ATOM     63  C   UNL A   1      46.818  26.984  30.077  1.00  0.00     0.037 A 
BRANCH  50  64
ATOM     64  C   UNL A   1      44.347  32.471  31.471  1.00  0.00     0.057 A 
ATOM     65  C   UNL A   1      44.742  33.549  30.667  1.00  0.00     0.134 A 
ATOM     66  C   UNL A   1      44.110  32.729  32.826  1.00  0.00     0.134 A 
ATOM     67  F   UNL A   1      44.995  33.368  29.362  1.00  0.00    -0.206 F 
ATOM     68  C   UNL A   1      44.916  34.829  31.196  1.00  0.00     0.040 A 
ATOM     69  C   UNL A   1      44.258  34.010  33.362  1.00  0.00     0.040 A 
ATOM     70  F   UNL A   1      43.724  31.744  33.649  1.00  0.00    -0.206 F 
ATOM     71  C   UNL A   1      44.667  35.063  32.547  1.00  0.00     0.006 A 
ENDBRANCH  50  64
BRANCH  51  72
ATOM     72  C   UNL A   1      42.650  23.573  27.332  1.00  0.00     0.057 A 
ATOM     73  C   UNL A   1      42.282  22.466  28.107  1.00  0.00     0.134 A 
ATOM     74  C   UNL A   1      42.786  23.380  25.953  1.00  0.00     0.134 A 
ATOM     75  F   UNL A   1      42.154  22.586  29.437  1.00  0.00    -0.206 F 
ATOM     76  C   UNL A   1      42.075  21.210  27.535  1.00  0.00     0.040 A 
ATOM     77  C   UNL A   1      42.561  22.135  25.365  1.00  0.00     0.040 A 
ATOM     78  F   UNL A   1      43.129  24.404  25.158  1.00  0.00    -0.206 F 
ATOM     79  C   UNL A   1      42.211  21.044  26.159  1.00  0.00     0.006 A 
ENDBRANCH  51  72
BRANCH  63  80
ATOM     80  C   UNL A   1      48.199  26.468  30.352  1.00  0.00     0.057 A 
ATOM     81  C   UNL A   1      48.516  25.795  31.537  1.00  0.00     0.134 A 
ATOM     82  C   UNL A   1      49.224  26.642  29.412  1.00  0.00     0.134 A 
ATOM     83  F   UNL A   1      47.583  25.609  32.483  1.00  0.00    -0.206 F 
ATOM     84  C   UNL A   1      49.810  25.339  31.795  1.00  0.00     0.040 A 
ATOM     85  C   UNL A   1      50.516  26.169  29.647  1.00  0.00     0.040 A 
ATOM     86  F   UNL A   1      48.986  27.272  28.252  1.00  0.00    -0.206 F 
ATOM     87  C   UNL A   1      50.814  25.523  30.845  1.00  0.00     0.006 A 
ENDBRANCH  63  80
ENDBRANCH  37  38
ENDBRANCH  29  32
ENDBRANCH  27  28
ENDBRANCH  26  27
ENDBRANCH   1  26
TORSDOF 14
ENDMDL
