MODEL 1
REMARK VINA RESULT:     -10.5      0.000      0.000
REMARK SMILES C=CCN(CC(=O)NCCCNC(=O)c1ccc(-c2c3nc(c(-c4c(F)cccc4F)c4ccc([nH]4)c(-c4c(F)cccc4F)c4nc(c(-c5c(F)cccc5F)c5ccc2[nH]5)C=C4)C=C3)cc1)S(=O)(=O)c1ccccc1OC
REMARK SMILES IDX 9 1 8 2 6 3 7 4 5 6 4 7 3 8 2 9 1 10 69 11 70 12 71 13 72 14
REMARK SMILES IDX 73 15 77 16 74 17 76 18 75 19 78 20 79 21 10 22 11 23 12 24
REMARK SMILES IDX 13 25 14 27 15 28 16 29 68 30 17 31 67 32 18 33 19 34 20 35
REMARK SMILES IDX 61 36 21 37 66 38 60 39 62 40 22 41 65 42 59 43 58 44 23 46
REMARK SMILES IDX 49 47 32 48 48 49 33 50 36 51 47 52 63 53 34 54 35 55 46 57
REMARK SMILES IDX 64 58 37 59 24 60 25 61 30 62 26 63 27 64 29 65 31 66 28 67
REMARK SMILES IDX 50 68 51 69 56 70 52 71 53 72 55 73 57 74 54 75 38 76 39 77
REMARK SMILES IDX 44 78 40 79 41 80 43 81 45 82 42 83
REMARK H PARENT 8 5 12 26 62 45 36 56
REMARK Flexibility Score: inf
ROOT
ATOM      1  C   UNL A   1      31.338  30.138  25.232  1.00  0.00     0.117 C 
ENDROOT
BRANCH   1   2
ATOM      2  N   UNL A   1      30.480  29.922  24.082  1.00  0.00    -0.355 N 
ATOM      3  C   UNL A   1      30.753  29.377  22.859  1.00  0.00     0.235 C 
ATOM      4  O   UNL A   1      29.836  29.323  22.035  1.00  0.00    -0.274 OA
ATOM      5  H   UNL A   1      29.547  30.216  24.201  1.00  0.00     0.163 HD
BRANCH   3   6
ATOM      6  C   UNL A   1      32.122  28.795  22.539  1.00  0.00     0.202 C 
BRANCH   6   7
ATOM      7  N   UNL A   1      32.492  27.417  23.008  1.00  0.00    -0.185 NA
BRANCH   7   8
ATOM      8  C   UNL A   1      33.694  27.472  23.880  1.00  0.00     0.130 C 
BRANCH   8   9
ATOM      9  C   UNL A   1      33.517  26.935  25.258  1.00  0.00    -0.018 C 
ATOM     10  C   UNL A   1      34.082  25.805  25.710  1.00  0.00     0.005 C 
ENDBRANCH   8   9
ENDBRANCH   7   8
BRANCH   7  11
ATOM     11  S   UNL A   1      32.370  26.144  21.855  1.00  0.00     0.247 S 
ATOM     12  O   UNL A   1      31.138  26.388  21.133  1.00  0.00    -0.207 OA
ATOM     13  O   UNL A   1      33.635  26.022  21.162  1.00  0.00    -0.207 OA
BRANCH  11  14
ATOM     14  C   UNL A   1      32.260  24.653  22.811  1.00  0.00     0.124 A 
ATOM     15  C   UNL A   1      33.135  23.592  22.529  1.00  0.00     0.026 A 
ATOM     16  C   UNL A   1      31.229  24.473  23.734  1.00  0.00     0.138 A 
ATOM     17  C   UNL A   1      33.011  22.379  23.208  1.00  0.00     0.002 A 
ATOM     18  C   UNL A   1      31.098  23.250  24.400  1.00  0.00     0.048 A 
ATOM     19  C   UNL A   1      31.996  22.210  24.148  1.00  0.00     0.004 A 
BRANCH  16  20
ATOM     20  O   UNL A   1      30.214  25.378  23.875  1.00  0.00    -0.495 OA
ATOM     21  C   UNL A   1      30.005  25.742  25.238  1.00  0.00     0.278 C 
ENDBRANCH  16  20
ENDBRANCH  11  14
ENDBRANCH   7  11
ENDBRANCH   6   7
ENDBRANCH   3   6
ENDBRANCH   1   2
BRANCH   1  22
ATOM     22  C   UNL A   1      31.105  31.506  25.870  1.00  0.00     0.042 C 
BRANCH  22  23
ATOM     23  C   UNL A   1      32.116  31.870  26.951  1.00  0.00     0.118 C 
BRANCH  23  24
ATOM     24  N   UNL A   1      32.091  33.289  27.273  1.00  0.00    -0.352 N 
ATOM     25  C   UNL A   1      32.915  34.053  28.065  1.00  0.00     0.251 C 
ATOM     26  H   UNL A   1      31.356  33.790  26.851  1.00  0.00     0.163 HD
ATOM     27  O   UNL A   1      32.565  35.198  28.346  1.00  0.00    -0.269 OA
BRANCH  25  28
ATOM     28  C   UNL A   1      34.204  33.540  28.597  1.00  0.00     0.039 A 
ATOM     29  C   UNL A   1      35.381  33.852  27.903  1.00  0.00     0.014 A 
ATOM     30  C   UNL A   1      34.273  32.693  29.705  1.00  0.00     0.014 A 
ATOM     31  C   UNL A   1      36.616  33.362  28.344  1.00  0.00     0.010 A 
ATOM     32  C   UNL A   1      35.511  32.263  30.189  1.00  0.00     0.010 A 
ATOM     33  C   UNL A   1      36.696  32.582  29.508  1.00  0.00    -0.014 A 
BRANCH  33  34
ATOM     34  C   UNL A   1      38.000  32.075  30.012  1.00  0.00     0.031 A 
ATOM     35  C   UNL A   1      38.583  30.798  29.467  1.00  0.00     0.074 A 
ATOM     36  C   UNL A   1      38.636  32.725  31.006  1.00  0.00     0.049 A 
ATOM     37  N   UNL A   1      39.658  30.151  29.846  1.00  0.00    -0.248 NA
ATOM     38  C   UNL A   1      37.849  30.148  28.371  1.00  0.00     0.031 C 
ATOM     39  C   UNL A   1      38.163  33.945  31.661  1.00  0.00     0.029 A 
ATOM     40  N   UNL A   1      39.811  32.433  31.654  1.00  0.00    -0.354 N 
ATOM     41  C   UNL A   1      39.706  29.004  29.064  1.00  0.00     0.074 A 
ATOM     42  C   UNL A   1      38.543  29.031  28.203  1.00  0.00     0.031 C 
ATOM     43  C   UNL A   1      39.041  34.302  32.612  1.00  0.00     0.029 A 
ATOM     44  C   UNL A   1      40.123  33.323  32.654  1.00  0.00     0.049 A 
ATOM     45  H   UNL A   1      40.377  31.662  31.425  1.00  0.00     0.167 HD
ATOM     46  C   UNL A   1      40.641  28.024  29.052  1.00  0.00     0.037 A 
ATOM     47  C   UNL A   1      41.158  33.343  33.515  1.00  0.00     0.037 A 
ATOM     48  C   UNL A   1      41.831  28.018  29.861  1.00  0.00     0.049 A 
ATOM     49  C   UNL A   1      42.206  32.270  33.449  1.00  0.00     0.074 A 
ATOM     50  C   UNL A   1      42.879  27.114  29.845  1.00  0.00     0.029 A 
ATOM     51  N   UNL A   1      42.133  28.964  30.826  1.00  0.00    -0.354 N 
ATOM     52  N   UNL A   1      42.272  31.230  32.656  1.00  0.00    -0.248 NA
ATOM     53  C   UNL A   1      43.328  32.378  34.394  1.00  0.00     0.031 C 
ATOM     54  C   UNL A   1      43.806  27.499  30.820  1.00  0.00     0.029 A 
ATOM     55  C   UNL A   1      43.345  28.658  31.422  1.00  0.00     0.049 A 
ATOM     56  H   UNL A   1      41.570  29.739  31.053  1.00  0.00     0.167 HD
ATOM     57  C   UNL A   1      43.446  30.569  32.993  1.00  0.00     0.074 A 
ATOM     58  C   UNL A   1      44.070  31.333  34.053  1.00  0.00     0.031 C 
ATOM     59  C   UNL A   1      43.959  29.430  32.471  1.00  0.00     0.037 A 
BRANCH  46  60
ATOM     60  C   UNL A   1      40.419  26.867  28.125  1.00  0.00     0.057 A 
ATOM     61  C   UNL A   1      41.043  26.794  26.874  1.00  0.00     0.134 A 
ATOM     62  C   UNL A   1      39.609  25.791  28.511  1.00  0.00     0.134 A 
ATOM     63  F   UNL A   1      41.822  27.798  26.445  1.00  0.00    -0.206 F 
ATOM     64  C   UNL A   1      40.856  25.698  26.030  1.00  0.00     0.040 A 
ATOM     65  C   UNL A   1      39.430  24.682  27.683  1.00  0.00     0.040 A 
ATOM     66  F   UNL A   1      38.988  25.798  29.700  1.00  0.00    -0.206 F 
ATOM     67  C   UNL A   1      40.053  24.635  26.438  1.00  0.00     0.006 A 
ENDBRANCH  46  60
BRANCH  47  68
ATOM     68  C   UNL A   1      41.262  34.432  34.516  1.00  0.00     0.057 A 
ATOM     69  C   UNL A   1      41.895  35.640  34.204  1.00  0.00     0.134 A 
ATOM     70  C   UNL A   1      40.740  34.287  35.807  1.00  0.00     0.134 A 
ATOM     71  F   UNL A   1      42.432  35.826  32.989  1.00  0.00    -0.206 F 
ATOM     72  C   UNL A   1      42.019  36.663  35.145  1.00  0.00     0.040 A 
ATOM     73  C   UNL A   1      40.840  35.309  36.751  1.00  0.00     0.040 A 
ATOM     74  F   UNL A   1      40.120  33.152  36.162  1.00  0.00    -0.206 F 
ATOM     75  C   UNL A   1      41.486  36.499  36.423  1.00  0.00     0.006 A 
ENDBRANCH  47  68
BRANCH  59  76
ATOM     76  C   UNL A   1      45.269  28.953  33.019  1.00  0.00     0.057 A 
ATOM     77  C   UNL A   1      45.331  28.058  34.092  1.00  0.00     0.134 A 
ATOM     78  C   UNL A   1      46.477  29.366  32.444  1.00  0.00     0.134 A 
ATOM     79  F   UNL A   1      44.208  27.637  34.693  1.00  0.00    -0.206 F 
ATOM     80  C   UNL A   1      46.553  27.598  34.586  1.00  0.00     0.040 A 
ATOM     81  C   UNL A   1      47.703  28.901  32.917  1.00  0.00     0.040 A 
ATOM     82  F   UNL A   1      46.482  30.220  31.409  1.00  0.00    -0.206 F 
ATOM     83  C   UNL A   1      47.745  28.016  33.993  1.00  0.00     0.006 A 
ENDBRANCH  59  76
ENDBRANCH  33  34
ENDBRANCH  25  28
ENDBRANCH  23  24
ENDBRANCH  22  23
ENDBRANCH   1  22
TORSDOF 16
ENDMDL
MODEL 2
REMARK VINA RESULT:     -10.4      3.906      8.768
REMARK SMILES C=CCN(CC(=O)NCCCNC(=O)c1ccc(-c2c3nc(c(-c4c(F)cccc4F)c4ccc([nH]4)c(-c4c(F)cccc4F)c4nc(c(-c5c(F)cccc5F)c5ccc2[nH]5)C=C4)C=C3)cc1)S(=O)(=O)c1ccccc1OC
REMARK SMILES IDX 9 1 8 2 6 3 7 4 5 6 4 7 3 8 2 9 1 10 69 11 70 12 71 13 72 14
REMARK SMILES IDX 73 15 77 16 74 17 76 18 75 19 78 20 79 21 10 22 11 23 12 24
REMARK SMILES IDX 13 25 14 27 15 28 16 29 68 30 17 31 67 32 18 33 19 34 20 35
REMARK SMILES IDX 61 36 21 37 66 38 60 39 62 40 22 41 65 42 59 43 58 44 23 46
REMARK SMILES IDX 49 47 32 48 48 49 33 50 36 51 47 52 63 53 34 54 35 55 46 57
REMARK SMILES IDX 64 58 37 59 24 60 25 61 30 62 26 63 27 64 29 65 31 66 28 67
REMARK SMILES IDX 50 68 51 69 56 70 52 71 53 72 55 73 57 74 54 75 38 76 39 77
REMARK SMILES IDX 44 78 40 79 41 80 43 81 45 82 42 83
REMARK H PARENT 8 5 12 26 62 45 36 56
REMARK Flexibility Score: inf
ROOT
ATOM      1  C   UNL A   1      35.898  20.568  25.063  1.00  0.00     0.117 C 
ENDROOT
BRANCH   1   2
ATOM      2  N   UNL A   1      34.640  19.849  24.971  1.00  0.00    -0.355 N 
ATOM      3  C   UNL A   1      33.462  20.031  25.638  1.00  0.00     0.235 C 
ATOM      4  O   UNL A   1      32.532  19.260  25.384  1.00  0.00    -0.274 OA
ATOM      5  H   UNL A   1      34.634  19.109  24.322  1.00  0.00     0.163 HD
BRANCH   3   6
ATOM      6  C   UNL A   1      33.274  21.183  26.615  1.00  0.00     0.202 C 
BRANCH   6   7
ATOM      7  N   UNL A   1      32.898  22.549  26.116  1.00  0.00    -0.185 NA
BRANCH   7   8
ATOM      8  C   UNL A   1      33.927  23.545  26.513  1.00  0.00     0.130 C 
BRANCH   8   9
ATOM      9  C   UNL A   1      34.805  24.040  25.416  1.00  0.00    -0.018 C 
ATOM     10  C   UNL A   1      34.506  25.071  24.611  1.00  0.00     0.005 C 
ENDBRANCH   8   9
ENDBRANCH   7   8
BRANCH   7  11
ATOM     11  S   UNL A   1      31.239  22.991  26.233  1.00  0.00     0.247 S 
ATOM     12  O   UNL A   1      30.493  21.819  25.821  1.00  0.00    -0.207 OA
ATOM     13  O   UNL A   1      31.011  23.611  27.521  1.00  0.00    -0.207 OA
BRANCH  11  14
ATOM     14  C   UNL A   1      31.023  24.318  25.075  1.00  0.00     0.124 A 
ATOM     15  C   UNL A   1      31.001  24.033  23.701  1.00  0.00     0.026 A 
ATOM     16  C   UNL A   1      31.018  25.646  25.506  1.00  0.00     0.138 A 
ATOM     17  C   UNL A   1      30.919  25.068  22.768  1.00  0.00     0.002 A 
ATOM     18  C   UNL A   1      30.954  26.681  24.568  1.00  0.00     0.048 A 
ATOM     19  C   UNL A   1      30.889  26.392  23.202  1.00  0.00     0.004 A 
BRANCH  16  20
ATOM     20  O   UNL A   1      31.275  25.989  26.804  1.00  0.00    -0.495 OA
ATOM     21  C   UNL A   1      31.855  27.288  26.911  1.00  0.00     0.278 C 
ENDBRANCH  16  20
ENDBRANCH  11  14
ENDBRANCH   7  11
ENDBRANCH   6   7
ENDBRANCH   3   6
ENDBRANCH   1   2
BRANCH   1  22
ATOM     22  C   UNL A   1      37.099  19.633  24.947  1.00  0.00     0.042 C 
BRANCH  22  23
ATOM     23  C   UNL A   1      38.447  20.325  25.123  1.00  0.00     0.118 C 
BRANCH  23  24
ATOM     24  N   UNL A   1      39.510  19.385  25.451  1.00  0.00    -0.352 N 
ATOM     25  C   UNL A   1      40.755  19.582  25.997  1.00  0.00     0.251 C 
ATOM     26  H   UNL A   1      39.300  18.445  25.245  1.00  0.00     0.163 HD
ATOM     27  O   UNL A   1      41.555  18.648  25.987  1.00  0.00    -0.269 OA
BRANCH  25  28
ATOM     28  C   UNL A   1      41.167  20.881  26.588  1.00  0.00     0.039 A 
ATOM     29  C   UNL A   1      41.643  21.881  25.729  1.00  0.00     0.014 A 
ATOM     30  C   UNL A   1      41.178  21.107  27.966  1.00  0.00     0.014 A 
ATOM     31  C   UNL A   1      42.078  23.109  26.241  1.00  0.00     0.010 A 
ATOM     32  C   UNL A   1      41.542  22.357  28.473  1.00  0.00     0.010 A 
ATOM     33  C   UNL A   1      42.007  23.369  27.619  1.00  0.00    -0.014 A 
BRANCH  33  34
ATOM     34  C   UNL A   1      42.435  24.677  28.182  1.00  0.00     0.031 A 
ATOM     35  C   UNL A   1      41.425  25.765  28.433  1.00  0.00     0.074 A 
ATOM     36  C   UNL A   1      43.741  24.918  28.409  1.00  0.00     0.049 A 
ATOM     37  N   UNL A   1      41.619  26.999  28.831  1.00  0.00    -0.248 NA
ATOM     38  C   UNL A   1      40.015  25.433  28.182  1.00  0.00     0.031 C 
ATOM     39  C   UNL A   1      44.832  23.973  28.165  1.00  0.00     0.029 A 
ATOM     40  N   UNL A   1      44.373  26.042  28.879  1.00  0.00    -0.354 N 
ATOM     41  C   UNL A   1      40.366  27.597  28.839  1.00  0.00     0.074 A 
ATOM     42  C   UNL A   1      39.419  26.600  28.388  1.00  0.00     0.031 C 
ATOM     43  C   UNL A   1      45.998  24.554  28.493  1.00  0.00     0.029 A 
ATOM     44  C   UNL A   1      45.740  25.919  28.943  1.00  0.00     0.049 A 
ATOM     45  H   UNL A   1      43.894  26.859  29.145  1.00  0.00     0.167 HD
ATOM     46  C   UNL A   1      40.029  28.858  29.201  1.00  0.00     0.037 A 
ATOM     47  C   UNL A   1      46.683  26.807  29.312  1.00  0.00     0.037 A 
ATOM     48  C   UNL A   1      40.953  29.838  29.708  1.00  0.00     0.049 A 
ATOM     49  C   UNL A   1      46.278  28.184  29.756  1.00  0.00     0.074 A 
ATOM     50  C   UNL A   1      40.684  31.108  30.189  1.00  0.00     0.029 A 
ATOM     51  N   UNL A   1      42.323  29.655  29.803  1.00  0.00    -0.354 N 
ATOM     52  N   UNL A   1      45.081  28.710  29.823  1.00  0.00    -0.248 NA
ATOM     53  C   UNL A   1      47.357  29.088  30.183  1.00  0.00     0.031 C 
ATOM     54  C   UNL A   1      41.897  31.705  30.553  1.00  0.00     0.029 A 
ATOM     55  C   UNL A   1      42.915  30.795  30.322  1.00  0.00     0.049 A 
ATOM     56  H   UNL A   1      42.803  28.837  29.541  1.00  0.00     0.167 HD
ATOM     57  C   UNL A   1      45.259  29.997  30.312  1.00  0.00     0.074 A 
ATOM     58  C   UNL A   1      46.678  30.169  30.540  1.00  0.00     0.031 C 
ATOM     59  C   UNL A   1      44.327  30.951  30.551  1.00  0.00     0.037 A 
BRANCH  46  60
ATOM     60  C   UNL A   1      38.590  29.255  29.070  1.00  0.00     0.057 A 
ATOM     61  C   UNL A   1      37.720  29.247  30.167  1.00  0.00     0.134 A 
ATOM     62  C   UNL A   1      38.083  29.697  27.842  1.00  0.00     0.134 A 
ATOM     63  F   UNL A   1      38.144  28.825  31.367  1.00  0.00    -0.206 F 
ATOM     64  C   UNL A   1      36.389  29.649  30.043  1.00  0.00     0.040 A 
ATOM     65  C   UNL A   1      36.759  30.119  27.711  1.00  0.00     0.040 A 
ATOM     66  F   UNL A   1      38.867  29.734  26.755  1.00  0.00    -0.206 F 
ATOM     67  C   UNL A   1      35.907  30.093  28.813  1.00  0.00     0.006 A 
ENDBRANCH  46  60
BRANCH  47  68
ATOM     68  C   UNL A   1      48.113  26.417  29.288  1.00  0.00     0.057 A 
ATOM     69  C   UNL A   1      48.901  26.640  28.154  1.00  0.00     0.134 A 
ATOM     70  C   UNL A   1      48.720  25.807  30.391  1.00  0.00     0.134 A 
ATOM     71  F   UNL A   1      48.366  27.202  27.060  1.00  0.00    -0.206 F 
ATOM     72  C   UNL A   1      50.242  26.257  28.112  1.00  0.00     0.040 A 
ATOM     73  C   UNL A   1      50.064  25.436  30.369  1.00  0.00     0.040 A 
ATOM     74  F   UNL A   1      48.014  25.570  31.506  1.00  0.00    -0.206 F 
ATOM     75  C   UNL A   1      50.828  25.656  29.225  1.00  0.00     0.006 A 
ENDBRANCH  47  68
BRANCH  59  76
ATOM     76  C   UNL A   1      44.808  32.255  31.107  1.00  0.00     0.057 A 
ATOM     77  C   UNL A   1      45.151  33.325  30.272  1.00  0.00     0.134 A 
ATOM     78  C   UNL A   1      44.895  32.455  32.490  1.00  0.00     0.134 A 
ATOM     79  F   UNL A   1      45.102  33.191  28.939  1.00  0.00    -0.206 F 
ATOM     80  C   UNL A   1      45.578  34.547  30.795  1.00  0.00     0.040 A 
ATOM     81  C   UNL A   1      45.304  33.676  33.025  1.00  0.00     0.040 A 
ATOM     82  F   UNL A   1      44.575  31.468  33.341  1.00  0.00    -0.206 F 
ATOM     83  C   UNL A   1      45.650  34.726  32.177  1.00  0.00     0.006 A 
ENDBRANCH  59  76
ENDBRANCH  33  34
ENDBRANCH  25  28
ENDBRANCH  23  24
ENDBRANCH  22  23
ENDBRANCH   1  22
TORSDOF 16
ENDMDL
MODEL 3
REMARK VINA RESULT:     -10.4      3.768      8.689
REMARK SMILES C=CCN(CC(=O)NCCCNC(=O)c1ccc(-c2c3nc(c(-c4c(F)cccc4F)c4ccc([nH]4)c(-c4c(F)cccc4F)c4nc(c(-c5c(F)cccc5F)c5ccc2[nH]5)C=C4)C=C3)cc1)S(=O)(=O)c1ccccc1OC
REMARK SMILES IDX 9 1 8 2 6 3 7 4 5 6 4 7 3 8 2 9 1 10 69 11 70 12 71 13 72 14
REMARK SMILES IDX 73 15 77 16 74 17 76 18 75 19 78 20 79 21 10 22 11 23 12 24
REMARK SMILES IDX 13 25 14 27 15 28 16 29 68 30 17 31 67 32 18 33 19 34 20 35
REMARK SMILES IDX 61 36 21 37 66 38 60 39 62 40 22 41 65 42 59 43 58 44 23 46
REMARK SMILES IDX 49 47 32 48 48 49 33 50 36 51 47 52 63 53 34 54 35 55 46 57
REMARK SMILES IDX 64 58 37 59 24 60 25 61 30 62 26 63 27 64 29 65 31 66 28 67
REMARK SMILES IDX 50 68 51 69 56 70 52 71 53 72 55 73 57 74 54 75 38 76 39 77
REMARK SMILES IDX 44 78 40 79 41 80 43 81 45 82 42 83
REMARK H PARENT 8 5 12 26 62 45 36 56
REMARK Flexibility Score: inf
ROOT
ATOM      1  C   UNL A   1      36.166  20.165  24.988  1.00  0.00     0.117 C 
ENDROOT
BRANCH   1   2
ATOM      2  N   UNL A   1      36.308  21.436  25.676  1.00  0.00    -0.355 N 
ATOM      3  C   UNL A   1      35.816  22.672  25.369  1.00  0.00     0.235 C 
ATOM      4  O   UNL A   1      36.102  23.608  26.121  1.00  0.00    -0.274 OA
ATOM      5  H   UNL A   1      36.848  21.401  26.499  1.00  0.00     0.163 HD
BRANCH   3   6
ATOM      6  C   UNL A   1      34.893  22.884  24.178  1.00  0.00     0.202 C 
BRANCH   6   7
ATOM      7  N   UNL A   1      33.504  23.419  24.378  1.00  0.00    -0.185 NA
BRANCH   7   8
ATOM      8  C   UNL A   1      32.561  22.309  24.674  1.00  0.00     0.130 C 
BRANCH   8   9
ATOM      9  C   UNL A   1      32.541  21.197  23.683  1.00  0.00    -0.018 C 
ATOM     10  C   UNL A   1      32.550  19.894  24.004  1.00  0.00     0.005 C 
ENDBRANCH   8   9
ENDBRANCH   7   8
BRANCH   7  11
ATOM     11  S   UNL A   1      32.991  24.672  23.315  1.00  0.00     0.247 S 
ATOM     12  O   UNL A   1      33.829  24.552  22.138  1.00  0.00    -0.207 OA
ATOM     13  O   UNL A   1      31.547  24.637  23.216  1.00  0.00    -0.207 OA
BRANCH  11  14
ATOM     14  C   UNL A   1      33.324  26.186  24.178  1.00  0.00     0.124 A 
ATOM     15  C   UNL A   1      33.721  26.136  25.523  1.00  0.00     0.026 A 
ATOM     16  C   UNL A   1      33.058  27.419  23.580  1.00  0.00     0.138 A 
ATOM     17  C   UNL A   1      33.906  27.315  26.247  1.00  0.00     0.002 A 
ATOM     18  C   UNL A   1      33.227  28.598  24.315  1.00  0.00     0.048 A 
ATOM     19  C   UNL A   1      33.664  28.546  25.641  1.00  0.00     0.004 A 
BRANCH  16  20
ATOM     20  O   UNL A   1      32.447  27.520  22.362  1.00  0.00    -0.495 OA
ATOM     21  C   UNL A   1      31.117  28.025  22.469  1.00  0.00     0.278 C 
ENDBRANCH  16  20
ENDBRANCH  11  14
ENDBRANCH   7  11
ENDBRANCH   6   7
ENDBRANCH   3   6
ENDBRANCH   1   2
BRANCH   1  22
ATOM     22  C   UNL A   1      37.506  19.451  24.823  1.00  0.00     0.042 C 
BRANCH  22  23
ATOM     23  C   UNL A   1      38.681  20.174  25.473  1.00  0.00     0.118 C 
BRANCH  23  24
ATOM     24  N   UNL A   1      39.830  19.300  25.661  1.00  0.00    -0.352 N 
ATOM     25  C   UNL A   1      41.121  19.572  26.041  1.00  0.00     0.251 C 
ATOM     26  H   UNL A   1      39.650  18.348  25.484  1.00  0.00     0.163 HD
ATOM     27  O   UNL A   1      41.967  18.686  25.927  1.00  0.00    -0.269 OA
BRANCH  25  28
ATOM     28  C   UNL A   1      41.531  20.897  26.573  1.00  0.00     0.039 A 
ATOM     29  C   UNL A   1      41.431  21.119  27.953  1.00  0.00     0.014 A 
ATOM     30  C   UNL A   1      41.925  21.948  25.742  1.00  0.00     0.014 A 
ATOM     31  C   UNL A   1      41.770  22.363  28.498  1.00  0.00     0.010 A 
ATOM     32  C   UNL A   1      42.333  23.166  26.292  1.00  0.00     0.010 A 
ATOM     33  C   UNL A   1      42.249  23.393  27.674  1.00  0.00    -0.014 A 
BRANCH  33  34
ATOM     34  C   UNL A   1      42.643  24.713  28.235  1.00  0.00     0.031 A 
ATOM     35  C   UNL A   1      41.609  25.783  28.463  1.00  0.00     0.074 A 
ATOM     36  C   UNL A   1      43.941  24.980  28.480  1.00  0.00     0.049 A 
ATOM     37  N   UNL A   1      41.773  27.023  28.855  1.00  0.00    -0.248 NA
ATOM     38  C   UNL A   1      40.209  25.422  28.192  1.00  0.00     0.031 C 
ATOM     39  C   UNL A   1      45.053  24.055  28.259  1.00  0.00     0.029 A 
ATOM     40  N   UNL A   1      44.544  26.120  28.952  1.00  0.00    -0.354 N 
ATOM     41  C   UNL A   1      40.508  27.597  28.840  1.00  0.00     0.074 A 
ATOM     42  C   UNL A   1      39.588  26.578  28.381  1.00  0.00     0.031 C 
ATOM     43  C   UNL A   1      46.202  24.661  28.601  1.00  0.00     0.029 A 
ATOM     44  C   UNL A   1      45.912  26.024  29.038  1.00  0.00     0.049 A 
ATOM     45  H   UNL A   1      44.044  26.929  29.205  1.00  0.00     0.167 HD
ATOM     46  C   UNL A   1      40.141  28.853  29.188  1.00  0.00     0.037 A 
ATOM     47  C   UNL A   1      46.831  26.932  29.415  1.00  0.00     0.037 A 
ATOM     48  C   UNL A   1      41.038  29.854  29.702  1.00  0.00     0.049 A 
ATOM     49  C   UNL A   1      46.393  28.304  29.843  1.00  0.00     0.074 A 
ATOM     50  C   UNL A   1      40.738  31.121  30.171  1.00  0.00     0.029 A 
ATOM     51  N   UNL A   1      42.410  29.699  29.820  1.00  0.00    -0.354 N 
ATOM     52  N   UNL A   1      45.185  28.807  29.888  1.00  0.00    -0.248 NA
ATOM     53  C   UNL A   1      47.448  29.231  30.280  1.00  0.00     0.031 C 
ATOM     54  C   UNL A   1      41.933  31.744  30.549  1.00  0.00     0.029 A 
ATOM     55  C   UNL A   1      42.972  30.853  30.340  1.00  0.00     0.049 A 
ATOM     56  H   UNL A   1      42.910  28.888  29.570  1.00  0.00     0.167 HD
ATOM     57  C   UNL A   1      45.330  30.100  30.372  1.00  0.00     0.074 A 
ATOM     58  C   UNL A   1      46.742  30.302  30.620  1.00  0.00     0.031 C 
ATOM     59  C   UNL A   1      44.377  31.037  30.589  1.00  0.00     0.037 A 
BRANCH  46  60
ATOM     60  C   UNL A   1      38.697  29.221  29.033  1.00  0.00     0.057 A 
ATOM     61  C   UNL A   1      38.163  29.604  27.797  1.00  0.00     0.134 A 
ATOM     62  C   UNL A   1      37.821  29.143  30.124  1.00  0.00     0.134 A 
ATOM     63  F   UNL A   1      38.952  29.707  26.718  1.00  0.00    -0.206 F 
ATOM     64  C   UNL A   1      36.809  29.915  27.654  1.00  0.00     0.040 A 
ATOM     65  C   UNL A   1      36.463  29.433  29.988  1.00  0.00     0.040 A 
ATOM     66  F   UNL A   1      38.271  28.776  31.333  1.00  0.00    -0.206 F 
ATOM     67  C   UNL A   1      35.955  29.823  28.751  1.00  0.00     0.006 A 
ENDBRANCH  46  60
BRANCH  47  68
ATOM     68  C   UNL A   1      48.268  26.570  29.416  1.00  0.00     0.057 A 
ATOM     69  C   UNL A   1      49.085  26.861  28.317  1.00  0.00     0.134 A 
ATOM     70  C   UNL A   1      48.855  25.919  30.506  1.00  0.00     0.134 A 
ATOM     71  F   UNL A   1      48.571  27.464  27.235  1.00  0.00    -0.206 F 
ATOM     72  C   UNL A   1      50.434  26.504  28.297  1.00  0.00     0.040 A 
ATOM     73  C   UNL A   1      50.207  25.574  30.507  1.00  0.00     0.040 A 
ATOM     74  F   UNL A   1      48.122  25.617  31.588  1.00  0.00    -0.206 F 
ATOM     75  C   UNL A   1      50.999  25.862  29.398  1.00  0.00     0.006 A 
ENDBRANCH  47  68
BRANCH  59  76
ATOM     76  C   UNL A   1      44.824  32.355  31.143  1.00  0.00     0.057 A 
ATOM     77  C   UNL A   1      44.923  32.573  32.522  1.00  0.00     0.134 A 
ATOM     78  C   UNL A   1      45.194  33.402  30.290  1.00  0.00     0.134 A 
ATOM     79  F   UNL A   1      44.570  31.614  33.390  1.00  0.00    -0.206 F 
ATOM     80  C   UNL A   1      45.362  33.795  33.035  1.00  0.00     0.040 A 
ATOM     81  C   UNL A   1      45.650  34.621  30.790  1.00  0.00     0.040 A 
ATOM     82  F   UNL A   1      45.126  33.251  28.958  1.00  0.00    -0.206 F 
ATOM     83  C   UNL A   1      45.733  34.822  32.167  1.00  0.00     0.006 A 
ENDBRANCH  59  76
ENDBRANCH  33  34
ENDBRANCH  25  28
ENDBRANCH  23  24
ENDBRANCH  22  23
ENDBRANCH   1  22
TORSDOF 16
ENDMDL
