MODEL 1
REMARK VINA RESULT:     -12.1      0.000      0.000
REMARK SMILES COc1ccc(-c2c(C(=O)NCCCNC(=O)c3ccc(-c4c5nc(c(-c6c(F)cccc6F)c6ccc([nH]6)c(-c6c(F)cccc6F)c6nc(c(-c7c(F)cccc7F)c7ccc4[nH]7)C=C6)C=C5)cc3)sc3c2N=C(O)C[C@H]3c2ccc(OC)c(OC)c2)cc1
REMARK SMILES IDX 13 1 12 2 11 3 9 4 10 5 8 7 7 8 74 9 72 10 73 11 75 12 79 13
REMARK SMILES IDX 76 14 78 15 6 16 3 17 4 18 91 19 5 20 90 21 2 22 1 23 80 24
REMARK SMILES IDX 81 25 89 26 82 27 86 28 83 29 87 30 88 31 84 32 85 33 77 34
REMARK SMILES IDX 14 36 15 37 16 38 17 40 18 41 19 42 71 43 20 44 70 45 21 46
REMARK SMILES IDX 22 47 23 48 64 49 24 50 69 51 63 52 65 53 25 54 68 55 62 56
REMARK SMILES IDX 61 57 26 59 52 60 35 61 51 62 36 63 39 64 50 65 66 66 37 67
REMARK SMILES IDX 38 68 49 70 67 71 40 72 27 73 28 74 33 75 29 76 30 77 32 78
REMARK SMILES IDX 34 79 31 80 53 81 54 82 59 83 55 84 56 85 58 86 60 87 57 88
REMARK SMILES IDX 41 89 42 90 47 91 43 92 44 93 46 94 48 95 45 96
REMARK H PARENT 11 6 77 35 15 39 65 58 39 69
REMARK Flexibility Score: inf
ROOT
ATOM      1  C   UNL A   1      36.873  24.071  25.923  1.00  0.00     0.042 C 
ENDROOT
BRANCH   1   2
ATOM      2  C   UNL A   1      36.666  22.727  25.263  1.00  0.00     0.118 C 
BRANCH   2   3
ATOM      3  N   UNL A   1      36.409  22.649  23.857  1.00  0.00    -0.351 N 
ATOM      4  C   UNL A   1      35.340  23.224  23.188  1.00  0.00     0.262 C 
ATOM      5  O   UNL A   1      35.414  23.147  21.956  1.00  0.00    -0.268 OA
ATOM      6  H   UNL A   1      37.053  22.141  23.313  1.00  0.00     0.163 HD
BRANCH   4   7
ATOM      7  C   UNL A   1      34.166  23.789  23.879  1.00  0.00     0.102 A 
ATOM      8  C   UNL A   1      33.142  23.329  24.727  1.00  0.00     0.031 A 
ATOM      9  C   UNL A   1      32.208  24.373  25.022  1.00  0.00     0.090 A 
ATOM     10  S   UNL A   1      33.953  25.498  23.572  1.00  0.00    -0.131 S 
ATOM     11  C   UNL A   1      32.524  25.578  24.471  1.00  0.00     0.040 A 
ATOM     12  N   UNL A   1      31.069  24.161  25.810  1.00  0.00    -0.216 NA
ATOM     13  C   UNL A   1      31.723  26.822  24.645  1.00  0.00     0.071 C 
ATOM     14  C   UNL A   1      30.235  25.143  25.854  1.00  0.00     0.186 C 
ATOM     15  C   UNL A   1      30.312  26.473  25.144  1.00  0.00     0.111 C 
BRANCH   8  16
ATOM     16  C   UNL A   1      32.926  21.947  25.159  1.00  0.00    -0.014 A 
ATOM     17  C   UNL A   1      32.881  19.191  25.666  1.00  0.00     0.118 A 
ATOM     18  C   UNL A   1      33.307  20.092  26.654  1.00  0.00     0.047 A 
ATOM     19  C   UNL A   1      32.352  19.676  24.475  1.00  0.00     0.047 A 
ATOM     20  C   UNL A   1      33.338  21.472  26.404  1.00  0.00     0.012 A 
ATOM     21  C   UNL A   1      32.354  21.049  24.234  1.00  0.00     0.012 A 
BRANCH  17  22
ATOM     22  O   UNL A   1      33.061  17.866  25.951  1.00  0.00    -0.497 OA
ATOM     23  C   UNL A   1      32.369  16.942  25.110  1.00  0.00     0.278 C 
ENDBRANCH  17  22
ENDBRANCH   8  16
BRANCH  13  24
ATOM     24  C   UNL A   1      32.410  27.835  25.547  1.00  0.00    -0.035 A 
ATOM     25  C   UNL A   1      33.694  27.620  26.056  1.00  0.00     0.008 A 
ATOM     26  C   UNL A   1      31.747  29.033  25.870  1.00  0.00     0.054 A 
ATOM     27  C   UNL A   1      34.294  28.589  26.857  1.00  0.00     0.051 A 
ATOM     28  C   UNL A   1      32.339  30.013  26.684  1.00  0.00     0.161 A 
ATOM     29  C   UNL A   1      33.636  29.786  27.177  1.00  0.00     0.160 A 
BRANCH  28  30
ATOM     30  O   UNL A   1      31.701  31.175  27.026  1.00  0.00    -0.493 OA
ATOM     31  C   UNL A   1      31.006  31.891  26.013  1.00  0.00     0.278 C 
ENDBRANCH  28  30
BRANCH  29  32
ATOM     32  O   UNL A   1      34.402  30.592  27.979  1.00  0.00    -0.493 OA
ATOM     33  C   UNL A   1      35.789  30.709  27.705  1.00  0.00     0.278 C 
ENDBRANCH  29  32
ENDBRANCH  13  24
BRANCH  14  34
ATOM     34  O   UNL A   1      29.098  24.966  26.556  1.00  0.00    -0.496 OA
ATOM     35  H   UNL A   1      28.839  25.597  27.198  1.00  0.00     0.294 HD
ENDBRANCH  14  34
ENDBRANCH   4   7
ENDBRANCH   2   3
ENDBRANCH   1   2
BRANCH   1  36
ATOM     36  C   UNL A   1      38.198  24.184  26.647  1.00  0.00     0.118 C 
BRANCH  36  37
ATOM     37  N   UNL A   1      38.929  22.930  26.873  1.00  0.00    -0.352 N 
ATOM     38  C   UNL A   1      40.310  22.783  27.002  1.00  0.00     0.251 C 
ATOM     39  H   UNL A   1      38.388  22.109  26.940  1.00  0.00     0.163 HD
ATOM     40  O   UNL A   1      40.865  21.712  27.037  1.00  0.00    -0.269 OA
BRANCH  38  41
ATOM     41  C   UNL A   1      41.074  24.046  27.073  1.00  0.00     0.039 A 
ATOM     42  C   UNL A   1      40.744  25.093  26.216  1.00  0.00     0.014 A 
ATOM     43  C   UNL A   1      41.760  24.261  28.258  1.00  0.00     0.014 A 
ATOM     44  C   UNL A   1      40.944  26.400  26.661  1.00  0.00     0.010 A 
ATOM     45  C   UNL A   1      41.772  25.546  28.759  1.00  0.00     0.010 A 
ATOM     46  C   UNL A   1      41.372  26.636  27.981  1.00  0.00    -0.014 A 
BRANCH  46  47
ATOM     47  C   UNL A   1      41.289  27.990  28.556  1.00  0.00     0.031 A 
ATOM     48  C   UNL A   1      42.390  28.964  28.245  1.00  0.00     0.074 A 
ATOM     49  C   UNL A   1      40.233  28.492  29.236  1.00  0.00     0.049 A 
ATOM     50  N   UNL A   1      43.287  29.418  29.063  1.00  0.00    -0.248 NA
ATOM     51  C   UNL A   1      42.527  29.484  26.877  1.00  0.00     0.031 C 
ATOM     52  C   UNL A   1      38.907  27.916  29.489  1.00  0.00     0.029 A 
ATOM     53  N   UNL A   1      40.136  29.724  29.818  1.00  0.00    -0.354 N 
ATOM     54  C   UNL A   1      44.013  30.389  28.373  1.00  0.00     0.074 A 
ATOM     55  C   UNL A   1      43.559  30.326  27.006  1.00  0.00     0.031 C 
ATOM     56  C   UNL A   1      38.076  28.865  29.964  1.00  0.00     0.029 A 
ATOM     57  C   UNL A   1      38.867  30.040  30.262  1.00  0.00     0.049 A 
ATOM     58  H   UNL A   1      40.904  30.334  29.913  1.00  0.00     0.167 HD
ATOM     59  C   UNL A   1      44.834  31.273  29.015  1.00  0.00     0.037 A 
ATOM     60  C   UNL A   1      38.468  31.156  30.905  1.00  0.00     0.037 A 
ATOM     61  C   UNL A   1      45.087  30.874  30.375  1.00  0.00     0.049 A 
ATOM     62  C   UNL A   1      39.654  31.735  31.570  1.00  0.00     0.074 A 
ATOM     63  C   UNL A   1      45.656  29.775  30.987  1.00  0.00     0.029 A 
ATOM     64  N   UNL A   1      44.432  31.546  31.376  1.00  0.00    -0.354 N 
ATOM     65  N   UNL A   1      40.276  31.172  32.568  1.00  0.00    -0.248 NA
ATOM     66  C   UNL A   1      40.396  32.777  30.881  1.00  0.00     0.031 C 
ATOM     67  C   UNL A   1      44.886  29.578  32.174  1.00  0.00     0.029 A 
ATOM     68  C   UNL A   1      43.925  30.590  32.217  1.00  0.00     0.049 A 
ATOM     69  H   UNL A   1      44.344  32.522  31.472  1.00  0.00     0.167 HD
ATOM     70  C   UNL A   1      41.613  31.483  32.374  1.00  0.00     0.074 A 
ATOM     71  C   UNL A   1      41.606  32.572  31.403  1.00  0.00     0.031 C 
ATOM     72  C   UNL A   1      42.608  30.655  32.811  1.00  0.00     0.037 A 
BRANCH  59  73
ATOM     73  C   UNL A   1      45.203  32.655  28.534  1.00  0.00     0.057 A 
ATOM     74  C   UNL A   1      44.193  33.619  28.329  1.00  0.00     0.134 A 
ATOM     75  C   UNL A   1      46.461  32.985  27.999  1.00  0.00     0.134 A 
ATOM     76  F   UNL A   1      42.944  33.413  28.772  1.00  0.00    -0.206 F 
ATOM     77  C   UNL A   1      44.407  34.792  27.593  1.00  0.00     0.040 A 
ATOM     78  C   UNL A   1      46.698  34.177  27.303  1.00  0.00     0.040 A 
ATOM     79  F   UNL A   1      47.490  32.130  28.038  1.00  0.00    -0.206 F 
ATOM     80  C   UNL A   1      45.664  35.072  27.073  1.00  0.00     0.006 A 
ENDBRANCH  59  73
BRANCH  60  81
ATOM     81  C   UNL A   1      37.151  31.807  30.831  1.00  0.00     0.057 A 
ATOM     82  C   UNL A   1      36.146  31.543  31.765  1.00  0.00     0.134 A 
ATOM     83  C   UNL A   1      36.934  32.896  29.966  1.00  0.00     0.134 A 
ATOM     84  F   UNL A   1      36.283  30.545  32.648  1.00  0.00    -0.206 F 
ATOM     85  C   UNL A   1      34.994  32.333  31.850  1.00  0.00     0.040 A 
ATOM     86  C   UNL A   1      35.787  33.689  30.036  1.00  0.00     0.040 A 
ATOM     87  F   UNL A   1      37.869  33.273  29.080  1.00  0.00    -0.206 F 
ATOM     88  C   UNL A   1      34.817  33.416  30.993  1.00  0.00     0.006 A 
ENDBRANCH  60  81
BRANCH  72  89
ATOM     89  C   UNL A   1      42.244  29.547  33.761  1.00  0.00     0.057 A 
ATOM     90  C   UNL A   1      41.861  28.261  33.352  1.00  0.00     0.134 A 
ATOM     91  C   UNL A   1      42.440  29.739  35.133  1.00  0.00     0.134 A 
ATOM     92  F   UNL A   1      41.751  27.950  32.056  1.00  0.00    -0.206 F 
ATOM     93  C   UNL A   1      41.637  27.229  34.269  1.00  0.00     0.040 A 
ATOM     94  C   UNL A   1      42.250  28.708  36.058  1.00  0.00     0.040 A 
ATOM     95  F   UNL A   1      42.868  30.924  35.596  1.00  0.00    -0.206 F 
ATOM     96  C   UNL A   1      41.837  27.450  35.627  1.00  0.00     0.006 A 
ENDBRANCH  72  89
ENDBRANCH  46  47
ENDBRANCH  38  41
ENDBRANCH  36  37
ENDBRANCH   1  36
TORSDOF 16
ENDMDL
MODEL 2
REMARK VINA RESULT:     -11.5      4.696     10.382
REMARK SMILES COc1ccc(-c2c(C(=O)NCCCNC(=O)c3ccc(-c4c5nc(c(-c6c(F)cccc6F)c6ccc([nH]6)c(-c6c(F)cccc6F)c6nc(c(-c7c(F)cccc7F)c7ccc4[nH]7)C=C6)C=C5)cc3)sc3c2N=C(O)C[C@H]3c2ccc(OC)c(OC)c2)cc1
REMARK SMILES IDX 13 1 12 2 11 3 9 4 10 5 8 7 7 8 74 9 72 10 73 11 75 12 79 13
REMARK SMILES IDX 76 14 78 15 6 16 3 17 4 18 91 19 5 20 90 21 2 22 1 23 80 24
REMARK SMILES IDX 81 25 89 26 82 27 86 28 83 29 87 30 88 31 84 32 85 33 77 34
REMARK SMILES IDX 14 36 15 37 16 38 17 40 18 41 19 42 71 43 20 44 70 45 21 46
REMARK SMILES IDX 22 47 23 48 64 49 24 50 69 51 63 52 65 53 25 54 68 55 62 56
REMARK SMILES IDX 61 57 26 59 52 60 35 61 51 62 36 63 39 64 50 65 66 66 37 67
REMARK SMILES IDX 38 68 49 70 67 71 40 72 27 73 28 74 33 75 29 76 30 77 32 78
REMARK SMILES IDX 34 79 31 80 53 81 54 82 59 83 55 84 56 85 58 86 60 87 57 88
REMARK SMILES IDX 41 89 42 90 47 91 43 92 44 93 46 94 48 95 45 96
REMARK H PARENT 11 6 77 35 15 39 65 58 39 69
REMARK Flexibility Score: inf
ROOT
ATOM      1  C   UNL A   1      43.766  31.775  27.097  1.00  0.00     0.042 C 
ENDROOT
BRANCH   1   2
ATOM      2  C   UNL A   1      43.908  30.286  26.878  1.00  0.00     0.118 C 
BRANCH   2   3
ATOM      3  N   UNL A   1      45.022  29.772  26.141  1.00  0.00    -0.351 N 
ATOM      4  C   UNL A   1      45.531  28.486  26.220  1.00  0.00     0.262 C 
ATOM      5  O   UNL A   1      46.400  28.232  25.377  1.00  0.00    -0.268 OA
ATOM      6  H   UNL A   1      45.469  30.390  25.519  1.00  0.00     0.163 HD
BRANCH   4   7
ATOM      7  C   UNL A   1      45.147  27.530  27.277  1.00  0.00     0.102 A 
ATOM      8  C   UNL A   1      44.891  27.562  28.659  1.00  0.00     0.031 A 
ATOM      9  C   UNL A   1      44.627  26.249  29.166  1.00  0.00     0.090 A 
ATOM     10  S   UNL A   1      44.963  25.895  26.681  1.00  0.00    -0.131 S 
ATOM     11  C   UNL A   1      44.633  25.272  28.216  1.00  0.00     0.040 A 
ATOM     12  N   UNL A   1      44.387  26.003  30.524  1.00  0.00    -0.216 NA
ATOM     13  C   UNL A   1      44.369  23.831  28.487  1.00  0.00     0.071 C 
ATOM     14  C   UNL A   1      44.330  24.759  30.860  1.00  0.00     0.186 C 
ATOM     15  C   UNL A   1      44.520  23.542  29.989  1.00  0.00     0.111 C 
BRANCH   8  16
ATOM     16  C   UNL A   1      45.011  28.725  29.539  1.00  0.00    -0.014 A 
ATOM     17  C   UNL A   1      45.139  30.629  31.592  1.00  0.00     0.118 A 
ATOM     18  C   UNL A   1      46.295  30.258  30.890  1.00  0.00     0.047 A 
ATOM     19  C   UNL A   1      43.900  30.150  31.180  1.00  0.00     0.047 A 
ATOM     20  C   UNL A   1      46.239  29.301  29.866  1.00  0.00     0.012 A 
ATOM     21  C   UNL A   1      43.837  29.221  30.143  1.00  0.00     0.012 A 
BRANCH  17  22
ATOM     22  O   UNL A   1      45.336  31.430  32.683  1.00  0.00    -0.497 OA
ATOM     23  C   UNL A   1      45.251  30.789  33.957  1.00  0.00     0.278 C 
ENDBRANCH  17  22
ENDBRANCH   8  16
BRANCH  13  24
ATOM     24  C   UNL A   1      43.018  23.378  27.955  1.00  0.00    -0.035 A 
ATOM     25  C   UNL A   1      41.834  24.049  28.273  1.00  0.00     0.008 A 
ATOM     26  C   UNL A   1      42.952  22.261  27.102  1.00  0.00     0.054 A 
ATOM     27  C   UNL A   1      40.624  23.613  27.740  1.00  0.00     0.051 A 
ATOM     28  C   UNL A   1      41.736  21.807  26.565  1.00  0.00     0.161 A 
ATOM     29  C   UNL A   1      40.557  22.502  26.887  1.00  0.00     0.160 A 
BRANCH  28  30
ATOM     30  O   UNL A   1      41.650  20.710  25.751  1.00  0.00    -0.493 OA
ATOM     31  C   UNL A   1      42.316  19.518  26.147  1.00  0.00     0.278 C 
ENDBRANCH  28  30
BRANCH  29  32
ATOM     32  O   UNL A   1      39.272  22.244  26.484  1.00  0.00    -0.493 OA
ATOM     33  C   UNL A   1      38.436  23.332  26.126  1.00  0.00     0.278 C 
ENDBRANCH  29  32
ENDBRANCH  13  24
BRANCH  14  34
ATOM     34  O   UNL A   1      44.154  24.473  32.166  1.00  0.00    -0.496 OA
ATOM     35  H   UNL A   1      43.840  25.131  32.753  1.00  0.00     0.294 HD
ENDBRANCH  14  34
ENDBRANCH   4   7
ENDBRANCH   2   3
ENDBRANCH   1   2
BRANCH   1  36
ATOM     36  C   UNL A   1      44.666  32.307  28.192  1.00  0.00     0.118 C 
BRANCH  36  37
ATOM     37  N   UNL A   1      45.648  33.325  27.794  1.00  0.00    -0.352 N 
ATOM     38  C   UNL A   1      45.586  34.693  28.064  1.00  0.00     0.251 C 
ATOM     39  H   UNL A   1      46.430  33.010  27.284  1.00  0.00     0.163 HD
ATOM     40  O   UNL A   1      46.344  35.501  27.585  1.00  0.00    -0.269 OA
BRANCH  38  41
ATOM     41  C   UNL A   1      44.499  35.106  28.975  1.00  0.00     0.039 A 
ATOM     42  C   UNL A   1      43.275  35.506  28.443  1.00  0.00     0.014 A 
ATOM     43  C   UNL A   1      44.615  34.659  30.282  1.00  0.00     0.014 A 
ATOM     44  C   UNL A   1      42.121  35.266  29.187  1.00  0.00     0.010 A 
ATOM     45  C   UNL A   1      43.461  34.255  30.918  1.00  0.00     0.010 A 
ATOM     46  C   UNL A   1      42.198  34.547  30.394  1.00  0.00    -0.014 A 
BRANCH  46  47
ATOM     47  C   UNL A   1      40.974  34.021  31.025  1.00  0.00     0.031 A 
ATOM     48  C   UNL A   1      40.967  33.831  32.515  1.00  0.00     0.074 A 
ATOM     49  C   UNL A   1      39.792  33.820  30.399  1.00  0.00     0.049 A 
ATOM     50  N   UNL A   1      40.956  32.707  33.160  1.00  0.00    -0.248 NA
ATOM     51  C   UNL A   1      40.989  35.010  33.392  1.00  0.00     0.031 C 
ATOM     52  C   UNL A   1      39.376  34.144  29.030  1.00  0.00     0.029 A 
ATOM     53  N   UNL A   1      38.651  33.296  30.939  1.00  0.00    -0.354 N 
ATOM     54  C   UNL A   1      40.820  33.015  34.514  1.00  0.00     0.074 A 
ATOM     55  C   UNL A   1      40.933  34.449  34.606  1.00  0.00     0.031 C 
ATOM     56  C   UNL A   1      38.038  34.025  28.915  1.00  0.00     0.029 A 
ATOM     57  C   UNL A   1      37.542  33.401  30.123  1.00  0.00     0.049 A 
ATOM     58  H   UNL A   1      38.623  32.881  31.831  1.00  0.00     0.167 HD
ATOM     59  C   UNL A   1      40.479  32.072  35.441  1.00  0.00     0.037 A 
ATOM     60  C   UNL A   1      36.294  32.949  30.360  1.00  0.00     0.037 A 
ATOM     61  C   UNL A   1      40.600  30.738  34.913  1.00  0.00     0.049 A 
ATOM     62  C   UNL A   1      36.398  31.843  31.335  1.00  0.00     0.074 A 
ATOM     63  C   UNL A   1      41.627  29.974  34.396  1.00  0.00     0.029 A 
ATOM     64  N   UNL A   1      39.448  30.074  34.570  1.00  0.00    -0.354 N 
ATOM     65  N   UNL A   1      36.954  30.692  31.074  1.00  0.00    -0.248 NA
ATOM     66  C   UNL A   1      36.218  32.142  32.744  1.00  0.00     0.031 C 
ATOM     67  C   UNL A   1      41.024  29.211  33.350  1.00  0.00     0.029 A 
ATOM     68  C   UNL A   1      39.667  29.538  33.328  1.00  0.00     0.049 A 
ATOM     69  H   UNL A   1      38.629  29.997  35.109  1.00  0.00     0.167 HD
ATOM     70  C   UNL A   1      37.565  30.316  32.260  1.00  0.00     0.074 A 
ATOM     71  C   UNL A   1      36.969  31.177  33.277  1.00  0.00     0.031 C 
ATOM     72  C   UNL A   1      38.684  29.532  32.268  1.00  0.00     0.037 A 
BRANCH  59  73
ATOM     73  C   UNL A   1      39.765  32.324  36.746  1.00  0.00     0.057 A 
ATOM     74  C   UNL A   1      38.384  32.616  36.745  1.00  0.00     0.134 A 
ATOM     75  C   UNL A   1      40.426  32.571  37.963  1.00  0.00     0.134 A 
ATOM     76  F   UNL A   1      37.645  32.444  35.639  1.00  0.00    -0.206 F 
ATOM     77  C   UNL A   1      37.728  33.169  37.853  1.00  0.00     0.040 A 
ATOM     78  C   UNL A   1      39.769  33.080  39.091  1.00  0.00     0.040 A 
ATOM     79  F   UNL A   1      41.751  32.427  38.087  1.00  0.00    -0.206 F 
ATOM     80  C   UNL A   1      38.423  33.407  39.031  1.00  0.00     0.006 A 
ENDBRANCH  59  73
BRANCH  60  81
ATOM     81  C   UNL A   1      35.028  33.537  29.897  1.00  0.00     0.057 A 
ATOM     82  C   UNL A   1      34.404  34.579  30.589  1.00  0.00     0.134 A 
ATOM     83  C   UNL A   1      34.522  33.242  28.617  1.00  0.00     0.134 A 
ATOM     84  F   UNL A   1      34.840  34.949  31.800  1.00  0.00    -0.206 F 
ATOM     85  C   UNL A   1      33.346  35.305  30.028  1.00  0.00     0.040 A 
ATOM     86  C   UNL A   1      33.465  33.954  28.048  1.00  0.00     0.040 A 
ATOM     87  F   UNL A   1      35.096  32.305  27.846  1.00  0.00    -0.206 F 
ATOM     88  C   UNL A   1      32.882  35.001  28.751  1.00  0.00     0.006 A 
ENDBRANCH  60  81
BRANCH  72  89
ATOM     89  C   UNL A   1      39.077  28.842  30.990  1.00  0.00     0.057 A 
ATOM     90  C   UNL A   1      39.833  29.447  29.976  1.00  0.00     0.134 A 
ATOM     91  C   UNL A   1      38.817  27.474  30.851  1.00  0.00     0.134 A 
ATOM     92  F   UNL A   1      40.223  30.723  30.069  1.00  0.00    -0.206 F 
ATOM     93  C   UNL A   1      40.270  28.735  28.855  1.00  0.00     0.040 A 
ATOM     94  C   UNL A   1      39.273  26.743  29.750  1.00  0.00     0.040 A 
ATOM     95  F   UNL A   1      38.153  26.810  31.811  1.00  0.00    -0.206 F 
ATOM     96  C   UNL A   1      39.994  27.377  28.741  1.00  0.00     0.006 A 
ENDBRANCH  72  89
ENDBRANCH  46  47
ENDBRANCH  38  41
ENDBRANCH  36  37
ENDBRANCH   1  36
TORSDOF 16
ENDMDL
MODEL 3
REMARK VINA RESULT:     -11.4      7.552     14.585
REMARK SMILES COc1ccc(-c2c(C(=O)NCCCNC(=O)c3ccc(-c4c5nc(c(-c6c(F)cccc6F)c6ccc([nH]6)c(-c6c(F)cccc6F)c6nc(c(-c7c(F)cccc7F)c7ccc4[nH]7)C=C6)C=C5)cc3)sc3c2N=C(O)C[C@H]3c2ccc(OC)c(OC)c2)cc1
REMARK SMILES IDX 13 1 12 2 11 3 9 4 10 5 8 7 7 8 74 9 72 10 73 11 75 12 79 13
REMARK SMILES IDX 76 14 78 15 6 16 3 17 4 18 91 19 5 20 90 21 2 22 1 23 80 24
REMARK SMILES IDX 81 25 89 26 82 27 86 28 83 29 87 30 88 31 84 32 85 33 77 34
REMARK SMILES IDX 14 36 15 37 16 38 17 40 18 41 19 42 71 43 20 44 70 45 21 46
REMARK SMILES IDX 22 47 23 48 64 49 24 50 69 51 63 52 65 53 25 54 68 55 62 56
REMARK SMILES IDX 61 57 26 59 52 60 35 61 51 62 36 63 39 64 50 65 66 66 37 67
REMARK SMILES IDX 38 68 49 70 67 71 40 72 27 73 28 74 33 75 29 76 30 77 32 78
REMARK SMILES IDX 34 79 31 80 53 81 54 82 59 83 55 84 56 85 58 86 60 87 57 88
REMARK SMILES IDX 41 89 42 90 47 91 43 92 44 93 46 94 48 95 45 96
REMARK H PARENT 11 6 77 35 15 39 65 58 39 69
REMARK Flexibility Score: inf
ROOT
ATOM      1  C   UNL A   1      47.198  37.278  25.758  1.00  0.00     0.042 C 
ENDROOT
BRANCH   1   2
ATOM      2  C   UNL A   1      46.734  38.704  25.569  1.00  0.00     0.118 C 
BRANCH   2   3
ATOM      3  N   UNL A   1      47.563  39.791  25.991  1.00  0.00    -0.351 N 
ATOM      4  C   UNL A   1      47.230  41.136  25.954  1.00  0.00     0.262 C 
ATOM      5  O   UNL A   1      48.049  41.876  26.512  1.00  0.00    -0.268 OA
ATOM      6  H   UNL A   1      48.454  39.563  26.341  1.00  0.00     0.163 HD
BRANCH   4   7
ATOM      7  C   UNL A   1      46.056  41.656  25.228  1.00  0.00     0.102 A 
ATOM      8  C   UNL A   1      44.711  41.952  25.510  1.00  0.00     0.031 A 
ATOM      9  C   UNL A   1      44.017  42.375  24.331  1.00  0.00     0.090 A 
ATOM     10  S   UNL A   1      46.395  42.001  23.546  1.00  0.00    -0.131 S 
ATOM     11  C   UNL A   1      44.798  42.447  23.218  1.00  0.00     0.040 A 
ATOM     12  N   UNL A   1      42.650  42.685  24.335  1.00  0.00    -0.216 NA
ATOM     13  C   UNL A   1      44.317  42.878  21.875  1.00  0.00     0.071 C 
ATOM     14  C   UNL A   1      42.126  42.890  23.175  1.00  0.00     0.186 C 
ATOM     15  C   UNL A   1      42.783  42.808  21.820  1.00  0.00     0.111 C 
BRANCH   8  16
ATOM     16  C   UNL A   1      44.021  41.732  26.782  1.00  0.00    -0.014 A 
ATOM     17  C   UNL A   1      42.944  40.874  29.223  1.00  0.00     0.118 A 
ATOM     18  C   UNL A   1      43.831  41.960  29.177  1.00  0.00     0.047 A 
ATOM     19  C   UNL A   1      42.492  40.304  28.039  1.00  0.00     0.047 A 
ATOM     20  C   UNL A   1      44.378  42.391  27.958  1.00  0.00     0.012 A 
ATOM     21  C   UNL A   1      43.012  40.748  26.824  1.00  0.00     0.012 A 
BRANCH  17  22
ATOM     22  O   UNL A   1      42.615  40.427  30.473  1.00  0.00    -0.497 OA
ATOM     23  C   UNL A   1      42.286  41.431  31.433  1.00  0.00     0.278 C 
ENDBRANCH  17  22
ENDBRANCH   8  16
BRANCH  13  24
ATOM     24  C   UNL A   1      44.837  44.252  21.484  1.00  0.00    -0.035 A 
ATOM     25  C   UNL A   1      45.532  45.064  22.386  1.00  0.00     0.008 A 
ATOM     26  C   UNL A   1      44.632  44.720  20.174  1.00  0.00     0.054 A 
ATOM     27  C   UNL A   1      46.013  46.305  21.974  1.00  0.00     0.051 A 
ATOM     28  C   UNL A   1      45.106  45.973  19.750  1.00  0.00     0.161 A 
ATOM     29  C   UNL A   1      45.812  46.771  20.667  1.00  0.00     0.160 A 
BRANCH  28  30
ATOM     30  O   UNL A   1      44.897  46.454  18.486  1.00  0.00    -0.493 OA
ATOM     31  C   UNL A   1      43.674  47.124  18.208  1.00  0.00     0.278 C 
ENDBRANCH  28  30
BRANCH  29  32
ATOM     32  O   UNL A   1      46.362  48.013  20.478  1.00  0.00    -0.493 OA
ATOM     33  C   UNL A   1      47.626  48.113  19.845  1.00  0.00     0.278 C 
ENDBRANCH  29  32
ENDBRANCH  13  24
BRANCH  14  34
ATOM     34  O   UNL A   1      40.801  43.138  23.124  1.00  0.00    -0.496 OA
ATOM     35  H   UNL A   1      40.471  43.978  23.375  1.00  0.00     0.294 HD
ENDBRANCH  14  34
ENDBRANCH   4   7
ENDBRANCH   2   3
ENDBRANCH   1   2
BRANCH   1  36
ATOM     36  C   UNL A   1      46.182  36.407  26.464  1.00  0.00     0.118 C 
BRANCH  36  37
ATOM     37  N   UNL A   1      45.195  35.730  25.611  1.00  0.00    -0.352 N 
ATOM     38  C   UNL A   1      44.100  34.979  26.039  1.00  0.00     0.251 C 
ATOM     39  H   UNL A   1      45.320  35.816  24.637  1.00  0.00     0.163 HD
ATOM     40  O   UNL A   1      43.411  34.324  25.295  1.00  0.00    -0.269 OA
BRANCH  38  41
ATOM     41  C   UNL A   1      43.841  35.015  27.493  1.00  0.00     0.039 A 
ATOM     42  C   UNL A   1      43.082  36.055  28.026  1.00  0.00     0.014 A 
ATOM     43  C   UNL A   1      43.991  33.807  28.155  1.00  0.00     0.014 A 
ATOM     44  C   UNL A   1      42.307  35.796  29.156  1.00  0.00     0.010 A 
ATOM     45  C   UNL A   1      43.080  33.511  29.147  1.00  0.00     0.010 A 
ATOM     46  C   UNL A   1      42.226  34.488  29.669  1.00  0.00    -0.014 A 
BRANCH  46  47
ATOM     47  C   UNL A   1      41.186  34.139  30.653  1.00  0.00     0.031 A 
ATOM     48  C   UNL A   1      41.576  34.057  32.101  1.00  0.00     0.074 A 
ATOM     49  C   UNL A   1      39.864  34.019  30.391  1.00  0.00     0.049 A 
ATOM     50  N   UNL A   1      41.653  32.989  32.832  1.00  0.00    -0.248 NA
ATOM     51  C   UNL A   1      41.937  35.286  32.822  1.00  0.00     0.031 C 
ATOM     52  C   UNL A   1      39.114  34.287  29.159  1.00  0.00     0.029 A 
ATOM     53  N   UNL A   1      38.880  33.658  31.266  1.00  0.00    -0.354 N 
ATOM     54  C   UNL A   1      41.923  33.405  34.136  1.00  0.00     0.074 A 
ATOM     55  C   UNL A   1      42.174  34.823  34.055  1.00  0.00     0.031 C 
ATOM     56  C   UNL A   1      37.791  34.302  29.421  1.00  0.00     0.029 A 
ATOM     57  C   UNL A   1      37.600  33.821  30.772  1.00  0.00     0.049 A 
ATOM     58  H   UNL A   1      39.065  33.312  32.169  1.00  0.00     0.167 HD
ATOM     59  C   UNL A   1      41.776  32.571  35.208  1.00  0.00     0.037 A 
ATOM     60  C   UNL A   1      36.433  33.520  31.379  1.00  0.00     0.037 A 
ATOM     61  C   UNL A   1      41.636  31.198  34.799  1.00  0.00     0.049 A 
ATOM     62  C   UNL A   1      36.713  32.481  32.392  1.00  0.00     0.074 A 
ATOM     63  C   UNL A   1      42.415  30.296  34.101  1.00  0.00     0.029 A 
ATOM     64  N   UNL A   1      40.385  30.636  34.844  1.00  0.00    -0.354 N 
ATOM     65  N   UNL A   1      37.079  31.263  32.104  1.00  0.00    -0.248 NA
ATOM     66  C   UNL A   1      36.955  32.897  33.762  1.00  0.00     0.031 C 
ATOM     67  C   UNL A   1      41.485  29.528  33.335  1.00  0.00     0.029 A 
ATOM     68  C   UNL A   1      40.207  29.994  33.647  1.00  0.00     0.049 A 
ATOM     69  H   UNL A   1      39.743  30.684  35.588  1.00  0.00     0.167 HD
ATOM     70  C   UNL A   1      37.961  30.910  33.113  1.00  0.00     0.074 A 
ATOM     71  C   UNL A   1      37.743  31.899  34.164  1.00  0.00     0.031 C 
ATOM     72  C   UNL A   1      38.971  30.015  32.896  1.00  0.00     0.037 A 
BRANCH  59  73
ATOM     73  C   UNL A   1      41.474  32.990  36.626  1.00  0.00     0.057 A 
ATOM     74  C   UNL A   1      42.331  32.589  37.673  1.00  0.00     0.134 A 
ATOM     75  C   UNL A   1      40.238  33.521  37.036  1.00  0.00     0.134 A 
ATOM     76  F   UNL A   1      43.530  32.048  37.413  1.00  0.00    -0.206 F 
ATOM     77  C   UNL A   1      41.958  32.657  39.022  1.00  0.00     0.040 A 
ATOM     78  C   UNL A   1      39.874  33.637  38.384  1.00  0.00     0.040 A 
ATOM     79  F   UNL A   1      39.288  33.859  36.155  1.00  0.00    -0.206 F 
ATOM     80  C   UNL A   1      40.722  33.179  39.381  1.00  0.00     0.006 A 
ENDBRANCH  59  73
BRANCH  60  81
ATOM     81  C   UNL A   1      35.141  34.204  31.218  1.00  0.00     0.057 A 
ATOM     82  C   UNL A   1      34.735  35.223  32.084  1.00  0.00     0.134 A 
ATOM     83  C   UNL A   1      34.374  34.029  30.051  1.00  0.00     0.134 A 
ATOM     84  F   UNL A   1      35.425  35.481  33.203  1.00  0.00    -0.206 F 
ATOM     85  C   UNL A   1      33.636  36.040  31.794  1.00  0.00     0.040 A 
ATOM     86  C   UNL A   1      33.273  34.833  29.753  1.00  0.00     0.040 A 
ATOM     87  F   UNL A   1      34.723  33.123  29.124  1.00  0.00    -0.206 F 
ATOM     88  C   UNL A   1      32.909  35.854  30.621  1.00  0.00     0.006 A 
ENDBRANCH  60  81
BRANCH  72  89
ATOM     89  C   UNL A   1      38.938  29.199  31.633  1.00  0.00     0.057 A 
ATOM     90  C   UNL A   1      39.435  29.645  30.400  1.00  0.00     0.134 A 
ATOM     91  C   UNL A   1      38.533  27.861  31.701  1.00  0.00     0.134 A 
ATOM     92  F   UNL A   1      39.943  30.875  30.262  1.00  0.00    -0.206 F 
ATOM     93  C   UNL A   1      39.484  28.814  29.277  1.00  0.00     0.040 A 
ATOM     94  C   UNL A   1      38.605  27.010  30.595  1.00  0.00     0.040 A 
ATOM     95  F   UNL A   1      38.105  27.342  32.864  1.00  0.00    -0.206 F 
ATOM     96  C   UNL A   1      39.073  27.489  29.374  1.00  0.00     0.006 A 
ENDBRANCH  72  89
ENDBRANCH  46  47
ENDBRANCH  38  41
ENDBRANCH  36  37
ENDBRANCH   1  36
TORSDOF 16
ENDMDL
