MODEL 1
REMARK VINA RESULT:     -13.7      0.000      0.000
REMARK SMILES O=C(CC[C@@]1(c2ccccc2)NC(=O)N(CC(=O)Nc2cccc(F)c2)C1=O)NCCCNC(=O)c1ccc(-c2c3nc(c(-c4c(F)cccc4F)c4ccc([nH]4)c(-c4c(F)cccc4F)c4nc(c(-c5c(F)cccc5F)c5ccc2[nH]5)C=C4)C=C3)cc1
REMARK SMILES IDX 1 1 2 2 29 3 3 5 4 6 5 7 12 8 27 9 13 10 15 12 28 13 14 14
REMARK SMILES IDX 6 15 7 16 11 17 8 18 10 19 9 20 16 21 17 22 18 23 19 24
REMARK SMILES IDX 20 26 21 27 26 28 22 29 24 30 23 31 25 32 30 33 31 34 32 35
REMARK SMILES IDX 33 36 34 37 35 39 36 40 37 41 89 42 38 43 88 44 39 45 40 46
REMARK SMILES IDX 41 47 82 48 42 49 87 50 81 51 83 52 43 53 86 54 80 55 79 56
REMARK SMILES IDX 44 58 70 59 53 60 69 61 54 62 57 63 68 64 84 65 55 66 56 67
REMARK SMILES IDX 67 69 85 70 58 71 45 72 46 73 51 74 47 75 48 76 50 77 52 78
REMARK SMILES IDX 49 79 71 80 72 81 77 82 73 83 74 84 76 85 78 86 75 87 59 88
REMARK SMILES IDX 60 89 65 90 61 91 62 92 64 93 66 94 63 95
REMARK H PARENT 29 4 12 11 19 25 33 38 83 57 57 68
REMARK Flexibility Score: inf
ROOT
ATOM      1  O   UNL A   1      31.813  20.440  25.134  1.00  0.00    -0.275 OA
ATOM      2  C   UNL A   1      32.677  20.859  24.370  1.00  0.00     0.220 C 
ATOM      3  N   UNL A   1      34.035  20.358  24.237  1.00  0.00    -0.356 N 
ATOM      4  H   UNL A   1      34.081  19.843  23.399  1.00  0.00     0.163 HD
ENDROOT
BRANCH   2   5
ATOM      5  C   UNL A   1      32.375  22.009  23.391  1.00  0.00     0.103 C 
BRANCH   5   6
ATOM      6  C   UNL A   1      31.349  23.019  23.962  1.00  0.00     0.053 C 
BRANCH   6   7
ATOM      7  C   UNL A   1      31.854  24.477  23.965  1.00  0.00     0.147 C 
ATOM      8  N   UNL A   1      32.278  24.869  22.644  1.00  0.00    -0.319 N 
ATOM      9  C   UNL A   1      30.750  25.525  24.201  1.00  0.00     0.261 C 
ATOM     10  C   UNL A   1      31.549  25.918  22.143  1.00  0.00     0.325 C 
ATOM     11  H   UNL A   1      33.010  24.431  22.153  1.00  0.00     0.166 HD
ATOM     12  N   UNL A   1      30.606  26.267  23.058  1.00  0.00    -0.252 N 
ATOM     13  O   UNL A   1      30.089  25.655  25.222  1.00  0.00    -0.271 OA
ATOM     14  O   UNL A   1      31.765  26.428  21.057  1.00  0.00    -0.248 OA
BRANCH   7  15
ATOM     15  C   UNL A   1      32.948  24.588  24.996  1.00  0.00    -0.013 A 
ATOM     16  C   UNL A   1      34.660  24.795  24.405  1.00  0.00     0.007 A 
ATOM     17  C   UNL A   1      32.623  23.733  26.576  1.00  0.00     0.007 A 
ATOM     18  C   UNL A   1      36.028  24.035  25.320  1.00  0.00     0.000 A 
ATOM     19  C   UNL A   1      34.008  22.964  27.484  1.00  0.00     0.000 A 
ATOM     20  C   UNL A   1      35.687  23.093  26.836  1.00  0.00     0.000 A 
ENDBRANCH   7  15
BRANCH  12  21
ATOM     21  C   UNL A   1      29.752  27.421  22.936  1.00  0.00     0.230 C 
BRANCH  21  22
ATOM     22  C   UNL A   1      30.383  28.793  22.672  1.00  0.00     0.244 C 
ATOM     23  O   UNL A   1      29.929  29.497  21.759  1.00  0.00    -0.273 OA
ATOM     24  N   UNL A   1      31.228  29.418  23.545  1.00  0.00    -0.324 N 
ATOM     25  H   UNL A   1      31.362  30.374  23.349  1.00  0.00     0.170 HD
BRANCH  24  26
ATOM     26  C   UNL A   1      31.942  28.970  24.659  1.00  0.00     0.044 A 
ATOM     27  C   UNL A   1      33.275  28.590  24.475  1.00  0.00     0.026 A 
ATOM     28  C   UNL A   1      31.363  28.783  25.906  1.00  0.00     0.065 A 
ATOM     29  C   UNL A   1      34.045  28.150  25.557  1.00  0.00     0.005 A 
ATOM     30  C   UNL A   1      32.133  28.357  26.983  1.00  0.00     0.125 A 
ATOM     31  C   UNL A   1      33.476  28.055  26.825  1.00  0.00     0.039 A 
ATOM     32  F   UNL A   1      31.558  28.213  28.184  1.00  0.00    -0.207 F 
ENDBRANCH  24  26
ENDBRANCH  21  22
ENDBRANCH  12  21
ENDBRANCH   6   7
ENDBRANCH   5   6
ENDBRANCH   2   5
BRANCH   3  33
ATOM     33  C   UNL A   1      35.926  20.298  25.121  1.00  0.00     0.117 C 
BRANCH  33  34
ATOM     34  C   UNL A   1      37.476  20.793  24.614  1.00  0.00     0.042 C 
BRANCH  34  35
ATOM     35  C   UNL A   1      38.551  20.758  25.705  1.00  0.00     0.118 C 
BRANCH  35  36
ATOM     36  N   UNL A   1      39.485  19.644  25.608  1.00  0.00    -0.352 N 
ATOM     37  C   UNL A   1      40.813  19.663  25.969  1.00  0.00     0.251 C 
ATOM     38  H   UNL A   1      39.133  18.798  25.248  1.00  0.00     0.163 HD
ATOM     39  O   UNL A   1      41.548  18.702  25.781  1.00  0.00    -0.269 OA
BRANCH  37  40
ATOM     40  C   UNL A   1      41.346  20.910  26.551  1.00  0.00     0.039 A 
ATOM     41  C   UNL A   1      41.912  21.862  25.703  1.00  0.00     0.014 A 
ATOM     42  C   UNL A   1      41.178  21.170  27.914  1.00  0.00     0.014 A 
ATOM     43  C   UNL A   1      42.259  23.112  26.216  1.00  0.00     0.010 A 
ATOM     44  C   UNL A   1      41.468  22.436  28.410  1.00  0.00     0.010 A 
ATOM     45  C   UNL A   1      42.012  23.419  27.565  1.00  0.00    -0.014 A 
BRANCH  45  46
ATOM     46  C   UNL A   1      42.332  24.759  28.112  1.00  0.00     0.031 A 
ATOM     47  C   UNL A   1      43.738  25.074  28.540  1.00  0.00     0.074 A 
ATOM     48  C   UNL A   1      41.354  25.670  28.270  1.00  0.00     0.049 A 
ATOM     49  N   UNL A   1      44.214  26.172  29.068  1.00  0.00    -0.248 NA
ATOM     50  C   UNL A   1      44.732  24.002  28.379  1.00  0.00     0.031 C 
ATOM     51  C   UNL A   1      39.942  25.464  27.941  1.00  0.00     0.029 A 
ATOM     52  N   UNL A   1      41.398  26.955  28.752  1.00  0.00    -0.354 N 
ATOM     53  C   UNL A   1      45.558  25.920  29.309  1.00  0.00     0.074 A 
ATOM     54  C   UNL A   1      45.809  24.548  28.925  1.00  0.00     0.031 C 
ATOM     55  C   UNL A   1      39.260  26.590  28.210  1.00  0.00     0.029 A 
ATOM     56  C   UNL A   1      40.179  27.587  28.750  1.00  0.00     0.049 A 
ATOM     57  H   UNL A   1      42.227  27.382  29.070  1.00  0.00     0.167 HD
ATOM     58  C   UNL A   1      46.505  26.764  29.783  1.00  0.00     0.037 A 
ATOM     59  C   UNL A   1      39.844  28.833  29.136  1.00  0.00     0.037 A 
ATOM     60  C   UNL A   1      46.259  28.136  30.138  1.00  0.00     0.049 A 
ATOM     61  C   UNL A   1      40.917  29.756  29.647  1.00  0.00     0.074 A 
ATOM     62  C   UNL A   1      47.162  29.090  30.571  1.00  0.00     0.029 A 
ATOM     63  N   UNL A   1      45.015  28.748  30.099  1.00  0.00    -0.354 N 
ATOM     64  N   UNL A   1      42.198  29.528  29.801  1.00  0.00    -0.248 NA
ATOM     65  C   UNL A   1      40.497  31.112  30.030  1.00  0.00     0.031 C 
ATOM     66  C   UNL A   1      46.457  30.272  30.828  1.00  0.00     0.029 A 
ATOM     67  C   UNL A   1      45.123  30.064  30.516  1.00  0.00     0.049 A 
ATOM     68  H   UNL A   1      44.178  28.312  29.816  1.00  0.00     0.167 HD
ATOM     69  C   UNL A   1      42.742  30.717  30.272  1.00  0.00     0.074 A 
ATOM     70  C   UNL A   1      41.653  31.666  30.366  1.00  0.00     0.031 C 
ATOM     71  C   UNL A   1      44.028  30.997  30.595  1.00  0.00     0.037 A 
BRANCH  58  72
ATOM     72  C   UNL A   1      47.895  26.222  29.934  1.00  0.00     0.057 A 
ATOM     73  C   UNL A   1      48.801  26.208  28.865  1.00  0.00     0.134 A 
ATOM     74  C   UNL A   1      48.340  25.723  31.165  1.00  0.00     0.134 A 
ATOM     75  F   UNL A   1      48.431  26.657  27.656  1.00  0.00    -0.206 F 
ATOM     76  C   UNL A   1      50.089  25.692  29.007  1.00  0.00     0.040 A 
ATOM     77  C   UNL A   1      49.635  25.229  31.326  1.00  0.00     0.040 A 
ATOM     78  F   UNL A   1      47.525  25.711  32.230  1.00  0.00    -0.206 F 
ATOM     79  C   UNL A   1      50.511  25.205  30.242  1.00  0.00     0.006 A 
ENDBRANCH  58  72
BRANCH  59  80
ATOM     80  C   UNL A   1      38.439  29.296  29.020  1.00  0.00     0.057 A 
ATOM     81  C   UNL A   1      37.581  29.281  30.126  1.00  0.00     0.134 A 
ATOM     82  C   UNL A   1      37.917  29.753  27.805  1.00  0.00     0.134 A 
ATOM     83  F   UNL A   1      38.018  28.836  31.313  1.00  0.00    -0.206 F 
ATOM     84  C   UNL A   1      36.249  29.688  30.025  1.00  0.00     0.040 A 
ATOM     85  C   UNL A   1      36.593  30.184  27.694  1.00  0.00     0.040 A 
ATOM     86  F   UNL A   1      38.689  29.797  26.709  1.00  0.00    -0.206 F 
ATOM     87  C   UNL A   1      35.753  30.146  28.805  1.00  0.00     0.006 A 
ENDBRANCH  59  80
BRANCH  71  88
ATOM     88  C   UNL A   1      44.333  32.391  31.054  1.00  0.00     0.057 A 
ATOM     89  C   UNL A   1      44.328  32.739  32.410  1.00  0.00     0.134 A 
ATOM     90  C   UNL A   1      44.679  33.385  30.130  1.00  0.00     0.134 A 
ATOM     91  F   UNL A   1      43.993  31.834  33.342  1.00  0.00    -0.206 F 
ATOM     92  C   UNL A   1      44.641  34.032  32.831  1.00  0.00     0.040 A 
ATOM     93  C   UNL A   1      45.016  34.675  30.540  1.00  0.00     0.040 A 
ATOM     94  F   UNL A   1      44.709  33.113  28.816  1.00  0.00    -0.206 F 
ATOM     95  C   UNL A   1      44.993  35.003  31.894  1.00  0.00     0.006 A 
ENDBRANCH  71  88
ENDBRANCH  45  46
ENDBRANCH  37  40
ENDBRANCH  35  36
ENDBRANCH  34  35
ENDBRANCH  33  34
ENDBRANCH   3  33
TORSDOF 16
ENDMDL
MODEL 2
REMARK VINA RESULT:     -13.6      0.475      5.961
REMARK SMILES O=C(CC[C@@]1(c2ccccc2)NC(=O)N(CC(=O)Nc2cccc(F)c2)C1=O)NCCCNC(=O)c1ccc(-c2c3nc(c(-c4c(F)cccc4F)c4ccc([nH]4)c(-c4c(F)cccc4F)c4nc(c(-c5c(F)cccc5F)c5ccc2[nH]5)C=C4)C=C3)cc1
REMARK SMILES IDX 1 1 2 2 29 3 3 5 4 6 5 7 12 8 27 9 13 10 15 12 28 13 14 14
REMARK SMILES IDX 6 15 7 16 11 17 8 18 10 19 9 20 16 21 17 22 18 23 19 24
REMARK SMILES IDX 20 26 21 27 26 28 22 29 24 30 23 31 25 32 30 33 31 34 32 35
REMARK SMILES IDX 33 36 34 37 35 39 36 40 37 41 89 42 38 43 88 44 39 45 40 46
REMARK SMILES IDX 41 47 82 48 42 49 87 50 81 51 83 52 43 53 86 54 80 55 79 56
REMARK SMILES IDX 44 58 70 59 53 60 69 61 54 62 57 63 68 64 84 65 55 66 56 67
REMARK SMILES IDX 67 69 85 70 58 71 45 72 46 73 51 74 47 75 48 76 50 77 52 78
REMARK SMILES IDX 49 79 71 80 72 81 77 82 73 83 74 84 76 85 78 86 75 87 59 88
REMARK SMILES IDX 60 89 65 90 61 91 62 92 64 93 66 94 63 95
REMARK H PARENT 29 4 12 11 19 25 33 38 83 57 57 68
REMARK Flexibility Score: inf
ROOT
ATOM      1  O   UNL A   1      31.779  20.675  25.022  1.00  0.00    -0.275 OA
ATOM      2  C   UNL A   1      32.659  21.033  24.244  1.00  0.00     0.220 C 
ATOM      3  N   UNL A   1      34.002  20.487  24.142  1.00  0.00    -0.356 N 
ATOM      4  H   UNL A   1      34.036  19.933  23.328  1.00  0.00     0.163 HD
ENDROOT
BRANCH   2   5
ATOM      5  C   UNL A   1      32.395  22.146  23.212  1.00  0.00     0.103 C 
BRANCH   5   6
ATOM      6  C   UNL A   1      31.268  23.111  23.656  1.00  0.00     0.053 C 
BRANCH   6   7
ATOM      7  C   UNL A   1      31.755  24.551  23.918  1.00  0.00     0.147 C 
ATOM      8  N   UNL A   1      32.474  25.058  22.776  1.00  0.00    -0.319 N 
ATOM      9  C   UNL A   1      30.624  25.594  23.994  1.00  0.00     0.261 C 
ATOM     10  C   UNL A   1      31.880  26.165  22.226  1.00  0.00     0.325 C 
ATOM     11  H   UNL A   1      33.302  24.654  22.429  1.00  0.00     0.166 HD
ATOM     12  N   UNL A   1      30.749  26.445  22.927  1.00  0.00    -0.252 N 
ATOM     13  O   UNL A   1      29.744  25.640  24.841  1.00  0.00    -0.271 OA
ATOM     14  O   UNL A   1      32.341  26.772  21.275  1.00  0.00    -0.248 OA
BRANCH   7  15
ATOM     15  C   UNL A   1      32.579  24.540  25.181  1.00  0.00    -0.013 A 
ATOM     16  C   UNL A   1      34.394  24.597  25.016  1.00  0.00     0.007 A 
ATOM     17  C   UNL A   1      31.816  23.689  26.605  1.00  0.00     0.007 A 
ATOM     18  C   UNL A   1      35.435  23.696  26.195  1.00  0.00     0.000 A 
ATOM     19  C   UNL A   1      32.875  22.777  27.780  1.00  0.00     0.000 A 
ATOM     20  C   UNL A   1      34.665  22.762  27.549  1.00  0.00     0.000 A 
ENDBRANCH   7  15
BRANCH  12  21
ATOM     21  C   UNL A   1      29.945  27.622  22.724  1.00  0.00     0.230 C 
BRANCH  21  22
ATOM     22  C   UNL A   1      30.637  28.980  22.552  1.00  0.00     0.244 C 
ATOM     23  O   UNL A   1      30.267  29.733  21.640  1.00  0.00    -0.273 OA
ATOM     24  N   UNL A   1      31.444  29.542  23.500  1.00  0.00    -0.324 N 
ATOM     25  H   UNL A   1      31.622  30.499  23.350  1.00  0.00     0.170 HD
BRANCH  24  26
ATOM     26  C   UNL A   1      32.069  29.029  24.640  1.00  0.00     0.044 A 
ATOM     27  C   UNL A   1      33.411  28.649  24.538  1.00  0.00     0.026 A 
ATOM     28  C   UNL A   1      31.397  28.780  25.827  1.00  0.00     0.065 A 
ATOM     29  C   UNL A   1      34.095  28.146  25.649  1.00  0.00     0.005 A 
ATOM     30  C   UNL A   1      32.081  28.290  26.935  1.00  0.00     0.125 A 
ATOM     31  C   UNL A   1      33.430  27.987  26.863  1.00  0.00     0.039 A 
ATOM     32  F   UNL A   1      31.415  28.086  28.079  1.00  0.00    -0.207 F 
ENDBRANCH  24  26
ENDBRANCH  21  22
ENDBRANCH  12  21
ENDBRANCH   6   7
ENDBRANCH   5   6
ENDBRANCH   2   5
BRANCH   3  33
ATOM     33  C   UNL A   1      35.886  20.411  25.038  1.00  0.00     0.117 C 
BRANCH  33  34
ATOM     34  C   UNL A   1      37.409  21.060  24.629  1.00  0.00     0.042 C 
BRANCH  34  35
ATOM     35  C   UNL A   1      38.472  20.946  25.725  1.00  0.00     0.118 C 
BRANCH  35  36
ATOM     36  N   UNL A   1      39.322  19.767  25.633  1.00  0.00    -0.352 N 
ATOM     37  C   UNL A   1      40.653  19.695  25.977  1.00  0.00     0.251 C 
ATOM     38  H   UNL A   1      38.906  18.943  25.290  1.00  0.00     0.163 HD
ATOM     39  O   UNL A   1      41.314  18.681  25.794  1.00  0.00    -0.269 OA
BRANCH  37  40
ATOM     40  C   UNL A   1      41.282  20.908  26.534  1.00  0.00     0.039 A 
ATOM     41  C   UNL A   1      41.889  21.813  25.663  1.00  0.00     0.014 A 
ATOM     42  C   UNL A   1      41.164  21.190  27.898  1.00  0.00     0.014 A 
ATOM     43  C   UNL A   1      42.331  23.041  26.155  1.00  0.00     0.010 A 
ATOM     44  C   UNL A   1      41.551  22.438  28.374  1.00  0.00     0.010 A 
ATOM     45  C   UNL A   1      42.138  23.375  27.507  1.00  0.00    -0.014 A 
BRANCH  45  46
ATOM     46  C   UNL A   1      42.560  24.695  28.033  1.00  0.00     0.031 A 
ATOM     47  C   UNL A   1      41.535  25.770  28.261  1.00  0.00     0.074 A 
ATOM     48  C   UNL A   1      43.864  24.942  28.256  1.00  0.00     0.049 A 
ATOM     49  N   UNL A   1      41.704  26.996  28.686  1.00  0.00    -0.248 NA
ATOM     50  C   UNL A   1      40.140  25.429  27.943  1.00  0.00     0.031 C 
ATOM     51  C   UNL A   1      44.958  23.997  28.022  1.00  0.00     0.029 A 
ATOM     52  N   UNL A   1      44.493  26.068  28.727  1.00  0.00    -0.354 N 
ATOM     53  C   UNL A   1      40.442  27.573  28.677  1.00  0.00     0.074 A 
ATOM     54  C   UNL A   1      39.526  26.585  28.151  1.00  0.00     0.031 C 
ATOM     55  C   UNL A   1      46.120  24.575  28.372  1.00  0.00     0.029 A 
ATOM     56  C   UNL A   1      45.856  25.935  28.832  1.00  0.00     0.049 A 
ATOM     57  H   UNL A   1      44.011  26.893  28.966  1.00  0.00     0.167 HD
ATOM     58  C   UNL A   1      40.073  28.808  29.095  1.00  0.00     0.037 A 
ATOM     59  C   UNL A   1      46.786  26.813  29.256  1.00  0.00     0.037 A 
ATOM     60  C   UNL A   1      40.981  29.779  29.644  1.00  0.00     0.049 A 
ATOM     61  C   UNL A   1      46.349  28.173  29.728  1.00  0.00     0.074 A 
ATOM     62  C   UNL A   1      40.699  31.034  30.151  1.00  0.00     0.029 A 
ATOM     63  N   UNL A   1      42.352  29.599  29.757  1.00  0.00    -0.354 N 
ATOM     64  N   UNL A   1      45.142  28.680  29.783  1.00  0.00    -0.248 NA
ATOM     65  C   UNL A   1      47.405  29.080  30.204  1.00  0.00     0.031 C 
ATOM     66  C   UNL A   1      41.904  31.629  30.539  1.00  0.00     0.029 A 
ATOM     67  C   UNL A   1      42.932  30.727  30.311  1.00  0.00     0.049 A 
ATOM     68  H   UNL A   1      42.841  28.788  29.484  1.00  0.00     0.167 HD
ATOM     69  C   UNL A   1      45.288  29.952  30.324  1.00  0.00     0.074 A 
ATOM     70  C   UNL A   1      46.700  30.133  30.591  1.00  0.00     0.031 C 
ATOM     71  C   UNL A   1      44.338  30.886  30.577  1.00  0.00     0.037 A 
BRANCH  58  72
ATOM     72  C   UNL A   1      38.622  29.167  28.979  1.00  0.00     0.057 A 
ATOM     73  C   UNL A   1      37.754  29.091  30.077  1.00  0.00     0.134 A 
ATOM     74  C   UNL A   1      38.088  29.610  27.763  1.00  0.00     0.134 A 
ATOM     75  F   UNL A   1      38.200  28.659  31.267  1.00  0.00    -0.206 F 
ATOM     76  C   UNL A   1      36.402  29.415  29.963  1.00  0.00     0.040 A 
ATOM     77  C   UNL A   1      36.743  29.962  27.643  1.00  0.00     0.040 A 
ATOM     78  F   UNL A   1      38.864  29.710  26.673  1.00  0.00    -0.206 F 
ATOM     79  C   UNL A   1      35.894  29.858  28.743  1.00  0.00     0.006 A 
ENDBRANCH  58  72
BRANCH  59  80
ATOM     80  C   UNL A   1      48.217  26.421  29.292  1.00  0.00     0.057 A 
ATOM     81  C   UNL A   1      49.053  26.645  28.192  1.00  0.00     0.134 A 
ATOM     82  C   UNL A   1      48.780  25.809  30.417  1.00  0.00     0.134 A 
ATOM     83  F   UNL A   1      48.566  27.211  27.078  1.00  0.00    -0.206 F 
ATOM     84  C   UNL A   1      50.394  26.257  28.202  1.00  0.00     0.040 A 
ATOM     85  C   UNL A   1      50.125  25.436  30.449  1.00  0.00     0.040 A 
ATOM     86  F   UNL A   1      48.033  25.573  31.505  1.00  0.00    -0.206 F 
ATOM     87  C   UNL A   1      50.935  25.654  29.336  1.00  0.00     0.006 A 
ENDBRANCH  59  80
BRANCH  71  88
ATOM     88  C   UNL A   1      44.790  32.173  31.199  1.00  0.00     0.057 A 
ATOM     89  C   UNL A   1      44.950  32.307  32.583  1.00  0.00     0.134 A 
ATOM     90  C   UNL A   1      45.112  33.276  30.398  1.00  0.00     0.134 A 
ATOM     91  F   UNL A   1      44.646  31.290  33.404  1.00  0.00    -0.206 F 
ATOM     92  C   UNL A   1      45.398  33.499  33.151  1.00  0.00     0.040 A 
ATOM     93  C   UNL A   1      45.584  34.465  30.952  1.00  0.00     0.040 A 
ATOM     94  F   UNL A   1      44.987  33.208  29.063  1.00  0.00    -0.206 F 
ATOM     95  C   UNL A   1      45.723  34.581  32.334  1.00  0.00     0.006 A 
ENDBRANCH  71  88
ENDBRANCH  45  46
ENDBRANCH  37  40
ENDBRANCH  35  36
ENDBRANCH  34  35
ENDBRANCH  33  34
ENDBRANCH   3  33
TORSDOF 16
ENDMDL
MODEL 3
REMARK VINA RESULT:     -13.1      1.869      6.379
REMARK SMILES O=C(CC[C@@]1(c2ccccc2)NC(=O)N(CC(=O)Nc2cccc(F)c2)C1=O)NCCCNC(=O)c1ccc(-c2c3nc(c(-c4c(F)cccc4F)c4ccc([nH]4)c(-c4c(F)cccc4F)c4nc(c(-c5c(F)cccc5F)c5ccc2[nH]5)C=C4)C=C3)cc1
REMARK SMILES IDX 1 1 2 2 29 3 3 5 4 6 5 7 12 8 27 9 13 10 15 12 28 13 14 14
REMARK SMILES IDX 6 15 7 16 11 17 8 18 10 19 9 20 16 21 17 22 18 23 19 24
REMARK SMILES IDX 20 26 21 27 26 28 22 29 24 30 23 31 25 32 30 33 31 34 32 35
REMARK SMILES IDX 33 36 34 37 35 39 36 40 37 41 89 42 38 43 88 44 39 45 40 46
REMARK SMILES IDX 41 47 82 48 42 49 87 50 81 51 83 52 43 53 86 54 80 55 79 56
REMARK SMILES IDX 44 58 70 59 53 60 69 61 54 62 57 63 68 64 84 65 55 66 56 67
REMARK SMILES IDX 67 69 85 70 58 71 45 72 46 73 51 74 47 75 48 76 50 77 52 78
REMARK SMILES IDX 49 79 71 80 72 81 77 82 73 83 74 84 76 85 78 86 75 87 59 88
REMARK SMILES IDX 60 89 65 90 61 91 62 92 64 93 66 94 63 95
REMARK H PARENT 29 4 12 11 19 25 33 38 83 57 57 68
REMARK Flexibility Score: inf
ROOT
ATOM      1  O   UNL A   1      37.359  24.151  26.214  1.00  0.00    -0.275 OA
ATOM      2  C   UNL A   1      36.313  23.613  25.861  1.00  0.00     0.220 C 
ATOM      3  N   UNL A   1      36.011  22.192  25.902  1.00  0.00    -0.356 N 
ATOM      4  H   UNL A   1      35.390  22.043  26.651  1.00  0.00     0.163 HD
ENDROOT
BRANCH   2   5
ATOM      5  C   UNL A   1      35.132  24.453  25.336  1.00  0.00     0.103 C 
BRANCH   5   6
ATOM      6  C   UNL A   1      34.263  23.679  24.315  1.00  0.00     0.053 C 
BRANCH   6   7
ATOM      7  C   UNL A   1      32.758  23.686  24.654  1.00  0.00     0.147 C 
ATOM      8  N   UNL A   1      32.531  24.302  25.937  1.00  0.00    -0.319 N 
ATOM      9  C   UNL A   1      31.918  24.623  23.766  1.00  0.00     0.261 C 
ATOM     10  C   UNL A   1      31.746  25.424  25.854  1.00  0.00     0.325 C 
ATOM     11  H   UNL A   1      32.899  23.956  26.782  1.00  0.00     0.166 HD
ATOM     12  N   UNL A   1      31.430  25.637  24.549  1.00  0.00    -0.252 N 
ATOM     13  O   UNL A   1      31.739  24.504  22.562  1.00  0.00    -0.271 OA
ATOM     14  O   UNL A   1      31.403  26.077  26.824  1.00  0.00    -0.248 OA
BRANCH   7  15
ATOM     15  C   UNL A   1      32.259  22.264  24.582  1.00  0.00    -0.013 A 
ATOM     16  C   UNL A   1      32.568  21.178  26.012  1.00  0.00     0.007 A 
ATOM     17  C   UNL A   1      32.153  21.557  22.901  1.00  0.00     0.007 A 
ATOM     18  C   UNL A   1      32.903  19.416  25.751  1.00  0.00     0.000 A 
ATOM     19  C   UNL A   1      32.501  19.782  22.650  1.00  0.00     0.000 A 
ATOM     20  C   UNL A   1      32.902  18.737  24.065  1.00  0.00     0.000 A 
ENDBRANCH   7  15
BRANCH  12  21
ATOM     21  C   UNL A   1      30.501  26.641  24.097  1.00  0.00     0.230 C 
BRANCH  21  22
ATOM     22  C   UNL A   1      30.998  27.757  23.169  1.00  0.00     0.244 C 
ATOM     23  O   UNL A   1      30.588  27.794  22.001  1.00  0.00    -0.273 OA
ATOM     24  N   UNL A   1      31.645  28.876  23.612  1.00  0.00    -0.324 N 
ATOM     25  H   UNL A   1      31.692  29.596  22.941  1.00  0.00     0.170 HD
BRANCH  24  26
ATOM     26  C   UNL A   1      32.255  29.202  24.826  1.00  0.00     0.044 A 
ATOM     27  C   UNL A   1      31.679  30.215  25.599  1.00  0.00     0.026 A 
ATOM     28  C   UNL A   1      33.455  28.647  25.245  1.00  0.00     0.065 A 
ATOM     29  C   UNL A   1      32.235  30.573  26.832  1.00  0.00     0.005 A 
ATOM     30  C   UNL A   1      34.000  28.995  26.477  1.00  0.00     0.125 A 
ATOM     31  C   UNL A   1      33.391  29.942  27.284  1.00  0.00     0.039 A 
ATOM     32  F   UNL A   1      35.145  28.423  26.872  1.00  0.00    -0.207 F 
ENDBRANCH  24  26
ENDBRANCH  21  22
ENDBRANCH  12  21
ENDBRANCH   6   7
ENDBRANCH   5   6
ENDBRANCH   2   5
BRANCH   3  33
ATOM     33  C   UNL A   1      36.373  20.344  25.002  1.00  0.00     0.117 C 
BRANCH  33  34
ATOM     34  C   UNL A   1      37.705  19.280  24.995  1.00  0.00     0.042 C 
BRANCH  34  35
ATOM     35  C   UNL A   1      38.937  19.786  25.751  1.00  0.00     0.118 C 
BRANCH  35  36
ATOM     36  N   UNL A   1      40.073  18.874  25.752  1.00  0.00    -0.352 N 
ATOM     37  C   UNL A   1      41.380  19.204  26.029  1.00  0.00     0.251 C 
ATOM     38  H   UNL A   1      39.888  17.933  25.531  1.00  0.00     0.163 HD
ATOM     39  O   UNL A   1      42.287  18.388  25.930  1.00  0.00    -0.269 OA
BRANCH  37  40
ATOM     40  C   UNL A   1      41.668  20.601  26.405  1.00  0.00     0.039 A 
ATOM     41  C   UNL A   1      41.902  20.905  27.747  1.00  0.00     0.014 A 
ATOM     42  C   UNL A   1      41.814  21.574  25.412  1.00  0.00     0.014 A 
ATOM     43  C   UNL A   1      42.345  22.182  28.090  1.00  0.00     0.010 A 
ATOM     44  C   UNL A   1      42.313  22.827  25.750  1.00  0.00     0.010 A 
ATOM     45  C   UNL A   1      42.582  23.142  27.092  1.00  0.00    -0.014 A 
BRANCH  45  46
ATOM     46  C   UNL A   1      43.098  24.488  27.439  1.00  0.00     0.031 A 
ATOM     47  C   UNL A   1      42.148  25.552  27.912  1.00  0.00     0.074 A 
ATOM     48  C   UNL A   1      44.405  24.767  27.281  1.00  0.00     0.049 A 
ATOM     49  N   UNL A   1      42.395  26.796  28.235  1.00  0.00    -0.248 NA
ATOM     50  C   UNL A   1      40.729  25.175  28.007  1.00  0.00     0.031 C 
ATOM     51  C   UNL A   1      45.416  23.834  26.779  1.00  0.00     0.029 A 
ATOM     52  N   UNL A   1      45.109  25.920  27.523  1.00  0.00    -0.354 N 
ATOM     53  C   UNL A   1      41.165  27.350  28.562  1.00  0.00     0.074 A 
ATOM     54  C   UNL A   1      40.166  26.326  28.343  1.00  0.00     0.031 C 
ATOM     55  C   UNL A   1      46.613  24.445  26.772  1.00  0.00     0.029 A 
ATOM     56  C   UNL A   1      46.451  25.817  27.246  1.00  0.00     0.049 A 
ATOM     57  H   UNL A   1      44.691  26.745  27.862  1.00  0.00     0.167 HD
ATOM     58  C   UNL A   1      40.893  28.592  29.028  1.00  0.00     0.037 A 
ATOM     59  C   UNL A   1      47.437  26.725  27.366  1.00  0.00     0.037 A 
ATOM     60  C   UNL A   1      41.891  29.599  29.272  1.00  0.00     0.049 A 
ATOM     61  C   UNL A   1      47.112  28.094  27.900  1.00  0.00     0.074 A 
ATOM     62  C   UNL A   1      41.727  30.867  29.799  1.00  0.00     0.029 A 
ATOM     63  N   UNL A   1      43.243  29.448  29.002  1.00  0.00    -0.354 N 
ATOM     64  N   UNL A   1      45.955  28.581  28.275  1.00  0.00    -0.248 NA
ATOM     65  C   UNL A   1      48.233  29.036  28.034  1.00  0.00     0.031 C 
ATOM     66  C   UNL A   1      42.976  31.497  29.816  1.00  0.00     0.029 A 
ATOM     67  C   UNL A   1      43.924  30.606  29.338  1.00  0.00     0.049 A 
ATOM     68  H   UNL A   1      43.659  28.637  28.629  1.00  0.00     0.167 HD
ATOM     69  C   UNL A   1      46.211  29.875  28.714  1.00  0.00     0.074 A 
ATOM     70  C   UNL A   1      47.635  30.091  28.570  1.00  0.00     0.031 C 
ATOM     71  C   UNL A   1      45.344  30.799  29.195  1.00  0.00     0.037 A 
BRANCH  58  72
ATOM     72  C   UNL A   1      39.458  28.921  29.312  1.00  0.00     0.057 A 
ATOM     73  C   UNL A   1      38.613  29.447  28.326  1.00  0.00     0.134 A 
ATOM     74  C   UNL A   1      38.908  28.693  30.580  1.00  0.00     0.134 A 
ATOM     75  F   UNL A   1      39.083  29.703  27.095  1.00  0.00    -0.206 F 
ATOM     76  C   UNL A   1      37.282  29.762  28.598  1.00  0.00     0.040 A 
ATOM     77  C   UNL A   1      37.571  28.980  30.856  1.00  0.00     0.040 A 
ATOM     78  F   UNL A   1      39.660  28.187  31.569  1.00  0.00    -0.206 F 
ATOM     79  C   UNL A   1      36.756  29.523  29.865  1.00  0.00     0.006 A 
ENDBRANCH  58  72
BRANCH  59  80
ATOM     80  C   UNL A   1      48.832  26.361  27.013  1.00  0.00     0.057 A 
ATOM     81  C   UNL A   1      49.343  26.623  25.736  1.00  0.00     0.134 A 
ATOM     82  C   UNL A   1      49.681  25.739  27.933  1.00  0.00     0.134 A 
ATOM     83  F   UNL A   1      48.570  27.200  24.805  1.00  0.00    -0.206 F 
ATOM     84  C   UNL A   1      50.644  26.261  25.381  1.00  0.00     0.040 A 
ATOM     85  C   UNL A   1      50.992  25.392  27.599  1.00  0.00     0.040 A 
ATOM     86  F   UNL A   1      49.254  25.467  29.175  1.00  0.00    -0.206 F 
ATOM     87  C   UNL A   1      51.474  25.647  26.316  1.00  0.00     0.006 A 
ENDBRANCH  59  80
BRANCH  71  88
ATOM     88  C   UNL A   1      45.915  32.117  29.626  1.00  0.00     0.057 A 
ATOM     89  C   UNL A   1      45.995  33.207  28.751  1.00  0.00     0.134 A 
ATOM     90  C   UNL A   1      46.346  32.309  30.944  1.00  0.00     0.134 A 
ATOM     91  F   UNL A   1      45.609  33.082  27.472  1.00  0.00    -0.206 F 
ATOM     92  C   UNL A   1      46.501  34.438  29.168  1.00  0.00     0.040 A 
ATOM     93  C   UNL A   1      46.832  33.542  31.379  1.00  0.00     0.040 A 
ATOM     94  F   UNL A   1      46.288  31.305  31.833  1.00  0.00    -0.206 F 
ATOM     95  C   UNL A   1      46.915  34.610  30.488  1.00  0.00     0.006 A 
ENDBRANCH  71  88
ENDBRANCH  45  46
ENDBRANCH  37  40
ENDBRANCH  35  36
ENDBRANCH  34  35
ENDBRANCH  33  34
ENDBRANCH   3  33
TORSDOF 16
ENDMDL
