MODEL 1
REMARK VINA RESULT:     -10.0      0.000      0.000
REMARK SMILES Cc1ccc2c(c1)C=C(C(=O)NCCCNC(=O)c1ccc(-c3c4nc(c(-c5c(F)cccc5F)c5ccc([nH]5)c(-c5c(F)cccc5F)c5nc(c(-c6c(F)cccc6F)c6ccc3[nH]6)C=C5)C=C4)cc1)[C@@H](C(F)(F)F)O2
REMARK SMILES IDX 14 1 13 2 12 3 10 4 11 5 9 7 1 8 2 9 3 10 7 11 4 12 6 13
REMARK SMILES IDX 5 14 8 15 78 16 73 17 74 18 75 19 76 20 77 21 15 22 16 23
REMARK SMILES IDX 17 24 18 26 19 27 20 28 72 29 21 30 71 31 22 32 23 33 24 34
REMARK SMILES IDX 65 35 25 36 70 37 64 38 66 39 26 40 69 41 63 42 62 43 27 45
REMARK SMILES IDX 53 46 36 47 52 48 37 49 40 50 51 51 67 52 38 53 39 54 50 56
REMARK SMILES IDX 68 57 41 58 28 59 29 60 34 61 30 62 31 63 33 64 35 65 32 66
REMARK SMILES IDX 54 67 55 68 60 69 56 70 57 71 59 72 61 73 58 74 42 75 43 76
REMARK SMILES IDX 48 77 44 78 45 79 47 80 49 81 46 82
REMARK H PARENT 12 6 16 25 66 44 40 55
REMARK Flexibility Score: inf
ROOT
ATOM      1  C   UNL A   1      34.504  35.949  32.104  1.00  0.00     0.042 C 
ENDROOT
BRANCH   1   2
ATOM      2  C   UNL A   1      35.694  35.247  32.738  1.00  0.00     0.118 C 
BRANCH   2   3
ATOM      3  N   UNL A   1      35.424  34.861  34.114  1.00  0.00    -0.352 N 
ATOM      4  C   UNL A   1      35.929  33.990  35.018  1.00  0.00     0.251 C 
ATOM      5  O   UNL A   1      35.363  33.994  36.116  1.00  0.00    -0.270 OA
ATOM      6  H   UNL A   1      34.669  35.371  34.489  1.00  0.00     0.163 HD
BRANCH   4   7
ATOM      7  C   UNL A   1      37.076  33.069  34.777  1.00  0.00     0.067 C 
ATOM      8  C   UNL A   1      38.474  27.736  31.969  1.00  0.00     0.044 C 
ATOM      9  C   UNL A   1      38.723  29.006  32.727  1.00  0.00    -0.050 A 
ATOM     10  C   UNL A   1      40.024  29.346  33.119  1.00  0.00     0.007 A 
ATOM     11  C   UNL A   1      37.670  29.895  32.993  1.00  0.00     0.015 A 
ATOM     12  C   UNL A   1      40.266  30.544  33.790  1.00  0.00     0.047 A 
ATOM     13  C   UNL A   1      37.909  31.093  33.673  1.00  0.00     0.017 A 
ATOM     14  C   UNL A   1      39.210  31.403  34.073  1.00  0.00     0.128 A 
ATOM     15  C   UNL A   1      36.836  32.043  33.939  1.00  0.00     0.025 C 
ATOM     16  O   UNL A   1      39.521  32.569  34.713  1.00  0.00    -0.475 OA
ATOM     17  C   UNL A   1      38.426  33.211  35.422  1.00  0.00     0.314 C 
BRANCH  17  18
ATOM     18  C   UNL A   1      38.434  32.751  36.894  1.00  0.00     0.429 C 
ATOM     19  F   UNL A   1      37.596  31.697  37.061  1.00  0.00    -0.167 F 
ATOM     20  F   UNL A   1      39.657  32.334  37.302  1.00  0.00    -0.167 F 
ATOM     21  F   UNL A   1      38.047  33.719  37.752  1.00  0.00    -0.167 F 
ENDBRANCH  17  18
ENDBRANCH   4   7
ENDBRANCH   2   3
ENDBRANCH   1   2
BRANCH   1  22
ATOM     22  C   UNL A   1      33.263  35.068  32.073  1.00  0.00     0.118 C 
BRANCH  22  23
ATOM     23  N   UNL A   1      32.704  34.947  30.727  1.00  0.00    -0.352 N 
ATOM     24  C   UNL A   1      33.277  34.530  29.552  1.00  0.00     0.251 C 
ATOM     25  H   UNL A   1      31.757  35.208  30.652  1.00  0.00     0.163 HD
ATOM     26  O   UNL A   1      32.699  34.728  28.487  1.00  0.00    -0.269 OA
BRANCH  24  27
ATOM     27  C   UNL A   1      34.593  33.862  29.562  1.00  0.00     0.039 A 
ATOM     28  C   UNL A   1      34.800  32.732  30.352  1.00  0.00     0.014 A 
ATOM     29  C   UNL A   1      35.633  34.362  28.773  1.00  0.00     0.014 A 
ATOM     30  C   UNL A   1      36.084  32.239  30.523  1.00  0.00     0.010 A 
ATOM     31  C   UNL A   1      36.903  33.781  28.849  1.00  0.00     0.010 A 
ATOM     32  C   UNL A   1      37.151  32.749  29.767  1.00  0.00    -0.014 A 
BRANCH  32  33
ATOM     33  C   UNL A   1      38.506  32.169  29.963  1.00  0.00     0.031 A 
ATOM     34  C   UNL A   1      39.527  32.863  30.823  1.00  0.00     0.074 A 
ATOM     35  C   UNL A   1      38.782  30.967  29.419  1.00  0.00     0.049 A 
ATOM     36  N   UNL A   1      40.741  32.481  31.130  1.00  0.00    -0.248 NA
ATOM     37  C   UNL A   1      39.143  34.157  31.409  1.00  0.00     0.031 C 
ATOM     38  C   UNL A   1      37.870  30.196  28.568  1.00  0.00     0.029 A 
ATOM     39  N   UNL A   1      39.889  30.167  29.526  1.00  0.00    -0.354 N 
ATOM     40  C   UNL A   1      41.272  33.493  31.920  1.00  0.00     0.074 A 
ATOM     41  C   UNL A   1      40.261  34.521  32.022  1.00  0.00     0.031 C 
ATOM     42  C   UNL A   1      38.426  29.010  28.287  1.00  0.00     0.029 A 
ATOM     43  C   UNL A   1      39.762  28.968  28.868  1.00  0.00     0.049 A 
ATOM     44  H   UNL A   1      40.696  30.427  30.024  1.00  0.00     0.167 HD
ATOM     45  C   UNL A   1      42.490  33.555  32.514  1.00  0.00     0.037 A 
ATOM     46  C   UNL A   1      40.633  27.952  28.729  1.00  0.00     0.037 A 
ATOM     47  C   UNL A   1      43.485  32.517  32.427  1.00  0.00     0.049 A 
ATOM     48  C   UNL A   1      41.986  28.066  29.368  1.00  0.00     0.074 A 
ATOM     49  C   UNL A   1      44.738  32.471  33.014  1.00  0.00     0.029 A 
ATOM     50  N   UNL A   1      43.339  31.341  31.707  1.00  0.00    -0.354 N 
ATOM     51  N   UNL A   1      42.465  29.023  30.123  1.00  0.00    -0.248 NA
ATOM     52  C   UNL A   1      42.921  26.960  29.126  1.00  0.00     0.031 C 
ATOM     53  C   UNL A   1      45.369  31.289  32.611  1.00  0.00     0.029 A 
ATOM     54  C   UNL A   1      44.489  30.574  31.813  1.00  0.00     0.049 A 
ATOM     55  H   UNL A   1      42.538  31.088  31.194  1.00  0.00     0.167 HD
ATOM     56  C   UNL A   1      43.754  28.632  30.456  1.00  0.00     0.074 A 
ATOM     57  C   UNL A   1      43.967  27.335  29.847  1.00  0.00     0.031 C 
ATOM     58  C   UNL A   1      44.683  29.289  31.193  1.00  0.00     0.037 A 
BRANCH  45  59
ATOM     59  C   UNL A   1      42.820  34.798  33.290  1.00  0.00     0.057 A 
ATOM     60  C   UNL A   1      42.644  34.836  34.679  1.00  0.00     0.134 A 
ATOM     61  C   UNL A   1      43.284  35.964  32.668  1.00  0.00     0.134 A 
ATOM     62  F   UNL A   1      42.195  33.757  35.339  1.00  0.00    -0.206 F 
ATOM     63  C   UNL A   1      42.915  35.989  35.420  1.00  0.00     0.040 A 
ATOM     64  C   UNL A   1      43.584  37.115  33.401  1.00  0.00     0.040 A 
ATOM     65  F   UNL A   1      43.490  35.992  31.342  1.00  0.00    -0.206 F 
ATOM     66  C   UNL A   1      43.393  37.130  34.781  1.00  0.00     0.006 A 
ENDBRANCH  45  59
BRANCH  46  67
ATOM     67  C   UNL A   1      40.266  26.757  27.928  1.00  0.00     0.057 A 
ATOM     68  C   UNL A   1      40.722  26.596  26.613  1.00  0.00     0.134 A 
ATOM     69  C   UNL A   1      39.470  25.740  28.464  1.00  0.00     0.134 A 
ATOM     70  F   UNL A   1      41.482  27.539  26.038  1.00  0.00    -0.206 F 
ATOM     71  C   UNL A   1      40.394  25.469  25.859  1.00  0.00     0.040 A 
ATOM     72  C   UNL A   1      39.160  24.592  27.732  1.00  0.00     0.040 A 
ATOM     73  F   UNL A   1      39.019  25.829  29.724  1.00  0.00    -0.206 F 
ATOM     74  C   UNL A   1      39.619  24.458  26.423  1.00  0.00     0.006 A 
ENDBRANCH  46  67
BRANCH  58  75
ATOM     75  C   UNL A   1      45.998  28.594  31.390  1.00  0.00     0.057 A 
ATOM     76  C   UNL A   1      46.184  27.711  32.461  1.00  0.00     0.134 A 
ATOM     77  C   UNL A   1      47.076  28.791  30.517  1.00  0.00     0.134 A 
ATOM     78  F   UNL A   1      45.194  27.482  33.337  1.00  0.00    -0.206 F 
ATOM     79  C   UNL A   1      47.395  27.043  32.652  1.00  0.00     0.040 A 
ATOM     80  C   UNL A   1      48.282  28.107  30.682  1.00  0.00     0.040 A 
ATOM     81  F   UNL A   1      46.955  29.611  29.462  1.00  0.00    -0.206 F 
ATOM     82  C   UNL A   1      48.444  27.233  31.755  1.00  0.00     0.006 A 
ENDBRANCH  58  75
ENDBRANCH  32  33
ENDBRANCH  24  27
ENDBRANCH  22  23
ENDBRANCH   1  22
TORSDOF 11
ENDMDL
MODEL 2
REMARK VINA RESULT:      -9.8      4.331      9.731
REMARK SMILES Cc1ccc2c(c1)C=C(C(=O)NCCCNC(=O)c1ccc(-c3c4nc(c(-c5c(F)cccc5F)c5ccc([nH]5)c(-c5c(F)cccc5F)c5nc(c(-c6c(F)cccc6F)c6ccc3[nH]6)C=C5)C=C4)cc1)[C@@H](C(F)(F)F)O2
REMARK SMILES IDX 14 1 13 2 12 3 10 4 11 5 9 7 1 8 2 9 3 10 7 11 4 12 6 13
REMARK SMILES IDX 5 14 8 15 78 16 73 17 74 18 75 19 76 20 77 21 15 22 16 23
REMARK SMILES IDX 17 24 18 26 19 27 20 28 72 29 21 30 71 31 22 32 23 33 24 34
REMARK SMILES IDX 65 35 25 36 70 37 64 38 66 39 26 40 69 41 63 42 62 43 27 45
REMARK SMILES IDX 53 46 36 47 52 48 37 49 40 50 51 51 67 52 38 53 39 54 50 56
REMARK SMILES IDX 68 57 41 58 28 59 29 60 34 61 30 62 31 63 33 64 35 65 32 66
REMARK SMILES IDX 54 67 55 68 60 69 56 70 57 71 59 72 61 73 58 74 42 75 43 76
REMARK SMILES IDX 48 77 44 78 45 79 47 80 49 81 46 82
REMARK H PARENT 12 6 16 25 66 44 40 55
REMARK Flexibility Score: inf
ROOT
ATOM      1  C   UNL A   1      33.901  28.781  25.929  1.00  0.00     0.042 C 
ENDROOT
BRANCH   1   2
ATOM      2  C   UNL A   1      32.538  28.734  25.256  1.00  0.00     0.118 C 
BRANCH   2   3
ATOM      3  N   UNL A   1      31.718  27.649  25.772  1.00  0.00    -0.352 N 
ATOM      4  C   UNL A   1      31.728  26.296  25.741  1.00  0.00     0.251 C 
ATOM      5  O   UNL A   1      30.791  25.756  26.338  1.00  0.00    -0.270 OA
ATOM      6  H   UNL A   1      30.948  27.992  26.280  1.00  0.00     0.163 HD
BRANCH   4   7
ATOM      7  C   UNL A   1      32.755  25.458  25.059  1.00  0.00     0.067 C 
ATOM      8  C   UNL A   1      38.376  23.034  25.959  1.00  0.00     0.044 C 
ATOM      9  C   UNL A   1      37.079  23.292  25.252  1.00  0.00    -0.050 A 
ATOM     10  C   UNL A   1      36.818  22.684  24.017  1.00  0.00     0.007 A 
ATOM     11  C   UNL A   1      36.089  24.089  25.847  1.00  0.00     0.015 A 
ATOM     12  C   UNL A   1      35.598  22.889  23.374  1.00  0.00     0.047 A 
ATOM     13  C   UNL A   1      34.869  24.304  25.200  1.00  0.00     0.017 A 
ATOM     14  C   UNL A   1      34.638  23.705  23.961  1.00  0.00     0.128 A 
ATOM     15  C   UNL A   1      33.817  25.108  25.810  1.00  0.00     0.025 C 
ATOM     16  O   UNL A   1      33.457  23.845  23.288  1.00  0.00    -0.475 OA
ATOM     17  C   UNL A   1      32.678  25.026  23.622  1.00  0.00     0.314 C 
BRANCH  17  18
ATOM     18  C   UNL A   1      33.027  26.161  22.639  1.00  0.00     0.429 C 
ATOM     19  F   UNL A   1      33.331  25.650  21.419  1.00  0.00    -0.167 F 
ATOM     20  F   UNL A   1      31.996  27.020  22.446  1.00  0.00    -0.167 F 
ATOM     21  F   UNL A   1      34.081  26.904  23.042  1.00  0.00    -0.167 F 
ENDBRANCH  17  18
ENDBRANCH   4   7
ENDBRANCH   2   3
ENDBRANCH   1   2
BRANCH   1  22
ATOM     22  C   UNL A   1      33.794  28.798  27.447  1.00  0.00     0.118 C 
BRANCH  22  23
ATOM     23  N   UNL A   1      33.877  30.153  27.993  1.00  0.00    -0.352 N 
ATOM     24  C   UNL A   1      34.888  30.786  28.672  1.00  0.00     0.251 C 
ATOM     25  H   UNL A   1      33.073  30.703  27.848  1.00  0.00     0.163 HD
ATOM     26  O   UNL A   1      34.666  31.846  29.249  1.00  0.00    -0.269 OA
BRANCH  24  27
ATOM     27  C   UNL A   1      36.236  30.186  28.726  1.00  0.00     0.039 A 
ATOM     28  C   UNL A   1      36.687  29.576  29.896  1.00  0.00     0.014 A 
ATOM     29  C   UNL A   1      37.061  30.226  27.598  1.00  0.00     0.014 A 
ATOM     30  C   UNL A   1      38.018  29.208  30.010  1.00  0.00     0.010 A 
ATOM     31  C   UNL A   1      38.368  29.736  27.676  1.00  0.00     0.010 A 
ATOM     32  C   UNL A   1      38.874  29.273  28.900  1.00  0.00    -0.014 A 
BRANCH  32  33
ATOM     33  C   UNL A   1      40.287  28.840  29.062  1.00  0.00     0.031 A 
ATOM     34  C   UNL A   1      40.737  27.480  28.600  1.00  0.00     0.074 A 
ATOM     35  C   UNL A   1      41.181  29.716  29.561  1.00  0.00     0.049 A 
ATOM     36  N   UNL A   1      41.936  26.955  28.632  1.00  0.00    -0.248 NA
ATOM     37  C   UNL A   1      39.710  26.589  28.038  1.00  0.00     0.031 C 
ATOM     38  C   UNL A   1      40.864  31.066  30.040  1.00  0.00     0.029 A 
ATOM     39  N   UNL A   1      42.539  29.622  29.718  1.00  0.00    -0.354 N 
ATOM     40  C   UNL A   1      41.804  25.670  28.120  1.00  0.00     0.074 A 
ATOM     41  C   UNL A   1      40.404  25.482  27.811  1.00  0.00     0.031 C 
ATOM     42  C   UNL A   1      42.000  31.694  30.372  1.00  0.00     0.029 A 
ATOM     43  C   UNL A   1      43.114  30.769  30.207  1.00  0.00     0.049 A 
ATOM     44  H   UNL A   1      43.052  28.811  29.501  1.00  0.00     0.167 HD
ATOM     45  C   UNL A   1      42.765  24.736  27.916  1.00  0.00     0.037 A 
ATOM     46  C   UNL A   1      44.396  31.043  30.511  1.00  0.00     0.037 A 
ATOM     47  C   UNL A   1      44.163  24.937  28.205  1.00  0.00     0.049 A 
ATOM     48  C   UNL A   1      45.431  29.976  30.308  1.00  0.00     0.074 A 
ATOM     49  C   UNL A   1      45.219  24.065  28.009  1.00  0.00     0.029 A 
ATOM     50  N   UNL A   1      44.698  26.095  28.750  1.00  0.00    -0.354 N 
ATOM     51  N   UNL A   1      45.291  28.772  29.809  1.00  0.00    -0.248 NA
ATOM     52  C   UNL A   1      46.801  30.304  30.721  1.00  0.00     0.031 C 
ATOM     53  C   UNL A   1      46.387  24.676  28.480  1.00  0.00     0.029 A 
ATOM     54  C   UNL A   1      46.066  25.949  28.922  1.00  0.00     0.049 A 
ATOM     55  H   UNL A   1      44.182  26.901  28.982  1.00  0.00     0.167 HD
ATOM     56  C   UNL A   1      46.555  28.202  29.837  1.00  0.00     0.074 A 
ATOM     57  C   UNL A   1      47.453  29.205  30.373  1.00  0.00     0.031 C 
ATOM     58  C   UNL A   1      46.940  26.958  29.463  1.00  0.00     0.037 A 
BRANCH  45  59
ATOM     59  C   UNL A   1      42.333  23.402  27.377  1.00  0.00     0.057 A 
ATOM     60  C   UNL A   1      41.915  22.385  28.245  1.00  0.00     0.134 A 
ATOM     61  C   UNL A   1      42.357  23.109  26.007  1.00  0.00     0.134 A 
ATOM     62  F   UNL A   1      41.875  22.595  29.570  1.00  0.00    -0.206 F 
ATOM     63  C   UNL A   1      41.538  21.127  27.772  1.00  0.00     0.040 A 
ATOM     64  C   UNL A   1      41.957  21.863  25.518  1.00  0.00     0.040 A 
ATOM     65  F   UNL A   1      42.733  24.042  25.119  1.00  0.00    -0.206 F 
ATOM     66  C   UNL A   1      41.552  20.866  26.403  1.00  0.00     0.006 A 
ENDBRANCH  45  59
BRANCH  46  67
ATOM     67  C   UNL A   1      44.766  32.369  31.066  1.00  0.00     0.057 A 
ATOM     68  C   UNL A   1      45.148  33.426  30.230  1.00  0.00     0.134 A 
ATOM     69  C   UNL A   1      44.727  32.617  32.442  1.00  0.00     0.134 A 
ATOM     70  F   UNL A   1      45.213  33.251  28.902  1.00  0.00    -0.206 F 
ATOM     71  C   UNL A   1      45.483  34.679  30.743  1.00  0.00     0.040 A 
ATOM     72  C   UNL A   1      45.029  33.875  32.966  1.00  0.00     0.040 A 
ATOM     73  F   UNL A   1      44.352  31.650  33.292  1.00  0.00    -0.206 F 
ATOM     74  C   UNL A   1      45.413  34.909  32.115  1.00  0.00     0.006 A 
ENDBRANCH  46  67
BRANCH  58  75
ATOM     75  C   UNL A   1      48.399  26.635  29.603  1.00  0.00     0.057 A 
ATOM     76  C   UNL A   1      48.883  26.008  30.757  1.00  0.00     0.134 A 
ATOM     77  C   UNL A   1      49.321  26.938  28.593  1.00  0.00     0.134 A 
ATOM     78  F   UNL A   1      48.053  25.696  31.764  1.00  0.00    -0.206 F 
ATOM     79  C   UNL A   1      50.234  25.685  30.898  1.00  0.00     0.040 A 
ATOM     80  C   UNL A   1      50.670  26.595  28.711  1.00  0.00     0.040 A 
ATOM     81  F   UNL A   1      48.917  27.523  27.455  1.00  0.00    -0.206 F 
ATOM     82  C   UNL A   1      51.129  25.970  29.869  1.00  0.00     0.006 A 
ENDBRANCH  58  75
ENDBRANCH  32  33
ENDBRANCH  24  27
ENDBRANCH  22  23
ENDBRANCH   1  22
TORSDOF 11
ENDMDL
MODEL 3
REMARK VINA RESULT:      -9.8      4.602     10.866
REMARK SMILES Cc1ccc2c(c1)C=C(C(=O)NCCCNC(=O)c1ccc(-c3c4nc(c(-c5c(F)cccc5F)c5ccc([nH]5)c(-c5c(F)cccc5F)c5nc(c(-c6c(F)cccc6F)c6ccc3[nH]6)C=C5)C=C4)cc1)[C@@H](C(F)(F)F)O2
REMARK SMILES IDX 14 1 13 2 12 3 10 4 11 5 9 7 1 8 2 9 3 10 7 11 4 12 6 13
REMARK SMILES IDX 5 14 8 15 78 16 73 17 74 18 75 19 76 20 77 21 15 22 16 23
REMARK SMILES IDX 17 24 18 26 19 27 20 28 72 29 21 30 71 31 22 32 23 33 24 34
REMARK SMILES IDX 65 35 25 36 70 37 64 38 66 39 26 40 69 41 63 42 62 43 27 45
REMARK SMILES IDX 53 46 36 47 52 48 37 49 40 50 51 51 67 52 38 53 39 54 50 56
REMARK SMILES IDX 68 57 41 58 28 59 29 60 34 61 30 62 31 63 33 64 35 65 32 66
REMARK SMILES IDX 54 67 55 68 60 69 56 70 57 71 59 72 61 73 58 74 42 75 43 76
REMARK SMILES IDX 48 77 44 78 45 79 47 80 49 81 46 82
REMARK H PARENT 12 6 16 25 66 44 40 55
REMARK Flexibility Score: inf
ROOT
ATOM      1  C   UNL A   1      44.608  20.534  24.638  1.00  0.00     0.042 C 
ENDROOT
BRANCH   1   2
ATOM      2  C   UNL A   1      45.289  21.693  25.348  1.00  0.00     0.118 C 
BRANCH   2   3
ATOM      3  N   UNL A   1      46.246  22.368  24.486  1.00  0.00    -0.352 N 
ATOM      4  C   UNL A   1      46.680  23.634  24.285  1.00  0.00     0.251 C 
ATOM      5  O   UNL A   1      47.541  23.755  23.408  1.00  0.00    -0.270 OA
ATOM      6  H   UNL A   1      46.701  21.733  23.887  1.00  0.00     0.163 HD
BRANCH   4   7
ATOM      7  C   UNL A   1      46.200  24.836  25.025  1.00  0.00     0.067 C 
ATOM      8  C   UNL A   1      41.194  28.408  25.700  1.00  0.00     0.044 C 
ATOM      9  C   UNL A   1      42.580  27.906  25.971  1.00  0.00    -0.050 A 
ATOM     10  C   UNL A   1      43.364  28.510  26.963  1.00  0.00     0.007 A 
ATOM     11  C   UNL A   1      43.081  26.789  25.286  1.00  0.00     0.015 A 
ATOM     12  C   UNL A   1      44.639  28.022  27.247  1.00  0.00     0.047 A 
ATOM     13  C   UNL A   1      44.362  26.303  25.562  1.00  0.00     0.017 A 
ATOM     14  C   UNL A   1      45.135  26.933  26.539  1.00  0.00     0.128 A 
ATOM     15  C   UNL A   1      44.894  25.130  24.880  1.00  0.00     0.025 C 
ATOM     16  O   UNL A   1      46.381  26.493  26.883  1.00  0.00    -0.475 OA
ATOM     17  C   UNL A   1      47.078  25.716  25.871  1.00  0.00     0.314 C 
BRANCH  17  18
ATOM     18  C   UNL A   1      47.967  26.653  25.031  1.00  0.00     0.429 C 
ATOM     19  F   UNL A   1      49.146  26.046  24.740  1.00  0.00    -0.167 F 
ATOM     20  F   UNL A   1      47.403  26.979  23.842  1.00  0.00    -0.167 F 
ATOM     21  F   UNL A   1      48.252  27.815  25.658  1.00  0.00    -0.167 F 
ENDBRANCH  17  18
ENDBRANCH   4   7
ENDBRANCH   2   3
ENDBRANCH   1   2
BRANCH   1  22
ATOM     22  C   UNL A   1      44.065  19.498  25.613  1.00  0.00     0.118 C 
BRANCH  22  23
ATOM     23  N   UNL A   1      42.655  19.196  25.371  1.00  0.00    -0.352 N 
ATOM     24  C   UNL A   1      41.515  19.780  25.865  1.00  0.00     0.251 C 
ATOM     25  H   UNL A   1      42.497  18.449  24.749  1.00  0.00     0.163 HD
ATOM     26  O   UNL A   1      40.431  19.222  25.718  1.00  0.00    -0.269 OA
BRANCH  24  27
ATOM     27  C   UNL A   1      41.590  21.066  26.586  1.00  0.00     0.039 A 
ATOM     28  C   UNL A   1      41.738  22.259  25.880  1.00  0.00     0.014 A 
ATOM     29  C   UNL A   1      41.507  21.086  27.981  1.00  0.00     0.014 A 
ATOM     30  C   UNL A   1      42.022  23.430  26.563  1.00  0.00     0.010 A 
ATOM     31  C   UNL A   1      41.665  22.294  28.668  1.00  0.00     0.010 A 
ATOM     32  C   UNL A   1      41.978  23.467  27.966  1.00  0.00    -0.014 A 
BRANCH  32  33
ATOM     33  C   UNL A   1      42.260  24.754  28.655  1.00  0.00     0.031 A 
ATOM     34  C   UNL A   1      43.635  25.064  29.184  1.00  0.00     0.074 A 
ATOM     35  C   UNL A   1      41.281  25.677  28.732  1.00  0.00     0.049 A 
ATOM     36  N   UNL A   1      44.063  26.149  29.777  1.00  0.00    -0.248 NA
ATOM     37  C   UNL A   1      44.661  24.019  29.037  1.00  0.00     0.031 C 
ATOM     38  C   UNL A   1      39.908  25.493  28.251  1.00  0.00     0.029 A 
ATOM     39  N   UNL A   1      41.295  26.962  29.207  1.00  0.00    -0.354 N 
ATOM     40  C   UNL A   1      45.395  25.910  30.096  1.00  0.00     0.074 A 
ATOM     41  C   UNL A   1      45.697  24.566  29.657  1.00  0.00     0.031 C 
ATOM     42  C   UNL A   1      39.233  26.642  28.394  1.00  0.00     0.029 A 
ATOM     43  C   UNL A   1      40.097  27.616  29.048  1.00  0.00     0.049 A 
ATOM     44  H   UNL A   1      42.085  27.376  29.622  1.00  0.00     0.167 HD
ATOM     45  C   UNL A   1      46.286  26.740  30.691  1.00  0.00     0.037 A 
ATOM     46  C   UNL A   1      39.726  28.859  29.407  1.00  0.00     0.037 A 
ATOM     47  C   UNL A   1      45.985  28.086  31.106  1.00  0.00     0.049 A 
ATOM     48  C   UNL A   1      40.725  29.741  30.097  1.00  0.00     0.074 A 
ATOM     49  C   UNL A   1      46.825  29.018  31.693  1.00  0.00     0.029 A 
ATOM     50  N   UNL A   1      44.745  28.694  30.976  1.00  0.00    -0.354 N 
ATOM     51  N   UNL A   1      41.983  29.504  30.376  1.00  0.00    -0.248 NA
ATOM     52  C   UNL A   1      40.247  31.059  30.529  1.00  0.00     0.031 C 
ATOM     53  C   UNL A   1      46.081  30.172  31.961  1.00  0.00     0.029 A 
ATOM     54  C   UNL A   1      44.790  29.979  31.495  1.00  0.00     0.049 A 
ATOM     55  H   UNL A   1      43.950  28.275  30.575  1.00  0.00     0.167 HD
ATOM     56  C   UNL A   1      42.452  30.647  31.008  1.00  0.00     0.074 A 
ATOM     57  C   UNL A   1      41.350  31.587  31.040  1.00  0.00     0.031 C 
ATOM     58  C   UNL A   1      43.680  30.896  31.524  1.00  0.00     0.037 A 
BRANCH  45  59
ATOM     59  C   UNL A   1      47.666  26.205  30.951  1.00  0.00     0.057 A 
ATOM     60  C   UNL A   1      47.980  25.617  32.183  1.00  0.00     0.134 A 
ATOM     61  C   UNL A   1      48.691  26.296  30.000  1.00  0.00     0.134 A 
ATOM     62  F   UNL A   1      47.049  25.504  33.141  1.00  0.00    -0.206 F 
ATOM     63  C   UNL A   1      49.263  25.140  32.460  1.00  0.00     0.040 A 
ATOM     64  C   UNL A   1      49.971  25.799  30.255  1.00  0.00     0.040 A 
ATOM     65  F   UNL A   1      48.455  26.835  28.794  1.00  0.00    -0.206 F 
ATOM     66  C   UNL A   1      50.261  25.224  31.492  1.00  0.00     0.006 A 
ENDBRANCH  45  59
BRANCH  46  67
ATOM     67  C   UNL A   1      38.342  29.329  29.151  1.00  0.00     0.057 A 
ATOM     68  C   UNL A   1      37.948  29.770  27.881  1.00  0.00     0.134 A 
ATOM     69  C   UNL A   1      37.376  29.329  30.163  1.00  0.00     0.134 A 
ATOM     70  F   UNL A   1      38.829  29.802  26.871  1.00  0.00    -0.206 F 
ATOM     71  C   UNL A   1      36.645  30.200  27.629  1.00  0.00     0.040 A 
ATOM     72  C   UNL A   1      36.061  29.727  29.916  1.00  0.00     0.040 A 
ATOM     73  F   UNL A   1      37.688  28.902  31.395  1.00  0.00    -0.206 F 
ATOM     74  C   UNL A   1      35.694  30.169  28.646  1.00  0.00     0.006 A 
ENDBRANCH  46  67
BRANCH  58  75
ATOM     75  C   UNL A   1      43.888  32.248  32.141  1.00  0.00     0.057 A 
ATOM     76  C   UNL A   1      43.654  32.453  33.506  1.00  0.00     0.134 A 
ATOM     77  C   UNL A   1      44.328  33.343  31.386  1.00  0.00     0.134 A 
ATOM     78  F   UNL A   1      43.226  31.446  34.284  1.00  0.00    -0.206 F 
ATOM     79  C   UNL A   1      43.857  33.699  34.101  1.00  0.00     0.040 A 
ATOM     80  C   UNL A   1      44.562  34.587  31.976  1.00  0.00     0.040 A 
ATOM     81  F   UNL A   1      44.586  33.208  30.077  1.00  0.00    -0.206 F 
ATOM     82  C   UNL A   1      44.322  34.767  33.337  1.00  0.00     0.006 A 
ENDBRANCH  58  75
ENDBRANCH  32  33
ENDBRANCH  24  27
ENDBRANCH  22  23
ENDBRANCH   1  22
TORSDOF 11
ENDMDL
