MODEL 1
REMARK VINA RESULT:     -11.8      0.000      0.000
REMARK SMILES C[C@@H]1CCC[C@H]1NC(=O)c1csc(/C=C/C(=O)NCCCNC(=O)c2ccc(-c3c4nc(c(-c5c(F)cccc5F)c5ccc([nH]5)c(-c5c(F)cccc5F)c5nc(c(-c6c(F)cccc6F)c6ccc3[nH]6)C=C5)C=C4)cc2)c1
REMARK SMILES IDX 19 1 18 2 16 3 17 4 15 6 14 7 13 8 10 9 11 10 79 11 12 12
REMARK SMILES IDX 8 13 7 14 9 16 6 17 1 18 2 19 3 20 4 21 5 22 20 23 21 24
REMARK SMILES IDX 22 25 23 26 24 28 25 29 26 30 78 31 27 32 77 33 28 34 29 35
REMARK SMILES IDX 30 36 71 37 31 38 76 39 70 40 72 41 32 42 75 43 69 44 68 45
REMARK SMILES IDX 33 47 59 48 42 49 58 50 43 51 46 52 57 53 73 54 44 55 45 56
REMARK SMILES IDX 56 58 74 59 47 60 34 61 35 62 40 63 36 64 37 65 39 66 41 67
REMARK SMILES IDX 38 68 60 69 61 70 66 71 62 72 63 73 65 74 67 75 64 76 48 77
REMARK SMILES IDX 49 78 54 79 50 80 51 81 53 82 55 83 52 84
REMARK H PARENT 18 5 7 15 22 27 72 46 46 57
REMARK Flexibility Score: inf
ROOT
ATOM      1  C   UNL A   1      32.917  27.680  24.775  1.00  0.00     0.118 C 
ENDROOT
BRANCH   1   2
ATOM      2  N   UNL A   1      33.225  27.447  23.375  1.00  0.00    -0.352 N 
ATOM      3  C   UNL A   1      33.557  26.306  22.713  1.00  0.00     0.244 C 
ATOM      4  O   UNL A   1      33.684  26.327  21.491  1.00  0.00    -0.270 OA
ATOM      5  H   UNL A   1      33.187  28.252  22.808  1.00  0.00     0.163 HD
BRANCH   3   6
ATOM      6  C   UNL A   1      33.672  25.022  23.435  1.00  0.00     0.072 C 
ATOM      7  C   UNL A   1      34.827  24.559  23.932  1.00  0.00     0.024 C 
BRANCH   7   8
ATOM      8  C   UNL A   1      34.931  23.355  24.686  1.00  0.00     0.028 A 
ATOM      9  C   UNL A   1      35.467  21.120  25.230  1.00  0.00     0.051 A 
ATOM     10  C   UNL A   1      34.785  21.532  26.358  1.00  0.00     0.079 A 
ATOM     11  C   UNL A   1      35.587  22.200  24.297  1.00  0.00     0.033 A 
ATOM     12  S   UNL A   1      34.208  23.135  26.229  1.00  0.00    -0.144 S 
BRANCH   9  13
ATOM     13  C   UNL A   1      36.052  19.803  25.032  1.00  0.00     0.252 C 
ATOM     14  N   UNL A   1      35.240  18.750  24.695  1.00  0.00    -0.349 N 
ATOM     15  H   UNL A   1      35.679  17.869  24.685  1.00  0.00     0.164 HD
ATOM     16  O   UNL A   1      37.265  19.619  25.109  1.00  0.00    -0.269 OA
BRANCH  14  17
ATOM     17  C   UNL A   1      33.821  18.742  24.348  1.00  0.00     0.085 C 
ATOM     18  C   UNL A   1      32.247  18.059  22.482  1.00  0.00     0.010 C 
ATOM     19  C   UNL A   1      33.526  17.712  23.248  1.00  0.00     0.008 C 
ATOM     20  C   UNL A   1      33.387  16.402  24.021  1.00  0.00     0.005 C 
ATOM     21  C   UNL A   1      32.745  16.782  25.352  1.00  0.00     0.002 C 
ATOM     22  C   UNL A   1      32.990  18.279  25.546  1.00  0.00     0.025 C 
ENDBRANCH  14  17
ENDBRANCH   9  13
ENDBRANCH   7   8
ENDBRANCH   3   6
ENDBRANCH   1   2
BRANCH   1  23
ATOM     23  C   UNL A   1      33.978  28.556  25.440  1.00  0.00     0.042 C 
BRANCH  23  24
ATOM     24  C   UNL A   1      33.898  28.554  26.965  1.00  0.00     0.118 C 
BRANCH  24  25
ATOM     25  N   UNL A   1      33.808  29.901  27.508  1.00  0.00    -0.352 N 
ATOM     26  C   UNL A   1      34.695  30.606  28.282  1.00  0.00     0.251 C 
ATOM     27  H   UNL A   1      32.979  30.384  27.285  1.00  0.00     0.163 HD
ATOM     28  O   UNL A   1      34.332  31.650  28.817  1.00  0.00    -0.269 OA
BRANCH  26  29
ATOM     29  C   UNL A   1      36.078  30.123  28.483  1.00  0.00     0.039 A 
ATOM     30  C   UNL A   1      36.977  30.195  27.413  1.00  0.00     0.014 A 
ATOM     31  C   UNL A   1      36.481  29.552  29.694  1.00  0.00     0.014 A 
ATOM     32  C   UNL A   1      38.288  29.743  27.573  1.00  0.00     0.010 A 
ATOM     33  C   UNL A   1      37.808  29.168  29.875  1.00  0.00     0.010 A 
ATOM     34  C   UNL A   1      38.724  29.254  28.815  1.00  0.00    -0.014 A 
BRANCH  34  35
ATOM     35  C   UNL A   1      40.131  28.831  29.023  1.00  0.00     0.031 A 
ATOM     36  C   UNL A   1      41.133  29.783  29.615  1.00  0.00     0.074 A 
ATOM     37  C   UNL A   1      40.523  27.607  28.616  1.00  0.00     0.049 A 
ATOM     38  N   UNL A   1      42.418  29.621  29.805  1.00  0.00    -0.248 NA
ATOM     39  C   UNL A   1      40.629  31.103  30.025  1.00  0.00     0.031 C 
ATOM     40  C   UNL A   1      39.657  26.609  27.987  1.00  0.00     0.029 A 
ATOM     41  N   UNL A   1      41.752  27.000  28.662  1.00  0.00    -0.354 N 
ATOM     42  C   UNL A   1      42.877  30.819  30.340  1.00  0.00     0.074 A 
ATOM     43  C   UNL A   1      41.743  31.716  30.398  1.00  0.00     0.031 C 
ATOM     44  C   UNL A   1      40.378  25.508  27.721  1.00  0.00     0.029 A 
ATOM     45  C   UNL A   1      41.761  25.735  28.126  1.00  0.00     0.049 A 
ATOM     46  H   UNL A   1      42.553  27.431  29.040  1.00  0.00     0.167 HD
ATOM     47  C   UNL A   1      44.125  31.135  30.761  1.00  0.00     0.037 A 
ATOM     48  C   UNL A   1      42.772  24.860  27.970  1.00  0.00     0.037 A 
ATOM     49  C   UNL A   1      45.244  30.231  30.723  1.00  0.00     0.049 A 
ATOM     50  C   UNL A   1      44.148  25.236  28.443  1.00  0.00     0.074 A 
ATOM     51  C   UNL A   1      46.534  30.435  31.184  1.00  0.00     0.029 A 
ATOM     52  N   UNL A   1      45.209  28.950  30.191  1.00  0.00    -0.354 N 
ATOM     53  N   UNL A   1      44.553  26.349  29.007  1.00  0.00    -0.248 NA
ATOM     54  C   UNL A   1      45.208  24.234  28.263  1.00  0.00     0.031 C 
ATOM     55  C   UNL A   1      47.289  29.295  30.891  1.00  0.00     0.029 A 
ATOM     56  C   UNL A   1      46.459  28.362  30.292  1.00  0.00     0.049 A 
ATOM     57  H   UNL A   1      44.413  28.524  29.800  1.00  0.00     0.167 HD
ATOM     58  C   UNL A   1      45.904  26.169  29.274  1.00  0.00     0.074 A 
ATOM     59  C   UNL A   1      46.247  24.836  28.823  1.00  0.00     0.031 C 
ATOM     60  C   UNL A   1      46.783  27.032  29.842  1.00  0.00     0.037 A 
BRANCH  47  61
ATOM     61  C   UNL A   1      44.344  32.519  31.301  1.00  0.00     0.057 A 
ATOM     62  C   UNL A   1      44.728  33.584  30.474  1.00  0.00     0.134 A 
ATOM     63  C   UNL A   1      44.137  32.799  32.658  1.00  0.00     0.134 A 
ATOM     64  F   UNL A   1      44.953  33.382  29.167  1.00  0.00    -0.206 F 
ATOM     65  C   UNL A   1      44.923  34.869  30.982  1.00  0.00     0.040 A 
ATOM     66  C   UNL A   1      44.302  34.086  33.172  1.00  0.00     0.040 A 
ATOM     67  F   UNL A   1      43.761  31.828  33.505  1.00  0.00    -0.206 F 
ATOM     68  C   UNL A   1      44.703  35.125  32.334  1.00  0.00     0.006 A 
ENDBRANCH  47  61
BRANCH  48  69
ATOM     69  C   UNL A   1      42.516  23.533  27.355  1.00  0.00     0.057 A 
ATOM     70  C   UNL A   1      42.103  22.446  28.134  1.00  0.00     0.134 A 
ATOM     71  C   UNL A   1      42.681  23.318  25.982  1.00  0.00     0.134 A 
ATOM     72  F   UNL A   1      41.945  22.585  29.458  1.00  0.00    -0.206 F 
ATOM     73  C   UNL A   1      41.881  21.187  27.573  1.00  0.00     0.040 A 
ATOM     74  C   UNL A   1      42.438  22.071  25.403  1.00  0.00     0.040 A 
ATOM     75  F   UNL A   1      43.067  24.321  25.180  1.00  0.00    -0.206 F 
ATOM     76  C   UNL A   1      42.043  20.999  26.202  1.00  0.00     0.006 A 
ENDBRANCH  48  69
BRANCH  60  77
ATOM     77  C   UNL A   1      48.189  26.547  30.037  1.00  0.00     0.057 A 
ATOM     78  C   UNL A   1      49.187  26.768  29.079  1.00  0.00     0.134 A 
ATOM     79  C   UNL A   1      48.557  25.885  31.215  1.00  0.00     0.134 A 
ATOM     80  F   UNL A   1      48.897  27.384  27.924  1.00  0.00    -0.206 F 
ATOM     81  C   UNL A   1      50.496  26.325  29.277  1.00  0.00     0.040 A 
ATOM     82  C   UNL A   1      49.868  25.462  31.435  1.00  0.00     0.040 A 
ATOM     83  F   UNL A   1      47.651  25.650  32.176  1.00  0.00    -0.206 F 
ATOM     84  C   UNL A   1      50.841  25.676  30.461  1.00  0.00     0.006 A 
ENDBRANCH  60  77
ENDBRANCH  34  35
ENDBRANCH  26  29
ENDBRANCH  24  25
ENDBRANCH  23  24
ENDBRANCH   1  23
TORSDOF 13
ENDMDL
MODEL 2
REMARK VINA RESULT:     -11.6      1.597      2.049
REMARK SMILES C[C@@H]1CCC[C@H]1NC(=O)c1csc(/C=C/C(=O)NCCCNC(=O)c2ccc(-c3c4nc(c(-c5c(F)cccc5F)c5ccc([nH]5)c(-c5c(F)cccc5F)c5nc(c(-c6c(F)cccc6F)c6ccc3[nH]6)C=C5)C=C4)cc2)c1
REMARK SMILES IDX 19 1 18 2 16 3 17 4 15 6 14 7 13 8 10 9 11 10 79 11 12 12
REMARK SMILES IDX 8 13 7 14 9 16 6 17 1 18 2 19 3 20 4 21 5 22 20 23 21 24
REMARK SMILES IDX 22 25 23 26 24 28 25 29 26 30 78 31 27 32 77 33 28 34 29 35
REMARK SMILES IDX 30 36 71 37 31 38 76 39 70 40 72 41 32 42 75 43 69 44 68 45
REMARK SMILES IDX 33 47 59 48 42 49 58 50 43 51 46 52 57 53 73 54 44 55 45 56
REMARK SMILES IDX 56 58 74 59 47 60 34 61 35 62 40 63 36 64 37 65 39 66 41 67
REMARK SMILES IDX 38 68 60 69 61 70 66 71 62 72 63 73 65 74 67 75 64 76 48 77
REMARK SMILES IDX 49 78 54 79 50 80 51 81 53 82 55 83 52 84
REMARK H PARENT 18 5 7 15 22 27 72 46 46 57
REMARK Flexibility Score: inf
ROOT
ATOM      1  C   UNL A   1      33.170  29.283  24.907  1.00  0.00     0.118 C 
ENDROOT
BRANCH   1   2
ATOM      2  N   UNL A   1      33.543  29.049  23.522  1.00  0.00    -0.352 N 
ATOM      3  C   UNL A   1      33.801  27.894  22.851  1.00  0.00     0.244 C 
ATOM      4  O   UNL A   1      34.009  27.928  21.641  1.00  0.00    -0.270 OA
ATOM      5  H   UNL A   1      33.621  29.866  22.976  1.00  0.00     0.163 HD
BRANCH   3   6
ATOM      6  C   UNL A   1      33.742  26.591  23.544  1.00  0.00     0.072 C 
ATOM      7  C   UNL A   1      32.594  25.958  23.824  1.00  0.00     0.024 C 
BRANCH   7   8
ATOM      8  C   UNL A   1      32.534  24.672  24.431  1.00  0.00     0.028 A 
ATOM      9  C   UNL A   1      33.137  22.823  25.773  1.00  0.00     0.051 A 
ATOM     10  C   UNL A   1      32.005  22.355  25.134  1.00  0.00     0.079 A 
ATOM     11  C   UNL A   1      33.398  24.180  25.394  1.00  0.00     0.033 A 
ATOM     12  S   UNL A   1      31.360  23.484  24.027  1.00  0.00    -0.144 S 
BRANCH   9  13
ATOM     13  C   UNL A   1      33.922  22.083  26.748  1.00  0.00     0.252 C 
ATOM     14  N   UNL A   1      35.026  21.385  26.333  1.00  0.00    -0.349 N 
ATOM     15  H   UNL A   1      35.447  20.818  27.019  1.00  0.00     0.164 HD
ATOM     16  O   UNL A   1      33.651  22.111  27.947  1.00  0.00    -0.269 OA
BRANCH  14  17
ATOM     17  C   UNL A   1      35.672  21.355  25.023  1.00  0.00     0.085 C 
ATOM     18  C   UNL A   1      36.675  22.898  23.279  1.00  0.00     0.010 C 
ATOM     19  C   UNL A   1      36.480  22.638  24.775  1.00  0.00     0.008 C 
ATOM     20  C   UNL A   1      37.806  22.359  25.479  1.00  0.00     0.005 C 
ATOM     21  C   UNL A   1      38.058  20.865  25.296  1.00  0.00     0.002 C 
ATOM     22  C   UNL A   1      36.705  20.229  24.971  1.00  0.00     0.025 C 
ENDBRANCH  14  17
ENDBRANCH   9  13
ENDBRANCH   7   8
ENDBRANCH   3   6
ENDBRANCH   1   2
BRANCH   1  23
ATOM     23  C   UNL A   1      34.180  28.659  25.868  1.00  0.00     0.042 C 
BRANCH  23  24
ATOM     24  C   UNL A   1      33.762  28.756  27.333  1.00  0.00     0.118 C 
BRANCH  24  25
ATOM     25  N   UNL A   1      33.741  30.133  27.805  1.00  0.00    -0.352 N 
ATOM     26  C   UNL A   1      34.684  30.846  28.502  1.00  0.00     0.251 C 
ATOM     27  H   UNL A   1      32.921  30.632  27.589  1.00  0.00     0.163 HD
ATOM     28  O   UNL A   1      34.380  31.929  28.992  1.00  0.00    -0.269 OA
BRANCH  26  29
ATOM     29  C   UNL A   1      36.057  30.324  28.673  1.00  0.00     0.039 A 
ATOM     30  C   UNL A   1      36.950  30.419  27.600  1.00  0.00     0.014 A 
ATOM     31  C   UNL A   1      36.455  29.697  29.857  1.00  0.00     0.014 A 
ATOM     32  C   UNL A   1      38.252  29.932  27.732  1.00  0.00     0.010 A 
ATOM     33  C   UNL A   1      37.774  29.277  30.013  1.00  0.00     0.010 A 
ATOM     34  C   UNL A   1      38.685  29.384  28.950  1.00  0.00    -0.014 A 
BRANCH  34  35
ATOM     35  C   UNL A   1      40.084  28.922  29.131  1.00  0.00     0.031 A 
ATOM     36  C   UNL A   1      41.127  29.851  29.689  1.00  0.00     0.074 A 
ATOM     37  C   UNL A   1      40.430  27.684  28.729  1.00  0.00     0.049 A 
ATOM     38  N   UNL A   1      42.410  29.653  29.851  1.00  0.00    -0.248 NA
ATOM     39  C   UNL A   1      40.671  31.190  30.096  1.00  0.00     0.031 C 
ATOM     40  C   UNL A   1      39.521  26.705  28.131  1.00  0.00     0.029 A 
ATOM     41  N   UNL A   1      41.642  27.041  28.753  1.00  0.00    -0.354 N 
ATOM     42  C   UNL A   1      42.916  30.842  30.361  1.00  0.00     0.074 A 
ATOM     43  C   UNL A   1      41.811  31.773  30.436  1.00  0.00     0.031 C 
ATOM     44  C   UNL A   1      40.203  25.580  27.861  1.00  0.00     0.029 A 
ATOM     45  C   UNL A   1      41.602  25.771  28.231  1.00  0.00     0.049 A 
ATOM     46  H   UNL A   1      42.463  27.452  29.108  1.00  0.00     0.167 HD
ATOM     47  C   UNL A   1      44.182  31.126  30.750  1.00  0.00     0.037 A 
ATOM     48  C   UNL A   1      42.583  24.865  28.062  1.00  0.00     0.037 A 
ATOM     49  C   UNL A   1      45.274  30.189  30.698  1.00  0.00     0.049 A 
ATOM     50  C   UNL A   1      43.980  25.205  28.499  1.00  0.00     0.074 A 
ATOM     51  C   UNL A   1      46.579  30.361  31.126  1.00  0.00     0.029 A 
ATOM     52  N   UNL A   1      45.189  28.905  30.180  1.00  0.00    -0.354 N 
ATOM     53  N   UNL A   1      44.430  26.311  29.041  1.00  0.00    -0.248 NA
ATOM     54  C   UNL A   1      45.005  24.170  28.306  1.00  0.00     0.031 C 
ATOM     55  C   UNL A   1      47.294  29.195  30.828  1.00  0.00     0.029 A 
ATOM     56  C   UNL A   1      46.423  28.281  30.259  1.00  0.00     0.049 A 
ATOM     57  H   UNL A   1      44.372  28.498  29.812  1.00  0.00     0.167 HD
ATOM     58  C   UNL A   1      45.781  26.095  29.279  1.00  0.00     0.074 A 
ATOM     59  C   UNL A   1      46.074  24.747  28.835  1.00  0.00     0.031 C 
ATOM     60  C   UNL A   1      46.697  26.937  29.817  1.00  0.00     0.037 A 
BRANCH  47  61
ATOM     61  C   UNL A   1      44.455  32.509  31.270  1.00  0.00     0.057 A 
ATOM     62  C   UNL A   1      44.792  33.567  30.415  1.00  0.00     0.134 A 
ATOM     63  C   UNL A   1      44.345  32.794  32.637  1.00  0.00     0.134 A 
ATOM     64  F   UNL A   1      44.923  33.360  29.095  1.00  0.00    -0.206 F 
ATOM     65  C   UNL A   1      45.037  34.851  30.904  1.00  0.00     0.040 A 
ATOM     66  C   UNL A   1      44.560  34.081  33.134  1.00  0.00     0.040 A 
ATOM     67  F   UNL A   1      44.018  31.830  33.511  1.00  0.00    -0.206 F 
ATOM     68  C   UNL A   1      44.914  35.113  32.267  1.00  0.00     0.006 A 
ENDBRANCH  47  61
BRANCH  48  69
ATOM     69  C   UNL A   1      42.274  23.539  27.469  1.00  0.00     0.057 A 
ATOM     70  C   UNL A   1      41.959  22.442  28.279  1.00  0.00     0.134 A 
ATOM     71  C   UNL A   1      42.289  23.335  26.083  1.00  0.00     0.134 A 
ATOM     72  F   UNL A   1      41.946  22.571  29.614  1.00  0.00    -0.206 F 
ATOM     73  C   UNL A   1      41.689  21.185  27.736  1.00  0.00     0.040 A 
ATOM     74  C   UNL A   1      41.996  22.090  25.526  1.00  0.00     0.040 A 
ATOM     75  F   UNL A   1      42.576  24.348  25.252  1.00  0.00    -0.206 F 
ATOM     76  C   UNL A   1      41.702  21.008  26.354  1.00  0.00     0.006 A 
ENDBRANCH  48  69
BRANCH  60  77
ATOM     77  C   UNL A   1      48.093  26.414  29.986  1.00  0.00     0.057 A 
ATOM     78  C   UNL A   1      49.067  26.571  28.991  1.00  0.00     0.134 A 
ATOM     79  C   UNL A   1      48.476  25.777  31.172  1.00  0.00     0.134 A 
ATOM     80  F   UNL A   1      48.761  27.159  27.826  1.00  0.00    -0.206 F 
ATOM     81  C   UNL A   1      50.367  26.092  29.164  1.00  0.00     0.040 A 
ATOM     82  C   UNL A   1      49.780  25.318  31.367  1.00  0.00     0.040 A 
ATOM     83  F   UNL A   1      47.594  25.602  32.167  1.00  0.00    -0.206 F 
ATOM     84  C   UNL A   1      50.728  25.470  30.357  1.00  0.00     0.006 A 
ENDBRANCH  60  77
ENDBRANCH  34  35
ENDBRANCH  26  29
ENDBRANCH  24  25
ENDBRANCH  23  24
ENDBRANCH   1  23
TORSDOF 13
ENDMDL
MODEL 3
REMARK VINA RESULT:     -11.6      2.057      7.973
REMARK SMILES C[C@@H]1CCC[C@H]1NC(=O)c1csc(/C=C/C(=O)NCCCNC(=O)c2ccc(-c3c4nc(c(-c5c(F)cccc5F)c5ccc([nH]5)c(-c5c(F)cccc5F)c5nc(c(-c6c(F)cccc6F)c6ccc3[nH]6)C=C5)C=C4)cc2)c1
REMARK SMILES IDX 19 1 18 2 16 3 17 4 15 6 14 7 13 8 10 9 11 10 79 11 12 12
REMARK SMILES IDX 8 13 7 14 9 16 6 17 1 18 2 19 3 20 4 21 5 22 20 23 21 24
REMARK SMILES IDX 22 25 23 26 24 28 25 29 26 30 78 31 27 32 77 33 28 34 29 35
REMARK SMILES IDX 30 36 71 37 31 38 76 39 70 40 72 41 32 42 75 43 69 44 68 45
REMARK SMILES IDX 33 47 59 48 42 49 58 50 43 51 46 52 57 53 73 54 44 55 45 56
REMARK SMILES IDX 56 58 74 59 47 60 34 61 35 62 40 63 36 64 37 65 39 66 41 67
REMARK SMILES IDX 38 68 60 69 61 70 66 71 62 72 63 73 65 74 67 75 64 76 48 77
REMARK SMILES IDX 49 78 54 79 50 80 51 81 53 82 55 83 52 84
REMARK H PARENT 18 5 7 15 22 27 72 46 46 57
REMARK Flexibility Score: inf
ROOT
ATOM      1  C   UNL A   1      36.225  20.522  24.991  1.00  0.00     0.118 C 
ENDROOT
BRANCH   1   2
ATOM      2  N   UNL A   1      35.025  19.707  25.071  1.00  0.00    -0.352 N 
ATOM      3  C   UNL A   1      33.713  20.037  24.933  1.00  0.00     0.244 C 
ATOM      4  O   UNL A   1      32.859  19.154  24.947  1.00  0.00    -0.270 OA
ATOM      5  H   UNL A   1      35.190  18.754  25.256  1.00  0.00     0.163 HD
BRANCH   3   6
ATOM      6  C   UNL A   1      33.310  21.435  24.671  1.00  0.00     0.072 C 
ATOM      7  C   UNL A   1      32.888  21.867  23.476  1.00  0.00     0.024 C 
BRANCH   7   8
ATOM      8  C   UNL A   1      32.437  23.196  23.236  1.00  0.00     0.028 A 
ATOM      9  C   UNL A   1      32.506  25.511  22.771  1.00  0.00     0.051 A 
ATOM     10  C   UNL A   1      31.156  25.300  22.968  1.00  0.00     0.079 A 
ATOM     11  C   UNL A   1      33.225  24.276  22.878  1.00  0.00     0.033 A 
ATOM     12  S   UNL A   1      30.796  23.685  23.387  1.00  0.00    -0.144 S 
BRANCH   9  13
ATOM     13  C   UNL A   1      33.121  26.785  22.431  1.00  0.00     0.252 C 
ATOM     14  N   UNL A   1      32.870  27.883  23.212  1.00  0.00    -0.349 N 
ATOM     15  H   UNL A   1      33.224  28.734  22.866  1.00  0.00     0.164 HD
ATOM     16  O   UNL A   1      33.902  26.891  21.488  1.00  0.00    -0.269 OA
BRANCH  14  17
ATOM     17  C   UNL A   1      32.154  27.980  24.482  1.00  0.00     0.085 C 
ATOM     18  C   UNL A   1      31.917  26.795  26.711  1.00  0.00     0.010 C 
ATOM     19  C   UNL A   1      32.875  27.190  25.585  1.00  0.00     0.008 C 
ATOM     20  C   UNL A   1      33.949  28.163  26.069  1.00  0.00     0.005 C 
ATOM     21  C   UNL A   1      33.319  29.549  25.961  1.00  0.00     0.002 C 
ATOM     22  C   UNL A   1      32.155  29.427  24.977  1.00  0.00     0.025 C 
ENDBRANCH  14  17
ENDBRANCH   9  13
ENDBRANCH   7   8
ENDBRANCH   3   6
ENDBRANCH   1   2
BRANCH   1  23
ATOM     23  C   UNL A   1      37.482  19.656  24.918  1.00  0.00     0.042 C 
BRANCH  23  24
ATOM     24  C   UNL A   1      38.693  20.287  25.602  1.00  0.00     0.118 C 
BRANCH  24  25
ATOM     25  N   UNL A   1      39.801  19.350  25.721  1.00  0.00    -0.352 N 
ATOM     26  C   UNL A   1      41.113  19.568  26.059  1.00  0.00     0.251 C 
ATOM     27  H   UNL A   1      39.574  18.413  25.527  1.00  0.00     0.163 HD
ATOM     28  O   UNL A   1      41.936  18.674  25.888  1.00  0.00    -0.269 OA
BRANCH  26  29
ATOM     29  C   UNL A   1      41.547  20.865  26.622  1.00  0.00     0.039 A 
ATOM     30  C   UNL A   1      41.984  21.864  25.745  1.00  0.00     0.014 A 
ATOM     31  C   UNL A   1      41.580  21.086  28.001  1.00  0.00     0.014 A 
ATOM     32  C   UNL A   1      42.404  23.097  26.247  1.00  0.00     0.010 A 
ATOM     33  C   UNL A   1      41.930  22.341  28.497  1.00  0.00     0.010 A 
ATOM     34  C   UNL A   1      42.351  23.357  27.626  1.00  0.00    -0.014 A 
BRANCH  34  35
ATOM     35  C   UNL A   1      42.729  24.684  28.172  1.00  0.00     0.031 A 
ATOM     36  C   UNL A   1      41.685  25.745  28.389  1.00  0.00     0.074 A 
ATOM     37  C   UNL A   1      44.027  24.957  28.411  1.00  0.00     0.049 A 
ATOM     38  N   UNL A   1      41.833  26.983  28.787  1.00  0.00    -0.248 NA
ATOM     39  C   UNL A   1      40.293  25.371  28.095  1.00  0.00     0.031 C 
ATOM     40  C   UNL A   1      45.138  24.029  28.199  1.00  0.00     0.029 A 
ATOM     41  N   UNL A   1      44.630  26.098  28.875  1.00  0.00    -0.354 N 
ATOM     42  C   UNL A   1      40.559  27.539  28.776  1.00  0.00     0.074 A 
ATOM     43  C   UNL A   1      39.658  26.519  28.284  1.00  0.00     0.031 C 
ATOM     44  C   UNL A   1      46.286  24.631  28.549  1.00  0.00     0.029 A 
ATOM     45  C   UNL A   1      45.997  25.997  28.973  1.00  0.00     0.049 A 
ATOM     46  H   UNL A   1      44.132  26.913  29.114  1.00  0.00     0.167 HD
ATOM     47  C   UNL A   1      40.175  28.780  29.158  1.00  0.00     0.037 A 
ATOM     48  C   UNL A   1      46.915  26.905  29.353  1.00  0.00     0.037 A 
ATOM     49  C   UNL A   1      41.071  29.784  29.669  1.00  0.00     0.049 A 
ATOM     50  C   UNL A   1      46.463  28.277  29.770  1.00  0.00     0.074 A 
ATOM     51  C   UNL A   1      40.769  31.049  30.142  1.00  0.00     0.029 A 
ATOM     52  N   UNL A   1      42.447  29.637  29.771  1.00  0.00    -0.354 N 
ATOM     53  N   UNL A   1      45.247  28.767  29.817  1.00  0.00    -0.248 NA
ATOM     54  C   UNL A   1      47.508  29.219  30.192  1.00  0.00     0.031 C 
ATOM     55  C   UNL A   1      41.968  31.684  30.489  1.00  0.00     0.029 A 
ATOM     56  C   UNL A   1      43.010  30.796  30.278  1.00  0.00     0.049 A 
ATOM     57  H   UNL A   1      42.947  28.828  29.520  1.00  0.00     0.167 HD
ATOM     58  C   UNL A   1      45.379  30.063  30.298  1.00  0.00     0.074 A 
ATOM     59  C   UNL A   1      46.791  30.277  30.542  1.00  0.00     0.031 C 
ATOM     60  C   UNL A   1      44.417  30.992  30.519  1.00  0.00     0.037 A 
BRANCH  47  61
ATOM     61  C   UNL A   1      38.717  29.122  29.039  1.00  0.00     0.057 A 
ATOM     62  C   UNL A   1      37.844  29.030  30.132  1.00  0.00     0.134 A 
ATOM     63  C   UNL A   1      38.186  29.581  27.827  1.00  0.00     0.134 A 
ATOM     64  F   UNL A   1      38.286  28.587  31.319  1.00  0.00    -0.206 F 
ATOM     65  C   UNL A   1      36.491  29.356  30.016  1.00  0.00     0.040 A 
ATOM     66  C   UNL A   1      36.841  29.937  27.707  1.00  0.00     0.040 A 
ATOM     67  F   UNL A   1      38.966  29.701  26.742  1.00  0.00    -0.206 F 
ATOM     68  C   UNL A   1      35.988  29.818  28.802  1.00  0.00     0.006 A 
ENDBRANCH  47  61
BRANCH  48  69
ATOM     69  C   UNL A   1      48.354  26.541  29.376  1.00  0.00     0.057 A 
ATOM     70  C   UNL A   1      49.188  26.823  28.288  1.00  0.00     0.134 A 
ATOM     71  C   UNL A   1      48.929  25.899  30.480  1.00  0.00     0.134 A 
ATOM     72  F   UNL A   1      48.691  27.420  27.195  1.00  0.00    -0.206 F 
ATOM     73  C   UNL A   1      50.537  26.466  28.287  1.00  0.00     0.040 A 
ATOM     74  C   UNL A   1      50.282  25.559  30.504  1.00  0.00     0.040 A 
ATOM     75  F   UNL A   1      48.185  25.608  31.558  1.00  0.00    -0.206 F 
ATOM     76  C   UNL A   1      51.089  25.836  29.401  1.00  0.00     0.006 A 
ENDBRANCH  48  69
BRANCH  60  77
ATOM     77  C   UNL A   1      44.855  32.312  31.082  1.00  0.00     0.057 A 
ATOM     78  C   UNL A   1      44.960  32.529  32.463  1.00  0.00     0.134 A 
ATOM     79  C   UNL A   1      45.210  33.366  30.232  1.00  0.00     0.134 A 
ATOM     80  F   UNL A   1      44.622  31.564  33.330  1.00  0.00    -0.206 F 
ATOM     81  C   UNL A   1      45.383  33.757  32.976  1.00  0.00     0.040 A 
ATOM     82  C   UNL A   1      45.659  34.589  30.733  1.00  0.00     0.040 A 
ATOM     83  F   UNL A   1      45.140  33.221  28.901  1.00  0.00    -0.206 F 
ATOM     84  C   UNL A   1      45.740  34.789  32.110  1.00  0.00     0.006 A 
ENDBRANCH  60  77
ENDBRANCH  34  35
ENDBRANCH  26  29
ENDBRANCH  24  25
ENDBRANCH  23  24
ENDBRANCH   1  23
TORSDOF 13
ENDMDL
