MODEL 1
REMARK VINA RESULT:     -12.1      0.000      0.000
REMARK SMILES C[C@](C(=O)NCCCNC(=O)c1ccc(-c2c3nc(c(-c4c(F)cccc4F)c4ccc([nH]4)c(-c4c(F)cccc4F)c4nc(c(-c5c(F)cccc5F)c5ccc2[nH]5)C=C4)C=C3)cc1)(c1cc(F)cc(F)c1)[NH+]1CCCC1
REMARK SMILES IDX 7 1 6 2 5 3 3 4 4 5 2 7 1 8 66 9 67 10 73 11 68 12 71 13
REMARK SMILES IDX 69 14 70 15 72 16 74 17 75 18 78 19 76 21 77 22 8 23 9 24
REMARK SMILES IDX 10 25 11 27 12 28 13 29 65 30 14 31 64 32 15 33 16 34 17 35
REMARK SMILES IDX 58 36 18 37 63 38 57 39 59 40 19 41 62 42 56 43 55 44 20 46
REMARK SMILES IDX 46 47 29 48 45 49 30 50 33 51 44 52 60 53 31 54 32 55 43 57
REMARK SMILES IDX 61 58 34 59 21 60 22 61 27 62 23 63 24 64 26 65 28 66 25 67
REMARK SMILES IDX 47 68 48 69 53 70 49 71 50 72 52 73 54 74 51 75 35 76 36 77
REMARK SMILES IDX 41 78 37 79 38 80 40 81 42 82 39 83
REMARK H PARENT 5 6 74 20 9 26 59 45 33 56
REMARK Flexibility Score: inf
ROOT
ATOM      1  C   UNL A   1      31.035  31.996  26.114  1.00  0.00     0.042 C 
ENDROOT
BRANCH   1   2
ATOM      2  C   UNL A   1      31.024  30.528  25.773  1.00  0.00     0.118 C 
BRANCH   2   3
ATOM      3  N   UNL A   1      32.229  30.081  25.099  1.00  0.00    -0.350 N 
ATOM      4  C   UNL A   1      32.495  29.152  24.140  1.00  0.00     0.286 C 
ATOM      5  O   UNL A   1      33.610  29.329  23.618  1.00  0.00    -0.267 OA
ATOM      6  H   UNL A   1      33.035  30.557  25.403  1.00  0.00     0.163 HD
BRANCH   4   7
ATOM      7  C   UNL A   1      31.572  27.921  23.702  1.00  0.00     0.200 C 
ATOM      8  C   UNL A   1      31.160  27.307  25.096  1.00  0.00     0.096 C 
BRANCH   7   9
ATOM      9  C   UNL A   1      30.226  28.448  23.047  1.00  0.00     0.028 A 
ATOM     10  C   UNL A   1      30.188  29.478  22.097  1.00  0.00     0.050 A 
ATOM     11  C   UNL A   1      28.951  28.000  23.473  1.00  0.00     0.050 A 
ATOM     12  C   UNL A   1      29.004  30.176  21.809  1.00  0.00     0.126 A 
ATOM     13  C   UNL A   1      27.766  28.654  23.116  1.00  0.00     0.126 A 
ATOM     14  F   UNL A   1      29.062  31.267  21.033  1.00  0.00    -0.207 F 
ATOM     15  C   UNL A   1      27.787  29.788  22.334  1.00  0.00     0.078 A 
ATOM     16  F   UNL A   1      26.597  28.189  23.578  1.00  0.00    -0.207 F 
ENDBRANCH   7   9
BRANCH   7  17
ATOM     17  N   UNL A   1      32.279  26.848  22.877  1.00  0.00    -0.319 N 
ATOM     18  C   UNL A   1      31.437  25.990  22.009  1.00  0.00     0.263 C 
ATOM     19  C   UNL A   1      33.120  25.843  23.552  1.00  0.00     0.263 C 
ATOM     20  H   UNL A   1      32.844  27.530  22.371  1.00  0.00     0.349 HD
ATOM     21  C   UNL A   1      31.099  24.786  22.869  1.00  0.00     0.067 C 
ATOM     22  C   UNL A   1      32.445  24.475  23.468  1.00  0.00     0.067 C 
ENDBRANCH   7  17
ENDBRANCH   4   7
ENDBRANCH   2   3
ENDBRANCH   1   2
BRANCH   1  23
ATOM     23  C   UNL A   1      32.295  32.360  26.875  1.00  0.00     0.118 C 
BRANCH  23  24
ATOM     24  N   UNL A   1      32.277  33.750  27.338  1.00  0.00    -0.352 N 
ATOM     25  C   UNL A   1      33.029  34.380  28.304  1.00  0.00     0.251 C 
ATOM     26  H   UNL A   1      31.621  34.327  26.886  1.00  0.00     0.163 HD
ATOM     27  O   UNL A   1      32.687  35.470  28.738  1.00  0.00    -0.269 OA
BRANCH  25  28
ATOM     28  C   UNL A   1      34.243  33.717  28.815  1.00  0.00     0.039 A 
ATOM     29  C   UNL A   1      35.484  34.344  28.695  1.00  0.00     0.014 A 
ATOM     30  C   UNL A   1      34.140  32.475  29.437  1.00  0.00     0.014 A 
ATOM     31  C   UNL A   1      36.605  33.752  29.280  1.00  0.00     0.010 A 
ATOM     32  C   UNL A   1      35.211  31.977  30.156  1.00  0.00     0.010 A 
ATOM     33  C   UNL A   1      36.465  32.590  30.058  1.00  0.00    -0.014 A 
BRANCH  33  34
ATOM     34  C   UNL A   1      37.616  31.958  30.745  1.00  0.00     0.031 A 
ATOM     35  C   UNL A   1      38.416  30.900  30.033  1.00  0.00     0.074 A 
ATOM     36  C   UNL A   1      37.881  32.271  32.028  1.00  0.00     0.049 A 
ATOM     37  N   UNL A   1      39.389  30.153  30.487  1.00  0.00    -0.248 NA
ATOM     38  C   UNL A   1      38.044  30.605  28.637  1.00  0.00     0.031 C 
ATOM     39  C   UNL A   1      37.128  33.226  32.845  1.00  0.00     0.029 A 
ATOM     40  N   UNL A   1      38.857  31.810  32.874  1.00  0.00    -0.354 N 
ATOM     41  C   UNL A   1      39.716  29.291  29.449  1.00  0.00     0.074 A 
ATOM     42  C   UNL A   1      38.794  29.549  28.369  1.00  0.00     0.031 C 
ATOM     43  C   UNL A   1      37.694  33.308  34.059  1.00  0.00     0.029 A 
ATOM     44  C   UNL A   1      38.815  32.379  34.124  1.00  0.00     0.049 A 
ATOM     45  H   UNL A   1      39.524  31.134  32.611  1.00  0.00     0.167 HD
ATOM     46  C   UNL A   1      40.722  28.387  29.386  1.00  0.00     0.037 A 
ATOM     47  C   UNL A   1      39.595  32.168  35.201  1.00  0.00     0.037 A 
ATOM     48  C   UNL A   1      41.665  28.171  30.447  1.00  0.00     0.049 A 
ATOM     49  C   UNL A   1      40.720  31.178  35.098  1.00  0.00     0.074 A 
ATOM     50  C   UNL A   1      42.770  27.340  30.460  1.00  0.00     0.029 A 
ATOM     51  N   UNL A   1      41.615  28.796  31.684  1.00  0.00    -0.354 N 
ATOM     52  N   UNL A   1      41.069  30.424  34.082  1.00  0.00    -0.248 NA
ATOM     53  C   UNL A   1      41.569  31.014  36.287  1.00  0.00     0.031 C 
ATOM     54  C   UNL A   1      43.358  27.422  31.727  1.00  0.00     0.029 A 
ATOM     55  C   UNL A   1      42.655  28.349  32.479  1.00  0.00     0.049 A 
ATOM     56  H   UNL A   1      40.938  29.458  31.957  1.00  0.00     0.167 HD
ATOM     57  C   UNL A   1      42.189  29.717  34.499  1.00  0.00     0.074 A 
ATOM     58  C   UNL A   1      42.472  30.146  35.855  1.00  0.00     0.031 C 
ATOM     59  C   UNL A   1      42.919  28.796  33.825  1.00  0.00     0.037 A 
BRANCH  46  60
ATOM     60  C   UNL A   1      40.857  27.581  28.126  1.00  0.00     0.057 A 
ATOM     61  C   UNL A   1      41.629  28.020  27.041  1.00  0.00     0.134 A 
ATOM     62  C   UNL A   1      40.233  26.333  28.008  1.00  0.00     0.134 A 
ATOM     63  F   UNL A   1      42.241  29.214  27.081  1.00  0.00    -0.206 F 
ATOM     64  C   UNL A   1      41.754  27.261  25.876  1.00  0.00     0.040 A 
ATOM     65  C   UNL A   1      40.376  25.550  26.860  1.00  0.00     0.040 A 
ATOM     66  F   UNL A   1      39.480  25.850  29.008  1.00  0.00    -0.206 F 
ATOM     67  C   UNL A   1      41.134  26.017  25.788  1.00  0.00     0.006 A 
ENDBRANCH  46  60
BRANCH  47  68
ATOM     68  C   UNL A   1      39.351  32.927  36.453  1.00  0.00     0.057 A 
ATOM     69  C   UNL A   1      39.991  34.148  36.695  1.00  0.00     0.134 A 
ATOM     70  C   UNL A   1      38.468  32.458  37.434  1.00  0.00     0.134 A 
ATOM     71  F   UNL A   1      40.859  34.645  35.801  1.00  0.00    -0.206 F 
ATOM     72  C   UNL A   1      39.780  34.865  37.875  1.00  0.00     0.040 A 
ATOM     73  C   UNL A   1      38.226  33.177  38.605  1.00  0.00     0.040 A 
ATOM     74  F   UNL A   1      37.813  31.301  37.257  1.00  0.00    -0.206 F 
ATOM     75  C   UNL A   1      38.889  34.381  38.832  1.00  0.00     0.006 A 
ENDBRANCH  47  68
BRANCH  59  76
ATOM     76  C   UNL A   1      44.112  28.216  34.525  1.00  0.00     0.057 A 
ATOM     77  C   UNL A   1      45.369  28.832  34.483  1.00  0.00     0.134 A 
ATOM     78  C   UNL A   1      43.986  27.052  35.294  1.00  0.00     0.134 A 
ATOM     79  F   UNL A   1      45.557  29.944  33.757  1.00  0.00    -0.206 F 
ATOM     80  C   UNL A   1      46.465  28.297  35.160  1.00  0.00     0.040 A 
ATOM     81  C   UNL A   1      45.067  26.524  36.001  1.00  0.00     0.040 A 
ATOM     82  F   UNL A   1      42.807  26.420  35.387  1.00  0.00    -0.206 F 
ATOM     83  C   UNL A   1      46.313  27.143  35.928  1.00  0.00     0.006 A 
ENDBRANCH  59  76
ENDBRANCH  33  34
ENDBRANCH  25  28
ENDBRANCH  23  24
ENDBRANCH   1  23
TORSDOF 12
ENDMDL
MODEL 2
REMARK VINA RESULT:     -12.0      5.257      9.420
REMARK SMILES C[C@](C(=O)NCCCNC(=O)c1ccc(-c2c3nc(c(-c4c(F)cccc4F)c4ccc([nH]4)c(-c4c(F)cccc4F)c4nc(c(-c5c(F)cccc5F)c5ccc2[nH]5)C=C4)C=C3)cc1)(c1cc(F)cc(F)c1)[NH+]1CCCC1
REMARK SMILES IDX 7 1 6 2 5 3 3 4 4 5 2 7 1 8 66 9 67 10 73 11 68 12 71 13
REMARK SMILES IDX 69 14 70 15 72 16 74 17 75 18 78 19 76 21 77 22 8 23 9 24
REMARK SMILES IDX 10 25 11 27 12 28 13 29 65 30 14 31 64 32 15 33 16 34 17 35
REMARK SMILES IDX 58 36 18 37 63 38 57 39 59 40 19 41 62 42 56 43 55 44 20 46
REMARK SMILES IDX 46 47 29 48 45 49 30 50 33 51 44 52 60 53 31 54 32 55 43 57
REMARK SMILES IDX 61 58 34 59 21 60 22 61 27 62 23 63 24 64 26 65 28 66 25 67
REMARK SMILES IDX 47 68 48 69 53 70 49 71 50 72 52 73 54 74 51 75 35 76 36 77
REMARK SMILES IDX 41 78 37 79 38 80 40 81 42 82 39 83
REMARK H PARENT 5 6 74 20 9 26 59 45 33 56
REMARK Flexibility Score: inf
ROOT
ATOM      1  C   UNL A   1      37.740  19.723  25.014  1.00  0.00     0.042 C 
ENDROOT
BRANCH   1   2
ATOM      2  C   UNL A   1      36.687  20.779  24.790  1.00  0.00     0.118 C 
BRANCH   2   3
ATOM      3  N   UNL A   1      36.082  21.263  26.017  1.00  0.00    -0.350 N 
ATOM      4  C   UNL A   1      34.808  21.546  26.403  1.00  0.00     0.286 C 
ATOM      5  O   UNL A   1      34.702  21.615  27.641  1.00  0.00    -0.267 OA
ATOM      6  H   UNL A   1      36.741  21.421  26.730  1.00  0.00     0.163 HD
BRANCH   4   7
ATOM      7  C   UNL A   1      33.546  21.818  25.457  1.00  0.00     0.200 C 
ATOM      8  C   UNL A   1      34.212  22.544  24.224  1.00  0.00     0.096 C 
BRANCH   7   9
ATOM      9  C   UNL A   1      32.974  20.449  24.895  1.00  0.00     0.028 A 
ATOM     10  C   UNL A   1      32.840  19.295  25.680  1.00  0.00     0.050 A 
ATOM     11  C   UNL A   1      32.677  20.259  23.523  1.00  0.00     0.050 A 
ATOM     12  C   UNL A   1      32.692  18.022  25.105  1.00  0.00     0.126 A 
ATOM     13  C   UNL A   1      32.451  18.993  22.971  1.00  0.00     0.126 A 
ATOM     14  F   UNL A   1      32.754  16.939  25.892  1.00  0.00    -0.207 F 
ATOM     15  C   UNL A   1      32.522  17.856  23.744  1.00  0.00     0.078 A 
ATOM     16  F   UNL A   1      32.202  18.887  21.658  1.00  0.00    -0.207 F 
ENDBRANCH   7   9
BRANCH   7  17
ATOM     17  N   UNL A   1      32.479  22.732  26.055  1.00  0.00    -0.319 N 
ATOM     18  C   UNL A   1      31.081  22.532  25.605  1.00  0.00     0.263 C 
ATOM     19  C   UNL A   1      32.619  24.195  25.932  1.00  0.00     0.263 C 
ATOM     20  H   UNL A   1      32.663  22.417  27.007  1.00  0.00     0.349 HD
ATOM     21  C   UNL A   1      30.914  23.480  24.431  1.00  0.00     0.067 C 
ATOM     22  C   UNL A   1      31.551  24.730  24.980  1.00  0.00     0.067 C 
ENDBRANCH   7  17
ENDBRANCH   4   7
ENDBRANCH   2   3
ENDBRANCH   1   2
BRANCH   1  23
ATOM     23  C   UNL A   1      38.930  20.302  25.752  1.00  0.00     0.118 C 
BRANCH  23  24
ATOM     24  N   UNL A   1      40.038  19.348  25.847  1.00  0.00    -0.352 N 
ATOM     25  C   UNL A   1      41.381  19.557  26.061  1.00  0.00     0.251 C 
ATOM     26  H   UNL A   1      39.780  18.405  25.739  1.00  0.00     0.163 HD
ATOM     27  O   UNL A   1      42.188  18.665  25.838  1.00  0.00    -0.269 OA
BRANCH  25  28
ATOM     28  C   UNL A   1      41.835  20.871  26.551  1.00  0.00     0.039 A 
ATOM     29  C   UNL A   1      42.268  21.842  25.646  1.00  0.00     0.014 A 
ATOM     30  C   UNL A   1      41.809  21.146  27.916  1.00  0.00     0.014 A 
ATOM     31  C   UNL A   1      42.591  23.116  26.118  1.00  0.00     0.010 A 
ATOM     32  C   UNL A   1      41.967  22.446  28.358  1.00  0.00     0.010 A 
ATOM     33  C   UNL A   1      42.394  23.440  27.470  1.00  0.00    -0.014 A 
BRANCH  33  34
ATOM     34  C   UNL A   1      42.668  24.794  28.005  1.00  0.00     0.031 A 
ATOM     35  C   UNL A   1      44.065  25.151  28.441  1.00  0.00     0.074 A 
ATOM     36  C   UNL A   1      41.653  25.662  28.179  1.00  0.00     0.049 A 
ATOM     37  N   UNL A   1      44.496  26.238  29.028  1.00  0.00    -0.248 NA
ATOM     38  C   UNL A   1      45.112  24.134  28.232  1.00  0.00     0.031 C 
ATOM     39  C   UNL A   1      40.246  25.400  27.865  1.00  0.00     0.029 A 
ATOM     40  N   UNL A   1      41.649  26.941  28.673  1.00  0.00    -0.354 N 
ATOM     41  C   UNL A   1      45.843  26.018  29.282  1.00  0.00     0.074 A 
ATOM     42  C   UNL A   1      46.146  24.671  28.858  1.00  0.00     0.031 C 
ATOM     43  C   UNL A   1      39.523  26.498  28.136  1.00  0.00     0.029 A 
ATOM     44  C   UNL A   1      40.403  27.520  28.689  1.00  0.00     0.049 A 
ATOM     45  H   UNL A   1      42.461  27.400  28.988  1.00  0.00     0.167 HD
ATOM     46  C   UNL A   1      46.759  26.875  29.790  1.00  0.00     0.037 A 
ATOM     47  C   UNL A   1      40.018  28.741  29.107  1.00  0.00     0.037 A 
ATOM     48  C   UNL A   1      46.458  28.229  30.164  1.00  0.00     0.049 A 
ATOM     49  C   UNL A   1      41.057  29.684  29.645  1.00  0.00     0.074 A 
ATOM     50  C   UNL A   1      47.324  29.210  30.614  1.00  0.00     0.029 A 
ATOM     51  N   UNL A   1      45.192  28.794  30.128  1.00  0.00    -0.354 N 
ATOM     52  N   UNL A   1      42.345  29.492  29.807  1.00  0.00    -0.248 NA
ATOM     53  C   UNL A   1      40.594  31.019  30.048  1.00  0.00     0.031 C 
ATOM     54  C   UNL A   1      46.571  30.352  30.901  1.00  0.00     0.029 A 
ATOM     55  C   UNL A   1      45.248  30.103  30.572  1.00  0.00     0.049 A 
ATOM     56  H   UNL A   1      44.375  28.331  29.831  1.00  0.00     0.167 HD
ATOM     57  C   UNL A   1      42.849  30.685  30.306  1.00  0.00     0.074 A 
ATOM     58  C   UNL A   1      41.729  31.601  30.403  1.00  0.00     0.031 C 
ATOM     59  C   UNL A   1      44.121  30.998  30.654  1.00  0.00     0.037 A 
BRANCH  46  60
ATOM     60  C   UNL A   1      48.166  26.376  29.954  1.00  0.00     0.057 A 
ATOM     61  C   UNL A   1      49.128  26.520  28.946  1.00  0.00     0.134 A 
ATOM     62  C   UNL A   1      48.573  25.774  31.151  1.00  0.00     0.134 A 
ATOM     63  F   UNL A   1      48.802  27.074  27.768  1.00  0.00    -0.206 F 
ATOM     64  C   UNL A   1      50.436  26.059  29.110  1.00  0.00     0.040 A 
ATOM     65  C   UNL A   1      49.886  25.337  31.339  1.00  0.00     0.040 A 
ATOM     66  F   UNL A   1      47.704  25.605  32.159  1.00  0.00    -0.206 F 
ATOM     67  C   UNL A   1      50.819  25.474  30.314  1.00  0.00     0.006 A 
ENDBRANCH  46  60
BRANCH  47  68
ATOM     68  C   UNL A   1      38.592  29.142  29.009  1.00  0.00     0.057 A 
ATOM     69  C   UNL A   1      38.054  29.613  27.805  1.00  0.00     0.134 A 
ATOM     70  C   UNL A   1      37.730  29.059  30.109  1.00  0.00     0.134 A 
ATOM     71  F   UNL A   1      38.832  29.730  26.718  1.00  0.00    -0.206 F 
ATOM     72  C   UNL A   1      36.718  30.007  27.703  1.00  0.00     0.040 A 
ATOM     73  C   UNL A   1      36.386  29.422  30.015  1.00  0.00     0.040 A 
ATOM     74  F   UNL A   1      38.179  28.604  31.288  1.00  0.00    -0.206 F 
ATOM     75  C   UNL A   1      35.879  29.906  28.811  1.00  0.00     0.006 A 
ENDBRANCH  47  68
BRANCH  59  76
ATOM     76  C   UNL A   1      44.378  32.394  31.137  1.00  0.00     0.057 A 
ATOM     77  C   UNL A   1      44.340  32.727  32.497  1.00  0.00     0.134 A 
ATOM     78  C   UNL A   1      44.718  33.407  30.231  1.00  0.00     0.134 A 
ATOM     79  F   UNL A   1      44.012  31.805  33.414  1.00  0.00    -0.206 F 
ATOM     80  C   UNL A   1      44.606  34.024  32.936  1.00  0.00     0.040 A 
ATOM     81  C   UNL A   1      45.017  34.700  30.661  1.00  0.00     0.040 A 
ATOM     82  F   UNL A   1      44.785  33.151  28.916  1.00  0.00    -0.206 F 
ATOM     83  C   UNL A   1      44.953  35.013  32.017  1.00  0.00     0.006 A 
ENDBRANCH  59  76
ENDBRANCH  33  34
ENDBRANCH  25  28
ENDBRANCH  23  24
ENDBRANCH   1  23
TORSDOF 12
ENDMDL
MODEL 3
REMARK VINA RESULT:     -12.0      5.131      9.700
REMARK SMILES C[C@](C(=O)NCCCNC(=O)c1ccc(-c2c3nc(c(-c4c(F)cccc4F)c4ccc([nH]4)c(-c4c(F)cccc4F)c4nc(c(-c5c(F)cccc5F)c5ccc2[nH]5)C=C4)C=C3)cc1)(c1cc(F)cc(F)c1)[NH+]1CCCC1
REMARK SMILES IDX 7 1 6 2 5 3 3 4 4 5 2 7 1 8 66 9 67 10 73 11 68 12 71 13
REMARK SMILES IDX 69 14 70 15 72 16 74 17 75 18 78 19 76 21 77 22 8 23 9 24
REMARK SMILES IDX 10 25 11 27 12 28 13 29 65 30 14 31 64 32 15 33 16 34 17 35
REMARK SMILES IDX 58 36 18 37 63 38 57 39 59 40 19 41 62 42 56 43 55 44 20 46
REMARK SMILES IDX 46 47 29 48 45 49 30 50 33 51 44 52 60 53 31 54 32 55 43 57
REMARK SMILES IDX 61 58 34 59 21 60 22 61 27 62 23 63 24 64 26 65 28 66 25 67
REMARK SMILES IDX 47 68 48 69 53 70 49 71 50 72 52 73 54 74 51 75 35 76 36 77
REMARK SMILES IDX 41 78 37 79 38 80 40 81 42 82 39 83
REMARK H PARENT 5 6 74 20 9 26 59 45 33 56
REMARK Flexibility Score: inf
ROOT
ATOM      1  C   UNL A   1      37.283  20.315  24.934  1.00  0.00     0.042 C 
ENDROOT
BRANCH   1   2
ATOM      2  C   UNL A   1      36.156  21.287  25.176  1.00  0.00     0.118 C 
BRANCH   2   3
ATOM      3  N   UNL A   1      35.745  22.006  23.984  1.00  0.00    -0.350 N 
ATOM      4  C   UNL A   1      34.607  22.649  23.603  1.00  0.00     0.286 C 
ATOM      5  O   UNL A   1      34.803  23.410  22.640  1.00  0.00    -0.267 OA
ATOM      6  H   UNL A   1      36.449  22.037  23.296  1.00  0.00     0.163 HD
BRANCH   4   7
ATOM      7  C   UNL A   1      33.144  22.477  24.227  1.00  0.00     0.200 C 
ATOM      8  C   UNL A   1      32.245  23.222  23.164  1.00  0.00     0.096 C 
BRANCH   7   9
ATOM      9  C   UNL A   1      32.699  20.955  24.178  1.00  0.00     0.028 A 
ATOM     10  C   UNL A   1      32.630  20.140  25.317  1.00  0.00     0.050 A 
ATOM     11  C   UNL A   1      32.464  20.273  22.958  1.00  0.00     0.050 A 
ATOM     12  C   UNL A   1      32.601  18.739  25.223  1.00  0.00     0.126 A 
ATOM     13  C   UNL A   1      32.356  18.880  22.884  1.00  0.00     0.126 A 
ATOM     14  F   UNL A   1      32.720  18.008  26.341  1.00  0.00    -0.207 F 
ATOM     15  C   UNL A   1      32.490  18.095  24.007  1.00  0.00     0.078 A 
ATOM     16  F   UNL A   1      32.160  18.302  21.690  1.00  0.00    -0.207 F 
ENDBRANCH   7   9
BRANCH   7  17
ATOM     17  N   UNL A   1      32.945  23.133  25.591  1.00  0.00    -0.319 N 
ATOM     18  C   UNL A   1      31.602  23.685  25.893  1.00  0.00     0.263 C 
ATOM     19  C   UNL A   1      33.817  24.250  25.999  1.00  0.00     0.263 C 
ATOM     20  H   UNL A   1      33.170  22.277  26.098  1.00  0.00     0.349 HD
ATOM     21  C   UNL A   1      31.675  25.137  25.456  1.00  0.00     0.067 C 
ATOM     22  C   UNL A   1      33.005  25.544  26.035  1.00  0.00     0.067 C 
ENDBRANCH   7  17
ENDBRANCH   4   7
ENDBRANCH   2   3
ENDBRANCH   1   2
BRANCH   1  23
ATOM     23  C   UNL A   1      38.542  20.768  25.647  1.00  0.00     0.118 C 
BRANCH  23  24
ATOM     24  N   UNL A   1      39.547  19.704  25.718  1.00  0.00    -0.352 N 
ATOM     25  C   UNL A   1      40.898  19.767  25.974  1.00  0.00     0.251 C 
ATOM     26  H   UNL A   1      39.201  18.798  25.557  1.00  0.00     0.163 HD
ATOM     27  O   UNL A   1      41.618  18.811  25.725  1.00  0.00    -0.269 OA
BRANCH  25  28
ATOM     28  C   UNL A   1      41.465  21.004  26.540  1.00  0.00     0.039 A 
ATOM     29  C   UNL A   1      42.015  21.970  25.696  1.00  0.00     0.014 A 
ATOM     30  C   UNL A   1      41.429  21.213  27.917  1.00  0.00     0.014 A 
ATOM     31  C   UNL A   1      42.449  23.181  26.239  1.00  0.00     0.010 A 
ATOM     32  C   UNL A   1      41.702  22.468  28.428  1.00  0.00     0.010 A 
ATOM     33  C   UNL A   1      42.248  23.457  27.602  1.00  0.00    -0.014 A 
BRANCH  33  34
ATOM     34  C   UNL A   1      42.639  24.750  28.211  1.00  0.00     0.031 A 
ATOM     35  C   UNL A   1      41.594  25.810  28.438  1.00  0.00     0.074 A 
ATOM     36  C   UNL A   1      43.936  24.998  28.475  1.00  0.00     0.049 A 
ATOM     37  N   UNL A   1      41.741  27.040  28.859  1.00  0.00    -0.248 NA
ATOM     38  C   UNL A   1      40.201  25.460  28.102  1.00  0.00     0.031 C 
ATOM     39  C   UNL A   1      45.047  24.077  28.227  1.00  0.00     0.029 A 
ATOM     40  N   UNL A   1      44.541  26.110  29.004  1.00  0.00    -0.354 N 
ATOM     41  C   UNL A   1      40.475  27.607  28.808  1.00  0.00     0.074 A 
ATOM     42  C   UNL A   1      39.584  26.620  28.245  1.00  0.00     0.031 C 
ATOM     43  C   UNL A   1      46.191  24.644  28.639  1.00  0.00     0.029 A 
ATOM     44  C   UNL A   1      45.903  25.985  29.134  1.00  0.00     0.049 A 
ATOM     45  H   UNL A   1      44.046  26.920  29.264  1.00  0.00     0.167 HD
ATOM     46  C   UNL A   1      40.080  28.832  29.227  1.00  0.00     0.037 A 
ATOM     47  C   UNL A   1      46.815  26.860  29.597  1.00  0.00     0.037 A 
ATOM     48  C   UNL A   1      40.965  29.789  29.830  1.00  0.00     0.049 A 
ATOM     49  C   UNL A   1      46.349  28.205  30.080  1.00  0.00     0.074 A 
ATOM     50  C   UNL A   1      40.658  31.028  30.364  1.00  0.00     0.029 A 
ATOM     51  N   UNL A   1      42.332  29.612  29.982  1.00  0.00    -0.354 N 
ATOM     52  N   UNL A   1      45.135  28.702  30.100  1.00  0.00    -0.248 NA
ATOM     53  C   UNL A   1      47.377  29.108  30.616  1.00  0.00     0.031 C 
ATOM     54  C   UNL A   1      41.850  31.622  30.791  1.00  0.00     0.029 A 
ATOM     55  C   UNL A   1      42.888  30.729  30.579  1.00  0.00     0.049 A 
ATOM     56  H   UNL A   1      42.833  28.810  29.705  1.00  0.00     0.167 HD
ATOM     57  C   UNL A   1      45.248  29.962  30.671  1.00  0.00     0.074 A 
ATOM     58  C   UNL A   1      46.648  30.146  31.000  1.00  0.00     0.031 C 
ATOM     59  C   UNL A   1      44.284  30.887  30.902  1.00  0.00     0.037 A 
BRANCH  46  60
ATOM     60  C   UNL A   1      38.632  29.193  29.060  1.00  0.00     0.057 A 
ATOM     61  C   UNL A   1      37.729  29.159  30.131  1.00  0.00     0.134 A 
ATOM     62  C   UNL A   1      38.142  29.615  27.818  1.00  0.00     0.134 A 
ATOM     63  F   UNL A   1      38.128  28.748  31.345  1.00  0.00    -0.206 F 
ATOM     64  C   UNL A   1      36.385  29.502  29.967  1.00  0.00     0.040 A 
ATOM     65  C   UNL A   1      36.808  29.991  27.649  1.00  0.00     0.040 A 
ATOM     66  F   UNL A   1      38.952  29.674  26.750  1.00  0.00    -0.206 F 
ATOM     67  C   UNL A   1      35.925  29.929  28.724  1.00  0.00     0.006 A 
ENDBRANCH  46  60
BRANCH  47  68
ATOM     68  C   UNL A   1      48.249  26.480  29.648  1.00  0.00     0.057 A 
ATOM     69  C   UNL A   1      48.779  25.802  30.752  1.00  0.00     0.134 A 
ATOM     70  C   UNL A   1      49.123  26.776  28.594  1.00  0.00     0.134 A 
ATOM     71  F   UNL A   1      47.997  25.502  31.800  1.00  0.00    -0.206 F 
ATOM     72  C   UNL A   1      50.129  25.450  30.817  1.00  0.00     0.040 A 
ATOM     73  C   UNL A   1      50.468  26.406  28.634  1.00  0.00     0.040 A 
ATOM     74  F   UNL A   1      48.676  27.412  27.502  1.00  0.00    -0.206 F 
ATOM     75  C   UNL A   1      50.976  25.748  29.752  1.00  0.00     0.006 A 
ENDBRANCH  47  68
BRANCH  59  76
ATOM     76  C   UNL A   1      44.701  32.162  31.572  1.00  0.00     0.057 A 
ATOM     77  C   UNL A   1      44.730  32.292  32.966  1.00  0.00     0.134 A 
ATOM     78  C   UNL A   1      45.127  33.258  30.810  1.00  0.00     0.134 A 
ATOM     79  F   UNL A   1      44.326  31.283  33.752  1.00  0.00    -0.206 F 
ATOM     80  C   UNL A   1      45.144  33.475  33.578  1.00  0.00     0.040 A 
ATOM     81  C   UNL A   1      45.573  34.435  31.411  1.00  0.00     0.040 A 
ATOM     82  F   UNL A   1      45.136  33.194  29.470  1.00  0.00    -0.206 F 
ATOM     83  C   UNL A   1      45.574  34.549  32.799  1.00  0.00     0.006 A 
ENDBRANCH  59  76
ENDBRANCH  33  34
ENDBRANCH  25  28
ENDBRANCH  23  24
ENDBRANCH   1  23
TORSDOF 12
ENDMDL
