MODEL 1
REMARK VINA RESULT:     -12.7      0.000      0.000
REMARK SMILES COC(=O)C1=C(C)N(c2ccc(Br)cc2)C(=O)/C1=C\c1ccc(C(=O)NCCCNC(=O)c2ccc(-c3c4nc(c(-c5c(F)cccc5F)c5ccc([nH]5)c(-c5c(F)cccc5F)c5nc(c(-c6c(F)cccc6F)c6ccc3[nH]6)C=C5)C=C4)cc2)cc1
REMARK SMILES IDX 27 1 26 2 24 3 25 4 23 6 20 7 21 8 88 9 22 10 87 11 19 12
REMARK SMILES IDX 5 13 6 14 18 15 7 16 8 17 16 18 17 19 3 20 4 21 2 22 1 23
REMARK SMILES IDX 9 24 10 25 15 26 11 27 14 28 12 29 13 30 28 31 29 32 30 33
REMARK SMILES IDX 31 34 32 36 33 37 34 38 86 39 35 40 85 41 36 42 37 43 38 44
REMARK SMILES IDX 79 45 39 46 84 47 78 48 80 49 40 50 83 51 77 52 76 53 41 55
REMARK SMILES IDX 67 56 50 57 66 58 51 59 54 60 65 61 81 62 52 63 53 64 64 66
REMARK SMILES IDX 82 67 55 68 42 69 43 70 48 71 44 72 45 73 47 74 49 75 46 76
REMARK SMILES IDX 68 77 69 78 74 79 70 80 71 81 73 82 75 83 72 84 56 85 57 86
REMARK SMILES IDX 62 87 58 88 59 89 61 90 63 91 60 92
REMARK H PARENT 26 5 30 35 80 54 54 65
REMARK Flexibility Score: inf
ROOT
ATOM      1  C   UNL A   1      34.267  34.645  27.971  1.00  0.00     0.118 C 
ENDROOT
BRANCH   1   2
ATOM      2  N   UNL A   1      35.578  34.220  28.430  1.00  0.00    -0.352 N 
ATOM      3  C   UNL A   1      36.181  32.987  28.463  1.00  0.00     0.251 C 
ATOM      4  O   UNL A   1      37.348  32.930  28.850  1.00  0.00    -0.269 OA
ATOM      5  H   UNL A   1      36.137  34.950  28.781  1.00  0.00     0.163 HD
BRANCH   3   6
ATOM      6  C   UNL A   1      35.500  31.741  28.016  1.00  0.00     0.039 A 
ATOM      7  C   UNL A   1      34.347  29.357  27.080  1.00  0.00    -0.025 A 
ATOM      8  C   UNL A   1      35.734  29.474  27.146  1.00  0.00     0.009 A 
ATOM      9  C   UNL A   1      33.541  30.406  27.525  1.00  0.00     0.009 A 
ATOM     10  C   UNL A   1      36.307  30.666  27.610  1.00  0.00     0.014 A 
ATOM     11  C   UNL A   1      34.116  31.575  28.019  1.00  0.00     0.014 A 
BRANCH   7  12
ATOM     12  C   UNL A   1      33.673  28.151  26.609  1.00  0.00     0.023 C 
ATOM     13  C   UNL A   1      31.745  26.970  25.549  1.00  0.00     0.092 C 
ATOM     14  C   UNL A   1      30.760  27.345  24.705  1.00  0.00     0.039 C 
ATOM     15  C   UNL A   1      32.555  28.131  25.866  1.00  0.00     0.057 C 
ATOM     16  C   UNL A   1      29.757  26.421  24.093  1.00  0.00     0.066 C 
ATOM     17  N   UNL A   1      30.856  28.714  24.428  1.00  0.00    -0.280 N 
ATOM     18  C   UNL A   1      31.921  29.296  25.164  1.00  0.00     0.263 C 
ATOM     19  O   UNL A   1      32.268  30.459  25.236  1.00  0.00    -0.268 OA
BRANCH  13  20
ATOM     20  C   UNL A   1      31.968  25.641  26.145  1.00  0.00     0.340 C 
ATOM     21  O   UNL A   1      31.464  25.287  27.202  1.00  0.00    -0.246 OA
BRANCH  20  22
ATOM     22  O   UNL A   1      32.838  24.914  25.405  1.00  0.00    -0.465 OA
ATOM     23  C   UNL A   1      32.475  23.537  25.293  1.00  0.00     0.282 C 
ENDBRANCH  20  22
ENDBRANCH  13  20
BRANCH  17  24
ATOM     24  C   UNL A   1      30.105  29.497  23.508  1.00  0.00     0.049 A 
ATOM     25  C   UNL A   1      29.222  30.473  24.002  1.00  0.00     0.028 A 
ATOM     26  C   UNL A   1      30.239  29.365  22.122  1.00  0.00     0.028 A 
ATOM     27  C   UNL A   1      28.546  31.339  23.139  1.00  0.00     0.018 A 
ATOM     28  C   UNL A   1      29.554  30.223  21.251  1.00  0.00     0.018 A 
ATOM     29  C   UNL A   1      28.724  31.217  21.766  1.00  0.00     0.018 A 
ATOM     30  Br  UNL A   1      27.840  32.411  20.597  1.00  0.00    -0.051 Br
ENDBRANCH  17  24
ENDBRANCH   7  12
ENDBRANCH   3   6
ENDBRANCH   1   2
BRANCH   1  31
ATOM     31  C   UNL A   1      33.305  34.827  29.147  1.00  0.00     0.042 C 
BRANCH  31  32
ATOM     32  C   UNL A   1      33.297  36.246  29.708  1.00  0.00     0.118 C 
BRANCH  32  33
ATOM     33  N   UNL A   1      32.452  36.353  30.887  1.00  0.00    -0.352 N 
ATOM     34  C   UNL A   1      32.545  35.749  32.111  1.00  0.00     0.251 C 
ATOM     35  H   UNL A   1      31.685  36.963  30.789  1.00  0.00     0.163 HD
ATOM     36  O   UNL A   1      31.576  35.782  32.866  1.00  0.00    -0.269 OA
BRANCH  34  37
ATOM     37  C   UNL A   1      33.782  35.058  32.540  1.00  0.00     0.039 A 
ATOM     38  C   UNL A   1      33.666  33.769  33.067  1.00  0.00     0.014 A 
ATOM     39  C   UNL A   1      35.031  35.684  32.503  1.00  0.00     0.014 A 
ATOM     40  C   UNL A   1      34.802  33.099  33.519  1.00  0.00     0.010 A 
ATOM     41  C   UNL A   1      36.176  34.983  32.879  1.00  0.00     0.010 A 
ATOM     42  C   UNL A   1      36.073  33.687  33.401  1.00  0.00    -0.014 A 
BRANCH  42  43
ATOM     43  C   UNL A   1      37.284  32.926  33.799  1.00  0.00     0.031 A 
ATOM     44  C   UNL A   1      37.855  31.853  32.914  1.00  0.00     0.074 A 
ATOM     45  C   UNL A   1      37.864  33.203  34.983  1.00  0.00     0.049 A 
ATOM     46  N   UNL A   1      38.936  31.134  33.083  1.00  0.00    -0.248 NA
ATOM     47  C   UNL A   1      37.105  31.527  31.691  1.00  0.00     0.031 C 
ATOM     48  C   UNL A   1      37.365  34.175  35.958  1.00  0.00     0.029 A 
ATOM     49  N   UNL A   1      39.001  32.702  35.564  1.00  0.00    -0.354 N 
ATOM     50  C   UNL A   1      38.995  30.272  31.995  1.00  0.00     0.074 A 
ATOM     51  C   UNL A   1      37.809  30.517  31.202  1.00  0.00     0.031 C 
ATOM     52  C   UNL A   1      38.214  34.233  36.995  1.00  0.00     0.029 A 
ATOM     53  C   UNL A   1      39.294  33.277  36.777  1.00  0.00     0.049 A 
ATOM     54  H   UNL A   1      39.553  31.999  35.152  1.00  0.00     0.167 HD
ATOM     55  C   UNL A   1      39.958  29.374  31.676  1.00  0.00     0.037 A 
ATOM     56  C   UNL A   1      40.322  33.061  37.619  1.00  0.00     0.037 A 
ATOM     57  C   UNL A   1      41.139  29.138  32.470  1.00  0.00     0.049 A 
ATOM     58  C   UNL A   1      41.382  32.068  37.236  1.00  0.00     0.074 A 
ATOM     59  C   UNL A   1      42.204  28.295  32.203  1.00  0.00     0.029 A 
ATOM     60  N   UNL A   1      41.404  29.740  33.692  1.00  0.00    -0.354 N 
ATOM     61  N   UNL A   1      41.469  31.324  36.161  1.00  0.00    -0.248 NA
ATOM     62  C   UNL A   1      42.495  31.899  38.179  1.00  0.00     0.031 C 
ATOM     63  C   UNL A   1      43.082  28.340  33.292  1.00  0.00     0.029 A 
ATOM     64  C   UNL A   1      42.600  29.263  34.206  1.00  0.00     0.049 A 
ATOM     65  H   UNL A   1      40.827  30.407  34.130  1.00  0.00     0.167 HD
ATOM     66  C   UNL A   1      42.655  30.612  36.286  1.00  0.00     0.074 A 
ATOM     67  C   UNL A   1      43.266  31.041  37.528  1.00  0.00     0.031 C 
ATOM     68  C   UNL A   1      43.189  29.685  35.453  1.00  0.00     0.037 A 
BRANCH  55  69
ATOM     69  C   UNL A   1      39.772  28.572  30.417  1.00  0.00     0.057 A 
ATOM     70  C   UNL A   1      40.305  28.982  29.187  1.00  0.00     0.134 A 
ATOM     71  C   UNL A   1      39.079  27.354  30.442  1.00  0.00     0.134 A 
ATOM     72  F   UNL A   1      40.971  30.143  29.088  1.00  0.00    -0.206 F 
ATOM     73  C   UNL A   1      40.131  28.228  28.025  1.00  0.00     0.040 A 
ATOM     74  C   UNL A   1      38.926  26.575  29.292  1.00  0.00     0.040 A 
ATOM     75  F   UNL A   1      38.548  26.894  31.584  1.00  0.00    -0.206 F 
ATOM     76  C   UNL A   1      39.445  27.016  28.078  1.00  0.00     0.006 A 
ENDBRANCH  55  69
BRANCH  56  77
ATOM     77  C   UNL A   1      40.407  33.820  38.893  1.00  0.00     0.057 A 
ATOM     78  C   UNL A   1      41.164  34.995  38.991  1.00  0.00     0.134 A 
ATOM     79  C   UNL A   1      39.736  33.389  40.043  1.00  0.00     0.134 A 
ATOM     80  F   UNL A   1      41.843  35.451  37.928  1.00  0.00    -0.206 F 
ATOM     81  C   UNL A   1      41.269  35.699  40.191  1.00  0.00     0.040 A 
ATOM     82  C   UNL A   1      39.807  34.100  41.241  1.00  0.00     0.040 A 
ATOM     83  F   UNL A   1      38.984  32.279  40.013  1.00  0.00    -0.206 F 
ATOM     84  C   UNL A   1      40.585  35.254  41.320  1.00  0.00     0.006 A 
ENDBRANCH  56  77
BRANCH  68  85
ATOM     85  C   UNL A   1      44.512  29.096  35.855  1.00  0.00     0.057 A 
ATOM     86  C   UNL A   1      45.731  29.671  35.471  1.00  0.00     0.134 A 
ATOM     87  C   UNL A   1      44.568  27.927  36.626  1.00  0.00     0.134 A 
ATOM     88  F   UNL A   1      45.751  30.785  34.723  1.00  0.00    -0.206 F 
ATOM     89  C   UNL A   1      46.954  29.081  35.795  1.00  0.00     0.040 A 
ATOM     90  C   UNL A   1      45.785  27.347  36.987  1.00  0.00     0.040 A 
ATOM     91  F   UNL A   1      43.442  27.328  37.041  1.00  0.00    -0.206 F 
ATOM     92  C   UNL A   1      46.982  27.914  36.558  1.00  0.00     0.006 A 
ENDBRANCH  68  85
ENDBRANCH  42  43
ENDBRANCH  34  37
ENDBRANCH  32  33
ENDBRANCH  31  32
ENDBRANCH   1  31
TORSDOF 14
ENDMDL
MODEL 2
REMARK VINA RESULT:     -12.6      7.523     12.748
REMARK SMILES COC(=O)C1=C(C)N(c2ccc(Br)cc2)C(=O)/C1=C\c1ccc(C(=O)NCCCNC(=O)c2ccc(-c3c4nc(c(-c5c(F)cccc5F)c5ccc([nH]5)c(-c5c(F)cccc5F)c5nc(c(-c6c(F)cccc6F)c6ccc3[nH]6)C=C5)C=C4)cc2)cc1
REMARK SMILES IDX 27 1 26 2 24 3 25 4 23 6 20 7 21 8 88 9 22 10 87 11 19 12
REMARK SMILES IDX 5 13 6 14 18 15 7 16 8 17 16 18 17 19 3 20 4 21 2 22 1 23
REMARK SMILES IDX 9 24 10 25 15 26 11 27 14 28 12 29 13 30 28 31 29 32 30 33
REMARK SMILES IDX 31 34 32 36 33 37 34 38 86 39 35 40 85 41 36 42 37 43 38 44
REMARK SMILES IDX 79 45 39 46 84 47 78 48 80 49 40 50 83 51 77 52 76 53 41 55
REMARK SMILES IDX 67 56 50 57 66 58 51 59 54 60 65 61 81 62 52 63 53 64 64 66
REMARK SMILES IDX 82 67 55 68 42 69 43 70 48 71 44 72 45 73 47 74 49 75 46 76
REMARK SMILES IDX 68 77 69 78 74 79 70 80 71 81 73 82 75 83 72 84 56 85 57 86
REMARK SMILES IDX 62 87 58 88 59 89 61 90 63 91 60 92
REMARK H PARENT 26 5 30 35 80 54 54 65
REMARK Flexibility Score: inf
ROOT
ATOM      1  C   UNL A   1      41.572  19.676  27.621  1.00  0.00     0.118 C 
ENDROOT
BRANCH   1   2
ATOM      2  N   UNL A   1      42.182  20.938  27.999  1.00  0.00    -0.352 N 
ATOM      3  C   UNL A   1      41.738  22.235  27.903  1.00  0.00     0.251 C 
ATOM      4  O   UNL A   1      42.451  23.121  28.375  1.00  0.00    -0.269 OA
ATOM      5  H   UNL A   1      43.077  20.848  28.399  1.00  0.00     0.163 HD
BRANCH   3   6
ATOM      6  C   UNL A   1      40.430  22.599  27.296  1.00  0.00     0.039 A 
ATOM      7  C   UNL A   1      38.000  23.196  26.018  1.00  0.00    -0.025 A 
ATOM      8  C   UNL A   1      38.655  22.000  25.732  1.00  0.00     0.009 A 
ATOM      9  C   UNL A   1      38.531  24.065  26.973  1.00  0.00     0.009 A 
ATOM     10  C   UNL A   1      39.869  21.706  26.368  1.00  0.00     0.014 A 
ATOM     11  C   UNL A   1      39.718  23.751  27.628  1.00  0.00     0.014 A 
BRANCH   7  12
ATOM     12  C   UNL A   1      36.733  23.576  25.400  1.00  0.00     0.023 C 
ATOM     13  C   UNL A   1      34.638  23.040  24.152  1.00  0.00     0.092 C 
ATOM     14  C   UNL A   1      33.907  21.918  23.977  1.00  0.00     0.039 C 
ATOM     15  C   UNL A   1      35.806  22.716  24.948  1.00  0.00     0.057 C 
ATOM     16  C   UNL A   1      32.592  21.853  23.269  1.00  0.00     0.066 C 
ATOM     17  N   UNL A   1      34.522  20.836  24.618  1.00  0.00    -0.280 N 
ATOM     18  C   UNL A   1      35.752  21.238  25.202  1.00  0.00     0.263 C 
ATOM     19  O   UNL A   1      36.589  20.572  25.778  1.00  0.00    -0.268 OA
BRANCH  13  20
ATOM     20  C   UNL A   1      34.387  24.379  23.590  1.00  0.00     0.340 C 
ATOM     21  O   UNL A   1      34.427  24.622  22.393  1.00  0.00    -0.246 OA
BRANCH  20  22
ATOM     22  O   UNL A   1      34.177  25.288  24.572  1.00  0.00    -0.465 OA
ATOM     23  C   UNL A   1      32.801  25.632  24.741  1.00  0.00     0.282 C 
ENDBRANCH  20  22
ENDBRANCH  13  20
BRANCH  17  24
ATOM     24  C   UNL A   1      34.045  19.506  24.789  1.00  0.00     0.049 A 
ATOM     25  C   UNL A   1      34.774  18.441  24.235  1.00  0.00     0.028 A 
ATOM     26  C   UNL A   1      32.893  19.209  25.527  1.00  0.00     0.028 A 
ATOM     27  C   UNL A   1      34.406  17.114  24.468  1.00  0.00     0.018 A 
ATOM     28  C   UNL A   1      32.513  17.879  25.753  1.00  0.00     0.018 A 
ATOM     29  C   UNL A   1      33.281  16.839  25.237  1.00  0.00     0.018 A 
ATOM     30  Br  UNL A   1      32.801  15.044  25.586  1.00  0.00    -0.051 Br
ENDBRANCH  17  24
ENDBRANCH   7  12
ENDBRANCH   3   6
ENDBRANCH   1   2
BRANCH   1  31
ATOM     31  C   UNL A   1      42.557  18.800  26.842  1.00  0.00     0.042 C 
BRANCH  31  32
ATOM     32  C   UNL A   1      42.695  19.202  25.377  1.00  0.00     0.118 C 
BRANCH  32  33
ATOM     33  N   UNL A   1      43.978  18.794  24.827  1.00  0.00    -0.352 N 
ATOM     34  C   UNL A   1      45.052  19.537  24.416  1.00  0.00     0.251 C 
ATOM     35  H   UNL A   1      44.095  17.821  24.736  1.00  0.00     0.163 HD
ATOM     36  O   UNL A   1      45.926  18.997  23.741  1.00  0.00    -0.269 OA
BRANCH  34  37
ATOM     37  C   UNL A   1      45.179  20.969  24.764  1.00  0.00     0.039 A 
ATOM     38  C   UNL A   1      45.506  21.298  26.083  1.00  0.00     0.014 A 
ATOM     39  C   UNL A   1      44.909  21.983  23.842  1.00  0.00     0.014 A 
ATOM     40  C   UNL A   1      45.596  22.638  26.463  1.00  0.00     0.010 A 
ATOM     41  C   UNL A   1      45.079  23.320  24.200  1.00  0.00     0.010 A 
ATOM     42  C   UNL A   1      45.414  23.662  25.518  1.00  0.00    -0.014 A 
BRANCH  42  43
ATOM     43  C   UNL A   1      45.606  25.080  25.913  1.00  0.00     0.031 A 
ATOM     44  C   UNL A   1      44.462  25.903  26.436  1.00  0.00     0.074 A 
ATOM     45  C   UNL A   1      46.829  25.630  25.783  1.00  0.00     0.049 A 
ATOM     46  N   UNL A   1      44.469  27.136  26.879  1.00  0.00    -0.248 NA
ATOM     47  C   UNL A   1      43.133  25.273  26.444  1.00  0.00     0.031 C 
ATOM     48  C   UNL A   1      48.002  24.953  25.225  1.00  0.00     0.029 A 
ATOM     49  N   UNL A   1      47.293  26.877  26.116  1.00  0.00    -0.354 N 
ATOM     50  C   UNL A   1      43.152  27.429  27.213  1.00  0.00     0.074 A 
ATOM     51  C   UNL A   1      42.364  26.265  26.867  1.00  0.00     0.031 C 
ATOM     52  C   UNL A   1      49.059  25.774  25.297  1.00  0.00     0.029 A 
ATOM     53  C   UNL A   1      48.633  27.047  25.868  1.00  0.00     0.049 A 
ATOM     54  H   UNL A   1      46.720  27.581  26.498  1.00  0.00     0.167 HD
ATOM     55  C   UNL A   1      42.650  28.555  27.776  1.00  0.00     0.037 A 
ATOM     56  C   UNL A   1      49.431  28.110  26.079  1.00  0.00     0.037 A 
ATOM     57  C   UNL A   1      43.443  29.709  28.120  1.00  0.00     0.049 A 
ATOM     58  C   UNL A   1      48.852  29.342  26.714  1.00  0.00     0.074 A 
ATOM     59  C   UNL A   1      43.042  30.875  28.749  1.00  0.00     0.029 A 
ATOM     60  N   UNL A   1      44.799  29.846  27.855  1.00  0.00    -0.354 N 
ATOM     61  N   UNL A   1      47.622  29.571  27.106  1.00  0.00    -0.248 NA
ATOM     62  C   UNL A   1      49.778  30.457  26.949  1.00  0.00     0.031 C 
ATOM     63  C   UNL A   1      44.139  31.742  28.808  1.00  0.00     0.029 A 
ATOM     64  C   UNL A   1      45.242  31.089  28.278  1.00  0.00     0.049 A 
ATOM     65  H   UNL A   1      45.362  29.161  27.428  1.00  0.00     0.167 HD
ATOM     66  C   UNL A   1      47.630  30.848  27.653  1.00  0.00     0.074 A 
ATOM     67  C   UNL A   1      48.994  31.326  27.570  1.00  0.00     0.031 C 
ATOM     68  C   UNL A   1      46.600  31.562  28.174  1.00  0.00     0.037 A 
BRANCH  55  69
ATOM     69  C   UNL A   1      41.171  28.597  28.046  1.00  0.00     0.057 A 
ATOM     70  C   UNL A   1      40.244  28.960  27.059  1.00  0.00     0.134 A 
ATOM     71  C   UNL A   1      40.664  28.235  29.301  1.00  0.00     0.134 A 
ATOM     72  F   UNL A   1      40.661  29.328  25.837  1.00  0.00    -0.206 F 
ATOM     73  C   UNL A   1      38.873  28.991  27.317  1.00  0.00     0.040 A 
ATOM     74  C   UNL A   1      39.291  28.231  29.562  1.00  0.00     0.040 A 
ATOM     75  F   UNL A   1      41.490  27.869  30.291  1.00  0.00    -0.206 F 
ATOM     76  C   UNL A   1      38.392  28.618  28.571  1.00  0.00     0.006 A 
ENDBRANCH  55  69
BRANCH  56  77
ATOM     77  C   UNL A   1      50.868  28.042  25.710  1.00  0.00     0.057 A 
ATOM     78  C   UNL A   1      51.286  28.199  24.382  1.00  0.00     0.134 A 
ATOM     79  C   UNL A   1      51.857  27.817  26.674  1.00  0.00     0.134 A 
ATOM     80  F   UNL A   1      50.386  28.401  23.409  1.00  0.00    -0.206 F 
ATOM     81  C   UNL A   1      52.633  28.111  24.025  1.00  0.00     0.040 A 
ATOM     82  C   UNL A   1      53.209  27.758  26.335  1.00  0.00     0.040 A 
ATOM     83  F   UNL A   1      51.524  27.671  27.965  1.00  0.00    -0.206 F 
ATOM     84  C   UNL A   1      53.599  27.895  25.005  1.00  0.00     0.006 A 
ENDBRANCH  56  77
BRANCH  68  85
ATOM     85  C   UNL A   1      46.928  32.926  28.713  1.00  0.00     0.057 A 
ATOM     86  C   UNL A   1      47.318  33.126  30.044  1.00  0.00     0.134 A 
ATOM     87  C   UNL A   1      46.838  34.058  27.892  1.00  0.00     0.134 A 
ATOM     88  F   UNL A   1      47.414  32.087  30.888  1.00  0.00    -0.206 F 
ATOM     89  C   UNL A   1      47.557  34.404  30.552  1.00  0.00     0.040 A 
ATOM     90  C   UNL A   1      47.109  35.337  28.379  1.00  0.00     0.040 A 
ATOM     91  F   UNL A   1      46.484  33.941  26.604  1.00  0.00    -0.206 F 
ATOM     92  C   UNL A   1      47.455  35.515  29.716  1.00  0.00     0.006 A 
ENDBRANCH  68  85
ENDBRANCH  42  43
ENDBRANCH  34  37
ENDBRANCH  32  33
ENDBRANCH  31  32
ENDBRANCH   1  31
TORSDOF 14
ENDMDL
MODEL 3
REMARK VINA RESULT:     -12.5      7.455     12.503
REMARK SMILES COC(=O)C1=C(C)N(c2ccc(Br)cc2)C(=O)/C1=C\c1ccc(C(=O)NCCCNC(=O)c2ccc(-c3c4nc(c(-c5c(F)cccc5F)c5ccc([nH]5)c(-c5c(F)cccc5F)c5nc(c(-c6c(F)cccc6F)c6ccc3[nH]6)C=C5)C=C4)cc2)cc1
REMARK SMILES IDX 27 1 26 2 24 3 25 4 23 6 20 7 21 8 88 9 22 10 87 11 19 12
REMARK SMILES IDX 5 13 6 14 18 15 7 16 8 17 16 18 17 19 3 20 4 21 2 22 1 23
REMARK SMILES IDX 9 24 10 25 15 26 11 27 14 28 12 29 13 30 28 31 29 32 30 33
REMARK SMILES IDX 31 34 32 36 33 37 34 38 86 39 35 40 85 41 36 42 37 43 38 44
REMARK SMILES IDX 79 45 39 46 84 47 78 48 80 49 40 50 83 51 77 52 76 53 41 55
REMARK SMILES IDX 67 56 50 57 66 58 51 59 54 60 65 61 81 62 52 63 53 64 64 66
REMARK SMILES IDX 82 67 55 68 42 69 43 70 48 71 44 72 45 73 47 74 49 75 46 76
REMARK SMILES IDX 68 77 69 78 74 79 70 80 71 81 73 82 75 83 72 84 56 85 57 86
REMARK SMILES IDX 62 87 58 88 59 89 61 90 63 91 60 92
REMARK H PARENT 26 5 30 35 80 54 54 65
REMARK Flexibility Score: inf
ROOT
ATOM      1  C   UNL A   1      41.860  19.606  26.135  1.00  0.00     0.118 C 
ENDROOT
BRANCH   1   2
ATOM      2  N   UNL A   1      42.172  20.637  27.109  1.00  0.00    -0.352 N 
ATOM      3  C   UNL A   1      41.496  21.771  27.490  1.00  0.00     0.251 C 
ATOM      4  O   UNL A   1      41.973  22.441  28.406  1.00  0.00    -0.269 OA
ATOM      5  H   UNL A   1      43.023  20.498  27.583  1.00  0.00     0.163 HD
BRANCH   3   6
ATOM      6  C   UNL A   1      40.209  22.191  26.874  1.00  0.00     0.039 A 
ATOM      7  C   UNL A   1      37.745  23.070  25.847  1.00  0.00    -0.025 A 
ATOM      8  C   UNL A   1      38.427  23.855  26.777  1.00  0.00     0.009 A 
ATOM      9  C   UNL A   1      38.316  21.878  25.397  1.00  0.00     0.009 A 
ATOM     10  C   UNL A   1      39.653  23.412  27.290  1.00  0.00     0.014 A 
ATOM     11  C   UNL A   1      39.552  21.461  25.884  1.00  0.00     0.014 A 
BRANCH   7  12
ATOM     12  C   UNL A   1      36.465  23.460  25.266  1.00  0.00     0.023 C 
ATOM     13  C   UNL A   1      34.330  22.940  24.080  1.00  0.00     0.092 C 
ATOM     14  C   UNL A   1      33.584  21.825  23.928  1.00  0.00     0.039 C 
ATOM     15  C   UNL A   1      35.518  22.607  24.842  1.00  0.00     0.057 C 
ATOM     16  C   UNL A   1      32.249  21.770  23.259  1.00  0.00     0.066 C 
ATOM     17  N   UNL A   1      34.208  20.738  24.552  1.00  0.00    -0.280 N 
ATOM     18  C   UNL A   1      35.458  21.130  25.100  1.00  0.00     0.263 C 
ATOM     19  O   UNL A   1      36.306  20.458  25.652  1.00  0.00    -0.268 OA
BRANCH  13  20
ATOM     20  C   UNL A   1      34.074  24.281  23.524  1.00  0.00     0.340 C 
ATOM     21  O   UNL A   1      34.441  24.626  22.410  1.00  0.00    -0.246 OA
BRANCH  20  22
ATOM     22  O   UNL A   1      33.449  25.072  24.428  1.00  0.00    -0.465 OA
ATOM     23  C   UNL A   1      33.915  26.422  24.419  1.00  0.00     0.282 C 
ENDBRANCH  20  22
ENDBRANCH  13  20
BRANCH  17  24
ATOM     24  C   UNL A   1      33.725  19.413  24.739  1.00  0.00     0.049 A 
ATOM     25  C   UNL A   1      34.144  18.401  23.858  1.00  0.00     0.028 A 
ATOM     26  C   UNL A   1      32.876  19.063  25.795  1.00  0.00     0.028 A 
ATOM     27  C   UNL A   1      33.785  17.067  24.065  1.00  0.00     0.018 A 
ATOM     28  C   UNL A   1      32.502  17.728  26.000  1.00  0.00     0.018 A 
ATOM     29  C   UNL A   1      32.973  16.735  25.144  1.00  0.00     0.018 A 
ATOM     30  Br  UNL A   1      32.515  14.927  25.449  1.00  0.00    -0.051 Br
ENDBRANCH  17  24
ENDBRANCH   7  12
ENDBRANCH   3   6
ENDBRANCH   1   2
BRANCH   1  31
ATOM     31  C   UNL A   1      42.692  18.346  26.382  1.00  0.00     0.042 C 
BRANCH  31  32
ATOM     32  C   UNL A   1      44.180  18.542  26.110  1.00  0.00     0.118 C 
BRANCH  32  33
ATOM     33  N   UNL A   1      44.456  18.653  24.686  1.00  0.00    -0.352 N 
ATOM     34  C   UNL A   1      44.646  19.754  23.895  1.00  0.00     0.251 C 
ATOM     35  H   UNL A   1      44.517  17.793  24.211  1.00  0.00     0.163 HD
ATOM     36  O   UNL A   1      44.602  19.624  22.674  1.00  0.00    -0.269 OA
BRANCH  34  37
ATOM     37  C   UNL A   1      44.898  21.090  24.479  1.00  0.00     0.039 A 
ATOM     38  C   UNL A   1      44.582  22.214  23.711  1.00  0.00     0.014 A 
ATOM     39  C   UNL A   1      45.506  21.250  25.728  1.00  0.00     0.014 A 
ATOM     40  C   UNL A   1      44.842  23.491  24.208  1.00  0.00     0.010 A 
ATOM     41  C   UNL A   1      45.690  22.527  26.258  1.00  0.00     0.010 A 
ATOM     42  C   UNL A   1      45.369  23.661  25.500  1.00  0.00    -0.014 A 
BRANCH  42  43
ATOM     43  C   UNL A   1      45.553  25.026  26.054  1.00  0.00     0.031 A 
ATOM     44  C   UNL A   1      46.899  25.695  26.044  1.00  0.00     0.074 A 
ATOM     45  C   UNL A   1      44.488  25.660  26.582  1.00  0.00     0.049 A 
ATOM     46  N   UNL A   1      47.222  26.903  26.435  1.00  0.00    -0.248 NA
ATOM     47  C   UNL A   1      48.037  24.901  25.557  1.00  0.00     0.031 C 
ATOM     48  C   UNL A   1      43.145  25.088  26.709  1.00  0.00     0.029 A 
ATOM     49  N   UNL A   1      44.362  26.922  27.103  1.00  0.00    -0.354 N 
ATOM     50  C   UNL A   1      48.593  27.012  26.244  1.00  0.00     0.074 A 
ATOM     51  C   UNL A   1      49.052  25.728  25.757  1.00  0.00     0.031 C 
ATOM     52  C   UNL A   1      42.322  26.011  27.228  1.00  0.00     0.029 A 
ATOM     53  C   UNL A   1      43.084  27.223  27.507  1.00  0.00     0.049 A 
ATOM     54  H   UNL A   1      45.115  27.551  27.180  1.00  0.00     0.167 HD
ATOM     55  C   UNL A   1      49.393  28.089  26.435  1.00  0.00     0.037 A 
ATOM     56  C   UNL A   1      42.581  28.351  28.040  1.00  0.00     0.037 A 
ATOM     57  C   UNL A   1      48.928  29.366  26.917  1.00  0.00     0.049 A 
ATOM     58  C   UNL A   1      43.487  29.534  28.232  1.00  0.00     0.074 A 
ATOM     59  C   UNL A   1      49.645  30.538  27.088  1.00  0.00     0.029 A 
ATOM     60  N   UNL A   1      47.626  29.636  27.315  1.00  0.00    -0.354 N 
ATOM     61  N   UNL A   1      44.764  29.651  27.963  1.00  0.00    -0.248 NA
ATOM     62  C   UNL A   1      42.873  30.748  28.787  1.00  0.00     0.031 C 
ATOM     63  C   UNL A   1      48.793  31.497  27.647  1.00  0.00     0.029 A 
ATOM     64  C   UNL A   1      47.527  30.945  27.761  1.00  0.00     0.049 A 
ATOM     65  H   UNL A   1      46.882  28.991  27.286  1.00  0.00     0.167 HD
ATOM     66  C   UNL A   1      45.105  30.955  28.297  1.00  0.00     0.074 A 
ATOM     67  C   UNL A   1      43.890  31.596  28.756  1.00  0.00     0.031 C 
ATOM     68  C   UNL A   1      46.314  31.567  28.233  1.00  0.00     0.037 A 
BRANCH  55  69
ATOM     69  C   UNL A   1      50.858  27.930  26.132  1.00  0.00     0.057 A 
ATOM     70  C   UNL A   1      51.376  28.124  24.844  1.00  0.00     0.134 A 
ATOM     71  C   UNL A   1      51.768  27.614  27.149  1.00  0.00     0.134 A 
ATOM     72  F   UNL A   1      50.561  28.420  23.820  1.00  0.00    -0.206 F 
ATOM     73  C   UNL A   1      52.738  27.980  24.573  1.00  0.00     0.040 A 
ATOM     74  C   UNL A   1      53.137  27.498  26.896  1.00  0.00     0.040 A 
ATOM     75  F   UNL A   1      51.346  27.422  28.407  1.00  0.00    -0.206 F 
ATOM     76  C   UNL A   1      53.625  27.673  25.604  1.00  0.00     0.006 A 
ENDBRANCH  55  69
BRANCH  56  77
ATOM     77  C   UNL A   1      41.142  28.421  28.403  1.00  0.00     0.057 A 
ATOM     78  C   UNL A   1      40.694  28.040  29.674  1.00  0.00     0.134 A 
ATOM     79  C   UNL A   1      40.182  28.869  27.489  1.00  0.00     0.134 A 
ATOM     80  F   UNL A   1      41.563  27.588  30.590  1.00  0.00    -0.206 F 
ATOM     81  C   UNL A   1      39.340  28.080  30.014  1.00  0.00     0.040 A 
ATOM     82  C   UNL A   1      38.830  28.942  27.826  1.00  0.00     0.040 A 
ATOM     83  F   UNL A   1      40.547  29.260  26.259  1.00  0.00    -0.206 F 
ATOM     84  C   UNL A   1      38.404  28.537  29.089  1.00  0.00     0.006 A 
ENDBRANCH  56  77
BRANCH  68  85
ATOM     85  C   UNL A   1      46.365  33.009  28.651  1.00  0.00     0.057 A 
ATOM     86  C   UNL A   1      46.150  34.055  27.742  1.00  0.00     0.134 A 
ATOM     87  C   UNL A   1      46.649  33.359  29.978  1.00  0.00     0.134 A 
ATOM     88  F   UNL A   1      45.884  33.793  26.453  1.00  0.00    -0.206 F 
ATOM     89  C   UNL A   1      46.264  35.393  28.126  1.00  0.00     0.040 A 
ATOM     90  C   UNL A   1      46.730  34.692  30.381  1.00  0.00     0.040 A 
ATOM     91  F   UNL A   1      46.854  32.411  30.904  1.00  0.00    -0.206 F 
ATOM     92  C   UNL A   1      46.553  35.714  29.451  1.00  0.00     0.006 A 
ENDBRANCH  68  85
ENDBRANCH  42  43
ENDBRANCH  34  37
ENDBRANCH  32  33
ENDBRANCH  31  32
ENDBRANCH   1  31
TORSDOF 14
ENDMDL
