MODEL 1
REMARK VINA RESULT:     -12.8      0.000      0.000
REMARK SMILES O=C(NCCCNC(=O)c1cc(S(=O)(=O)NNC(=O)[C@H]2C=C(c3ccccc3)N=N2)ccc1F)c1ccc(-c2c3nc(c(-c4c(F)cccc4F)c4ccc([nH]4)c(-c4c(F)cccc4F)c4nc(c(-c5c(F)cccc5F)c5ccc2[nH]5)C=C4)C=C3)cc1
REMARK SMILES IDX 7 1 8 2 9 3 6 5 5 6 4 7 3 8 1 9 2 10 35 12 36 13 88 14 37 15
REMARK SMILES IDX 87 16 38 17 39 18 40 19 81 20 41 21 86 22 80 23 82 24 42 25
REMARK SMILES IDX 85 26 79 27 78 28 43 30 69 31 52 32 68 33 53 34 56 35 67 36
REMARK SMILES IDX 83 37 54 38 55 39 66 41 84 42 57 43 44 44 45 45 50 46 46 47
REMARK SMILES IDX 47 48 49 49 51 50 48 51 70 52 71 53 76 54 72 55 73 56 75 57
REMARK SMILES IDX 77 58 74 59 58 60 59 61 64 62 60 63 61 64 63 65 65 66 62 67
REMARK SMILES IDX 10 68 11 69 33 70 12 71 32 72 34 73 31 74 13 75 14 76 15 77
REMARK SMILES IDX 16 78 17 80 18 81 19 83 20 84 21 85 30 86 22 87 29 88 23 89
REMARK SMILES IDX 24 90 28 91 25 92 27 93 26 94
REMARK H PARENT 7 4 3 11 82 29 56 40 16 79 17 82
REMARK Flexibility Score: inf
ROOT
ATOM      1  N   UNL A   1      37.400  22.965  24.324  1.00  0.00    -0.352 N 
ATOM      2  C   UNL A   1      36.140  22.901  23.784  1.00  0.00     0.254 C 
ATOM      3  O   UNL A   1      35.968  23.112  22.586  1.00  0.00    -0.269 OA
ATOM      4  H   UNL A   1      38.116  23.209  23.694  1.00  0.00     0.163 HD
ENDROOT
BRANCH   1   5
ATOM      5  C   UNL A   1      37.834  22.723  25.693  1.00  0.00     0.118 C 
BRANCH   5   6
ATOM      6  C   UNL A   1      38.715  21.487  25.853  1.00  0.00     0.042 C 
BRANCH   6   7
ATOM      7  C   UNL A   1      39.985  21.691  26.674  1.00  0.00     0.118 C 
BRANCH   7   8
ATOM      8  N   UNL A   1      41.154  22.065  25.904  1.00  0.00    -0.352 N 
ATOM      9  O   UNL A   1      42.999  22.999  25.156  1.00  0.00    -0.269 OA
ATOM     10  C   UNL A   1      41.974  23.155  25.827  1.00  0.00     0.251 C 
ATOM     11  H   UNL A   1      41.427  21.354  25.279  1.00  0.00     0.163 HD
BRANCH  10  12
ATOM     12  C   UNL A   1      41.717  24.500  26.417  1.00  0.00     0.039 A 
ATOM     13  C   UNL A   1      40.896  25.494  25.886  1.00  0.00     0.014 A 
ATOM     14  C   UNL A   1      42.409  24.780  27.616  1.00  0.00     0.014 A 
ATOM     15  C   UNL A   1      40.821  26.747  26.505  1.00  0.00     0.010 A 
ATOM     16  C   UNL A   1      42.335  26.025  28.237  1.00  0.00     0.010 A 
ATOM     17  C   UNL A   1      41.557  27.024  27.668  1.00  0.00    -0.014 A 
BRANCH  17  18
ATOM     18  C   UNL A   1      41.336  28.303  28.350  1.00  0.00     0.031 A 
ATOM     19  C   UNL A   1      42.402  29.320  28.111  1.00  0.00     0.074 A 
ATOM     20  C   UNL A   1      40.228  28.665  29.030  1.00  0.00     0.049 A 
ATOM     21  N   UNL A   1      43.220  29.830  28.971  1.00  0.00    -0.248 NA
ATOM     22  C   UNL A   1      42.636  29.760  26.727  1.00  0.00     0.031 C 
ATOM     23  C   UNL A   1      38.943  27.971  29.113  1.00  0.00     0.029 A 
ATOM     24  N   UNL A   1      40.002  29.811  29.744  1.00  0.00    -0.354 N 
ATOM     25  C   UNL A   1      43.969  30.780  28.279  1.00  0.00     0.074 A 
ATOM     26  C   UNL A   1      43.653  30.607  26.884  1.00  0.00     0.031 C 
ATOM     27  C   UNL A   1      38.021  28.796  29.665  1.00  0.00     0.029 A 
ATOM     28  C   UNL A   1      38.674  30.020  30.103  1.00  0.00     0.049 A 
ATOM     29  H   UNL A   1      40.722  30.438  29.986  1.00  0.00     0.167 HD
ATOM     30  C   UNL A   1      44.654  31.763  28.926  1.00  0.00     0.037 A 
ATOM     31  C   UNL A   1      38.151  31.133  30.681  1.00  0.00     0.037 A 
ATOM     32  C   UNL A   1      44.833  31.454  30.320  1.00  0.00     0.049 A 
ATOM     33  C   UNL A   1      39.261  31.882  31.312  1.00  0.00     0.074 A 
ATOM     34  C   UNL A   1      45.435  30.428  31.022  1.00  0.00     0.029 A 
ATOM     35  N   UNL A   1      44.044  32.110  31.230  1.00  0.00    -0.354 N 
ATOM     36  N   UNL A   1      39.903  31.498  32.376  1.00  0.00    -0.248 NA
ATOM     37  C   UNL A   1      39.915  32.916  30.524  1.00  0.00     0.031 C 
ATOM     38  C   UNL A   1      44.601  30.220  32.158  1.00  0.00     0.029 A 
ATOM     39  C   UNL A   1      43.577  31.168  32.107  1.00  0.00     0.049 A 
ATOM     40  H   UNL A   1      43.852  33.076  31.250  1.00  0.00     0.167 HD
ATOM     41  C   UNL A   1      41.211  31.893  32.153  1.00  0.00     0.074 A 
ATOM     42  C   UNL A   1      41.136  32.856  31.059  1.00  0.00     0.031 C 
ATOM     43  C   UNL A   1      42.255  31.195  32.684  1.00  0.00     0.037 A 
BRANCH  30  44
ATOM     44  C   UNL A   1      44.876  33.153  28.384  1.00  0.00     0.057 A 
ATOM     45  C   UNL A   1      46.063  33.567  27.749  1.00  0.00     0.134 A 
ATOM     46  C   UNL A   1      43.777  34.018  28.221  1.00  0.00     0.134 A 
ATOM     47  F   UNL A   1      47.166  32.808  27.731  1.00  0.00    -0.206 F 
ATOM     48  C   UNL A   1      46.150  34.746  27.001  1.00  0.00     0.040 A 
ATOM     49  C   UNL A   1      43.840  35.172  27.431  1.00  0.00     0.040 A 
ATOM     50  F   UNL A   1      42.582  33.724  28.756  1.00  0.00    -0.206 F 
ATOM     51  C   UNL A   1      45.029  35.537  26.814  1.00  0.00     0.006 A 
ENDBRANCH  30  44
BRANCH  31  52
ATOM     52  C   UNL A   1      36.816  31.759  30.525  1.00  0.00     0.057 A 
ATOM     53  C   UNL A   1      36.522  32.586  29.429  1.00  0.00     0.134 A 
ATOM     54  C   UNL A   1      35.919  31.828  31.604  1.00  0.00     0.134 A 
ATOM     55  F   UNL A   1      37.341  32.643  28.369  1.00  0.00    -0.206 F 
ATOM     56  C   UNL A   1      35.432  33.464  29.425  1.00  0.00     0.040 A 
ATOM     57  C   UNL A   1      34.827  32.707  31.616  1.00  0.00     0.040 A 
ATOM     58  F   UNL A   1      36.125  31.100  32.712  1.00  0.00    -0.206 F 
ATOM     59  C   UNL A   1      34.592  33.542  30.530  1.00  0.00     0.006 A 
ENDBRANCH  31  52
BRANCH  43  60
ATOM     60  C   UNL A   1      41.967  30.196  33.771  1.00  0.00     0.057 A 
ATOM     61  C   UNL A   1      42.195  30.581  35.098  1.00  0.00     0.134 A 
ATOM     62  C   UNL A   1      41.623  28.854  33.550  1.00  0.00     0.134 A 
ATOM     63  F   UNL A   1      42.575  31.837  35.382  1.00  0.00    -0.206 F 
ATOM     64  C   UNL A   1      42.087  29.680  36.159  1.00  0.00     0.040 A 
ATOM     65  C   UNL A   1      41.473  27.952  34.609  1.00  0.00     0.040 A 
ATOM     66  F   UNL A   1      41.481  28.363  32.312  1.00  0.00    -0.206 F 
ATOM     67  C   UNL A   1      41.715  28.361  35.916  1.00  0.00     0.006 A 
ENDBRANCH  43  60
ENDBRANCH  17  18
ENDBRANCH  10  12
ENDBRANCH   7   8
ENDBRANCH   6   7
ENDBRANCH   5   6
ENDBRANCH   1   5
BRANCH   2  68
ATOM     68  C   UNL A   1      34.994  22.486  24.607  1.00  0.00     0.076 A 
ATOM     69  C   UNL A   1      34.034  23.447  24.924  1.00  0.00     0.038 A 
ATOM     70  C   UNL A   1      34.839  21.182  25.069  1.00  0.00     0.136 A 
ATOM     71  C   UNL A   1      32.879  23.067  25.622  1.00  0.00     0.085 A 
ATOM     72  C   UNL A   1      33.683  20.803  25.754  1.00  0.00     0.041 A 
ATOM     73  F   UNL A   1      35.777  20.255  24.836  1.00  0.00    -0.206 F 
ATOM     74  C   UNL A   1      32.682  21.743  26.015  1.00  0.00     0.025 A 
BRANCH  71  75
ATOM     75  S   UNL A   1      31.725  24.351  25.974  1.00  0.00     0.257 S 
ATOM     76  O   UNL A   1      30.645  23.745  26.737  1.00  0.00    -0.205 OA
ATOM     77  O   UNL A   1      32.490  25.456  26.484  1.00  0.00    -0.205 OA
BRANCH  75  78
ATOM     78  N   UNL A   1      31.049  24.861  24.498  1.00  0.00    -0.123 NA
ATOM     79  H   UNL A   1      31.081  24.066  23.860  1.00  0.00     0.167 HD
BRANCH  78  80
ATOM     80  N   UNL A   1      29.690  25.352  24.499  1.00  0.00    -0.275 N 
ATOM     81  C   UNL A   1      29.245  26.529  23.955  1.00  0.00     0.265 C 
ATOM     82  H   UNL A   1      29.015  24.784  24.935  1.00  0.00     0.186 HD
ATOM     83  O   UNL A   1      28.021  26.695  23.879  1.00  0.00    -0.271 OA
BRANCH  81  84
ATOM     84  C   UNL A   1      30.209  27.648  23.551  1.00  0.00     0.244 C 
ATOM     85  C   UNL A   1      30.653  28.543  24.650  1.00  0.00     0.042 C 
ATOM     86  N   UNL A   1      31.487  27.082  23.051  1.00  0.00    -0.171 NA
ATOM     87  C   UNL A   1      31.987  28.504  24.610  1.00  0.00     0.091 C 
ATOM     88  N   UNL A   1      32.454  27.651  23.637  1.00  0.00    -0.155 NA
BRANCH  87  89
ATOM     89  C   UNL A   1      32.895  29.131  25.572  1.00  0.00     0.002 A 
ATOM     90  C   UNL A   1      34.093  28.521  25.957  1.00  0.00     0.010 A 
ATOM     91  C   UNL A   1      32.521  30.321  26.205  1.00  0.00     0.010 A 
ATOM     92  C   UNL A   1      34.875  29.080  26.975  1.00  0.00     0.001 A 
ATOM     93  C   UNL A   1      33.270  30.854  27.251  1.00  0.00     0.001 A 
ATOM     94  C   UNL A   1      34.450  30.231  27.638  1.00  0.00     0.000 A 
ENDBRANCH  87  89
ENDBRANCH  81  84
ENDBRANCH  78  80
ENDBRANCH  75  78
ENDBRANCH  71  75
ENDBRANCH   2  68
TORSDOF 15
ENDMDL
MODEL 2
REMARK VINA RESULT:     -12.6      2.843      8.290
REMARK SMILES O=C(NCCCNC(=O)c1cc(S(=O)(=O)NNC(=O)[C@H]2C=C(c3ccccc3)N=N2)ccc1F)c1ccc(-c2c3nc(c(-c4c(F)cccc4F)c4ccc([nH]4)c(-c4c(F)cccc4F)c4nc(c(-c5c(F)cccc5F)c5ccc2[nH]5)C=C4)C=C3)cc1
REMARK SMILES IDX 7 1 8 2 9 3 6 5 5 6 4 7 3 8 1 9 2 10 35 12 36 13 88 14 37 15
REMARK SMILES IDX 87 16 38 17 39 18 40 19 81 20 41 21 86 22 80 23 82 24 42 25
REMARK SMILES IDX 85 26 79 27 78 28 43 30 69 31 52 32 68 33 53 34 56 35 67 36
REMARK SMILES IDX 83 37 54 38 55 39 66 41 84 42 57 43 44 44 45 45 50 46 46 47
REMARK SMILES IDX 47 48 49 49 51 50 48 51 70 52 71 53 76 54 72 55 73 56 75 57
REMARK SMILES IDX 77 58 74 59 58 60 59 61 64 62 60 63 61 64 63 65 65 66 62 67
REMARK SMILES IDX 10 68 11 69 33 70 12 71 32 72 34 73 31 74 13 75 14 76 15 77
REMARK SMILES IDX 16 78 17 80 18 81 19 83 20 84 21 85 30 86 22 87 29 88 23 89
REMARK SMILES IDX 24 90 28 91 25 92 27 93 26 94
REMARK H PARENT 7 4 3 11 82 29 56 40 16 79 17 82
REMARK Flexibility Score: inf
ROOT
ATOM      1  N   UNL A   1      32.693  28.949  27.740  1.00  0.00    -0.352 N 
ATOM      2  C   UNL A   1      31.865  28.104  27.044  1.00  0.00     0.254 C 
ATOM      3  O   UNL A   1      31.016  27.442  27.635  1.00  0.00    -0.269 OA
ATOM      4  H   UNL A   1      32.564  28.955  28.716  1.00  0.00     0.163 HD
ENDROOT
BRANCH   1   5
ATOM      5  C   UNL A   1      33.735  29.839  27.246  1.00  0.00     0.118 C 
BRANCH   5   6
ATOM      6  C   UNL A   1      33.370  31.320  27.325  1.00  0.00     0.042 C 
BRANCH   6   7
ATOM      7  C   UNL A   1      34.427  32.220  27.959  1.00  0.00     0.118 C 
BRANCH   7   8
ATOM      8  N   UNL A   1      34.364  32.307  29.404  1.00  0.00    -0.352 N 
ATOM      9  O   UNL A   1      34.825  32.375  31.553  1.00  0.00    -0.269 OA
ATOM     10  C   UNL A   1      35.168  31.944  30.448  1.00  0.00     0.251 C 
ATOM     11  H   UNL A   1      33.534  32.738  29.712  1.00  0.00     0.163 HD
BRANCH  10  12
ATOM     12  C   UNL A   1      36.356  31.045  30.379  1.00  0.00     0.039 A 
ATOM     13  C   UNL A   1      36.347  29.653  30.458  1.00  0.00     0.014 A 
ATOM     14  C   UNL A   1      37.602  31.695  30.252  1.00  0.00     0.014 A 
ATOM     15  C   UNL A   1      37.553  28.943  30.471  1.00  0.00     0.010 A 
ATOM     16  C   UNL A   1      38.806  30.992  30.262  1.00  0.00     0.010 A 
ATOM     17  C   UNL A   1      38.785  29.611  30.396  1.00  0.00    -0.014 A 
BRANCH  17  18
ATOM     18  C   UNL A   1      40.010  28.814  30.275  1.00  0.00     0.031 A 
ATOM     19  C   UNL A   1      40.708  28.559  31.569  1.00  0.00     0.074 A 
ATOM     20  C   UNL A   1      40.457  28.201  29.159  1.00  0.00     0.049 A 
ATOM     21  N   UNL A   1      41.877  28.970  31.934  1.00  0.00    -0.248 NA
ATOM     22  C   UNL A   1      39.978  27.823  32.613  1.00  0.00     0.031 C 
ATOM     23  C   UNL A   1      39.776  28.036  27.875  1.00  0.00     0.029 A 
ATOM     24  N   UNL A   1      41.625  27.511  28.975  1.00  0.00    -0.354 N 
ATOM     25  C   UNL A   1      42.110  28.413  33.191  1.00  0.00     0.074 A 
ATOM     26  C   UNL A   1      40.865  27.821  33.608  1.00  0.00     0.031 C 
ATOM     27  C   UNL A   1      40.450  27.135  27.120  1.00  0.00     0.029 A 
ATOM     28  C   UNL A   1      41.681  26.764  27.802  1.00  0.00     0.049 A 
ATOM     29  H   UNL A   1      42.368  27.541  29.621  1.00  0.00     0.167 HD
ATOM     30  C   UNL A   1      43.364  28.319  33.712  1.00  0.00     0.037 A 
ATOM     31  C   UNL A   1      42.649  25.882  27.442  1.00  0.00     0.037 A 
ATOM     32  C   UNL A   1      44.286  29.190  33.032  1.00  0.00     0.049 A 
ATOM     33  C   UNL A   1      43.861  26.188  28.235  1.00  0.00     0.074 A 
ATOM     34  C   UNL A   1      44.364  30.552  32.819  1.00  0.00     0.029 A 
ATOM     35  N   UNL A   1      45.167  28.626  32.144  1.00  0.00    -0.354 N 
ATOM     36  N   UNL A   1      44.607  27.241  28.069  1.00  0.00    -0.248 NA
ATOM     37  C   UNL A   1      44.047  25.479  29.492  1.00  0.00     0.031 C 
ATOM     38  C   UNL A   1      44.889  30.689  31.502  1.00  0.00     0.029 A 
ATOM     39  C   UNL A   1      45.152  29.406  31.018  1.00  0.00     0.049 A 
ATOM     40  H   UNL A   1      45.707  27.816  32.290  1.00  0.00     0.167 HD
ATOM     41  C   UNL A   1      45.009  27.584  29.349  1.00  0.00     0.074 A 
ATOM     42  C   UNL A   1      44.732  26.405  30.164  1.00  0.00     0.031 C 
ATOM     43  C   UNL A   1      45.266  28.882  29.679  1.00  0.00     0.037 A 
BRANCH  30  44
ATOM     44  C   UNL A   1      43.837  27.205  34.612  1.00  0.00     0.057 A 
ATOM     45  C   UNL A   1      43.956  27.323  36.010  1.00  0.00     0.134 A 
ATOM     46  C   UNL A   1      43.895  25.889  34.117  1.00  0.00     0.134 A 
ATOM     47  F   UNL A   1      43.826  28.497  36.642  1.00  0.00    -0.206 F 
ATOM     48  C   UNL A   1      44.110  26.219  36.855  1.00  0.00     0.040 A 
ATOM     49  C   UNL A   1      43.996  24.773  34.957  1.00  0.00     0.040 A 
ATOM     50  F   UNL A   1      43.769  25.639  32.804  1.00  0.00    -0.206 F 
ATOM     51  C   UNL A   1      44.099  24.936  36.332  1.00  0.00     0.006 A 
ENDBRANCH  30  44
BRANCH  31  52
ATOM     52  C   UNL A   1      42.559  24.623  26.663  1.00  0.00     0.057 A 
ATOM     53  C   UNL A   1      42.036  23.450  27.231  1.00  0.00     0.134 A 
ATOM     54  C   UNL A   1      43.283  24.457  25.470  1.00  0.00     0.134 A 
ATOM     55  F   UNL A   1      41.378  23.483  28.399  1.00  0.00    -0.206 F 
ATOM     56  C   UNL A   1      42.259  22.186  26.674  1.00  0.00     0.040 A 
ATOM     57  C   UNL A   1      43.519  23.197  24.905  1.00  0.00     0.040 A 
ATOM     58  F   UNL A   1      43.849  25.511  24.863  1.00  0.00    -0.206 F 
ATOM     59  C   UNL A   1      43.020  22.053  25.519  1.00  0.00     0.006 A 
ENDBRANCH  31  52
BRANCH  43  60
ATOM     60  C   UNL A   1      45.423  29.884  28.568  1.00  0.00     0.057 A 
ATOM     61  C   UNL A   1      44.268  30.495  28.063  1.00  0.00     0.134 A 
ATOM     62  C   UNL A   1      46.625  30.150  27.898  1.00  0.00     0.134 A 
ATOM     63  F   UNL A   1      43.073  30.250  28.624  1.00  0.00    -0.206 F 
ATOM     64  C   UNL A   1      44.302  31.331  26.946  1.00  0.00     0.040 A 
ATOM     65  C   UNL A   1      46.678  31.018  26.801  1.00  0.00     0.040 A 
ATOM     66  F   UNL A   1      47.767  29.539  28.240  1.00  0.00    -0.206 F 
ATOM     67  C   UNL A   1      45.513  31.603  26.317  1.00  0.00     0.006 A 
ENDBRANCH  43  60
ENDBRANCH  17  18
ENDBRANCH  10  12
ENDBRANCH   7   8
ENDBRANCH   6   7
ENDBRANCH   5   6
ENDBRANCH   1   5
BRANCH   2  68
ATOM     68  C   UNL A   1      31.916  28.050  25.575  1.00  0.00     0.076 A 
ATOM     69  C   UNL A   1      32.435  26.900  24.981  1.00  0.00     0.038 A 
ATOM     70  C   UNL A   1      31.465  29.095  24.772  1.00  0.00     0.136 A 
ATOM     71  C   UNL A   1      32.408  26.771  23.584  1.00  0.00     0.085 A 
ATOM     72  C   UNL A   1      31.430  28.959  23.383  1.00  0.00     0.041 A 
ATOM     73  F   UNL A   1      31.023  30.237  25.316  1.00  0.00    -0.206 F 
ATOM     74  C   UNL A   1      31.882  27.783  22.780  1.00  0.00     0.025 A 
BRANCH  71  75
ATOM     75  S   UNL A   1      33.085  25.282  22.928  1.00  0.00     0.257 S 
ATOM     76  O   UNL A   1      33.055  25.412  21.479  1.00  0.00    -0.205 OA
ATOM     77  O   UNL A   1      34.308  25.042  23.644  1.00  0.00    -0.205 OA
BRANCH  75  78
ATOM     78  N   UNL A   1      32.025  24.012  23.323  1.00  0.00    -0.123 NA
ATOM     79  H   UNL A   1      31.082  24.400  23.344  1.00  0.00     0.167 HD
BRANCH  78  80
ATOM     80  N   UNL A   1      31.990  22.854  22.460  1.00  0.00    -0.275 N 
ATOM     81  C   UNL A   1      32.171  21.548  22.835  1.00  0.00     0.265 C 
ATOM     82  H   UNL A   1      31.819  23.019  21.505  1.00  0.00     0.186 HD
ATOM     83  O   UNL A   1      31.916  20.673  21.997  1.00  0.00    -0.271 OA
BRANCH  81  84
ATOM     84  C   UNL A   1      32.766  21.172  24.195  1.00  0.00     0.244 C 
ATOM     85  C   UNL A   1      34.249  21.112  24.254  1.00  0.00     0.042 C 
ATOM     86  N   UNL A   1      32.439  22.204  25.212  1.00  0.00    -0.171 NA
ATOM     87  C   UNL A   1      34.589  21.927  25.255  1.00  0.00     0.091 C 
ATOM     88  N   UNL A   1      33.496  22.541  25.821  1.00  0.00    -0.155 NA
BRANCH  87  89
ATOM     89  C   UNL A   1      35.953  22.302  25.635  1.00  0.00     0.002 A 
ATOM     90  C   UNL A   1      36.263  23.589  26.085  1.00  0.00     0.010 A 
ATOM     91  C   UNL A   1      36.997  21.389  25.455  1.00  0.00     0.010 A 
ATOM     92  C   UNL A   1      37.595  23.955  26.314  1.00  0.00     0.001 A 
ATOM     93  C   UNL A   1      38.327  21.763  25.636  1.00  0.00     0.001 A 
ATOM     94  C   UNL A   1      38.627  23.049  26.064  1.00  0.00     0.000 A 
ENDBRANCH  87  89
ENDBRANCH  81  84
ENDBRANCH  78  80
ENDBRANCH  75  78
ENDBRANCH  71  75
ENDBRANCH   2  68
TORSDOF 15
ENDMDL
MODEL 3
REMARK VINA RESULT:     -12.6      1.271      2.126
REMARK SMILES O=C(NCCCNC(=O)c1cc(S(=O)(=O)NNC(=O)[C@H]2C=C(c3ccccc3)N=N2)ccc1F)c1ccc(-c2c3nc(c(-c4c(F)cccc4F)c4ccc([nH]4)c(-c4c(F)cccc4F)c4nc(c(-c5c(F)cccc5F)c5ccc2[nH]5)C=C4)C=C3)cc1
REMARK SMILES IDX 7 1 8 2 9 3 6 5 5 6 4 7 3 8 1 9 2 10 35 12 36 13 88 14 37 15
REMARK SMILES IDX 87 16 38 17 39 18 40 19 81 20 41 21 86 22 80 23 82 24 42 25
REMARK SMILES IDX 85 26 79 27 78 28 43 30 69 31 52 32 68 33 53 34 56 35 67 36
REMARK SMILES IDX 83 37 54 38 55 39 66 41 84 42 57 43 44 44 45 45 50 46 46 47
REMARK SMILES IDX 47 48 49 49 51 50 48 51 70 52 71 53 76 54 72 55 73 56 75 57
REMARK SMILES IDX 77 58 74 59 58 60 59 61 64 62 60 63 61 64 63 65 65 66 62 67
REMARK SMILES IDX 10 68 11 69 33 70 12 71 32 72 34 73 31 74 13 75 14 76 15 77
REMARK SMILES IDX 16 78 17 80 18 81 19 83 20 84 21 85 30 86 22 87 29 88 23 89
REMARK SMILES IDX 24 90 28 91 25 92 27 93 26 94
REMARK H PARENT 7 4 3 11 82 29 56 40 16 79 17 82
REMARK Flexibility Score: inf
ROOT
ATOM      1  N   UNL A   1      37.487  22.704  24.408  1.00  0.00    -0.352 N 
ATOM      2  C   UNL A   1      36.249  22.624  23.822  1.00  0.00     0.254 C 
ATOM      3  O   UNL A   1      36.089  22.982  22.658  1.00  0.00    -0.269 OA
ATOM      4  H   UNL A   1      38.197  23.081  23.840  1.00  0.00     0.163 HD
ENDROOT
BRANCH   1   5
ATOM      5  C   UNL A   1      37.906  22.311  25.746  1.00  0.00     0.118 C 
BRANCH   5   6
ATOM      6  C   UNL A   1      39.014  21.261  25.763  1.00  0.00     0.042 C 
BRANCH   6   7
ATOM      7  C   UNL A   1      40.252  21.631  26.576  1.00  0.00     0.118 C 
BRANCH   7   8
ATOM      8  N   UNL A   1      41.395  22.046  25.789  1.00  0.00    -0.352 N 
ATOM      9  O   UNL A   1      43.239  22.987  25.049  1.00  0.00    -0.269 OA
ATOM     10  C   UNL A   1      42.259  23.105  25.791  1.00  0.00     0.251 C 
ATOM     11  H   UNL A   1      41.603  21.403  25.073  1.00  0.00     0.163 HD
BRANCH  10  12
ATOM     12  C   UNL A   1      42.094  24.381  26.544  1.00  0.00     0.039 A 
ATOM     13  C   UNL A   1      42.824  24.784  27.661  1.00  0.00     0.014 A 
ATOM     14  C   UNL A   1      41.069  25.233  26.078  1.00  0.00     0.014 A 
ATOM     15  C   UNL A   1      42.496  25.972  28.323  1.00  0.00     0.010 A 
ATOM     16  C   UNL A   1      40.740  26.418  26.733  1.00  0.00     0.010 A 
ATOM     17  C   UNL A   1      41.439  26.781  27.876  1.00  0.00    -0.014 A 
BRANCH  17  18
ATOM     18  C   UNL A   1      41.226  28.080  28.521  1.00  0.00     0.031 A 
ATOM     19  C   UNL A   1      42.268  29.101  28.209  1.00  0.00     0.074 A 
ATOM     20  C   UNL A   1      40.138  28.452  29.227  1.00  0.00     0.049 A 
ATOM     21  N   UNL A   1      43.109  29.651  29.022  1.00  0.00    -0.248 NA
ATOM     22  C   UNL A   1      42.448  29.495  26.803  1.00  0.00     0.031 C 
ATOM     23  C   UNL A   1      38.866  27.745  29.380  1.00  0.00     0.029 A 
ATOM     24  N   UNL A   1      39.922  29.619  29.909  1.00  0.00    -0.354 N 
ATOM     25  C   UNL A   1      43.821  30.585  28.270  1.00  0.00     0.074 A 
ATOM     26  C   UNL A   1      43.458  30.360  26.895  1.00  0.00     0.031 C 
ATOM     27  C   UNL A   1      37.953  28.578  29.937  1.00  0.00     0.029 A 
ATOM     28  C   UNL A   1      38.605  29.824  30.308  1.00  0.00     0.049 A 
ATOM     29  H   UNL A   1      40.641  30.263  30.103  1.00  0.00     0.167 HD
ATOM     30  C   UNL A   1      44.515  31.598  28.858  1.00  0.00     0.037 A 
ATOM     31  C   UNL A   1      38.087  30.949  30.866  1.00  0.00     0.037 A 
ATOM     32  C   UNL A   1      44.747  31.340  30.255  1.00  0.00     0.049 A 
ATOM     33  C   UNL A   1      39.208  31.735  31.430  1.00  0.00     0.074 A 
ATOM     34  C   UNL A   1      45.388  30.347  30.969  1.00  0.00     0.029 A 
ATOM     35  N   UNL A   1      43.982  32.019  31.169  1.00  0.00    -0.354 N 
ATOM     36  N   UNL A   1      39.892  31.395  32.484  1.00  0.00    -0.248 NA
ATOM     37  C   UNL A   1      39.820  32.748  30.585  1.00  0.00     0.031 C 
ATOM     38  C   UNL A   1      44.597  30.169  32.142  1.00  0.00     0.029 A 
ATOM     39  C   UNL A   1      43.559  31.101  32.095  1.00  0.00     0.049 A 
ATOM     40  H   UNL A   1      43.777  32.982  31.162  1.00  0.00     0.167 HD
ATOM     41  C   UNL A   1      41.186  31.798  32.200  1.00  0.00     0.074 A 
ATOM     42  C   UNL A   1      41.059  32.722  31.077  1.00  0.00     0.031 C 
ATOM     43  C   UNL A   1      42.258  31.132  32.717  1.00  0.00     0.037 A 
BRANCH  30  44
ATOM     44  C   UNL A   1      44.698  32.971  28.261  1.00  0.00     0.057 A 
ATOM     45  C   UNL A   1      45.810  33.346  27.483  1.00  0.00     0.134 A 
ATOM     46  C   UNL A   1      43.605  33.857  28.207  1.00  0.00     0.134 A 
ATOM     47  F   UNL A   1      46.889  32.563  27.354  1.00  0.00    -0.206 F 
ATOM     48  C   UNL A   1      45.832  34.506  26.701  1.00  0.00     0.040 A 
ATOM     49  C   UNL A   1      43.597  34.992  27.387  1.00  0.00     0.040 A 
ATOM     50  F   UNL A   1      42.475  33.601  28.884  1.00  0.00    -0.206 F 
ATOM     51  C   UNL A   1      44.713  35.317  26.627  1.00  0.00     0.006 A 
ENDBRANCH  30  44
BRANCH  31  52
ATOM     52  C   UNL A   1      36.739  31.553  30.736  1.00  0.00     0.057 A 
ATOM     53  C   UNL A   1      36.330  32.175  29.546  1.00  0.00     0.134 A 
ATOM     54  C   UNL A   1      35.955  31.824  31.871  1.00  0.00     0.134 A 
ATOM     55  F   UNL A   1      37.037  32.034  28.415  1.00  0.00    -0.206 F 
ATOM     56  C   UNL A   1      35.239  33.051  29.496  1.00  0.00     0.040 A 
ATOM     57  C   UNL A   1      34.865  32.703  31.837  1.00  0.00     0.040 A 
ATOM     58  F   UNL A   1      36.278  31.302  33.064  1.00  0.00    -0.206 F 
ATOM     59  C   UNL A   1      34.515  33.335  30.648  1.00  0.00     0.006 A 
ENDBRANCH  31  52
BRANCH  43  60
ATOM     60  C   UNL A   1      42.022  30.168  33.847  1.00  0.00     0.057 A 
ATOM     61  C   UNL A   1      42.342  30.584  35.146  1.00  0.00     0.134 A 
ATOM     62  C   UNL A   1      41.641  28.828  33.686  1.00  0.00     0.134 A 
ATOM     63  F   UNL A   1      42.762  31.839  35.371  1.00  0.00    -0.206 F 
ATOM     64  C   UNL A   1      42.286  29.714  36.236  1.00  0.00     0.040 A 
ATOM     65  C   UNL A   1      41.543  27.957  34.777  1.00  0.00     0.040 A 
ATOM     66  F   UNL A   1      41.411  28.307  32.474  1.00  0.00    -0.206 F 
ATOM     67  C   UNL A   1      41.875  28.397  36.055  1.00  0.00     0.006 A 
ENDBRANCH  43  60
ENDBRANCH  17  18
ENDBRANCH  10  12
ENDBRANCH   7   8
ENDBRANCH   6   7
ENDBRANCH   5   6
ENDBRANCH   1   5
BRANCH   2  68
ATOM     68  C   UNL A   1      35.118  22.021  24.543  1.00  0.00     0.076 A 
ATOM     69  C   UNL A   1      34.049  22.847  24.892  1.00  0.00     0.038 A 
ATOM     70  C   UNL A   1      35.081  20.670  24.882  1.00  0.00     0.136 A 
ATOM     71  C   UNL A   1      32.911  22.289  25.492  1.00  0.00     0.085 A 
ATOM     72  C   UNL A   1      33.943  20.116  25.469  1.00  0.00     0.041 A 
ATOM     73  F   UNL A   1      36.122  19.869  24.618  1.00  0.00    -0.206 F 
ATOM     74  C   UNL A   1      32.838  20.921  25.758  1.00  0.00     0.025 A 
BRANCH  71  75
ATOM     75  S   UNL A   1      31.614  23.412  25.894  1.00  0.00     0.257 S 
ATOM     76  O   UNL A   1      30.649  23.342  24.807  1.00  0.00    -0.205 OA
ATOM     77  O   UNL A   1      31.246  23.138  27.256  1.00  0.00    -0.205 OA
BRANCH  75  78
ATOM     78  N   UNL A   1      32.262  24.985  25.866  1.00  0.00    -0.123 NA
ATOM     79  H   UNL A   1      32.008  25.401  24.970  1.00  0.00     0.167 HD
BRANCH  78  80
ATOM     80  N   UNL A   1      31.857  25.912  26.897  1.00  0.00    -0.275 N 
ATOM     81  C   UNL A   1      31.540  27.236  26.729  1.00  0.00     0.265 C 
ATOM     82  H   UNL A   1      31.805  25.559  27.814  1.00  0.00     0.186 HD
ATOM     83  O   UNL A   1      31.030  27.826  27.689  1.00  0.00    -0.271 OA
BRANCH  81  84
ATOM     84  C   UNL A   1      31.894  27.995  25.447  1.00  0.00     0.244 C 
ATOM     85  C   UNL A   1      30.793  28.140  24.460  1.00  0.00     0.042 C 
ATOM     86  N   UNL A   1      32.247  29.404  25.755  1.00  0.00    -0.171 NA
ATOM     87  C   UNL A   1      30.703  29.453  24.232  1.00  0.00     0.091 C 
ATOM     88  N   UNL A   1      31.594  30.175  24.992  1.00  0.00    -0.155 NA
BRANCH  87  89
ATOM     89  C   UNL A   1      29.685  30.118  23.417  1.00  0.00     0.002 A 
ATOM     90  C   UNL A   1      29.373  29.678  22.127  1.00  0.00     0.010 A 
ATOM     91  C   UNL A   1      29.072  31.283  23.890  1.00  0.00     0.010 A 
ATOM     92  C   UNL A   1      28.492  30.413  21.325  1.00  0.00     0.001 A 
ATOM     93  C   UNL A   1      28.233  32.042  23.079  1.00  0.00     0.001 A 
ATOM     94  C   UNL A   1      27.943  31.608  21.792  1.00  0.00     0.000 A 
ENDBRANCH  87  89
ENDBRANCH  81  84
ENDBRANCH  78  80
ENDBRANCH  75  78
ENDBRANCH  71  75
ENDBRANCH   2  68
TORSDOF 15
ENDMDL
