MODEL 1
REMARK VINA RESULT:     -11.7      0.000      0.000
REMARK SMILES C[C@@H]1[C@@H](C(=O)NCCCNC(=O)c2ccc(-c3c4nc(c(-c5c(F)cccc5F)c5ccc([nH]5)c(-c5c(F)cccc5F)c5nc(c(-c6c(F)cccc6F)c6ccc3[nH]6)C=C5)C=C4)cc2)CCN1c1ccc(C(F)(F)F)cc1C#N
REMARK SMILES IDX 8 1 7 2 6 3 4 4 5 5 3 7 1 8 2 9 69 10 67 11 68 12 70 13
REMARK SMILES IDX 71 14 79 15 72 16 78 17 73 18 80 19 81 20 74 21 75 22 76 23
REMARK SMILES IDX 77 24 9 25 10 26 11 27 12 29 13 30 14 31 66 32 15 33 65 34
REMARK SMILES IDX 16 35 17 36 18 37 59 38 19 39 64 40 58 41 60 42 20 43 63 44
REMARK SMILES IDX 57 45 56 46 21 48 47 49 30 50 46 51 31 52 34 53 45 54 61 55
REMARK SMILES IDX 32 56 33 57 44 59 62 60 35 61 22 62 23 63 28 64 24 65 25 66
REMARK SMILES IDX 27 67 29 68 26 69 48 70 49 71 54 72 50 73 51 74 53 75 55 76
REMARK SMILES IDX 52 77 36 78 37 79 42 80 38 81 39 82 41 83 43 84 40 85
REMARK H PARENT 6 6 10 28 60 47 34 58
REMARK Flexibility Score: inf
ROOT
ATOM      1  C   UNL A   1      37.850  19.891  24.868  1.00  0.00     0.042 C 
ENDROOT
BRANCH   1   2
ATOM      2  C   UNL A   1      36.597  20.724  25.038  1.00  0.00     0.117 C 
BRANCH   2   3
ATOM      3  N   UNL A   1      36.537  21.873  24.157  1.00  0.00    -0.356 N 
ATOM      4  C   UNL A   1      35.488  22.693  23.871  1.00  0.00     0.225 C 
ATOM      5  O   UNL A   1      35.715  23.632  23.108  1.00  0.00    -0.275 OA
ATOM      6  H   UNL A   1      37.378  22.092  23.698  1.00  0.00     0.163 HD
BRANCH   4   7
ATOM      7  C   UNL A   1      34.099  22.366  24.406  1.00  0.00     0.102 C 
ATOM      8  C   UNL A   1      31.744  22.954  23.731  1.00  0.00     0.032 C 
ATOM      9  C   UNL A   1      33.108  23.529  24.113  1.00  0.00     0.091 C 
ATOM     10  N   UNL A   1      33.034  24.259  25.401  1.00  0.00    -0.367 N 
ATOM     11  C   UNL A   1      34.000  22.218  25.928  1.00  0.00     0.037 C 
ATOM     12  C   UNL A   1      33.893  23.649  26.405  1.00  0.00     0.118 C 
BRANCH  10  13
ATOM     13  C   UNL A   1      32.819  25.624  25.486  1.00  0.00     0.055 A 
ATOM     14  C   UNL A   1      33.856  26.528  25.188  1.00  0.00     0.028 A 
ATOM     15  C   UNL A   1      31.618  26.156  25.989  1.00  0.00     0.076 A 
ATOM     16  C   UNL A   1      33.732  27.899  25.436  1.00  0.00     0.015 A 
ATOM     17  C   UNL A   1      31.486  27.538  26.215  1.00  0.00     0.034 A 
ATOM     18  C   UNL A   1      32.547  28.418  25.965  1.00  0.00     0.057 A 
BRANCH  15  19
ATOM     19  C   UNL A   1      30.519  25.315  26.372  1.00  0.00     0.101 C 
ATOM     20  N   UNL A   1      29.660  24.619  26.727  1.00  0.00    -0.192 NA
ENDBRANCH  15  19
BRANCH  18  21
ATOM     21  C   UNL A   1      32.442  29.885  26.301  1.00  0.00     0.416 C 
ATOM     22  F   UNL A   1      31.839  30.095  27.504  1.00  0.00    -0.166 F 
ATOM     23  F   UNL A   1      33.656  30.495  26.376  1.00  0.00    -0.166 F 
ATOM     24  F   UNL A   1      31.719  30.596  25.392  1.00  0.00    -0.166 F 
ENDBRANCH  18  21
ENDBRANCH  10  13
ENDBRANCH   4   7
ENDBRANCH   2   3
ENDBRANCH   1   2
BRANCH   1  25
ATOM     25  C   UNL A   1      39.018  20.319  25.737  1.00  0.00     0.118 C 
BRANCH  25  26
ATOM     26  N   UNL A   1      40.105  19.350  25.767  1.00  0.00    -0.352 N 
ATOM     27  C   UNL A   1      41.435  19.514  26.081  1.00  0.00     0.251 C 
ATOM     28  H   UNL A   1      39.848  18.431  25.524  1.00  0.00     0.163 HD
ATOM     29  O   UNL A   1      42.224  18.593  25.902  1.00  0.00    -0.269 OA
BRANCH  27  30
ATOM     30  C   UNL A   1      41.921  20.816  26.591  1.00  0.00     0.039 A 
ATOM     31  C   UNL A   1      42.310  21.800  25.681  1.00  0.00     0.014 A 
ATOM     32  C   UNL A   1      41.968  21.076  27.961  1.00  0.00     0.014 A 
ATOM     33  C   UNL A   1      42.650  23.073  26.144  1.00  0.00     0.010 A 
ATOM     34  C   UNL A   1      42.178  22.375  28.409  1.00  0.00     0.010 A 
ATOM     35  C   UNL A   1      42.532  23.388  27.508  1.00  0.00    -0.014 A 
BRANCH  35  36
ATOM     36  C   UNL A   1      42.787  24.759  28.018  1.00  0.00     0.031 A 
ATOM     37  C   UNL A   1      44.177  25.164  28.430  1.00  0.00     0.074 A 
ATOM     38  C   UNL A   1      41.760  25.618  28.176  1.00  0.00     0.049 A 
ATOM     39  N   UNL A   1      44.588  26.283  28.969  1.00  0.00    -0.248 NA
ATOM     40  C   UNL A   1      45.243  24.165  28.243  1.00  0.00     0.031 C 
ATOM     41  C   UNL A   1      40.357  25.332  27.865  1.00  0.00     0.029 A 
ATOM     42  N   UNL A   1      41.736  26.908  28.647  1.00  0.00    -0.354 N 
ATOM     43  C   UNL A   1      45.948  26.117  29.197  1.00  0.00     0.074 A 
ATOM     44  C   UNL A   1      46.281  24.765  28.806  1.00  0.00     0.031 C 
ATOM     45  C   UNL A   1      39.618  26.423  28.119  1.00  0.00     0.029 A 
ATOM     46  C   UNL A   1      40.481  27.469  28.656  1.00  0.00     0.049 A 
ATOM     47  H   UNL A   1      42.542  27.385  28.950  1.00  0.00     0.167 HD
ATOM     48  C   UNL A   1      46.848  27.016  29.658  1.00  0.00     0.037 A 
ATOM     49  C   UNL A   1      40.073  28.687  29.059  1.00  0.00     0.037 A 
ATOM     50  C   UNL A   1      46.519  28.367  30.027  1.00  0.00     0.049 A 
ATOM     51  C   UNL A   1      41.088  29.661  29.591  1.00  0.00     0.074 A 
ATOM     52  C   UNL A   1      47.366  29.374  30.455  1.00  0.00     0.029 A 
ATOM     53  N   UNL A   1      45.239  28.900  30.013  1.00  0.00    -0.354 N 
ATOM     54  N   UNL A   1      42.383  29.513  29.734  1.00  0.00    -0.248 NA
ATOM     55  C   UNL A   1      40.585  30.977  30.012  1.00  0.00     0.031 C 
ATOM     56  C   UNL A   1      46.592  30.498  30.755  1.00  0.00     0.029 A 
ATOM     57  C   UNL A   1      45.270  30.214  30.452  1.00  0.00     0.049 A 
ATOM     58  H   UNL A   1      44.428  28.417  29.733  1.00  0.00     0.167 HD
ATOM     59  C   UNL A   1      42.853  30.723  30.228  1.00  0.00     0.074 A 
ATOM     60  C   UNL A   1      41.706  31.599  30.347  1.00  0.00     0.031 C 
ATOM     61  C   UNL A   1      44.120  31.076  30.555  1.00  0.00     0.037 A 
BRANCH  48  62
ATOM     62  C   UNL A   1      48.276  26.565  29.787  1.00  0.00     0.057 A 
ATOM     63  C   UNL A   1      49.217  26.786  28.772  1.00  0.00     0.134 A 
ATOM     64  C   UNL A   1      48.724  25.930  30.952  1.00  0.00     0.134 A 
ATOM     65  F   UNL A   1      48.853  27.377  27.624  1.00  0.00    -0.206 F 
ATOM     66  C   UNL A   1      50.542  26.365  28.899  1.00  0.00     0.040 A 
ATOM     67  C   UNL A   1      50.054  25.534  31.104  1.00  0.00     0.040 A 
ATOM     68  F   UNL A   1      47.879  25.691  31.967  1.00  0.00    -0.206 F 
ATOM     69  C   UNL A   1      50.965  25.744  30.071  1.00  0.00     0.006 A 
ENDBRANCH  48  62
BRANCH  49  70
ATOM     70  C   UNL A   1      38.639  29.067  28.957  1.00  0.00     0.057 A 
ATOM     71  C   UNL A   1      38.100  29.535  27.753  1.00  0.00     0.134 A 
ATOM     72  C   UNL A   1      37.779  28.988  30.059  1.00  0.00     0.134 A 
ATOM     73  F   UNL A   1      38.877  29.650  26.665  1.00  0.00    -0.206 F 
ATOM     74  C   UNL A   1      36.766  29.935  27.653  1.00  0.00     0.040 A 
ATOM     75  C   UNL A   1      36.435  29.356  29.966  1.00  0.00     0.040 A 
ATOM     76  F   UNL A   1      38.229  28.538  31.240  1.00  0.00    -0.206 F 
ATOM     77  C   UNL A   1      35.929  29.842  28.763  1.00  0.00     0.006 A 
ENDBRANCH  49  70
BRANCH  61  78
ATOM     78  C   UNL A   1      44.343  32.485  31.027  1.00  0.00     0.057 A 
ATOM     79  C   UNL A   1      44.582  33.540  30.137  1.00  0.00     0.134 A 
ATOM     80  C   UNL A   1      44.275  32.795  32.392  1.00  0.00     0.134 A 
ATOM     81  F   UNL A   1      44.670  33.309  28.818  1.00  0.00    -0.206 F 
ATOM     82  C   UNL A   1      44.771  34.846  30.588  1.00  0.00     0.040 A 
ATOM     83  C   UNL A   1      44.431  34.103  32.853  1.00  0.00     0.040 A 
ATOM     84  F   UNL A   1      44.038  31.835  33.298  1.00  0.00    -0.206 F 
ATOM     85  C   UNL A   1      44.688  35.132  31.950  1.00  0.00     0.006 A 
ENDBRANCH  61  78
ENDBRANCH  35  36
ENDBRANCH  27  30
ENDBRANCH  25  26
ENDBRANCH   1  25
TORSDOF 13
ENDMDL
MODEL 2
REMARK VINA RESULT:     -11.6      1.137      1.807
REMARK SMILES C[C@@H]1[C@@H](C(=O)NCCCNC(=O)c2ccc(-c3c4nc(c(-c5c(F)cccc5F)c5ccc([nH]5)c(-c5c(F)cccc5F)c5nc(c(-c6c(F)cccc6F)c6ccc3[nH]6)C=C5)C=C4)cc2)CCN1c1ccc(C(F)(F)F)cc1C#N
REMARK SMILES IDX 8 1 7 2 6 3 4 4 5 5 3 7 1 8 2 9 69 10 67 11 68 12 70 13
REMARK SMILES IDX 71 14 79 15 72 16 78 17 73 18 80 19 81 20 74 21 75 22 76 23
REMARK SMILES IDX 77 24 9 25 10 26 11 27 12 29 13 30 14 31 66 32 15 33 65 34
REMARK SMILES IDX 16 35 17 36 18 37 59 38 19 39 64 40 58 41 60 42 20 43 63 44
REMARK SMILES IDX 57 45 56 46 21 48 47 49 30 50 46 51 31 52 34 53 45 54 61 55
REMARK SMILES IDX 32 56 33 57 44 59 62 60 35 61 22 62 23 63 28 64 24 65 25 66
REMARK SMILES IDX 27 67 29 68 26 69 48 70 49 71 54 72 50 73 51 74 53 75 55 76
REMARK SMILES IDX 52 77 36 78 37 79 42 80 38 81 39 82 41 83 43 84 40 85
REMARK H PARENT 6 6 10 28 60 47 34 58
REMARK Flexibility Score: inf
ROOT
ATOM      1  C   UNL A   1      38.127  19.642  24.923  1.00  0.00     0.042 C 
ENDROOT
BRANCH   1   2
ATOM      2  C   UNL A   1      36.878  20.481  25.092  1.00  0.00     0.117 C 
BRANCH   2   3
ATOM      3  N   UNL A   1      36.839  21.648  24.234  1.00  0.00    -0.356 N 
ATOM      4  C   UNL A   1      35.778  22.414  23.857  1.00  0.00     0.225 C 
ATOM      5  O   UNL A   1      36.024  23.385  23.142  1.00  0.00    -0.275 OA
ATOM      6  H   UNL A   1      37.708  21.928  23.870  1.00  0.00     0.163 HD
BRANCH   4   7
ATOM      7  C   UNL A   1      34.363  21.992  24.237  1.00  0.00     0.102 C 
ATOM      8  C   UNL A   1      32.050  22.588  23.439  1.00  0.00     0.032 C 
ATOM      9  C   UNL A   1      33.358  23.154  23.992  1.00  0.00     0.091 C 
ATOM     10  N   UNL A   1      33.156  23.734  25.340  1.00  0.00    -0.367 N 
ATOM     11  C   UNL A   1      34.150  21.674  25.721  1.00  0.00     0.037 C 
ATOM     12  C   UNL A   1      33.954  23.039  26.340  1.00  0.00     0.118 C 
BRANCH  10  13
ATOM     13  C   UNL A   1      32.887  25.074  25.556  1.00  0.00     0.055 A 
ATOM     14  C   UNL A   1      33.852  26.053  25.252  1.00  0.00     0.028 A 
ATOM     15  C   UNL A   1      31.709  25.502  26.195  1.00  0.00     0.076 A 
ATOM     16  C   UNL A   1      33.687  27.392  25.622  1.00  0.00     0.015 A 
ATOM     17  C   UNL A   1      31.533  26.853  26.544  1.00  0.00     0.034 A 
ATOM     18  C   UNL A   1      32.528  27.804  26.284  1.00  0.00     0.057 A 
BRANCH  15  19
ATOM     19  C   UNL A   1      30.686  24.576  26.593  1.00  0.00     0.101 C 
ATOM     20  N   UNL A   1      29.878  23.831  26.967  1.00  0.00    -0.192 NA
ENDBRANCH  15  19
BRANCH  18  21
ATOM     21  C   UNL A   1      32.383  29.233  26.748  1.00  0.00     0.416 C 
ATOM     22  F   UNL A   1      31.456  29.361  27.736  1.00  0.00    -0.166 F 
ATOM     23  F   UNL A   1      33.541  29.741  27.250  1.00  0.00    -0.166 F 
ATOM     24  F   UNL A   1      31.995  30.085  25.759  1.00  0.00    -0.166 F 
ENDBRANCH  18  21
ENDBRANCH  10  13
ENDBRANCH   4   7
ENDBRANCH   2   3
ENDBRANCH   1   2
BRANCH   1  25
ATOM     25  C   UNL A   1      39.260  19.995  25.868  1.00  0.00     0.118 C 
BRANCH  25  26
ATOM     26  N   UNL A   1      40.327  19.003  25.892  1.00  0.00    -0.352 N 
ATOM     27  C   UNL A   1      41.678  19.156  26.101  1.00  0.00     0.251 C 
ATOM     28  H   UNL A   1      40.035  18.076  25.734  1.00  0.00     0.163 HD
ATOM     29  O   UNL A   1      42.434  18.204  25.934  1.00  0.00    -0.269 OA
BRANCH  27  30
ATOM     30  C   UNL A   1      42.225  20.477  26.483  1.00  0.00     0.039 A 
ATOM     31  C   UNL A   1      42.709  21.326  25.485  1.00  0.00     0.014 A 
ATOM     32  C   UNL A   1      42.238  20.890  27.815  1.00  0.00     0.014 A 
ATOM     33  C   UNL A   1      43.110  22.622  25.816  1.00  0.00     0.010 A 
ATOM     34  C   UNL A   1      42.512  22.217  28.123  1.00  0.00     0.010 A 
ATOM     35  C   UNL A   1      42.961  23.097  27.129  1.00  0.00    -0.014 A 
BRANCH  35  36
ATOM     36  C   UNL A   1      43.282  24.502  27.493  1.00  0.00     0.031 A 
ATOM     37  C   UNL A   1      44.716  24.959  27.539  1.00  0.00     0.074 A 
ATOM     38  C   UNL A   1      42.293  25.346  27.846  1.00  0.00     0.049 A 
ATOM     39  N   UNL A   1      45.204  26.117  27.907  1.00  0.00    -0.248 NA
ATOM     40  C   UNL A   1      45.741  23.974  27.156  1.00  0.00     0.031 C 
ATOM     41  C   UNL A   1      40.867  25.012  27.894  1.00  0.00     0.029 A 
ATOM     42  N   UNL A   1      42.337  26.660  28.242  1.00  0.00    -0.354 N 
ATOM     43  C   UNL A   1      46.584  25.993  27.811  1.00  0.00     0.074 A 
ATOM     44  C   UNL A   1      46.861  24.628  27.423  1.00  0.00     0.031 C 
ATOM     45  C   UNL A   1      40.172  26.101  28.260  1.00  0.00     0.029 A 
ATOM     46  C   UNL A   1      41.101  27.195  28.521  1.00  0.00     0.049 A 
ATOM     47  H   UNL A   1      43.174  27.172  28.319  1.00  0.00     0.167 HD
ATOM     48  C   UNL A   1      47.536  26.937  27.998  1.00  0.00     0.037 A 
ATOM     49  C   UNL A   1      40.758  28.425  28.946  1.00  0.00     0.037 A 
ATOM     50  C   UNL A   1      47.257  28.299  28.363  1.00  0.00     0.049 A 
ATOM     51  C   UNL A   1      41.836  29.450  29.170  1.00  0.00     0.074 A 
ATOM     52  C   UNL A   1      48.146  29.347  28.525  1.00  0.00     0.029 A 
ATOM     53  N   UNL A   1      45.993  28.803  28.628  1.00  0.00    -0.354 N 
ATOM     54  N   UNL A   1      43.132  29.338  29.007  1.00  0.00    -0.248 NA
ATOM     55  C   UNL A   1      41.402  30.777  29.630  1.00  0.00     0.031 C 
ATOM     56  C   UNL A   1      47.426  30.471  28.942  1.00  0.00     0.029 A 
ATOM     57  C   UNL A   1      46.081  30.141  28.978  1.00  0.00     0.049 A 
ATOM     58  H   UNL A   1      45.156  28.287  28.575  1.00  0.00     0.167 HD
ATOM     59  C   UNL A   1      43.664  30.585  29.311  1.00  0.00     0.074 A 
ATOM     60  C   UNL A   1      42.548  31.442  29.655  1.00  0.00     0.031 C 
ATOM     61  C   UNL A   1      44.959  30.983  29.308  1.00  0.00     0.037 A 
BRANCH  48  62
ATOM     62  C   UNL A   1      48.968  26.525  27.806  1.00  0.00     0.057 A 
ATOM     63  C   UNL A   1      49.762  26.083  28.874  1.00  0.00     0.134 A 
ATOM     64  C   UNL A   1      49.554  26.540  26.534  1.00  0.00     0.134 A 
ATOM     65  F   UNL A   1      49.269  26.056  30.122  1.00  0.00    -0.206 F 
ATOM     66  C   UNL A   1      51.092  25.701  28.689  1.00  0.00     0.040 A 
ATOM     67  C   UNL A   1      50.873  26.130  26.331  1.00  0.00     0.040 A 
ATOM     68  F   UNL A   1      48.852  26.946  25.464  1.00  0.00    -0.206 F 
ATOM     69  C   UNL A   1      51.648  25.717  27.412  1.00  0.00     0.006 A 
ENDBRANCH  48  62
BRANCH  49  70
ATOM     70  C   UNL A   1      39.328  28.768  29.169  1.00  0.00     0.057 A 
ATOM     71  C   UNL A   1      38.542  29.292  28.137  1.00  0.00     0.134 A 
ATOM     72  C   UNL A   1      38.719  28.596  30.418  1.00  0.00     0.134 A 
ATOM     73  F   UNL A   1      39.072  29.496  26.922  1.00  0.00    -0.206 F 
ATOM     74  C   UNL A   1      37.210  29.658  28.343  1.00  0.00     0.040 A 
ATOM     75  C   UNL A   1      37.380  28.930  30.631  1.00  0.00     0.040 A 
ATOM     76  F   UNL A   1      39.414  28.089  31.448  1.00  0.00    -0.206 F 
ATOM     77  C   UNL A   1      36.625  29.472  29.594  1.00  0.00     0.006 A 
ENDBRANCH  49  70
BRANCH  61  78
ATOM     78  C   UNL A   1      45.239  32.422  29.639  1.00  0.00     0.057 A 
ATOM     79  C   UNL A   1      45.541  32.840  30.941  1.00  0.00     0.134 A 
ATOM     80  C   UNL A   1      45.246  33.394  28.631  1.00  0.00     0.134 A 
ATOM     81  F   UNL A   1      45.539  31.962  31.955  1.00  0.00    -0.206 F 
ATOM     82  C   UNL A   1      45.814  34.177  31.232  1.00  0.00     0.040 A 
ATOM     83  C   UNL A   1      45.550  34.729  28.904  1.00  0.00     0.040 A 
ATOM     84  F   UNL A   1      44.977  33.060  27.360  1.00  0.00    -0.206 F 
ATOM     85  C   UNL A   1      45.827  35.124  30.211  1.00  0.00     0.006 A 
ENDBRANCH  61  78
ENDBRANCH  35  36
ENDBRANCH  27  30
ENDBRANCH  25  26
ENDBRANCH   1  25
TORSDOF 13
ENDMDL
MODEL 3
REMARK VINA RESULT:     -11.5      4.476      9.369
REMARK SMILES C[C@@H]1[C@@H](C(=O)NCCCNC(=O)c2ccc(-c3c4nc(c(-c5c(F)cccc5F)c5ccc([nH]5)c(-c5c(F)cccc5F)c5nc(c(-c6c(F)cccc6F)c6ccc3[nH]6)C=C5)C=C4)cc2)CCN1c1ccc(C(F)(F)F)cc1C#N
REMARK SMILES IDX 8 1 7 2 6 3 4 4 5 5 3 7 1 8 2 9 69 10 67 11 68 12 70 13
REMARK SMILES IDX 71 14 79 15 72 16 78 17 73 18 80 19 81 20 74 21 75 22 76 23
REMARK SMILES IDX 77 24 9 25 10 26 11 27 12 29 13 30 14 31 66 32 15 33 65 34
REMARK SMILES IDX 16 35 17 36 18 37 59 38 19 39 64 40 58 41 60 42 20 43 63 44
REMARK SMILES IDX 57 45 56 46 21 48 47 49 30 50 46 51 31 52 34 53 45 54 61 55
REMARK SMILES IDX 32 56 33 57 44 59 62 60 35 61 22 62 23 63 28 64 24 65 25 66
REMARK SMILES IDX 27 67 29 68 26 69 48 70 49 71 54 72 50 73 51 74 53 75 55 76
REMARK SMILES IDX 52 77 36 78 37 79 42 80 38 81 39 82 41 83 43 84 40 85
REMARK H PARENT 6 6 10 28 60 47 34 58
REMARK Flexibility Score: inf
ROOT
ATOM      1  C   UNL A   1      31.407  32.130  26.865  1.00  0.00     0.042 C 
ENDROOT
BRANCH   1   2
ATOM      2  C   UNL A   1      31.627  30.902  26.007  1.00  0.00     0.117 C 
BRANCH   2   3
ATOM      3  N   UNL A   1      31.784  29.679  26.767  1.00  0.00    -0.356 N 
ATOM      4  C   UNL A   1      31.838  28.389  26.335  1.00  0.00     0.225 C 
ATOM      5  O   UNL A   1      32.018  27.527  27.195  1.00  0.00    -0.275 OA
ATOM      6  H   UNL A   1      31.864  29.799  27.740  1.00  0.00     0.163 HD
BRANCH   4   7
ATOM      7  C   UNL A   1      31.578  28.066  24.869  1.00  0.00     0.102 C 
ATOM      8  C   UNL A   1      30.528  26.144  23.624  1.00  0.00     0.032 C 
ATOM      9  C   UNL A   1      31.615  26.530  24.628  1.00  0.00     0.091 C 
ATOM     10  N   UNL A   1      32.964  26.295  24.064  1.00  0.00    -0.367 N 
ATOM     11  C   UNL A   1      32.635  28.583  23.886  1.00  0.00     0.037 C 
ATOM     12  C   UNL A   1      33.721  27.535  23.968  1.00  0.00     0.118 C 
BRANCH  10  13
ATOM     13  C   UNL A   1      33.676  25.125  24.265  1.00  0.00     0.055 A 
ATOM     14  C   UNL A   1      34.278  24.862  25.510  1.00  0.00     0.028 A 
ATOM     15  C   UNL A   1      33.934  24.224  23.216  1.00  0.00     0.076 A 
ATOM     16  C   UNL A   1      35.151  23.785  25.693  1.00  0.00     0.015 A 
ATOM     17  C   UNL A   1      34.793  23.127  23.409  1.00  0.00     0.034 A 
ATOM     18  C   UNL A   1      35.427  22.911  24.639  1.00  0.00     0.057 A 
BRANCH  15  19
ATOM     19  C   UNL A   1      33.410  24.430  21.895  1.00  0.00     0.101 C 
ATOM     20  N   UNL A   1      33.037  24.617  20.811  1.00  0.00    -0.192 NA
ENDBRANCH  15  19
BRANCH  18  21
ATOM     21  C   UNL A   1      36.425  21.794  24.818  1.00  0.00     0.416 C 
ATOM     22  F   UNL A   1      37.488  21.913  23.975  1.00  0.00    -0.166 F 
ATOM     23  F   UNL A   1      36.946  21.751  26.075  1.00  0.00    -0.166 F 
ATOM     24  F   UNL A   1      35.901  20.558  24.586  1.00  0.00    -0.166 F 
ENDBRANCH  18  21
ENDBRANCH  10  13
ENDBRANCH   4   7
ENDBRANCH   2   3
ENDBRANCH   1   2
BRANCH   1  25
ATOM     25  C   UNL A   1      32.671  32.893  27.213  1.00  0.00     0.118 C 
BRANCH  25  26
ATOM     26  N   UNL A   1      32.423  34.264  27.638  1.00  0.00    -0.352 N 
ATOM     27  C   UNL A   1      33.057  35.029  28.590  1.00  0.00     0.251 C 
ATOM     28  H   UNL A   1      31.686  34.717  27.168  1.00  0.00     0.163 HD
ATOM     29  O   UNL A   1      32.597  36.123  28.902  1.00  0.00    -0.269 OA
BRANCH  27  30
ATOM     30  C   UNL A   1      34.265  34.514  29.272  1.00  0.00     0.039 A 
ATOM     31  C   UNL A   1      34.128  33.876  30.507  1.00  0.00     0.014 A 
ATOM     32  C   UNL A   1      35.524  34.633  28.686  1.00  0.00     0.014 A 
ATOM     33  C   UNL A   1      35.241  33.274  31.100  1.00  0.00     0.010 A 
ATOM     34  C   UNL A   1      36.599  33.925  29.209  1.00  0.00     0.010 A 
ATOM     35  C   UNL A   1      36.474  33.245  30.428  1.00  0.00    -0.014 A 
BRANCH  35  36
ATOM     36  C   UNL A   1      37.649  32.525  30.984  1.00  0.00     0.031 A 
ATOM     37  C   UNL A   1      38.322  33.033  32.232  1.00  0.00     0.074 A 
ATOM     38  C   UNL A   1      38.153  31.459  30.332  1.00  0.00     0.049 A 
ATOM     39  N   UNL A   1      39.401  32.592  32.827  1.00  0.00    -0.248 NA
ATOM     40  C   UNL A   1      37.723  34.213  32.877  1.00  0.00     0.031 C 
ATOM     41  C   UNL A   1      37.627  30.899  29.084  1.00  0.00     0.029 A 
ATOM     42  N   UNL A   1      39.229  30.658  30.624  1.00  0.00    -0.354 N 
ATOM     43  C   UNL A   1      39.614  33.446  33.902  1.00  0.00     0.074 A 
ATOM     44  C   UNL A   1      38.598  34.472  33.837  1.00  0.00     0.031 C 
ATOM     45  C   UNL A   1      38.358  29.827  28.740  1.00  0.00     0.029 A 
ATOM     46  C   UNL A   1      39.433  29.651  29.710  1.00  0.00     0.049 A 
ATOM     47  H   UNL A   1      39.802  30.792  31.414  1.00  0.00     0.167 HD
ATOM     48  C   UNL A   1      40.551  33.366  34.876  1.00  0.00     0.037 A 
ATOM     49  C   UNL A   1      40.383  28.698  29.658  1.00  0.00     0.037 A 
ATOM     50  C   UNL A   1      41.548  32.333  34.952  1.00  0.00     0.049 A 
ATOM     51  C   UNL A   1      41.427  28.645  30.739  1.00  0.00     0.074 A 
ATOM     52  C   UNL A   1      42.508  32.132  35.927  1.00  0.00     0.029 A 
ATOM     53  N   UNL A   1      41.715  31.326  34.012  1.00  0.00    -0.354 N 
ATOM     54  N   UNL A   1      41.573  29.418  31.788  1.00  0.00    -0.248 NA
ATOM     55  C   UNL A   1      42.436  27.582  30.632  1.00  0.00     0.031 C 
ATOM     56  C   UNL A   1      43.293  31.038  35.549  1.00  0.00     0.029 A 
ATOM     57  C   UNL A   1      42.781  30.518  34.371  1.00  0.00     0.049 A 
ATOM     58  H   UNL A   1      41.158  31.205  33.209  1.00  0.00     0.167 HD
ATOM     59  C   UNL A   1      42.667  28.915  32.482  1.00  0.00     0.074 A 
ATOM     60  C   UNL A   1      43.137  27.763  31.742  1.00  0.00     0.031 C 
ATOM     61  C   UNL A   1      43.230  29.368  33.629  1.00  0.00     0.037 A 
BRANCH  48  62
ATOM     62  C   UNL A   1      40.536  34.428  35.941  1.00  0.00     0.057 A 
ATOM     63  C   UNL A   1      41.303  35.597  35.832  1.00  0.00     0.134 A 
ATOM     64  C   UNL A   1      39.724  34.295  37.074  1.00  0.00     0.134 A 
ATOM     65  F   UNL A   1      42.114  35.782  34.779  1.00  0.00    -0.206 F 
ATOM     66  C   UNL A   1      41.285  36.579  36.824  1.00  0.00     0.040 A 
ATOM     67  C   UNL A   1      39.673  35.285  38.056  1.00  0.00     0.040 A 
ATOM     68  F   UNL A   1      38.960  33.205  37.241  1.00  0.00    -0.206 F 
ATOM     69  C   UNL A   1      40.461  36.427  37.937  1.00  0.00     0.006 A 
ENDBRANCH  48  62
BRANCH  49  70
ATOM     70  C   UNL A   1      40.382  27.701  28.555  1.00  0.00     0.057 A 
ATOM     71  C   UNL A   1      41.091  27.935  27.371  1.00  0.00     0.134 A 
ATOM     72  C   UNL A   1      39.664  26.503  28.649  1.00  0.00     0.134 A 
ATOM     73  F   UNL A   1      41.784  29.072  27.212  1.00  0.00    -0.206 F 
ATOM     74  C   UNL A   1      41.065  27.028  26.309  1.00  0.00     0.040 A 
ATOM     75  C   UNL A   1      39.654  25.573  27.608  1.00  0.00     0.040 A 
ATOM     76  F   UNL A   1      38.972  26.212  29.761  1.00  0.00    -0.206 F 
ATOM     77  C   UNL A   1      40.347  25.839  26.430  1.00  0.00     0.006 A 
ENDBRANCH  49  70
BRANCH  61  78
ATOM     78  C   UNL A   1      44.390  28.588  34.181  1.00  0.00     0.057 A 
ATOM     79  C   UNL A   1      45.718  28.912  33.876  1.00  0.00     0.134 A 
ATOM     80  C   UNL A   1      44.172  27.523  35.065  1.00  0.00     0.134 A 
ATOM     81  F   UNL A   1      45.995  29.913  33.027  1.00  0.00    -0.206 F 
ATOM     82  C   UNL A   1      46.786  28.190  34.409  1.00  0.00     0.040 A 
ATOM     83  C   UNL A   1      45.233  26.814  35.630  1.00  0.00     0.040 A 
ATOM     84  F   UNL A   1      42.926  27.167  35.410  1.00  0.00    -0.206 F 
ATOM     85  C   UNL A   1      46.545  27.142  35.295  1.00  0.00     0.006 A 
ENDBRANCH  61  78
ENDBRANCH  35  36
ENDBRANCH  27  30
ENDBRANCH  25  26
ENDBRANCH   1  25
TORSDOF 13
ENDMDL
