MODEL 1
REMARK VINA RESULT:     -12.9      0.000      0.000
REMARK SMILES COc1cccc(C(=O)NNC(=O)[C@H]2CC(C)=C(C)C[C@@H]2C(=O)NCCCNC(=O)c2ccc(-c3c4nc(c(-c5c(F)cccc5F)c5ccc([nH]5)c(-c5c(F)cccc5F)c5nc(c(-c6c(F)cccc6F)c6ccc3[nH]6)C=C5)C=C4)cc2)c1
REMARK SMILES IDX 25 1 24 2 22 3 23 4 21 6 14 7 15 8 16 9 20 10 17 11 18 12
REMARK SMILES IDX 19 13 12 14 11 15 13 17 10 18 8 19 9 20 7 22 3 23 4 24 85 25
REMARK SMILES IDX 5 26 6 27 2 28 1 29 26 30 27 31 28 32 29 33 30 35 31 36
REMARK SMILES IDX 32 37 84 38 33 39 83 40 34 41 35 42 36 43 77 44 37 45 82 46
REMARK SMILES IDX 76 47 78 48 38 49 81 50 75 51 74 52 39 54 65 55 48 56 64 57
REMARK SMILES IDX 49 58 52 59 63 60 79 61 50 62 51 63 62 65 80 66 53 67 40 68
REMARK SMILES IDX 41 69 46 70 42 71 43 72 45 73 47 74 44 75 66 76 67 77 72 78
REMARK SMILES IDX 68 79 69 80 71 81 73 82 70 83 54 84 55 85 60 86 56 87 57 88
REMARK SMILES IDX 59 89 61 90 58 91
REMARK H PARENT 24 5 11 16 10 21 28 34 78 53 52 64
REMARK Flexibility Score: inf
ROOT
ATOM      1  C   UNL A   1      36.296  23.827  25.915  1.00  0.00     0.117 C 
ENDROOT
BRANCH   1   2
ATOM      2  N   UNL A   1      35.485  23.013  26.804  1.00  0.00    -0.356 N 
ATOM      3  C   UNL A   1      34.660  21.963  26.516  1.00  0.00     0.224 C 
ATOM      4  O   UNL A   1      34.069  21.434  27.457  1.00  0.00    -0.275 OA
ATOM      5  H   UNL A   1      35.537  23.254  27.757  1.00  0.00     0.163 HD
BRANCH   3   6
ATOM      6  C   UNL A   1      34.514  21.500  25.060  1.00  0.00     0.095 C 
ATOM      7  C   UNL A   1      33.045  21.675  24.574  1.00  0.00     0.097 C 
ATOM      8  C   UNL A   1      32.414  20.462  23.876  1.00  0.00     0.045 C 
ATOM      9  C   UNL A   1      33.070  19.112  23.995  1.00  0.00    -0.074 C 
ATOM     10  C   UNL A   1      35.147  20.106  24.920  1.00  0.00     0.045 C 
ATOM     11  C   UNL A   1      32.207  17.963  23.540  1.00  0.00     0.039 C 
ATOM     12  C   UNL A   1      34.324  18.958  24.447  1.00  0.00    -0.074 C 
ATOM     13  C   UNL A   1      35.044  17.631  24.483  1.00  0.00     0.039 C 
BRANCH   7  14
ATOM     14  C   UNL A   1      32.926  22.984  23.755  1.00  0.00     0.242 C 
ATOM     15  N   UNL A   1      32.378  24.111  24.321  1.00  0.00    -0.267 N 
ATOM     16  H   UNL A   1      32.674  24.985  23.978  1.00  0.00     0.191 HD
ATOM     17  O   UNL A   1      33.394  23.110  22.619  1.00  0.00    -0.273 OA
BRANCH  15  18
ATOM     18  N   UNL A   1      31.442  24.104  25.335  1.00  0.00    -0.263 N 
ATOM     19  C   UNL A   1      30.612  25.158  25.682  1.00  0.00     0.269 C 
ATOM     20  O   UNL A   1      29.768  24.974  26.560  1.00  0.00    -0.267 OA
ATOM     21  H   UNL A   1      31.356  23.276  25.860  1.00  0.00     0.191 HD
BRANCH  19  22
ATOM     22  C   UNL A   1      30.779  26.532  25.117  1.00  0.00     0.045 A 
ATOM     23  C   UNL A   1      31.659  28.795  25.105  1.00  0.00     0.119 A 
ATOM     24  C   UNL A   1      30.784  29.125  24.067  1.00  0.00     0.046 A 
ATOM     25  C   UNL A   1      31.693  27.484  25.593  1.00  0.00     0.060 A 
ATOM     26  C   UNL A   1      29.938  28.164  23.521  1.00  0.00     0.005 A 
ATOM     27  C   UNL A   1      29.930  26.876  24.052  1.00  0.00     0.014 A 
BRANCH  23  28
ATOM     28  O   UNL A   1      32.415  29.841  25.559  1.00  0.00    -0.497 OA
ATOM     29  C   UNL A   1      31.736  30.897  26.227  1.00  0.00     0.278 C 
ENDBRANCH  23  28
ENDBRANCH  19  22
ENDBRANCH  15  18
ENDBRANCH   7  14
ENDBRANCH   3   6
ENDBRANCH   1   2
BRANCH   1  30
ATOM     30  C   UNL A   1      37.691  23.262  25.724  1.00  0.00     0.042 C 
BRANCH  30  31
ATOM     31  C   UNL A   1      38.712  23.811  26.705  1.00  0.00     0.118 C 
BRANCH  31  32
ATOM     32  N   UNL A   1      40.033  23.979  26.115  1.00  0.00    -0.352 N 
ATOM     33  C   UNL A   1      40.958  24.979  26.285  1.00  0.00     0.251 C 
ATOM     34  H   UNL A   1      40.305  23.262  25.496  1.00  0.00     0.163 HD
ATOM     35  O   UNL A   1      41.939  25.035  25.554  1.00  0.00    -0.269 OA
BRANCH  33  36
ATOM     36  C   UNL A   1      40.758  25.997  27.338  1.00  0.00     0.039 A 
ATOM     37  C   UNL A   1      39.867  25.727  28.380  1.00  0.00     0.014 A 
ATOM     38  C   UNL A   1      41.439  27.214  27.294  1.00  0.00     0.014 A 
ATOM     39  C   UNL A   1      39.711  26.655  29.411  1.00  0.00     0.010 A 
ATOM     40  C   UNL A   1      41.364  28.088  28.373  1.00  0.00     0.010 A 
ATOM     41  C   UNL A   1      40.486  27.827  29.433  1.00  0.00    -0.014 A 
BRANCH  41  42
ATOM     42  C   UNL A   1      40.369  28.811  30.538  1.00  0.00     0.031 A 
ATOM     43  C   UNL A   1      39.331  29.899  30.465  1.00  0.00     0.074 A 
ATOM     44  C   UNL A   1      41.225  28.758  31.576  1.00  0.00     0.049 A 
ATOM     45  N   UNL A   1      39.111  30.891  31.289  1.00  0.00    -0.248 NA
ATOM     46  C   UNL A   1      38.440  29.888  29.292  1.00  0.00     0.031 C 
ATOM     47  C   UNL A   1      42.302  27.780  31.742  1.00  0.00     0.029 A 
ATOM     48  N   UNL A   1      41.327  29.553  32.690  1.00  0.00    -0.354 N 
ATOM     49  C   UNL A   1      38.069  31.621  30.733  1.00  0.00     0.074 A 
ATOM     50  C   UNL A   1      37.748  31.004  29.465  1.00  0.00     0.031 C 
ATOM     51  C   UNL A   1      42.932  28.010  32.905  1.00  0.00     0.029 A 
ATOM     52  C   UNL A   1      42.335  29.177  33.545  1.00  0.00     0.049 A 
ATOM     53  H   UNL A   1      40.735  30.321  32.861  1.00  0.00     0.167 HD
ATOM     54  C   UNL A   1      37.414  32.690  31.244  1.00  0.00     0.037 A 
ATOM     55  C   UNL A   1      42.733  29.718  34.712  1.00  0.00     0.037 A 
ATOM     56  C   UNL A   1      37.723  33.289  32.514  1.00  0.00     0.049 A 
ATOM     57  C   UNL A   1      42.006  30.923  35.245  1.00  0.00     0.074 A 
ATOM     58  C   UNL A   1      37.099  34.354  33.140  1.00  0.00     0.029 A 
ATOM     59  N   UNL A   1      38.745  32.874  33.355  1.00  0.00    -0.354 N 
ATOM     60  N   UNL A   1      40.985  31.568  34.735  1.00  0.00    -0.248 NA
ATOM     61  C   UNL A   1      42.484  31.469  36.523  1.00  0.00     0.031 C 
ATOM     62  C   UNL A   1      37.772  34.612  34.339  1.00  0.00     0.029 A 
ATOM     63  C   UNL A   1      38.779  33.671  34.487  1.00  0.00     0.049 A 
ATOM     64  H   UNL A   1      39.357  32.124  33.174  1.00  0.00     0.167 HD
ATOM     65  C   UNL A   1      40.672  32.568  35.647  1.00  0.00     0.074 A 
ATOM     66  C   UNL A   1      41.604  32.435  36.747  1.00  0.00     0.031 C 
ATOM     67  C   UNL A   1      39.700  33.510  35.582  1.00  0.00     0.037 A 
BRANCH  54  68
ATOM     68  C   UNL A   1      36.289  33.265  30.433  1.00  0.00     0.057 A 
ATOM     69  C   UNL A   1      34.949  32.966  30.714  1.00  0.00     0.134 A 
ATOM     70  C   UNL A   1      36.544  34.152  29.379  1.00  0.00     0.134 A 
ATOM     71  F   UNL A   1      34.635  32.113  31.701  1.00  0.00    -0.206 F 
ATOM     72  C   UNL A   1      33.905  33.505  29.960  1.00  0.00     0.040 A 
ATOM     73  C   UNL A   1      35.506  34.722  28.638  1.00  0.00     0.040 A 
ATOM     74  F   UNL A   1      37.803  34.486  29.058  1.00  0.00    -0.206 F 
ATOM     75  C   UNL A   1      34.183  34.392  28.924  1.00  0.00     0.006 A 
ENDBRANCH  54  68
BRANCH  55  76
ATOM     76  C   UNL A   1      43.856  29.115  35.476  1.00  0.00     0.057 A 
ATOM     77  C   UNL A   1      45.175  29.539  35.274  1.00  0.00     0.134 A 
ATOM     78  C   UNL A   1      43.647  28.083  36.399  1.00  0.00     0.134 A 
ATOM     79  F   UNL A   1      45.442  30.514  34.391  1.00  0.00    -0.206 F 
ATOM     80  C   UNL A   1      46.247  28.938  35.935  1.00  0.00     0.040 A 
ATOM     81  C   UNL A   1      44.707  27.492  37.088  1.00  0.00     0.040 A 
ATOM     82  F   UNL A   1      42.407  27.636  36.646  1.00  0.00    -0.206 F 
ATOM     83  C   UNL A   1      46.014  27.912  36.848  1.00  0.00     0.006 A 
ENDBRANCH  55  76
BRANCH  67  84
ATOM     84  C   UNL A   1      39.556  34.433  36.759  1.00  0.00     0.057 A 
ATOM     85  C   UNL A   1      38.854  34.064  37.913  1.00  0.00     0.134 A 
ATOM     86  C   UNL A   1      40.158  35.698  36.743  1.00  0.00     0.134 A 
ATOM     87  F   UNL A   1      38.244  32.872  37.987  1.00  0.00    -0.206 F 
ATOM     88  C   UNL A   1      38.731  34.933  38.999  1.00  0.00     0.040 A 
ATOM     89  C   UNL A   1      40.070  36.562  37.835  1.00  0.00     0.040 A 
ATOM     90  F   UNL A   1      40.855  36.109  35.673  1.00  0.00    -0.206 F 
ATOM     91  C   UNL A   1      39.347  36.184  38.964  1.00  0.00     0.006 A 
ENDBRANCH  67  84
ENDBRANCH  41  42
ENDBRANCH  33  36
ENDBRANCH  31  32
ENDBRANCH  30  31
ENDBRANCH   1  30
TORSDOF 14
ENDMDL
MODEL 2
REMARK VINA RESULT:     -12.8      5.155     10.468
REMARK SMILES COc1cccc(C(=O)NNC(=O)[C@H]2CC(C)=C(C)C[C@@H]2C(=O)NCCCNC(=O)c2ccc(-c3c4nc(c(-c5c(F)cccc5F)c5ccc([nH]5)c(-c5c(F)cccc5F)c5nc(c(-c6c(F)cccc6F)c6ccc3[nH]6)C=C5)C=C4)cc2)c1
REMARK SMILES IDX 25 1 24 2 22 3 23 4 21 6 14 7 15 8 16 9 20 10 17 11 18 12
REMARK SMILES IDX 19 13 12 14 11 15 13 17 10 18 8 19 9 20 7 22 3 23 4 24 85 25
REMARK SMILES IDX 5 26 6 27 2 28 1 29 26 30 27 31 28 32 29 33 30 35 31 36
REMARK SMILES IDX 32 37 84 38 33 39 83 40 34 41 35 42 36 43 77 44 37 45 82 46
REMARK SMILES IDX 76 47 78 48 38 49 81 50 75 51 74 52 39 54 65 55 48 56 64 57
REMARK SMILES IDX 49 58 52 59 63 60 79 61 50 62 51 63 62 65 80 66 53 67 40 68
REMARK SMILES IDX 41 69 46 70 42 71 43 72 45 73 47 74 44 75 66 76 67 77 72 78
REMARK SMILES IDX 68 79 69 80 71 81 73 82 70 83 54 84 55 85 60 86 56 87 57 88
REMARK SMILES IDX 59 89 61 90 58 91
REMARK H PARENT 24 5 11 16 10 21 28 34 78 53 52 64
REMARK Flexibility Score: inf
ROOT
ATOM      1  C   UNL A   1      33.958  27.664  26.093  1.00  0.00     0.117 C 
ENDROOT
BRANCH   1   2
ATOM      2  N   UNL A   1      33.997  28.312  24.793  1.00  0.00    -0.356 N 
ATOM      3  C   UNL A   1      32.970  28.740  24.001  1.00  0.00     0.224 C 
ATOM      4  O   UNL A   1      33.266  29.262  22.926  1.00  0.00    -0.275 OA
ATOM      5  H   UNL A   1      34.898  28.466  24.429  1.00  0.00     0.163 HD
BRANCH   3   6
ATOM      6  C   UNL A   1      31.524  28.556  24.481  1.00  0.00     0.095 C 
ATOM      7  C   UNL A   1      30.805  27.456  23.645  1.00  0.00     0.097 C 
ATOM      8  C   UNL A   1      29.420  27.823  23.093  1.00  0.00     0.045 C 
ATOM      9  C   UNL A   1      28.985  29.264  23.076  1.00  0.00    -0.074 C 
ATOM     10  C   UNL A   1      30.853  29.937  24.565  1.00  0.00     0.045 C 
ATOM     11  C   UNL A   1      27.760  29.530  22.239  1.00  0.00     0.039 C 
ATOM     12  C   UNL A   1      29.626  30.218  23.769  1.00  0.00    -0.074 C 
ATOM     13  C   UNL A   1      29.156  31.650  23.853  1.00  0.00     0.039 C 
BRANCH   7  14
ATOM     14  C   UNL A   1      30.819  26.121  24.431  1.00  0.00     0.242 C 
ATOM     15  N   UNL A   1      31.707  25.127  24.097  1.00  0.00    -0.267 N 
ATOM     16  H   UNL A   1      31.988  24.507  24.808  1.00  0.00     0.191 HD
ATOM     17  O   UNL A   1      30.122  25.925  25.431  1.00  0.00    -0.273 OA
BRANCH  15  18
ATOM     18  N   UNL A   1      32.233  24.935  22.835  1.00  0.00    -0.263 N 
ATOM     19  C   UNL A   1      33.082  23.908  22.457  1.00  0.00     0.269 C 
ATOM     20  O   UNL A   1      33.404  23.822  21.271  1.00  0.00    -0.267 OA
ATOM     21  H   UNL A   1      31.982  25.587  22.142  1.00  0.00     0.191 HD
BRANCH  19  22
ATOM     22  C   UNL A   1      33.709  22.978  23.445  1.00  0.00     0.045 A 
ATOM     23  C   UNL A   1      35.496  22.231  24.910  1.00  0.00     0.119 A 
ATOM     24  C   UNL A   1      34.834  21.013  25.089  1.00  0.00     0.046 A 
ATOM     25  C   UNL A   1      34.906  23.232  24.131  1.00  0.00     0.060 A 
ATOM     26  C   UNL A   1      33.599  20.784  24.490  1.00  0.00     0.005 A 
ATOM     27  C   UNL A   1      33.045  21.759  23.663  1.00  0.00     0.014 A 
BRANCH  23  28
ATOM     28  O   UNL A   1      36.709  22.310  25.537  1.00  0.00    -0.497 OA
ATOM     29  C   UNL A   1      37.312  23.595  25.632  1.00  0.00     0.278 C 
ENDBRANCH  23  28
ENDBRANCH  19  22
ENDBRANCH  15  18
ENDBRANCH   7  14
ENDBRANCH   3   6
ENDBRANCH   1   2
BRANCH   1  30
ATOM     30  C   UNL A   1      33.876  28.660  27.235  1.00  0.00     0.042 C 
BRANCH  30  31
ATOM     31  C   UNL A   1      35.216  29.267  27.614  1.00  0.00     0.118 C 
BRANCH  31  32
ATOM     32  N   UNL A   1      35.159  30.041  28.847  1.00  0.00    -0.352 N 
ATOM     33  C   UNL A   1      36.147  30.330  29.755  1.00  0.00     0.251 C 
ATOM     34  H   UNL A   1      34.274  30.416  29.061  1.00  0.00     0.163 HD
ATOM     35  O   UNL A   1      35.857  30.843  30.830  1.00  0.00    -0.269 OA
BRANCH  33  36
ATOM     36  C   UNL A   1      37.554  30.005  29.444  1.00  0.00     0.039 A 
ATOM     37  C   UNL A   1      38.401  29.599  30.479  1.00  0.00     0.014 A 
ATOM     38  C   UNL A   1      38.040  30.105  28.140  1.00  0.00     0.014 A 
ATOM     39  C   UNL A   1      39.716  29.234  30.191  1.00  0.00     0.010 A 
ATOM     40  C   UNL A   1      39.315  29.640  27.838  1.00  0.00     0.010 A 
ATOM     41  C   UNL A   1      40.173  29.218  28.863  1.00  0.00    -0.014 A 
BRANCH  41  42
ATOM     42  C   UNL A   1      41.554  28.795  28.525  1.00  0.00     0.031 A 
ATOM     43  C   UNL A   1      41.833  27.357  28.176  1.00  0.00     0.074 A 
ATOM     44  C   UNL A   1      42.562  29.688  28.582  1.00  0.00     0.049 A 
ATOM     45  N   UNL A   1      42.976  26.775  27.917  1.00  0.00    -0.248 NA
ATOM     46  C   UNL A   1      40.677  26.446  28.144  1.00  0.00     0.031 C 
ATOM     47  C   UNL A   1      42.428  31.099  28.948  1.00  0.00     0.029 A 
ATOM     48  N   UNL A   1      43.903  29.536  28.335  1.00  0.00    -0.354 N 
ATOM     49  C   UNL A   1      42.677  25.436  27.702  1.00  0.00     0.074 A 
ATOM     50  C   UNL A   1      41.258  25.276  27.932  1.00  0.00     0.031 C 
ATOM     51  C   UNL A   1      43.630  31.691  28.868  1.00  0.00     0.029 A 
ATOM     52  C   UNL A   1      44.626  30.695  28.489  1.00  0.00     0.049 A 
ATOM     53  H   UNL A   1      44.310  28.679  28.072  1.00  0.00     0.167 HD
ATOM     54  C   UNL A   1      43.501  24.434  27.314  1.00  0.00     0.037 A 
ATOM     55  C   UNL A   1      45.945  30.923  28.344  1.00  0.00     0.037 A 
ATOM     56  C   UNL A   1      44.908  24.601  27.067  1.00  0.00     0.049 A 
ATOM     57  C   UNL A   1      46.844  29.787  27.940  1.00  0.00     0.074 A 
ATOM     58  C   UNL A   1      45.826  23.658  26.639  1.00  0.00     0.029 A 
ATOM     59  N   UNL A   1      45.601  25.792  27.226  1.00  0.00    -0.354 N 
ATOM     60  N   UNL A   1      46.537  28.538  27.684  1.00  0.00    -0.248 NA
ATOM     61  C   UNL A   1      48.273  30.095  27.797  1.00  0.00     0.031 C 
ATOM     62  C   UNL A   1      47.083  24.268  26.582  1.00  0.00     0.029 A 
ATOM     63  C   UNL A   1      46.938  25.605  26.918  1.00  0.00     0.049 A 
ATOM     64  H   UNL A   1      45.202  26.644  27.515  1.00  0.00     0.167 HD
ATOM     65  C   UNL A   1      47.725  27.923  27.309  1.00  0.00     0.074 A 
ATOM     66  C   UNL A   1      48.755  28.940  27.360  1.00  0.00     0.031 C 
ATOM     67  C   UNL A   1      47.945  26.634  26.954  1.00  0.00     0.037 A 
BRANCH  54  68
ATOM     68  C   UNL A   1      42.894  23.074  27.120  1.00  0.00     0.057 A 
ATOM     69  C   UNL A   1      42.612  22.231  28.204  1.00  0.00     0.134 A 
ATOM     70  C   UNL A   1      42.556  22.614  25.841  1.00  0.00     0.134 A 
ATOM     71  F   UNL A   1      42.924  22.604  29.454  1.00  0.00    -0.206 F 
ATOM     72  C   UNL A   1      42.045  20.969  28.021  1.00  0.00     0.040 A 
ATOM     73  C   UNL A   1      41.958  21.366  25.649  1.00  0.00     0.040 A 
ATOM     74  F   UNL A   1      42.792  23.371  24.759  1.00  0.00    -0.206 F 
ATOM     75  C   UNL A   1      41.709  20.537  26.741  1.00  0.00     0.006 A 
ENDBRANCH  54  68
BRANCH  55  76
ATOM     76  C   UNL A   1      46.499  32.286  28.553  1.00  0.00     0.057 A 
ATOM     77  C   UNL A   1      46.894  32.716  29.826  1.00  0.00     0.134 A 
ATOM     78  C   UNL A   1      46.618  33.201  27.500  1.00  0.00     0.134 A 
ATOM     79  F   UNL A   1      46.790  31.892  30.879  1.00  0.00    -0.206 F 
ATOM     80  C   UNL A   1      47.355  34.015  30.050  1.00  0.00     0.040 A 
ATOM     81  C   UNL A   1      47.104  34.493  27.705  1.00  0.00     0.040 A 
ATOM     82  F   UNL A   1      46.266  32.850  26.255  1.00  0.00    -0.206 F 
ATOM     83  C   UNL A   1      47.464  34.907  28.986  1.00  0.00     0.006 A 
ENDBRANCH  55  76
BRANCH  67  84
ATOM     84  C   UNL A   1      49.339  26.264  26.534  1.00  0.00     0.057 A 
ATOM     85  C   UNL A   1      49.804  26.472  25.229  1.00  0.00     0.134 A 
ATOM     86  C   UNL A   1      50.236  25.719  27.461  1.00  0.00     0.134 A 
ATOM     87  F   UNL A   1      48.991  26.979  24.289  1.00  0.00    -0.206 F 
ATOM     88  C   UNL A   1      51.103  26.124  24.855  1.00  0.00     0.040 A 
ATOM     89  C   UNL A   1      51.547  25.397  27.108  1.00  0.00     0.040 A 
ATOM     90  F   UNL A   1      49.858  25.503  28.730  1.00  0.00    -0.206 F 
ATOM     91  C   UNL A   1      51.981  25.592  25.798  1.00  0.00     0.006 A 
ENDBRANCH  67  84
ENDBRANCH  41  42
ENDBRANCH  33  36
ENDBRANCH  31  32
ENDBRANCH  30  31
ENDBRANCH   1  30
TORSDOF 14
ENDMDL
MODEL 3
REMARK VINA RESULT:     -12.8      0.707      6.166
REMARK SMILES COc1cccc(C(=O)NNC(=O)[C@H]2CC(C)=C(C)C[C@@H]2C(=O)NCCCNC(=O)c2ccc(-c3c4nc(c(-c5c(F)cccc5F)c5ccc([nH]5)c(-c5c(F)cccc5F)c5nc(c(-c6c(F)cccc6F)c6ccc3[nH]6)C=C5)C=C4)cc2)c1
REMARK SMILES IDX 25 1 24 2 22 3 23 4 21 6 14 7 15 8 16 9 20 10 17 11 18 12
REMARK SMILES IDX 19 13 12 14 11 15 13 17 10 18 8 19 9 20 7 22 3 23 4 24 85 25
REMARK SMILES IDX 5 26 6 27 2 28 1 29 26 30 27 31 28 32 29 33 30 35 31 36
REMARK SMILES IDX 32 37 84 38 33 39 83 40 34 41 35 42 36 43 77 44 37 45 82 46
REMARK SMILES IDX 76 47 78 48 38 49 81 50 75 51 74 52 39 54 65 55 48 56 64 57
REMARK SMILES IDX 49 58 52 59 63 60 79 61 50 62 51 63 62 65 80 66 53 67 40 68
REMARK SMILES IDX 41 69 46 70 42 71 43 72 45 73 47 74 44 75 66 76 67 77 72 78
REMARK SMILES IDX 68 79 69 80 71 81 73 82 70 83 54 84 55 85 60 86 56 87 57 88
REMARK SMILES IDX 59 89 61 90 58 91
REMARK H PARENT 24 5 11 16 10 21 28 34 78 53 52 64
REMARK Flexibility Score: inf
ROOT
ATOM      1  C   UNL A   1      36.736  23.605  25.818  1.00  0.00     0.117 C 
ENDROOT
BRANCH   1   2
ATOM      2  N   UNL A   1      35.784  23.002  26.735  1.00  0.00    -0.356 N 
ATOM      3  C   UNL A   1      34.778  22.112  26.487  1.00  0.00     0.224 C 
ATOM      4  O   UNL A   1      34.096  21.750  27.446  1.00  0.00    -0.275 OA
ATOM      5  H   UNL A   1      35.878  23.275  27.676  1.00  0.00     0.163 HD
BRANCH   3   6
ATOM      6  C   UNL A   1      34.553  21.614  25.053  1.00  0.00     0.095 C 
ATOM      7  C   UNL A   1      33.056  21.762  24.651  1.00  0.00     0.097 C 
ATOM      8  C   UNL A   1      32.399  20.527  24.018  1.00  0.00     0.045 C 
ATOM      9  C   UNL A   1      33.077  19.187  24.130  1.00  0.00    -0.074 C 
ATOM     10  C   UNL A   1      35.193  20.223  24.908  1.00  0.00     0.045 C 
ATOM     11  C   UNL A   1      32.202  18.019  23.752  1.00  0.00     0.039 C 
ATOM     12  C   UNL A   1      34.357  19.056  24.510  1.00  0.00    -0.074 C 
ATOM     13  C   UNL A   1      35.093  17.738  24.535  1.00  0.00     0.039 C 
BRANCH   7  14
ATOM     14  C   UNL A   1      32.874  23.051  23.811  1.00  0.00     0.242 C 
ATOM     15  N   UNL A   1      32.281  24.162  24.361  1.00  0.00    -0.267 N 
ATOM     16  H   UNL A   1      32.537  25.043  24.001  1.00  0.00     0.191 HD
ATOM     17  O   UNL A   1      33.328  23.177  22.669  1.00  0.00    -0.273 OA
BRANCH  15  18
ATOM     18  N   UNL A   1      31.354  24.132  25.383  1.00  0.00    -0.263 N 
ATOM     19  C   UNL A   1      30.465  25.146  25.703  1.00  0.00     0.269 C 
ATOM     20  O   UNL A   1      29.639  24.940  26.594  1.00  0.00    -0.267 OA
ATOM     21  H   UNL A   1      31.320  23.317  25.933  1.00  0.00     0.191 HD
BRANCH  19  22
ATOM     22  C   UNL A   1      30.548  26.508  25.095  1.00  0.00     0.045 A 
ATOM     23  C   UNL A   1      30.186  28.137  23.330  1.00  0.00     0.119 A 
ATOM     24  C   UNL A   1      31.007  29.044  24.004  1.00  0.00     0.046 A 
ATOM     25  C   UNL A   1      29.914  26.890  23.902  1.00  0.00     0.060 A 
ATOM     26  C   UNL A   1      31.566  28.713  25.235  1.00  0.00     0.005 A 
ATOM     27  C   UNL A   1      31.345  27.447  25.772  1.00  0.00     0.014 A 
BRANCH  23  28
ATOM     28  O   UNL A   1      29.724  28.585  22.123  1.00  0.00    -0.497 OA
ATOM     29  C   UNL A   1      29.445  29.975  22.005  1.00  0.00     0.278 C 
ENDBRANCH  23  28
ENDBRANCH  19  22
ENDBRANCH  15  18
ENDBRANCH   7  14
ENDBRANCH   3   6
ENDBRANCH   1   2
BRANCH   1  30
ATOM     30  C   UNL A   1      38.047  22.842  25.760  1.00  0.00     0.042 C 
BRANCH  30  31
ATOM     31  C   UNL A   1      39.103  23.369  26.717  1.00  0.00     0.118 C 
BRANCH  31  32
ATOM     32  N   UNL A   1      40.390  23.594  26.073  1.00  0.00    -0.352 N 
ATOM     33  C   UNL A   1      41.254  24.656  26.171  1.00  0.00     0.251 C 
ATOM     34  H   UNL A   1      40.686  22.870  25.474  1.00  0.00     0.163 HD
ATOM     35  O   UNL A   1      42.206  24.743  25.403  1.00  0.00    -0.269 OA
BRANCH  33  36
ATOM     36  C   UNL A   1      41.025  25.702  27.189  1.00  0.00     0.039 A 
ATOM     37  C   UNL A   1      40.025  25.509  28.146  1.00  0.00     0.014 A 
ATOM     38  C   UNL A   1      41.787  26.872  27.198  1.00  0.00     0.014 A 
ATOM     39  C   UNL A   1      39.836  26.462  29.147  1.00  0.00     0.010 A 
ATOM     40  C   UNL A   1      41.670  27.766  28.255  1.00  0.00     0.010 A 
ATOM     41  C   UNL A   1      40.681  27.581  29.231  1.00  0.00    -0.014 A 
BRANCH  41  42
ATOM     42  C   UNL A   1      40.527  28.588  30.309  1.00  0.00     0.031 A 
ATOM     43  C   UNL A   1      41.401  28.514  31.533  1.00  0.00     0.074 A 
ATOM     44  C   UNL A   1      39.572  29.533  30.213  1.00  0.00     0.049 A 
ATOM     45  N   UNL A   1      41.379  29.254  32.612  1.00  0.00    -0.248 NA
ATOM     46  C   UNL A   1      42.415  27.446  31.561  1.00  0.00     0.031 C 
ATOM     47  C   UNL A   1      38.635  29.684  29.099  1.00  0.00     0.029 A 
ATOM     48  N   UNL A   1      39.230  30.546  31.073  1.00  0.00    -0.354 N 
ATOM     49  C   UNL A   1      42.364  28.738  33.444  1.00  0.00     0.074 A 
ATOM     50  C   UNL A   1      42.915  27.577  32.780  1.00  0.00     0.031 C 
ATOM     51  C   UNL A   1      37.847  30.748  29.326  1.00  0.00     0.029 A 
ATOM     52  C   UNL A   1      38.193  31.327  30.619  1.00  0.00     0.049 A 
ATOM     53  H   UNL A   1      39.683  30.700  31.933  1.00  0.00     0.167 HD
ATOM     54  C   UNL A   1      42.796  29.205  34.639  1.00  0.00     0.037 A 
ATOM     55  C   UNL A   1      37.590  32.387  31.188  1.00  0.00     0.037 A 
ATOM     56  C   UNL A   1      42.260  30.370  35.288  1.00  0.00     0.049 A 
ATOM     57  C   UNL A   1      38.070  32.870  32.530  1.00  0.00     0.074 A 
ATOM     58  C   UNL A   1      42.649  30.948  36.483  1.00  0.00     0.029 A 
ATOM     59  N   UNL A   1      41.217  31.140  34.792  1.00  0.00    -0.354 N 
ATOM     60  N   UNL A   1      39.041  32.405  33.279  1.00  0.00    -0.248 NA
ATOM     61  C   UNL A   1      37.375  34.031  33.101  1.00  0.00     0.031 C 
ATOM     62  C   UNL A   1      41.811  32.040  36.734  1.00  0.00     0.029 A 
ATOM     63  C   UNL A   1      40.939  32.177  35.666  1.00  0.00     0.049 A 
ATOM     64  H   UNL A   1      40.743  30.972  33.945  1.00  0.00     0.167 HD
ATOM     65  C   UNL A   1      39.101  33.241  34.387  1.00  0.00     0.074 A 
ATOM     66  C   UNL A   1      38.075  34.247  34.205  1.00  0.00     0.031 C 
ATOM     67  C   UNL A   1      39.929  33.182  35.458  1.00  0.00     0.037 A 
BRANCH  54  68
ATOM     68  C   UNL A   1      43.914  28.460  35.310  1.00  0.00     0.057 A 
ATOM     69  C   UNL A   1      43.668  27.482  36.284  1.00  0.00     0.134 A 
ATOM     70  C   UNL A   1      45.249  28.696  34.957  1.00  0.00     0.134 A 
ATOM     71  F   UNL A   1      42.414  27.216  36.679  1.00  0.00    -0.206 F 
ATOM     72  C   UNL A   1      44.709  26.788  36.904  1.00  0.00     0.040 A 
ATOM     73  C   UNL A   1      46.297  27.986  35.548  1.00  0.00     0.040 A 
ATOM     74  F   UNL A   1      45.557  29.614  34.029  1.00  0.00    -0.206 F 
ATOM     75  C   UNL A   1      46.027  27.034  36.530  1.00  0.00     0.006 A 
ENDBRANCH  54  68
BRANCH  55  76
ATOM     76  C   UNL A   1      36.483  33.088  30.487  1.00  0.00     0.057 A 
ATOM     77  C   UNL A   1      35.147  32.859  30.837  1.00  0.00     0.134 A 
ATOM     78  C   UNL A   1      36.727  33.976  29.431  1.00  0.00     0.134 A 
ATOM     79  F   UNL A   1      34.847  32.007  31.830  1.00  0.00    -0.206 F 
ATOM     80  C   UNL A   1      34.094  33.459  30.145  1.00  0.00     0.040 A 
ATOM     81  C   UNL A   1      35.685  34.604  28.749  1.00  0.00     0.040 A 
ATOM     82  F   UNL A   1      37.984  34.247  29.051  1.00  0.00    -0.206 F 
ATOM     83  C   UNL A   1      34.362  34.338  29.098  1.00  0.00     0.006 A 
ENDBRANCH  55  76
BRANCH  67  84
ATOM     84  C   UNL A   1      39.802  34.270  36.486  1.00  0.00     0.057 A 
ATOM     85  C   UNL A   1      40.392  35.529  36.315  1.00  0.00     0.134 A 
ATOM     86  C   UNL A   1      39.051  34.059  37.650  1.00  0.00     0.134 A 
ATOM     87  F   UNL A   1      41.134  35.792  35.230  1.00  0.00    -0.206 F 
ATOM     88  C   UNL A   1      40.263  36.530  37.281  1.00  0.00     0.040 A 
ATOM     89  C   UNL A   1      38.888  35.062  38.606  1.00  0.00     0.040 A 
ATOM     90  F   UNL A   1      38.452  32.880  37.870  1.00  0.00    -0.206 F 
ATOM     91  C   UNL A   1      39.503  36.300  38.426  1.00  0.00     0.006 A 
ENDBRANCH  67  84
ENDBRANCH  41  42
ENDBRANCH  33  36
ENDBRANCH  31  32
ENDBRANCH  30  31
ENDBRANCH   1  30
TORSDOF 14
ENDMDL
