MODEL 1
REMARK VINA RESULT:     -10.9      0.000      0.000
REMARK SMILES CCN(Cc1ccccn1)C(=O)NC(CC)(CC)C(=O)NCCCNC(=O)c1ccc(-c2c3nc(c(-c4c(F)cccc4F)c4ccc([nH]4)c(-c4c(F)cccc4F)c4nc(c(-c5c(F)cccc5F)c5ccc2[nH]5)C=C4)C=C3)cc1
REMARK SMILES IDX 22 1 21 2 19 3 20 4 14 6 13 7 11 8 12 9 3 11 2 12 1 13 4 14
REMARK SMILES IDX 5 15 6 16 10 17 7 18 9 19 8 20 15 21 16 22 17 23 18 24 23 25
REMARK SMILES IDX 24 26 25 27 26 28 27 30 28 31 29 32 81 33 30 34 80 35 31 36
REMARK SMILES IDX 32 37 33 38 74 39 34 40 79 41 73 42 75 43 35 44 78 45 72 46
REMARK SMILES IDX 71 47 36 49 62 50 45 51 61 52 46 53 49 54 60 55 76 56 47 57
REMARK SMILES IDX 48 58 59 60 77 61 50 62 37 63 38 64 43 65 39 66 40 67 42 68
REMARK SMILES IDX 44 69 41 70 63 71 64 72 69 73 65 74 66 75 68 76 70 77 67 78
REMARK SMILES IDX 51 79 52 80 57 81 53 82 54 83 56 84 58 85 55 86
REMARK H PARENT 21 5 13 10 25 29 75 48 49 59
REMARK Flexibility Score: inf
ROOT
ATOM      1  C   UNL A   1      36.588  21.770  25.127  1.00  0.00     0.117 C 
ENDROOT
BRANCH   1   2
ATOM      2  N   UNL A   1      35.802  21.598  26.332  1.00  0.00    -0.354 N 
ATOM      3  C   UNL A   1      34.538  21.961  26.666  1.00  0.00     0.245 C 
ATOM      4  O   UNL A   1      34.270  21.779  27.862  1.00  0.00    -0.272 OA
ATOM      5  H   UNL A   1      36.280  21.125  27.051  1.00  0.00     0.163 HD
BRANCH   3   6
ATOM      6  C   UNL A   1      33.553  22.683  25.700  1.00  0.00     0.120 C 
BRANCH   6   7
ATOM      7  N   UNL A   1      32.237  22.855  26.365  1.00  0.00    -0.323 N 
ATOM      8  C   UNL A   1      31.145  23.627  26.325  1.00  0.00     0.318 C 
ATOM      9  O   UNL A   1      30.387  23.423  27.286  1.00  0.00    -0.249 OA
ATOM     10  H   UNL A   1      32.133  22.175  27.070  1.00  0.00     0.166 HD
BRANCH   8  11
ATOM     11  N   UNL A   1      30.764  24.438  25.297  1.00  0.00    -0.319 N 
BRANCH  11  12
ATOM     12  C   UNL A   1      30.782  23.780  23.983  1.00  0.00     0.118 C 
ATOM     13  C   UNL A   1      31.052  24.779  22.857  1.00  0.00     0.027 C 
ENDBRANCH  11  12
BRANCH  11  14
ATOM     14  C   UNL A   1      30.435  25.873  25.258  1.00  0.00     0.177 C 
BRANCH  14  15
ATOM     15  C   UNL A   1      31.385  26.826  25.953  1.00  0.00     0.060 A 
ATOM     16  C   UNL A   1      32.541  27.244  25.286  1.00  0.00     0.026 A 
ATOM     17  N   UNL A   1      31.060  27.300  27.181  1.00  0.00    -0.259 NA
ATOM     18  C   UNL A   1      33.420  28.114  25.927  1.00  0.00     0.004 A 
ATOM     19  C   UNL A   1      31.925  28.149  27.777  1.00  0.00     0.111 A 
ATOM     20  C   UNL A   1      33.111  28.572  27.200  1.00  0.00     0.020 A 
ENDBRANCH  14  15
ENDBRANCH  11  14
ENDBRANCH   8  11
ENDBRANCH   6   7
BRANCH   6  21
ATOM     21  C   UNL A   1      33.270  22.029  24.321  1.00  0.00     0.035 C 
ATOM     22  C   UNL A   1      32.737  20.596  24.354  1.00  0.00     0.007 C 
ENDBRANCH   6  21
BRANCH   6  23
ATOM     23  C   UNL A   1      34.180  24.111  25.510  1.00  0.00     0.035 C 
ATOM     24  C   UNL A   1      34.541  24.494  24.073  1.00  0.00     0.007 C 
ENDBRANCH   6  23
ENDBRANCH   3   6
ENDBRANCH   1   2
BRANCH   1  25
ATOM     25  C   UNL A   1      37.604  20.653  24.946  1.00  0.00     0.042 C 
BRANCH  25  26
ATOM     26  C   UNL A   1      38.889  20.826  25.744  1.00  0.00     0.118 C 
BRANCH  26  27
ATOM     27  N   UNL A   1      39.787  19.682  25.678  1.00  0.00    -0.352 N 
ATOM     28  C   UNL A   1      41.117  19.643  26.033  1.00  0.00     0.251 C 
ATOM     29  H   UNL A   1      39.399  18.842  25.343  1.00  0.00     0.163 HD
ATOM     30  O   UNL A   1      41.789  18.632  25.859  1.00  0.00    -0.269 OA
BRANCH  28  31
ATOM     31  C   UNL A   1      41.732  20.869  26.582  1.00  0.00     0.039 A 
ATOM     32  C   UNL A   1      42.283  21.801  25.702  1.00  0.00     0.014 A 
ATOM     33  C   UNL A   1      41.639  21.144  27.949  1.00  0.00     0.014 A 
ATOM     34  C   UNL A   1      42.658  23.057  26.181  1.00  0.00     0.010 A 
ATOM     35  C   UNL A   1      41.946  22.420  28.410  1.00  0.00     0.010 A 
ATOM     36  C   UNL A   1      42.445  23.393  27.529  1.00  0.00    -0.014 A 
BRANCH  36  37
ATOM     37  C   UNL A   1      42.719  24.761  28.037  1.00  0.00     0.031 A 
ATOM     38  C   UNL A   1      44.111  25.141  28.455  1.00  0.00     0.074 A 
ATOM     39  C   UNL A   1      41.704  25.632  28.206  1.00  0.00     0.049 A 
ATOM     40  N   UNL A   1      44.533  26.242  29.022  1.00  0.00    -0.248 NA
ATOM     41  C   UNL A   1      45.161  24.133  28.238  1.00  0.00     0.031 C 
ATOM     42  C   UNL A   1      40.297  25.368  27.898  1.00  0.00     0.029 A 
ATOM     43  N   UNL A   1      41.701  26.916  28.693  1.00  0.00    -0.354 N 
ATOM     44  C   UNL A   1      45.887  26.046  29.259  1.00  0.00     0.074 A 
ATOM     45  C   UNL A   1      46.208  24.709  28.811  1.00  0.00     0.031 C 
ATOM     46  C   UNL A   1      39.572  26.463  28.183  1.00  0.00     0.029 A 
ATOM     47  C   UNL A   1      40.455  27.494  28.719  1.00  0.00     0.049 A 
ATOM     48  H   UNL A   1      42.515  27.378  28.996  1.00  0.00     0.167 HD
ATOM     49  C   UNL A   1      46.787  26.911  29.784  1.00  0.00     0.037 A 
ATOM     50  C   UNL A   1      40.069  28.716  29.131  1.00  0.00     0.037 A 
ATOM     51  C   UNL A   1      46.483  28.258  30.180  1.00  0.00     0.049 A 
ATOM     52  C   UNL A   1      41.096  29.675  29.664  1.00  0.00     0.074 A 
ATOM     53  C   UNL A   1      47.344  29.235  30.649  1.00  0.00     0.029 A 
ATOM     54  N   UNL A   1      45.218  28.823  30.143  1.00  0.00    -0.354 N 
ATOM     55  N   UNL A   1      42.384  29.497  29.827  1.00  0.00    -0.248 NA
ATOM     56  C   UNL A   1      40.616  31.005  30.066  1.00  0.00     0.031 C 
ATOM     57  C   UNL A   1      46.596  30.386  30.915  1.00  0.00     0.029 A 
ATOM     58  C   UNL A   1      45.273  30.133  30.587  1.00  0.00     0.049 A 
ATOM     59  H   UNL A   1      44.401  28.360  29.846  1.00  0.00     0.167 HD
ATOM     60  C   UNL A   1      42.872  30.694  30.330  1.00  0.00     0.074 A 
ATOM     61  C   UNL A   1      41.744  31.597  30.435  1.00  0.00     0.031 C 
ATOM     62  C   UNL A   1      44.142  31.018  30.674  1.00  0.00     0.037 A 
BRANCH  49  63
ATOM     63  C   UNL A   1      48.194  26.418  29.946  1.00  0.00     0.057 A 
ATOM     64  C   UNL A   1      49.144  26.561  28.929  1.00  0.00     0.134 A 
ATOM     65  C   UNL A   1      48.603  25.806  31.137  1.00  0.00     0.134 A 
ATOM     66  F   UNL A   1      48.808  27.124  27.758  1.00  0.00    -0.206 F 
ATOM     67  C   UNL A   1      50.450  26.090  29.079  1.00  0.00     0.040 A 
ATOM     68  C   UNL A   1      49.912  25.351  31.308  1.00  0.00     0.040 A 
ATOM     69  F   UNL A   1      47.741  25.640  32.150  1.00  0.00    -0.206 F 
ATOM     70  C   UNL A   1      50.837  25.488  30.274  1.00  0.00     0.006 A 
ENDBRANCH  49  63
BRANCH  50  71
ATOM     71  C   UNL A   1      38.646  29.119  29.026  1.00  0.00     0.057 A 
ATOM     72  C   UNL A   1      38.124  29.597  27.818  1.00  0.00     0.134 A 
ATOM     73  C   UNL A   1      37.779  29.045  30.122  1.00  0.00     0.134 A 
ATOM     74  F   UNL A   1      38.913  29.707  26.740  1.00  0.00    -0.206 F 
ATOM     75  C   UNL A   1      36.793  30.000  27.707  1.00  0.00     0.040 A 
ATOM     76  C   UNL A   1      36.441  29.429  30.021  1.00  0.00     0.040 A 
ATOM     77  F   UNL A   1      38.221  28.590  31.304  1.00  0.00    -0.206 F 
ATOM     78  C   UNL A   1      35.946  29.914  28.811  1.00  0.00     0.006 A 
ENDBRANCH  50  71
BRANCH  62  79
ATOM     79  C   UNL A   1      44.383  32.410  31.170  1.00  0.00     0.057 A 
ATOM     80  C   UNL A   1      44.347  32.720  32.534  1.00  0.00     0.134 A 
ATOM     81  C   UNL A   1      44.696  33.441  30.275  1.00  0.00     0.134 A 
ATOM     82  F   UNL A   1      44.038  31.777  33.438  1.00  0.00    -0.206 F 
ATOM     83  C   UNL A   1      44.605  34.012  32.992  1.00  0.00     0.040 A 
ATOM     84  C   UNL A   1      44.974  34.733  30.723  1.00  0.00     0.040 A 
ATOM     85  F   UNL A   1      44.750  33.204  28.957  1.00  0.00    -0.206 F 
ATOM     86  C   UNL A   1      44.925  35.021  32.086  1.00  0.00     0.006 A 
ENDBRANCH  62  79
ENDBRANCH  36  37
ENDBRANCH  28  31
ENDBRANCH  26  27
ENDBRANCH  25  26
ENDBRANCH   1  25
TORSDOF 17
ENDMDL
MODEL 2
REMARK VINA RESULT:     -10.8      0.443      6.166
REMARK SMILES CCN(Cc1ccccn1)C(=O)NC(CC)(CC)C(=O)NCCCNC(=O)c1ccc(-c2c3nc(c(-c4c(F)cccc4F)c4ccc([nH]4)c(-c4c(F)cccc4F)c4nc(c(-c5c(F)cccc5F)c5ccc2[nH]5)C=C4)C=C3)cc1
REMARK SMILES IDX 22 1 21 2 19 3 20 4 14 6 13 7 11 8 12 9 3 11 2 12 1 13 4 14
REMARK SMILES IDX 5 15 6 16 10 17 7 18 9 19 8 20 15 21 16 22 17 23 18 24 23 25
REMARK SMILES IDX 24 26 25 27 26 28 27 30 28 31 29 32 81 33 30 34 80 35 31 36
REMARK SMILES IDX 32 37 33 38 74 39 34 40 79 41 73 42 75 43 35 44 78 45 72 46
REMARK SMILES IDX 71 47 36 49 62 50 45 51 61 52 46 53 49 54 60 55 76 56 47 57
REMARK SMILES IDX 48 58 59 60 77 61 50 62 37 63 38 64 43 65 39 66 40 67 42 68
REMARK SMILES IDX 44 69 41 70 63 71 64 72 69 73 65 74 66 75 68 76 70 77 67 78
REMARK SMILES IDX 51 79 52 80 57 81 53 82 54 83 56 84 58 85 55 86
REMARK H PARENT 21 5 13 10 25 29 75 48 49 59
REMARK Flexibility Score: inf
ROOT
ATOM      1  C   UNL A   1      36.131  20.856  25.173  1.00  0.00     0.117 C 
ENDROOT
BRANCH   1   2
ATOM      2  N   UNL A   1      35.627  21.400  26.417  1.00  0.00    -0.354 N 
ATOM      3  C   UNL A   1      34.555  22.177  26.714  1.00  0.00     0.245 C 
ATOM      4  O   UNL A   1      34.544  22.578  27.887  1.00  0.00    -0.272 OA
ATOM      5  H   UNL A   1      36.171  21.160  27.202  1.00  0.00     0.163 HD
BRANCH   3   6
ATOM      6  C   UNL A   1      33.511  22.663  25.667  1.00  0.00     0.120 C 
BRANCH   6   7
ATOM      7  N   UNL A   1      32.202  22.885  26.331  1.00  0.00    -0.323 N 
ATOM      8  C   UNL A   1      31.131  23.684  26.275  1.00  0.00     0.318 C 
ATOM      9  O   UNL A   1      30.370  23.523  27.242  1.00  0.00    -0.249 OA
ATOM     10  H   UNL A   1      32.083  22.225  27.052  1.00  0.00     0.166 HD
BRANCH   8  11
ATOM     11  N   UNL A   1      30.767  24.480  25.228  1.00  0.00    -0.319 N 
BRANCH  11  12
ATOM     12  C   UNL A   1      30.721  23.779  23.938  1.00  0.00     0.118 C 
ATOM     13  C   UNL A   1      31.299  24.636  22.811  1.00  0.00     0.027 C 
ENDBRANCH  11  12
BRANCH  11  14
ATOM     14  C   UNL A   1      30.511  25.927  25.148  1.00  0.00     0.177 C 
BRANCH  14  15
ATOM     15  C   UNL A   1      31.471  26.847  25.874  1.00  0.00     0.060 A 
ATOM     16  C   UNL A   1      32.656  27.234  25.240  1.00  0.00     0.026 A 
ATOM     17  N   UNL A   1      31.127  27.325  27.095  1.00  0.00    -0.259 NA
ATOM     18  C   UNL A   1      33.544  28.073  25.908  1.00  0.00     0.004 A 
ATOM     19  C   UNL A   1      32.001  28.144  27.719  1.00  0.00     0.111 A 
ATOM     20  C   UNL A   1      33.215  28.533  27.176  1.00  0.00     0.020 A 
ENDBRANCH  14  15
ENDBRANCH  11  14
ENDBRANCH   8  11
ENDBRANCH   6   7
BRANCH   6  21
ATOM     21  C   UNL A   1      33.235  21.758  24.436  1.00  0.00     0.035 C 
ATOM     22  C   UNL A   1      32.378  20.517  24.692  1.00  0.00     0.007 C 
ENDBRANCH   6  21
BRANCH   6  23
ATOM     23  C   UNL A   1      34.054  24.063  25.205  1.00  0.00     0.035 C 
ATOM     24  C   UNL A   1      34.851  24.072  23.898  1.00  0.00     0.007 C 
ENDBRANCH   6  23
ENDBRANCH   3   6
ENDBRANCH   1   2
BRANCH   1  25
ATOM     25  C   UNL A   1      37.449  21.494  24.764  1.00  0.00     0.042 C 
BRANCH  25  26
ATOM     26  C   UNL A   1      38.565  21.364  25.790  1.00  0.00     0.118 C 
BRANCH  26  27
ATOM     27  N   UNL A   1      39.356  20.149  25.656  1.00  0.00    -0.352 N 
ATOM     28  C   UNL A   1      40.683  19.975  25.985  1.00  0.00     0.251 C 
ATOM     29  H   UNL A   1      38.890  19.363  25.289  1.00  0.00     0.163 HD
ATOM     30  O   UNL A   1      41.259  18.917  25.752  1.00  0.00    -0.269 OA
BRANCH  28  31
ATOM     31  C   UNL A   1      41.413  21.114  26.579  1.00  0.00     0.039 A 
ATOM     32  C   UNL A   1      41.948  22.087  25.734  1.00  0.00     0.014 A 
ATOM     33  C   UNL A   1      41.443  21.275  27.966  1.00  0.00     0.014 A 
ATOM     34  C   UNL A   1      42.436  23.275  26.281  1.00  0.00     0.010 A 
ATOM     35  C   UNL A   1      41.862  22.489  28.502  1.00  0.00     0.010 A 
ATOM     36  C   UNL A   1      42.350  23.505  27.665  1.00  0.00    -0.014 A 
BRANCH  36  37
ATOM     37  C   UNL A   1      42.746  24.807  28.258  1.00  0.00     0.031 A 
ATOM     38  C   UNL A   1      41.710  25.864  28.507  1.00  0.00     0.074 A 
ATOM     39  C   UNL A   1      44.047  25.072  28.490  1.00  0.00     0.049 A 
ATOM     40  N   UNL A   1      41.867  27.098  28.914  1.00  0.00    -0.248 NA
ATOM     41  C   UNL A   1      40.313  25.496  28.226  1.00  0.00     0.031 C 
ATOM     42  C   UNL A   1      45.161  24.156  28.235  1.00  0.00     0.029 A 
ATOM     43  N   UNL A   1      44.655  26.201  28.984  1.00  0.00    -0.354 N 
ATOM     44  C   UNL A   1      40.598  27.660  28.907  1.00  0.00     0.074 A 
ATOM     45  C   UNL A   1      39.687  26.648  28.418  1.00  0.00     0.031 C 
ATOM     46  C   UNL A   1      46.311  24.750  28.594  1.00  0.00     0.029 A 
ATOM     47  C   UNL A   1      46.022  26.096  29.077  1.00  0.00     0.049 A 
ATOM     48  H   UNL A   1      44.157  27.008  29.245  1.00  0.00     0.167 HD
ATOM     49  C   UNL A   1      40.221  28.903  29.291  1.00  0.00     0.037 A 
ATOM     50  C   UNL A   1      46.937  26.988  29.501  1.00  0.00     0.037 A 
ATOM     51  C   UNL A   1      41.114  29.892  29.827  1.00  0.00     0.049 A 
ATOM     52  C   UNL A   1      46.488  28.343  29.969  1.00  0.00     0.074 A 
ATOM     53  C   UNL A   1      40.813  31.151  30.318  1.00  0.00     0.029 A 
ATOM     54  N   UNL A   1      42.485  29.730  29.952  1.00  0.00    -0.354 N 
ATOM     55  N   UNL A   1      45.276  28.840  30.013  1.00  0.00    -0.248 NA
ATOM     56  C   UNL A   1      47.532  29.259  30.452  1.00  0.00     0.031 C 
ATOM     57  C   UNL A   1      42.006  31.759  30.722  1.00  0.00     0.029 A 
ATOM     58  C   UNL A   1      43.046  30.868  30.507  1.00  0.00     0.049 A 
ATOM     59  H   UNL A   1      42.985  28.925  29.686  1.00  0.00     0.167 HD
ATOM     60  C   UNL A   1      45.407  30.116  30.543  1.00  0.00     0.074 A 
ATOM     61  C   UNL A   1      46.816  30.313  30.818  1.00  0.00     0.031 C 
ATOM     62  C   UNL A   1      44.447  31.041  30.782  1.00  0.00     0.037 A 
BRANCH  49  63
ATOM     63  C   UNL A   1      38.769  29.250  29.154  1.00  0.00     0.057 A 
ATOM     64  C   UNL A   1      37.899  29.220  30.250  1.00  0.00     0.134 A 
ATOM     65  C   UNL A   1      38.239  29.629  27.914  1.00  0.00     0.134 A 
ATOM     66  F   UNL A   1      38.342  28.848  31.460  1.00  0.00    -0.206 F 
ATOM     67  C   UNL A   1      36.545  29.532  30.115  1.00  0.00     0.040 A 
ATOM     68  C   UNL A   1      36.892  29.965  27.770  1.00  0.00     0.040 A 
ATOM     69  F   UNL A   1      39.021  29.678  26.825  1.00  0.00    -0.206 F 
ATOM     70  C   UNL A   1      36.040  29.911  28.873  1.00  0.00     0.006 A 
ENDBRANCH  49  63
BRANCH  50  71
ATOM     71  C   UNL A   1      48.372  26.618  29.535  1.00  0.00     0.057 A 
ATOM     72  C   UNL A   1      49.222  26.941  28.470  1.00  0.00     0.134 A 
ATOM     73  C   UNL A   1      48.928  25.933  30.621  1.00  0.00     0.134 A 
ATOM     74  F   UNL A   1      48.740  27.580  27.395  1.00  0.00    -0.206 F 
ATOM     75  C   UNL A   1      50.570  26.581  28.477  1.00  0.00     0.040 A 
ATOM     76  C   UNL A   1      50.279  25.583  30.649  1.00  0.00     0.040 A 
ATOM     77  F   UNL A   1      48.165  25.602  31.674  1.00  0.00    -0.206 F 
ATOM     78  C   UNL A   1      51.102  25.903  29.571  1.00  0.00     0.006 A 
ENDBRANCH  50  71
BRANCH  62  79
ATOM     79  C   UNL A   1      44.883  32.337  31.393  1.00  0.00     0.057 A 
ATOM     80  C   UNL A   1      44.956  32.506  32.780  1.00  0.00     0.134 A 
ATOM     81  C   UNL A   1      45.275  33.410  30.583  1.00  0.00     0.134 A 
ATOM     82  F   UNL A   1      44.580  31.519  33.607  1.00  0.00    -0.206 F 
ATOM     83  C   UNL A   1      45.394  33.706  33.343  1.00  0.00     0.040 A 
ATOM     84  C   UNL A   1      45.732  34.607  31.134  1.00  0.00     0.040 A 
ATOM     85  F   UNL A   1      45.231  33.306  29.247  1.00  0.00    -0.206 F 
ATOM     86  C   UNL A   1      45.790  34.758  32.519  1.00  0.00     0.006 A 
ENDBRANCH  62  79
ENDBRANCH  36  37
ENDBRANCH  28  31
ENDBRANCH  26  27
ENDBRANCH  25  26
ENDBRANCH   1  25
TORSDOF 17
ENDMDL
MODEL 3
REMARK VINA RESULT:     -10.6      3.377      8.473
REMARK SMILES CCN(Cc1ccccn1)C(=O)NC(CC)(CC)C(=O)NCCCNC(=O)c1ccc(-c2c3nc(c(-c4c(F)cccc4F)c4ccc([nH]4)c(-c4c(F)cccc4F)c4nc(c(-c5c(F)cccc5F)c5ccc2[nH]5)C=C4)C=C3)cc1
REMARK SMILES IDX 22 1 21 2 19 3 20 4 14 6 13 7 11 8 12 9 3 11 2 12 1 13 4 14
REMARK SMILES IDX 5 15 6 16 10 17 7 18 9 19 8 20 15 21 16 22 17 23 18 24 23 25
REMARK SMILES IDX 24 26 25 27 26 28 27 30 28 31 29 32 81 33 30 34 80 35 31 36
REMARK SMILES IDX 32 37 33 38 74 39 34 40 79 41 73 42 75 43 35 44 78 45 72 46
REMARK SMILES IDX 71 47 36 49 62 50 45 51 61 52 46 53 49 54 60 55 76 56 47 57
REMARK SMILES IDX 48 58 59 60 77 61 50 62 37 63 38 64 43 65 39 66 40 67 42 68
REMARK SMILES IDX 44 69 41 70 63 71 64 72 69 73 65 74 66 75 68 76 70 77 67 78
REMARK SMILES IDX 51 79 52 80 57 81 53 82 54 83 56 84 58 85 55 86
REMARK H PARENT 21 5 13 10 25 29 75 48 49 59
REMARK Flexibility Score: inf
ROOT
ATOM      1  C   UNL A   1      31.628  29.975  25.687  1.00  0.00     0.117 C 
ENDROOT
BRANCH   1   2
ATOM      2  N   UNL A   1      32.619  29.866  24.635  1.00  0.00    -0.354 N 
ATOM      3  C   UNL A   1      33.004  28.840  23.837  1.00  0.00     0.245 C 
ATOM      4  O   UNL A   1      34.010  29.091  23.158  1.00  0.00    -0.272 OA
ATOM      5  H   UNL A   1      33.110  30.703  24.468  1.00  0.00     0.163 HD
BRANCH   3   6
ATOM      6  C   UNL A   1      32.362  27.422  23.866  1.00  0.00     0.120 C 
BRANCH   6   7
ATOM      7  N   UNL A   1      32.665  26.708  22.601  1.00  0.00    -0.323 N 
ATOM      8  C   UNL A   1      32.808  25.471  22.113  1.00  0.00     0.318 C 
ATOM      9  O   UNL A   1      33.266  25.467  20.960  1.00  0.00    -0.249 OA
ATOM     10  H   UNL A   1      32.810  27.364  21.880  1.00  0.00     0.166 HD
BRANCH   8  11
ATOM     11  N   UNL A   1      32.367  24.316  22.691  1.00  0.00    -0.319 N 
BRANCH  11  12
ATOM     12  C   UNL A   1      30.957  24.360  23.103  1.00  0.00     0.118 C 
ATOM     13  C   UNL A   1      30.725  23.585  24.400  1.00  0.00     0.027 C 
ENDBRANCH  11  12
BRANCH  11  14
ATOM     14  C   UNL A   1      33.074  23.080  23.062  1.00  0.00     0.177 C 
BRANCH  14  15
ATOM     15  C   UNL A   1      34.456  23.220  23.665  1.00  0.00     0.060 A 
ATOM     16  C   UNL A   1      34.581  23.429  25.043  1.00  0.00     0.026 A 
ATOM     17  N   UNL A   1      35.542  23.076  22.865  1.00  0.00    -0.259 NA
ATOM     18  C   UNL A   1      35.851  23.566  25.599  1.00  0.00     0.004 A 
ATOM     19  C   UNL A   1      36.761  23.206  23.430  1.00  0.00     0.111 A 
ATOM     20  C   UNL A   1      36.964  23.460  24.777  1.00  0.00     0.020 A 
ENDBRANCH  14  15
ENDBRANCH  11  14
ENDBRANCH   8  11
ENDBRANCH   6   7
BRANCH   6  21
ATOM     21  C   UNL A   1      30.827  27.319  24.076  1.00  0.00     0.035 C 
ATOM     22  C   UNL A   1      29.957  27.947  22.987  1.00  0.00     0.007 C 
ENDBRANCH   6  21
BRANCH   6  23
ATOM     23  C   UNL A   1      33.122  26.680  25.025  1.00  0.00     0.035 C 
ATOM     24  C   UNL A   1      32.278  26.306  26.245  1.00  0.00     0.007 C 
ENDBRANCH   6  23
ENDBRANCH   3   6
ENDBRANCH   1   2
BRANCH   1  25
ATOM     25  C   UNL A   1      32.263  30.246  27.042  1.00  0.00     0.042 C 
BRANCH  25  26
ATOM     26  C   UNL A   1      33.226  31.424  27.070  1.00  0.00     0.118 C 
BRANCH  26  27
ATOM     27  N   UNL A   1      32.599  32.696  27.399  1.00  0.00    -0.352 N 
ATOM     28  C   UNL A   1      33.096  33.686  28.219  1.00  0.00     0.251 C 
ATOM     29  H   UNL A   1      31.721  32.868  26.990  1.00  0.00     0.163 HD
ATOM     30  O   UNL A   1      32.434  34.684  28.478  1.00  0.00    -0.269 OA
BRANCH  28  31
ATOM     31  C   UNL A   1      34.430  33.491  28.822  1.00  0.00     0.039 A 
ATOM     32  C   UNL A   1      34.536  32.761  30.007  1.00  0.00     0.014 A 
ATOM     33  C   UNL A   1      35.574  33.917  28.141  1.00  0.00     0.014 A 
ATOM     34  C   UNL A   1      35.797  32.375  30.463  1.00  0.00     0.010 A 
ATOM     35  C   UNL A   1      36.823  33.470  28.558  1.00  0.00     0.010 A 
ATOM     36  C   UNL A   1      36.946  32.684  29.715  1.00  0.00    -0.014 A 
BRANCH  36  37
ATOM     37  C   UNL A   1      38.285  32.181  30.112  1.00  0.00     0.031 A 
ATOM     38  C   UNL A   1      38.791  30.879  29.559  1.00  0.00     0.074 A 
ATOM     39  C   UNL A   1      39.008  32.847  31.035  1.00  0.00     0.049 A 
ATOM     40  N   UNL A   1      39.880  30.219  29.862  1.00  0.00    -0.248 NA
ATOM     41  C   UNL A   1      37.943  30.215  28.558  1.00  0.00     0.031 C 
ATOM     42  C   UNL A   1      38.604  34.090  31.697  1.00  0.00     0.029 A 
ATOM     43  N   UNL A   1      40.232  32.561  31.586  1.00  0.00    -0.354 N 
ATOM     44  C   UNL A   1      39.829  29.050  29.115  1.00  0.00     0.074 A 
ATOM     45  C   UNL A   1      38.587  29.072  28.375  1.00  0.00     0.031 C 
ATOM     46  C   UNL A   1      39.573  34.470  32.546  1.00  0.00     0.029 A 
ATOM     47  C   UNL A   1      40.650  33.486  32.513  1.00  0.00     0.049 A 
ATOM     48  H   UNL A   1      40.761  31.768  31.342  1.00  0.00     0.167 HD
ATOM     49  C   UNL A   1      40.745  28.056  29.038  1.00  0.00     0.037 A 
ATOM     50  C   UNL A   1      41.774  33.533  33.252  1.00  0.00     0.037 A 
ATOM     51  C   UNL A   1      42.005  28.057  29.730  1.00  0.00     0.049 A 
ATOM     52  C   UNL A   1      42.798  32.442  33.111  1.00  0.00     0.074 A 
ATOM     53  C   UNL A   1      43.032  27.133  29.653  1.00  0.00     0.029 A 
ATOM     54  N   UNL A   1      42.413  29.037  30.620  1.00  0.00    -0.354 N 
ATOM     55  N   UNL A   1      42.764  31.372  32.355  1.00  0.00    -0.248 NA
ATOM     56  C   UNL A   1      44.019  32.569  33.920  1.00  0.00     0.031 C 
ATOM     57  C   UNL A   1      44.055  27.545  30.513  1.00  0.00     0.029 A 
ATOM     58  C   UNL A   1      43.674  28.738  31.106  1.00  0.00     0.049 A 
ATOM     59  H   UNL A   1      41.883  29.828  30.871  1.00  0.00     0.167 HD
ATOM     60  C   UNL A   1      43.961  30.709  32.582  1.00  0.00     0.074 A 
ATOM     61  C   UNL A   1      44.707  31.502  33.537  1.00  0.00     0.031 C 
ATOM     62  C   UNL A   1      44.404  29.545  32.047  1.00  0.00     0.037 A 
BRANCH  49  63
ATOM     63  C   UNL A   1      40.415  26.889  28.157  1.00  0.00     0.057 A 
ATOM     64  C   UNL A   1      40.944  26.768  26.867  1.00  0.00     0.134 A 
ATOM     65  C   UNL A   1      39.567  25.870  28.609  1.00  0.00     0.134 A 
ATOM     66  F   UNL A   1      41.748  27.720  26.370  1.00  0.00    -0.206 F 
ATOM     67  C   UNL A   1      40.624  25.686  26.046  1.00  0.00     0.040 A 
ATOM     68  C   UNL A   1      39.257  24.772  27.806  1.00  0.00     0.040 A 
ATOM     69  F   UNL A   1      39.029  25.926  29.836  1.00  0.00    -0.206 F 
ATOM     70  C   UNL A   1      39.782  24.681  26.518  1.00  0.00     0.006 A 
ENDBRANCH  49  63
BRANCH  50  71
ATOM     71  C   UNL A   1      42.010  34.671  34.172  1.00  0.00     0.057 A 
ATOM     72  C   UNL A   1      41.619  34.601  35.515  1.00  0.00     0.134 A 
ATOM     73  C   UNL A   1      42.621  35.852  33.737  1.00  0.00     0.134 A 
ATOM     74  F   UNL A   1      41.012  33.501  35.983  1.00  0.00    -0.206 F 
ATOM     75  C   UNL A   1      41.814  35.671  36.389  1.00  0.00     0.040 A 
ATOM     76  C   UNL A   1      42.839  36.924  34.605  1.00  0.00     0.040 A 
ATOM     77  F   UNL A   1      43.023  35.976  32.463  1.00  0.00    -0.206 F 
ATOM     78  C   UNL A   1      42.429  36.836  35.934  1.00  0.00     0.006 A 
ENDBRANCH  50  71
BRANCH  62  79
ATOM     79  C   UNL A   1      45.764  29.076  32.461  1.00  0.00     0.057 A 
ATOM     80  C   UNL A   1      46.919  29.490  31.788  1.00  0.00     0.134 A 
ATOM     81  C   UNL A   1      45.922  28.236  33.570  1.00  0.00     0.134 A 
ATOM     82  F   UNL A   1      46.831  30.284  30.709  1.00  0.00    -0.206 F 
ATOM     83  C   UNL A   1      48.187  29.076  32.199  1.00  0.00     0.040 A 
ATOM     84  C   UNL A   1      47.185  27.830  34.001  1.00  0.00     0.040 A 
ATOM     85  F   UNL A   1      44.852  27.810  34.258  1.00  0.00    -0.206 F 
ATOM     86  C   UNL A   1      48.322  28.249  33.312  1.00  0.00     0.006 A 
ENDBRANCH  62  79
ENDBRANCH  36  37
ENDBRANCH  28  31
ENDBRANCH  26  27
ENDBRANCH  25  26
ENDBRANCH   1  25
TORSDOF 17
ENDMDL
