MODEL 1
REMARK VINA RESULT:     -11.3      0.000      0.000
REMARK SMILES C[C@@H](C(=O)NCCCNC(=O)c1ccc(-c2c3nc(c(-c4c(F)cccc4F)c4ccc([nH]4)c(-c4c(F)cccc4F)c4nc(c(-c5c(F)cccc5F)c5ccc2[nH]5)C=C4)C=C3)cc1)c1ccc(-c2ccccc2)c(F)c1
REMARK SMILES IDX 7 1 6 2 5 3 3 4 4 5 2 7 1 8 66 9 67 10 78 11 68 12 76 13
REMARK SMILES IDX 69 14 77 15 70 16 71 17 75 18 72 19 74 20 73 21 8 22 9 23
REMARK SMILES IDX 10 24 11 26 12 27 13 28 65 29 14 30 64 31 15 32 16 33 17 34
REMARK SMILES IDX 58 35 18 36 63 37 57 38 59 39 19 40 62 41 56 42 55 43 20 45
REMARK SMILES IDX 46 46 29 47 45 48 30 49 33 50 44 51 60 52 31 53 32 54 43 56
REMARK SMILES IDX 61 57 34 58 21 59 22 60 27 61 23 62 24 63 26 64 28 65 25 66
REMARK SMILES IDX 47 67 48 68 53 69 49 70 50 71 52 72 54 73 51 74 35 75 36 76
REMARK SMILES IDX 41 77 37 78 38 79 40 80 42 81 39 82
REMARK H PARENT 5 6 9 25 59 44 33 55
REMARK Flexibility Score: inf
ROOT
ATOM      1  C   UNL A   1      33.662  28.297  25.634  1.00  0.00     0.042 C 
ENDROOT
BRANCH   1   2
ATOM      2  C   UNL A   1      32.238  28.538  25.131  1.00  0.00     0.117 C 
BRANCH   2   3
ATOM      3  N   UNL A   1      31.273  27.674  25.783  1.00  0.00    -0.356 N 
ATOM      4  C   UNL A   1      30.829  26.425  25.459  1.00  0.00     0.227 C 
ATOM      5  O   UNL A   1      29.963  25.949  26.196  1.00  0.00    -0.274 OA
ATOM      6  H   UNL A   1      30.870  28.052  26.596  1.00  0.00     0.163 HD
BRANCH   4   7
ATOM      7  C   UNL A   1      31.412  25.680  24.245  1.00  0.00     0.105 C 
ATOM      8  C   UNL A   1      30.442  24.626  23.704  1.00  0.00     0.023 C 
BRANCH   7   9
ATOM      9  C   UNL A   1      32.754  25.011  24.538  1.00  0.00    -0.033 A 
ATOM     10  C   UNL A   1      33.700  24.840  23.517  1.00  0.00     0.005 A 
ATOM     11  C   UNL A   1      33.051  24.501  25.809  1.00  0.00     0.044 A 
ATOM     12  C   UNL A   1      34.906  24.168  23.764  1.00  0.00     0.012 A 
ATOM     13  C   UNL A   1      34.253  23.836  26.046  1.00  0.00     0.131 A 
ATOM     14  C   UNL A   1      35.202  23.646  25.034  1.00  0.00     0.017 A 
ATOM     15  F   UNL A   1      34.478  23.368  27.284  1.00  0.00    -0.206 F 
BRANCH  14  16
ATOM     16  C   UNL A   1      36.454  22.911  25.279  1.00  0.00    -0.015 A 
ATOM     17  C   UNL A   1      37.530  23.511  25.955  1.00  0.00     0.009 A 
ATOM     18  C   UNL A   1      36.612  21.586  24.838  1.00  0.00     0.009 A 
ATOM     19  C   UNL A   1      38.718  22.811  26.183  1.00  0.00     0.001 A 
ATOM     20  C   UNL A   1      37.799  20.885  25.063  1.00  0.00     0.001 A 
ATOM     21  C   UNL A   1      38.852  21.499  25.736  1.00  0.00     0.000 A 
ENDBRANCH  14  16
ENDBRANCH   7   9
ENDBRANCH   4   7
ENDBRANCH   2   3
ENDBRANCH   1   2
BRANCH   1  22
ATOM     22  C   UNL A   1      33.846  28.433  27.145  1.00  0.00     0.118 C 
BRANCH  22  23
ATOM     23  N   UNL A   1      33.765  29.809  27.606  1.00  0.00    -0.352 N 
ATOM     24  C   UNL A   1      34.683  30.586  28.263  1.00  0.00     0.251 C 
ATOM     25  H   UNL A   1      32.909  30.257  27.416  1.00  0.00     0.163 HD
ATOM     26  O   UNL A   1      34.332  31.689  28.687  1.00  0.00    -0.269 OA
BRANCH  24  27
ATOM     27  C   UNL A   1      36.073  30.129  28.496  1.00  0.00     0.039 A 
ATOM     28  C   UNL A   1      36.985  30.230  27.438  1.00  0.00     0.014 A 
ATOM     29  C   UNL A   1      36.478  29.549  29.702  1.00  0.00     0.014 A 
ATOM     30  C   UNL A   1      38.303  29.803  27.603  1.00  0.00     0.010 A 
ATOM     31  C   UNL A   1      37.814  29.177  29.887  1.00  0.00     0.010 A 
ATOM     32  C   UNL A   1      38.737  29.298  28.839  1.00  0.00    -0.014 A 
BRANCH  32  33
ATOM     33  C   UNL A   1      40.159  28.914  29.036  1.00  0.00     0.031 A 
ATOM     34  C   UNL A   1      41.130  29.854  29.695  1.00  0.00     0.074 A 
ATOM     35  C   UNL A   1      40.585  27.715  28.595  1.00  0.00     0.049 A 
ATOM     36  N   UNL A   1      42.401  29.676  29.959  1.00  0.00    -0.248 NA
ATOM     37  C   UNL A   1      40.613  31.172  30.093  1.00  0.00     0.031 C 
ATOM     38  C   UNL A   1      39.758  26.731  27.891  1.00  0.00     0.029 A 
ATOM     39  N   UNL A   1      41.818  27.117  28.673  1.00  0.00    -0.354 N 
ATOM     40  C   UNL A   1      42.836  30.856  30.545  1.00  0.00     0.074 A 
ATOM     41  C   UNL A   1      41.706  31.761  30.559  1.00  0.00     0.031 C 
ATOM     42  C   UNL A   1      40.501  25.644  27.626  1.00  0.00     0.029 A 
ATOM     43  C   UNL A   1      41.857  25.861  28.119  1.00  0.00     0.049 A 
ATOM     44  H   UNL A   1      42.600  27.549  29.087  1.00  0.00     0.167 HD
ATOM     45  C   UNL A   1      44.060  31.155  31.046  1.00  0.00     0.037 A 
ATOM     46  C   UNL A   1      42.869  24.979  28.027  1.00  0.00     0.037 A 
ATOM     47  C   UNL A   1      45.182  30.252  31.053  1.00  0.00     0.049 A 
ATOM     48  C   UNL A   1      44.208  25.323  28.613  1.00  0.00     0.074 A 
ATOM     49  C   UNL A   1      46.445  30.448  31.586  1.00  0.00     0.029 A 
ATOM     50  N   UNL A   1      45.176  28.981  30.500  1.00  0.00    -0.354 N 
ATOM     51  N   UNL A   1      44.585  26.420  29.221  1.00  0.00    -0.248 NA
ATOM     52  C   UNL A   1      45.258  24.300  28.507  1.00  0.00     0.031 C 
ATOM     53  C   UNL A   1      47.212  29.305  31.331  1.00  0.00     0.029 A 
ATOM     54  C   UNL A   1      46.415  28.386  30.667  1.00  0.00     0.049 A 
ATOM     55  H   UNL A   1      44.404  28.562  30.055  1.00  0.00     0.167 HD
ATOM     56  C   UNL A   1      45.909  26.217  29.583  1.00  0.00     0.074 A 
ATOM     57  C   UNL A   1      46.264  24.883  29.145  1.00  0.00     0.031 C 
ATOM     58  C   UNL A   1      46.757  27.061  30.219  1.00  0.00     0.037 A 
BRANCH  45  59
ATOM     59  C   UNL A   1      44.246  32.519  31.642  1.00  0.00     0.057 A 
ATOM     60  C   UNL A   1      44.004  32.766  32.999  1.00  0.00     0.134 A 
ATOM     61  C   UNL A   1      44.704  33.587  30.861  1.00  0.00     0.134 A 
ATOM     62  F   UNL A   1      43.552  31.787  33.798  1.00  0.00    -0.206 F 
ATOM     63  C   UNL A   1      44.191  34.033  33.555  1.00  0.00     0.040 A 
ATOM     64  C   UNL A   1      44.916  34.853  31.410  1.00  0.00     0.040 A 
ATOM     65  F   UNL A   1      44.960  33.416  29.556  1.00  0.00    -0.206 F 
ATOM     66  C   UNL A   1      44.654  35.079  32.761  1.00  0.00     0.006 A 
ENDBRANCH  45  59
BRANCH  46  67
ATOM     67  C   UNL A   1      42.642  23.665  27.379  1.00  0.00     0.057 A 
ATOM     68  C   UNL A   1      42.289  22.542  28.133  1.00  0.00     0.134 A 
ATOM     69  C   UNL A   1      42.772  23.503  25.994  1.00  0.00     0.134 A 
ATOM     70  F   UNL A   1      42.168  22.633  29.465  1.00  0.00    -0.206 F 
ATOM     71  C   UNL A   1      42.084  21.297  27.537  1.00  0.00     0.040 A 
ATOM     72  C   UNL A   1      42.551  22.268  25.382  1.00  0.00     0.040 A 
ATOM     73  F   UNL A   1      43.102  24.545  25.218  1.00  0.00    -0.206 F 
ATOM     74  C   UNL A   1      42.211  21.160  26.155  1.00  0.00     0.006 A 
ENDBRANCH  46  67
BRANCH  58  75
ATOM     75  C   UNL A   1      48.145  26.558  30.483  1.00  0.00     0.057 A 
ATOM     76  C   UNL A   1      49.189  26.780  29.577  1.00  0.00     0.134 A 
ATOM     77  C   UNL A   1      48.442  25.858  31.658  1.00  0.00     0.134 A 
ATOM     78  F   UNL A   1      48.964  27.430  28.426  1.00  0.00    -0.206 F 
ATOM     79  C   UNL A   1      50.477  26.300  29.820  1.00  0.00     0.040 A 
ATOM     80  C   UNL A   1      49.730  25.393  31.923  1.00  0.00     0.040 A 
ATOM     81  F   UNL A   1      47.486  25.618  32.568  1.00  0.00    -0.206 F 
ATOM     82  C   UNL A   1      50.751  25.608  30.998  1.00  0.00     0.006 A 
ENDBRANCH  58  75
ENDBRANCH  32  33
ENDBRANCH  24  27
ENDBRANCH  22  23
ENDBRANCH   1  22
TORSDOF 12
ENDMDL
MODEL 2
REMARK VINA RESULT:     -11.0      3.143      8.029
REMARK SMILES C[C@@H](C(=O)NCCCNC(=O)c1ccc(-c2c3nc(c(-c4c(F)cccc4F)c4ccc([nH]4)c(-c4c(F)cccc4F)c4nc(c(-c5c(F)cccc5F)c5ccc2[nH]5)C=C4)C=C3)cc1)c1ccc(-c2ccccc2)c(F)c1
REMARK SMILES IDX 7 1 6 2 5 3 3 4 4 5 2 7 1 8 66 9 67 10 78 11 68 12 76 13
REMARK SMILES IDX 69 14 77 15 70 16 71 17 75 18 72 19 74 20 73 21 8 22 9 23
REMARK SMILES IDX 10 24 11 26 12 27 13 28 65 29 14 30 64 31 15 32 16 33 17 34
REMARK SMILES IDX 58 35 18 36 63 37 57 38 59 39 19 40 62 41 56 42 55 43 20 45
REMARK SMILES IDX 46 46 29 47 45 48 30 49 33 50 44 51 60 52 31 53 32 54 43 56
REMARK SMILES IDX 61 57 34 58 21 59 22 60 27 61 23 62 24 63 26 64 28 65 25 66
REMARK SMILES IDX 47 67 48 68 53 69 49 70 50 71 52 72 54 73 51 74 35 75 36 76
REMARK SMILES IDX 41 77 37 78 38 79 40 80 42 81 39 82
REMARK H PARENT 5 6 9 25 59 44 33 55
REMARK Flexibility Score: inf
ROOT
ATOM      1  C   UNL A   1      36.167  23.640  24.680  1.00  0.00     0.042 C 
ENDROOT
BRANCH   1   2
ATOM      2  C   UNL A   1      35.397  22.509  23.998  1.00  0.00     0.117 C 
BRANCH   2   3
ATOM      3  N   UNL A   1      34.740  22.948  22.783  1.00  0.00    -0.356 N 
ATOM      4  C   UNL A   1      33.498  23.475  22.578  1.00  0.00     0.227 C 
ATOM      5  O   UNL A   1      33.200  23.724  21.408  1.00  0.00    -0.274 OA
ATOM      6  H   UNL A   1      35.281  22.849  21.967  1.00  0.00     0.163 HD
BRANCH   4   7
ATOM      7  C   UNL A   1      32.560  23.744  23.768  1.00  0.00     0.105 C 
ATOM      8  C   UNL A   1      31.087  23.719  23.348  1.00  0.00     0.023 C 
BRANCH   7   9
ATOM      9  C   UNL A   1      32.848  25.067  24.475  1.00  0.00    -0.033 A 
ATOM     10  C   UNL A   1      32.385  25.292  25.779  1.00  0.00     0.005 A 
ATOM     11  C   UNL A   1      33.527  26.107  23.824  1.00  0.00     0.044 A 
ATOM     12  C   UNL A   1      32.590  26.528  26.408  1.00  0.00     0.012 A 
ATOM     13  C   UNL A   1      33.727  27.333  24.458  1.00  0.00     0.131 A 
ATOM     14  C   UNL A   1      33.260  27.576  25.755  1.00  0.00     0.017 A 
ATOM     15  F   UNL A   1      34.382  28.290  23.781  1.00  0.00    -0.206 F 
BRANCH  14  16
ATOM     16  C   UNL A   1      33.441  28.884  26.407  1.00  0.00    -0.015 A 
ATOM     17  C   UNL A   1      34.656  29.226  27.026  1.00  0.00     0.009 A 
ATOM     18  C   UNL A   1      32.401  29.828  26.435  1.00  0.00     0.009 A 
ATOM     19  C   UNL A   1      34.823  30.467  27.647  1.00  0.00     0.001 A 
ATOM     20  C   UNL A   1      32.565  31.068  27.057  1.00  0.00     0.001 A 
ATOM     21  C   UNL A   1      33.777  31.387  27.663  1.00  0.00     0.000 A 
ENDBRANCH  14  16
ENDBRANCH   7   9
ENDBRANCH   4   7
ENDBRANCH   2   3
ENDBRANCH   1   2
BRANCH   1  22
ATOM     22  C   UNL A   1      36.619  23.346  26.110  1.00  0.00     0.118 C 
BRANCH  22  23
ATOM     23  N   UNL A   1      37.782  22.478  26.172  1.00  0.00    -0.352 N 
ATOM     24  C   UNL A   1      39.096  22.763  26.437  1.00  0.00     0.251 C 
ATOM     25  H   UNL A   1      37.596  21.527  25.994  1.00  0.00     0.163 HD
ATOM     26  O   UNL A   1      39.938  21.875  26.287  1.00  0.00    -0.269 OA
BRANCH  24  27
ATOM     27  C   UNL A   1      39.533  24.109  26.876  1.00  0.00     0.039 A 
ATOM     28  C   UNL A   1      39.374  24.444  28.226  1.00  0.00     0.014 A 
ATOM     29  C   UNL A   1      40.032  25.062  25.983  1.00  0.00     0.014 A 
ATOM     30  C   UNL A   1      39.761  25.704  28.687  1.00  0.00     0.010 A 
ATOM     31  C   UNL A   1      40.474  26.301  26.455  1.00  0.00     0.010 A 
ATOM     32  C   UNL A   1      40.341  26.635  27.811  1.00  0.00    -0.014 A 
BRANCH  32  33
ATOM     33  C   UNL A   1      40.820  27.947  28.318  1.00  0.00     0.031 A 
ATOM     34  C   UNL A   1      42.284  28.288  28.318  1.00  0.00     0.074 A 
ATOM     35  C   UNL A   1      39.927  28.830  28.805  1.00  0.00     0.049 A 
ATOM     36  N   UNL A   1      42.874  29.390  28.710  1.00  0.00    -0.248 NA
ATOM     37  C   UNL A   1      43.207  27.252  27.832  1.00  0.00     0.031 C 
ATOM     38  C   UNL A   1      38.484  28.602  28.913  1.00  0.00     0.029 A 
ATOM     39  N   UNL A   1      40.101  30.097  29.302  1.00  0.00    -0.354 N 
ATOM     40  C   UNL A   1      44.233  29.179  28.526  1.00  0.00     0.074 A 
ATOM     41  C   UNL A   1      44.386  27.828  28.028  1.00  0.00     0.031 C 
ATOM     42  C   UNL A   1      37.903  29.703  29.417  1.00  0.00     0.029 A 
ATOM     43  C   UNL A   1      38.931  30.703  29.688  1.00  0.00     0.049 A 
ATOM     44  H   UNL A   1      40.982  30.531  29.374  1.00  0.00     0.167 HD
ATOM     45  C   UNL A   1      45.262  30.038  28.732  1.00  0.00     0.037 A 
ATOM     46  C   UNL A   1      38.708  31.929  30.196  1.00  0.00     0.037 A 
ATOM     47  C   UNL A   1      45.114  31.389  29.207  1.00  0.00     0.049 A 
ATOM     48  C   UNL A   1      39.860  32.871  30.391  1.00  0.00     0.074 A 
ATOM     49  C   UNL A   1      46.093  32.350  29.396  1.00  0.00     0.029 A 
ATOM     50  N   UNL A   1      43.910  31.971  29.569  1.00  0.00    -0.354 N 
ATOM     51  N   UNL A   1      41.134  32.677  30.151  1.00  0.00    -0.248 NA
ATOM     52  C   UNL A   1      39.542  34.206  30.917  1.00  0.00     0.031 C 
ATOM     53  C   UNL A   1      45.484  33.505  29.899  1.00  0.00     0.029 A 
ATOM     54  C   UNL A   1      44.121  33.273  29.992  1.00  0.00     0.049 A 
ATOM     55  H   UNL A   1      43.033  31.526  29.530  1.00  0.00     0.167 HD
ATOM     56  C   UNL A   1      41.766  33.867  30.483  1.00  0.00     0.074 A 
ATOM     57  C   UNL A   1      40.735  34.784  30.922  1.00  0.00     0.031 C 
ATOM     58  C   UNL A   1      43.086  34.171  30.433  1.00  0.00     0.037 A 
BRANCH  45  59
ATOM     59  C   UNL A   1      46.645  29.541  28.431  1.00  0.00     0.057 A 
ATOM     60  C   UNL A   1      47.197  29.642  27.149  1.00  0.00     0.134 A 
ATOM     61  C   UNL A   1      47.443  28.987  29.439  1.00  0.00     0.134 A 
ATOM     62  F   UNL A   1      46.479  30.153  26.137  1.00  0.00    -0.206 F 
ATOM     63  C   UNL A   1      48.491  29.193  26.873  1.00  0.00     0.040 A 
ATOM     64  C   UNL A   1      48.746  28.554  29.181  1.00  0.00     0.040 A 
ATOM     65  F   UNL A   1      46.976  28.866  30.690  1.00  0.00    -0.206 F 
ATOM     66  C   UNL A   1      49.270  28.652  27.893  1.00  0.00     0.006 A 
ENDBRANCH  45  59
BRANCH  46  67
ATOM     67  C   UNL A   1      37.324  32.348  30.526  1.00  0.00     0.057 A 
ATOM     68  C   UNL A   1      36.743  32.010  31.752  1.00  0.00     0.134 A 
ATOM     69  C   UNL A   1      36.556  33.097  29.627  1.00  0.00     0.134 A 
ATOM     70  F   UNL A   1      37.426  31.279  32.645  1.00  0.00    -0.206 F 
ATOM     71  C   UNL A   1      35.438  32.389  32.071  1.00  0.00     0.040 A 
ATOM     72  C   UNL A   1      35.257  33.499  29.941  1.00  0.00     0.040 A 
ATOM     73  F   UNL A   1      37.061  33.457  28.439  1.00  0.00    -0.206 F 
ATOM     74  C   UNL A   1      34.693  33.140  31.164  1.00  0.00     0.006 A 
ENDBRANCH  46  67
BRANCH  58  75
ATOM     75  C   UNL A   1      43.480  35.556  30.855  1.00  0.00     0.057 A 
ATOM     76  C   UNL A   1      43.773  35.859  32.191  1.00  0.00     0.134 A 
ATOM     77  C   UNL A   1      43.579  36.590  29.916  1.00  0.00     0.134 A 
ATOM     78  F   UNL A   1      43.680  34.915  33.138  1.00  0.00    -0.206 F 
ATOM     79  C   UNL A   1      44.127  37.151  32.582  1.00  0.00     0.040 A 
ATOM     80  C   UNL A   1      43.953  37.880  30.292  1.00  0.00     0.040 A 
ATOM     81  F   UNL A   1      43.316  36.362  28.621  1.00  0.00    -0.206 F 
ATOM     82  C   UNL A   1      44.223  38.165  31.630  1.00  0.00     0.006 A 
ENDBRANCH  58  75
ENDBRANCH  32  33
ENDBRANCH  24  27
ENDBRANCH  22  23
ENDBRANCH   1  22
TORSDOF 12
ENDMDL
MODEL 3
REMARK VINA RESULT:     -11.0      0.621      6.390
REMARK SMILES C[C@@H](C(=O)NCCCNC(=O)c1ccc(-c2c3nc(c(-c4c(F)cccc4F)c4ccc([nH]4)c(-c4c(F)cccc4F)c4nc(c(-c5c(F)cccc5F)c5ccc2[nH]5)C=C4)C=C3)cc1)c1ccc(-c2ccccc2)c(F)c1
REMARK SMILES IDX 7 1 6 2 5 3 3 4 4 5 2 7 1 8 66 9 67 10 78 11 68 12 76 13
REMARK SMILES IDX 69 14 77 15 70 16 71 17 75 18 72 19 74 20 73 21 8 22 9 23
REMARK SMILES IDX 10 24 11 26 12 27 13 28 65 29 14 30 64 31 15 32 16 33 17 34
REMARK SMILES IDX 58 35 18 36 63 37 57 38 59 39 19 40 62 41 56 42 55 43 20 45
REMARK SMILES IDX 46 46 29 47 45 48 30 49 33 50 44 51 60 52 31 53 32 54 43 56
REMARK SMILES IDX 61 57 34 58 21 59 22 60 27 61 23 62 24 63 26 64 28 65 25 66
REMARK SMILES IDX 47 67 48 68 53 69 49 70 50 71 52 72 54 73 51 74 35 75 36 76
REMARK SMILES IDX 41 77 37 78 38 79 40 80 42 81 39 82
REMARK H PARENT 5 6 9 25 59 44 33 55
REMARK Flexibility Score: inf
ROOT
ATOM      1  C   UNL A   1      33.692  28.204  25.548  1.00  0.00     0.042 C 
ENDROOT
BRANCH   1   2
ATOM      2  C   UNL A   1      32.253  28.594  25.210  1.00  0.00     0.117 C 
BRANCH   2   3
ATOM      3  N   UNL A   1      31.286  27.710  25.833  1.00  0.00    -0.356 N 
ATOM      4  C   UNL A   1      30.841  26.473  25.469  1.00  0.00     0.227 C 
ATOM      5  O   UNL A   1      29.973  25.975  26.189  1.00  0.00    -0.274 OA
ATOM      6  H   UNL A   1      30.881  28.064  26.657  1.00  0.00     0.163 HD
BRANCH   4   7
ATOM      7  C   UNL A   1      31.426  25.766  24.234  1.00  0.00     0.105 C 
ATOM      8  C   UNL A   1      30.441  24.758  23.635  1.00  0.00     0.023 C 
BRANCH   7   9
ATOM      9  C   UNL A   1      32.748  25.054  24.517  1.00  0.00    -0.033 A 
ATOM     10  C   UNL A   1      33.691  24.874  23.496  1.00  0.00     0.005 A 
ATOM     11  C   UNL A   1      33.027  24.514  25.781  1.00  0.00     0.044 A 
ATOM     12  C   UNL A   1      34.877  24.164  23.734  1.00  0.00     0.012 A 
ATOM     13  C   UNL A   1      34.209  23.811  26.009  1.00  0.00     0.131 A 
ATOM     14  C   UNL A   1      35.155  23.612  24.996  1.00  0.00     0.017 A 
ATOM     15  F   UNL A   1      34.417  23.316  27.239  1.00  0.00    -0.206 F 
BRANCH  14  16
ATOM     16  C   UNL A   1      36.385  22.837  25.231  1.00  0.00    -0.015 A 
ATOM     17  C   UNL A   1      36.498  21.503  24.804  1.00  0.00     0.009 A 
ATOM     18  C   UNL A   1      37.483  23.410  25.895  1.00  0.00     0.009 A 
ATOM     19  C   UNL A   1      37.666  20.770  25.032  1.00  0.00     0.001 A 
ATOM     20  C   UNL A   1      38.651  22.679  26.126  1.00  0.00     0.001 A 
ATOM     21  C   UNL A   1      38.741  21.358  25.694  1.00  0.00     0.000 A 
ENDBRANCH  14  16
ENDBRANCH   7   9
ENDBRANCH   4   7
ENDBRANCH   2   3
ENDBRANCH   1   2
BRANCH   1  22
ATOM     22  C   UNL A   1      34.053  28.285  27.031  1.00  0.00     0.118 C 
BRANCH  22  23
ATOM     23  N   UNL A   1      33.952  29.631  27.569  1.00  0.00    -0.352 N 
ATOM     24  C   UNL A   1      34.864  30.390  28.254  1.00  0.00     0.251 C 
ATOM     25  H   UNL A   1      33.083  30.070  27.417  1.00  0.00     0.163 HD
ATOM     26  O   UNL A   1      34.498  31.460  28.744  1.00  0.00    -0.269 OA
BRANCH  24  27
ATOM     27  C   UNL A   1      36.267  29.951  28.438  1.00  0.00     0.039 A 
ATOM     28  C   UNL A   1      37.153  30.110  27.365  1.00  0.00     0.014 A 
ATOM     29  C   UNL A   1      36.710  29.334  29.612  1.00  0.00     0.014 A 
ATOM     30  C   UNL A   1      38.482  29.703  27.486  1.00  0.00     0.010 A 
ATOM     31  C   UNL A   1      38.056  28.981  29.754  1.00  0.00     0.010 A 
ATOM     32  C   UNL A   1      38.953  29.160  28.692  1.00  0.00    -0.014 A 
BRANCH  32  33
ATOM     33  C   UNL A   1      40.386  28.796  28.843  1.00  0.00     0.031 A 
ATOM     34  C   UNL A   1      40.888  27.441  28.428  1.00  0.00     0.074 A 
ATOM     35  C   UNL A   1      41.239  29.688  29.381  1.00  0.00     0.049 A 
ATOM     36  N   UNL A   1      42.106  26.962  28.476  1.00  0.00    -0.248 NA
ATOM     37  C   UNL A   1      39.890  26.494  27.908  1.00  0.00     0.031 C 
ATOM     38  C   UNL A   1      40.872  31.018  29.875  1.00  0.00     0.029 A 
ATOM     39  N   UNL A   1      42.591  29.613  29.604  1.00  0.00    -0.354 N 
ATOM     40  C   UNL A   1      42.021  25.660  28.001  1.00  0.00     0.074 A 
ATOM     41  C   UNL A   1      40.625  25.408  27.712  1.00  0.00     0.031 C 
ATOM     42  C   UNL A   1      41.976  31.641  30.318  1.00  0.00     0.029 A 
ATOM     43  C   UNL A   1      43.122  30.751  30.160  1.00  0.00     0.049 A 
ATOM     44  H   UNL A   1      43.130  28.818  29.386  1.00  0.00     0.167 HD
ATOM     45  C   UNL A   1      43.017  24.761  27.804  1.00  0.00     0.037 A 
ATOM     46  C   UNL A   1      44.390  31.049  30.498  1.00  0.00     0.037 A 
ATOM     47  C   UNL A   1      44.409  25.013  28.072  1.00  0.00     0.049 A 
ATOM     48  C   UNL A   1      45.479  30.046  30.246  1.00  0.00     0.074 A 
ATOM     49  C   UNL A   1      45.495  24.182  27.854  1.00  0.00     0.029 A 
ATOM     50  N   UNL A   1      44.908  26.186  28.617  1.00  0.00    -0.354 N 
ATOM     51  N   UNL A   1      45.390  28.842  29.737  1.00  0.00    -0.248 NA
ATOM     52  C   UNL A   1      46.845  30.450  30.606  1.00  0.00     0.031 C 
ATOM     53  C   UNL A   1      46.648  24.841  28.293  1.00  0.00     0.029 A 
ATOM     54  C   UNL A   1      46.284  26.096  28.754  1.00  0.00     0.049 A 
ATOM     55  H   UNL A   1      44.366  26.968  28.868  1.00  0.00     0.167 HD
ATOM     56  C   UNL A   1      46.686  28.349  29.703  1.00  0.00     0.074 A 
ATOM     57  C   UNL A   1      47.547  29.391  30.223  1.00  0.00     0.031 C 
ATOM     58  C   UNL A   1      47.125  27.138  29.281  1.00  0.00     0.037 A 
BRANCH  45  59
ATOM     59  C   UNL A   1      42.633  23.417  27.260  1.00  0.00     0.057 A 
ATOM     60  C   UNL A   1      42.667  23.145  25.887  1.00  0.00     0.134 A 
ATOM     61  C   UNL A   1      42.260  22.376  28.118  1.00  0.00     0.134 A 
ATOM     62  F   UNL A   1      43.005  24.104  25.012  1.00  0.00    -0.206 F 
ATOM     63  C   UNL A   1      42.323  21.889  25.382  1.00  0.00     0.040 A 
ATOM     64  C   UNL A   1      41.935  21.109  27.627  1.00  0.00     0.040 A 
ATOM     65  F   UNL A   1      42.212  22.568  29.444  1.00  0.00    -0.206 F 
ATOM     66  C   UNL A   1      41.962  20.865  26.255  1.00  0.00     0.006 A 
ENDBRANCH  45  59
BRANCH  46  67
ATOM     67  C   UNL A   1      44.704  32.374  31.083  1.00  0.00     0.057 A 
ATOM     68  C   UNL A   1      44.720  32.564  32.468  1.00  0.00     0.134 A 
ATOM     69  C   UNL A   1      44.996  33.478  30.273  1.00  0.00     0.134 A 
ATOM     70  F   UNL A   1      44.429  31.547  33.293  1.00  0.00    -0.206 F 
ATOM     71  C   UNL A   1      45.002  33.809  33.032  1.00  0.00     0.040 A 
ATOM     72  C   UNL A   1      45.300  34.724  30.824  1.00  0.00     0.040 A 
ATOM     73  F   UNL A   1      45.003  33.356  28.938  1.00  0.00    -0.206 F 
ATOM     74  C   UNL A   1      45.298  34.893  32.207  1.00  0.00     0.006 A 
ENDBRANCH  46  67
BRANCH  58  75
ATOM     75  C   UNL A   1      48.602  26.887  29.360  1.00  0.00     0.057 A 
ATOM     76  C   UNL A   1      49.182  26.273  30.477  1.00  0.00     0.134 A 
ATOM     77  C   UNL A   1      49.448  27.249  28.304  1.00  0.00     0.134 A 
ATOM     78  F   UNL A   1      48.427  25.917  31.526  1.00  0.00    -0.206 F 
ATOM     79  C   UNL A   1      50.558  26.051  30.551  1.00  0.00     0.040 A 
ATOM     80  C   UNL A   1      50.821  27.012  28.358  1.00  0.00     0.040 A 
ATOM     81  F   UNL A   1      48.951  27.835  27.205  1.00  0.00    -0.206 F 
ATOM     82  C   UNL A   1      51.381  26.417  29.488  1.00  0.00     0.006 A 
ENDBRANCH  58  75
ENDBRANCH  32  33
ENDBRANCH  24  27
ENDBRANCH  22  23
ENDBRANCH   1  22
TORSDOF 12
ENDMDL
