MODEL 1
REMARK VINA RESULT:     -12.4      0.000      0.000
REMARK SMILES Cc1cc(C(=O)NCCCNC(=O)c2ccc(-c3c4nc(c(-c5c(F)cccc5F)c5ccc([nH]5)c(-c5c(F)cccc5F)c5nc(c(-c6c(F)cccc6F)c6ccc3[nH]6)C=C5)C=C4)cc2)c(C#Cc2ccccc2)s1
REMARK SMILES IDX 9 1 8 2 7 3 5 4 6 5 4 7 1 8 2 9 3 10 77 11 68 12 69 13 70 14
REMARK SMILES IDX 71 15 72 16 76 17 73 18 75 19 74 20 10 21 11 22 12 23 13 25
REMARK SMILES IDX 14 26 15 27 67 28 16 29 66 30 17 31 18 32 19 33 60 34 20 35
REMARK SMILES IDX 65 36 59 37 61 38 21 39 64 40 58 41 57 42 22 44 48 45 31 46
REMARK SMILES IDX 47 47 32 48 35 49 46 50 62 51 33 52 34 53 45 55 63 56 36 57
REMARK SMILES IDX 23 58 24 59 29 60 25 61 26 62 28 63 30 64 27 65 49 66 50 67
REMARK SMILES IDX 55 68 51 69 52 70 54 71 56 72 53 73 37 74 38 75 43 76 39 77
REMARK SMILES IDX 40 78 42 79 44 80 41 81
REMARK H PARENT 7 6 11 24 61 43 35 54
REMARK Flexibility Score: inf
ROOT
ATOM      1  C   UNL A   1      31.954  29.656  27.009  1.00  0.00     0.042 C 
ENDROOT
BRANCH   1   2
ATOM      2  C   UNL A   1      32.181  28.271  27.628  1.00  0.00     0.118 C 
BRANCH   2   3
ATOM      3  N   UNL A   1      31.145  27.327  27.249  1.00  0.00    -0.352 N 
ATOM      4  C   UNL A   1      31.009  26.344  26.299  1.00  0.00     0.253 C 
ATOM      5  O   UNL A   1      29.951  25.714  26.377  1.00  0.00    -0.269 OA
ATOM      6  H   UNL A   1      30.341  27.412  27.810  1.00  0.00     0.163 HD
BRANCH   4   7
ATOM      7  C   UNL A   1      32.030  26.040  25.280  1.00  0.00     0.066 A 
ATOM      8  C   UNL A   1      35.000  24.094  23.890  1.00  0.00     0.056 C 
ATOM      9  C   UNL A   1      33.857  25.006  24.176  1.00  0.00     0.004 A 
ATOM     10  C   UNL A   1      33.120  25.098  25.337  1.00  0.00     0.030 A 
ATOM     11  S   UNL A   1      33.317  26.120  23.018  1.00  0.00    -0.131 S 
ATOM     12  C   UNL A   1      32.092  26.717  24.059  1.00  0.00     0.090 A 
BRANCH  12  13
ATOM     13  C   UNL A   1      31.277  27.811  23.611  1.00  0.00    -0.050 C 
ATOM     14  C   UNL A   1      30.568  28.723  23.296  1.00  0.00    -0.061 C 
BRANCH  14  15
ATOM     15  C   UNL A   1      29.719  29.826  22.944  1.00  0.00     0.025 A 
ATOM     16  C   UNL A   1      29.438  30.821  23.883  1.00  0.00     0.017 A 
ATOM     17  C   UNL A   1      29.160  29.901  21.665  1.00  0.00     0.017 A 
ATOM     18  C   UNL A   1      28.591  31.880  23.548  1.00  0.00     0.001 A 
ATOM     19  C   UNL A   1      28.314  30.960  21.332  1.00  0.00     0.001 A 
ATOM     20  C   UNL A   1      28.026  31.947  22.274  1.00  0.00     0.000 A 
ENDBRANCH  14  15
ENDBRANCH  12  13
ENDBRANCH   4   7
ENDBRANCH   2   3
ENDBRANCH   1   2
BRANCH   1  21
ATOM     21  C   UNL A   1      33.256  30.413  26.723  1.00  0.00     0.118 C 
BRANCH  21  22
ATOM     22  N   UNL A   1      33.629  31.342  27.772  1.00  0.00    -0.352 N 
ATOM     23  C   UNL A   1      34.767  31.662  28.450  1.00  0.00     0.251 C 
ATOM     24  H   UNL A   1      32.863  31.882  28.072  1.00  0.00     0.163 HD
ATOM     25  O   UNL A   1      34.663  32.612  29.233  1.00  0.00    -0.269 OA
BRANCH  23  26
ATOM     26  C   UNL A   1      36.060  30.931  28.400  1.00  0.00     0.039 A 
ATOM     27  C   UNL A   1      36.244  29.592  28.058  1.00  0.00     0.014 A 
ATOM     28  C   UNL A   1      37.178  31.676  28.831  1.00  0.00     0.014 A 
ATOM     29  C   UNL A   1      37.469  28.976  28.320  1.00  0.00     0.010 A 
ATOM     30  C   UNL A   1      38.405  31.077  29.058  1.00  0.00     0.010 A 
ATOM     31  C   UNL A   1      38.520  29.707  28.896  1.00  0.00    -0.014 A 
BRANCH  31  32
ATOM     32  C   UNL A   1      39.797  29.052  29.174  1.00  0.00     0.031 A 
ATOM     33  C   UNL A   1      40.090  28.986  30.630  1.00  0.00     0.074 A 
ATOM     34  C   UNL A   1      40.585  28.484  28.231  1.00  0.00     0.049 A 
ATOM     35  N   UNL A   1      40.998  29.651  31.264  1.00  0.00    -0.248 NA
ATOM     36  C   UNL A   1      39.150  28.277  31.514  1.00  0.00     0.031 C 
ATOM     37  C   UNL A   1      40.338  28.315  26.796  1.00  0.00     0.029 A 
ATOM     38  N   UNL A   1      41.801  27.875  28.390  1.00  0.00    -0.354 N 
ATOM     39  C   UNL A   1      40.891  29.275  32.600  1.00  0.00     0.074 A 
ATOM     40  C   UNL A   1      39.639  28.576  32.720  1.00  0.00     0.031 C 
ATOM     41  C   UNL A   1      41.246  27.457  26.269  1.00  0.00     0.029 A 
ATOM     42  C   UNL A   1      42.228  27.125  27.284  1.00  0.00     0.049 A 
ATOM     43  H   UNL A   1      42.334  27.957  29.214  1.00  0.00     0.167 HD
ATOM     44  C   UNL A   1      41.970  29.362  33.425  1.00  0.00     0.037 A 
ATOM     45  C   UNL A   1      43.307  26.291  27.241  1.00  0.00     0.037 A 
ATOM     46  C   UNL A   1      42.969  30.238  32.861  1.00  0.00     0.049 A 
ATOM     47  C   UNL A   1      44.225  26.717  28.330  1.00  0.00     0.074 A 
ATOM     48  C   UNL A   1      43.012  31.577  32.523  1.00  0.00     0.029 A 
ATOM     49  N   UNL A   1      44.011  29.649  32.188  1.00  0.00    -0.354 N 
ATOM     50  N   UNL A   1      44.864  27.854  28.307  1.00  0.00    -0.248 NA
ATOM     51  C   UNL A   1      43.991  26.147  29.650  1.00  0.00     0.031 C 
ATOM     52  C   UNL A   1      43.741  31.622  31.297  1.00  0.00     0.029 A 
ATOM     53  C   UNL A   1      44.188  30.332  31.013  1.00  0.00     0.049 A 
ATOM     54  H   UNL A   1      44.537  28.874  32.494  1.00  0.00     0.167 HD
ATOM     55  C   UNL A   1      44.700  28.366  29.585  1.00  0.00     0.074 A 
ATOM     56  C   UNL A   1      44.180  27.250  30.381  1.00  0.00     0.031 C 
ATOM     57  C   UNL A   1      44.695  29.712  29.814  1.00  0.00     0.037 A 
BRANCH  44  58
ATOM     58  C   UNL A   1      42.327  28.327  34.468  1.00  0.00     0.057 A 
ATOM     59  C   UNL A   1      42.050  28.457  35.843  1.00  0.00     0.134 A 
ATOM     60  C   UNL A   1      42.625  27.019  34.040  1.00  0.00     0.134 A 
ATOM     61  F   UNL A   1      41.732  29.625  36.411  1.00  0.00    -0.206 F 
ATOM     62  C   UNL A   1      41.980  27.360  36.706  1.00  0.00     0.040 A 
ATOM     63  C   UNL A   1      42.515  25.910  34.885  1.00  0.00     0.040 A 
ATOM     64  F   UNL A   1      42.930  26.767  32.757  1.00  0.00    -0.206 F 
ATOM     65  C   UNL A   1      42.168  26.077  36.220  1.00  0.00     0.006 A 
ENDBRANCH  44  58
BRANCH  45  66
ATOM     66  C   UNL A   1      43.468  24.979  26.557  1.00  0.00     0.057 A 
ATOM     67  C   UNL A   1      44.235  24.870  25.385  1.00  0.00     0.134 A 
ATOM     68  C   UNL A   1      42.649  23.874  26.851  1.00  0.00     0.134 A 
ATOM     69  F   UNL A   1      44.990  25.893  24.962  1.00  0.00    -0.206 F 
ATOM     70  C   UNL A   1      44.184  23.745  24.550  1.00  0.00     0.040 A 
ATOM     71  C   UNL A   1      42.591  22.739  26.023  1.00  0.00     0.040 A 
ATOM     72  F   UNL A   1      41.833  23.893  27.915  1.00  0.00    -0.206 F 
ATOM     73  C   UNL A   1      43.353  22.677  24.862  1.00  0.00     0.006 A 
ENDBRANCH  45  66
BRANCH  57  74
ATOM     74  C   UNL A   1      45.064  30.621  28.675  1.00  0.00     0.057 A 
ATOM     75  C   UNL A   1      46.347  31.175  28.655  1.00  0.00     0.134 A 
ATOM     76  C   UNL A   1      44.168  31.066  27.690  1.00  0.00     0.134 A 
ATOM     77  F   UNL A   1      47.237  30.851  29.606  1.00  0.00    -0.206 F 
ATOM     78  C   UNL A   1      46.734  32.108  27.690  1.00  0.00     0.040 A 
ATOM     79  C   UNL A   1      44.552  31.975  26.698  1.00  0.00     0.040 A 
ATOM     80  F   UNL A   1      42.886  30.680  27.694  1.00  0.00    -0.206 F 
ATOM     81  C   UNL A   1      45.841  32.500  26.698  1.00  0.00     0.006 A 
ENDBRANCH  57  74
ENDBRANCH  31  32
ENDBRANCH  23  26
ENDBRANCH  21  22
ENDBRANCH   1  21
TORSDOF 12
ENDMDL
MODEL 2
REMARK VINA RESULT:     -12.3      3.692      8.804
REMARK SMILES Cc1cc(C(=O)NCCCNC(=O)c2ccc(-c3c4nc(c(-c5c(F)cccc5F)c5ccc([nH]5)c(-c5c(F)cccc5F)c5nc(c(-c6c(F)cccc6F)c6ccc3[nH]6)C=C5)C=C4)cc2)c(C#Cc2ccccc2)s1
REMARK SMILES IDX 9 1 8 2 7 3 5 4 6 5 4 7 1 8 2 9 3 10 77 11 68 12 69 13 70 14
REMARK SMILES IDX 71 15 72 16 76 17 73 18 75 19 74 20 10 21 11 22 12 23 13 25
REMARK SMILES IDX 14 26 15 27 67 28 16 29 66 30 17 31 18 32 19 33 60 34 20 35
REMARK SMILES IDX 65 36 59 37 61 38 21 39 64 40 58 41 57 42 22 44 48 45 31 46
REMARK SMILES IDX 47 47 32 48 35 49 46 50 62 51 33 52 34 53 45 55 63 56 36 57
REMARK SMILES IDX 23 58 24 59 29 60 25 61 26 62 28 63 30 64 27 65 49 66 50 67
REMARK SMILES IDX 55 68 51 69 52 70 54 71 56 72 53 73 37 74 38 75 43 76 39 77
REMARK SMILES IDX 40 78 42 79 44 80 41 81
REMARK H PARENT 7 6 11 24 61 43 35 54
REMARK Flexibility Score: inf
ROOT
ATOM      1  C   UNL A   1      38.887  22.453  26.125  1.00  0.00     0.042 C 
ENDROOT
BRANCH   1   2
ATOM      2  C   UNL A   1      37.706  21.642  25.577  1.00  0.00     0.118 C 
BRANCH   2   3
ATOM      3  N   UNL A   1      37.341  22.049  24.232  1.00  0.00    -0.352 N 
ATOM      4  C   UNL A   1      36.334  22.794  23.668  1.00  0.00     0.253 C 
ATOM      5  O   UNL A   1      36.448  22.952  22.450  1.00  0.00    -0.269 OA
ATOM      6  H   UNL A   1      37.969  21.706  23.557  1.00  0.00     0.163 HD
BRANCH   4   7
ATOM      7  C   UNL A   1      35.216  23.377  24.433  1.00  0.00     0.066 A 
ATOM      8  C   UNL A   1      33.306  26.262  26.036  1.00  0.00     0.056 C 
ATOM      9  C   UNL A   1      33.828  24.967  25.515  1.00  0.00     0.004 A 
ATOM     10  C   UNL A   1      35.028  24.735  24.877  1.00  0.00     0.030 A 
ATOM     11  S   UNL A   1      32.937  23.535  25.684  1.00  0.00    -0.131 S 
ATOM     12  C   UNL A   1      34.145  22.607  24.895  1.00  0.00     0.090 A 
BRANCH  12  13
ATOM     13  C   UNL A   1      33.962  21.187  24.783  1.00  0.00    -0.050 C 
ATOM     14  C   UNL A   1      33.823  19.998  24.755  1.00  0.00    -0.061 C 
BRANCH  14  15
ATOM     15  C   UNL A   1      33.647  18.573  24.746  1.00  0.00     0.025 A 
ATOM     16  C   UNL A   1      34.399  17.782  23.875  1.00  0.00     0.017 A 
ATOM     17  C   UNL A   1      32.717  17.975  25.599  1.00  0.00     0.017 A 
ATOM     18  C   UNL A   1      34.210  16.398  23.847  1.00  0.00     0.001 A 
ATOM     19  C   UNL A   1      32.528  16.592  25.570  1.00  0.00     0.001 A 
ATOM     20  C   UNL A   1      33.272  15.804  24.692  1.00  0.00     0.000 A 
ENDBRANCH  14  15
ENDBRANCH  12  13
ENDBRANCH   4   7
ENDBRANCH   2   3
ENDBRANCH   1   2
BRANCH   1  21
ATOM     21  C   UNL A   1      40.133  21.603  26.395  1.00  0.00     0.118 C 
BRANCH  21  22
ATOM     22  N   UNL A   1      41.349  22.159  25.832  1.00  0.00    -0.352 N 
ATOM     23  C   UNL A   1      42.041  23.328  25.935  1.00  0.00     0.251 C 
ATOM     24  H   UNL A   1      41.788  21.529  25.217  1.00  0.00     0.163 HD
ATOM     25  O   UNL A   1      43.117  23.357  25.330  1.00  0.00    -0.269 OA
BRANCH  23  26
ATOM     26  C   UNL A   1      41.585  24.568  26.616  1.00  0.00     0.039 A 
ATOM     27  C   UNL A   1      40.775  25.564  26.071  1.00  0.00     0.014 A 
ATOM     28  C   UNL A   1      42.114  24.762  27.909  1.00  0.00     0.014 A 
ATOM     29  C   UNL A   1      40.656  26.790  26.727  1.00  0.00     0.010 A 
ATOM     30  C   UNL A   1      41.968  25.965  28.579  1.00  0.00     0.010 A 
ATOM     31  C   UNL A   1      41.323  27.011  27.942  1.00  0.00    -0.014 A 
BRANCH  31  32
ATOM     32  C   UNL A   1      41.200  28.301  28.618  1.00  0.00     0.031 A 
ATOM     33  C   UNL A   1      42.301  29.233  28.258  1.00  0.00     0.074 A 
ATOM     34  C   UNL A   1      40.159  28.652  29.410  1.00  0.00     0.049 A 
ATOM     35  N   UNL A   1      43.265  29.620  29.025  1.00  0.00    -0.248 NA
ATOM     36  C   UNL A   1      42.480  29.610  26.845  1.00  0.00     0.031 C 
ATOM     37  C   UNL A   1      38.929  27.911  29.705  1.00  0.00     0.029 A 
ATOM     38  N   UNL A   1      39.969  29.818  30.102  1.00  0.00    -0.354 N 
ATOM     39  C   UNL A   1      44.053  30.472  28.256  1.00  0.00     0.074 A 
ATOM     40  C   UNL A   1      43.630  30.287  26.893  1.00  0.00     0.031 C 
ATOM     41  C   UNL A   1      38.033  28.728  30.313  1.00  0.00     0.029 A 
ATOM     42  C   UNL A   1      38.666  30.005  30.586  1.00  0.00     0.049 A 
ATOM     43  H   UNL A   1      40.689  30.474  30.248  1.00  0.00     0.167 HD
ATOM     44  C   UNL A   1      44.809  31.432  28.855  1.00  0.00     0.037 A 
ATOM     45  C   UNL A   1      38.170  31.142  31.154  1.00  0.00     0.037 A 
ATOM     46  C   UNL A   1      44.987  31.137  30.256  1.00  0.00     0.049 A 
ATOM     47  C   UNL A   1      39.335  31.919  31.652  1.00  0.00     0.074 A 
ATOM     48  C   UNL A   1      45.574  30.110  30.969  1.00  0.00     0.029 A 
ATOM     49  N   UNL A   1      44.156  31.779  31.141  1.00  0.00    -0.354 N 
ATOM     50  N   UNL A   1      40.073  31.517  32.649  1.00  0.00    -0.248 NA
ATOM     51  C   UNL A   1      39.981  32.819  30.706  1.00  0.00     0.031 C 
ATOM     52  C   UNL A   1      44.698  29.882  32.072  1.00  0.00     0.029 A 
ATOM     53  C   UNL A   1      43.690  30.845  32.029  1.00  0.00     0.049 A 
ATOM     54  H   UNL A   1      43.934  32.739  31.139  1.00  0.00     0.167 HD
ATOM     55  C   UNL A   1      41.375  31.722  32.217  1.00  0.00     0.074 A 
ATOM     56  C   UNL A   1      41.254  32.560  31.021  1.00  0.00     0.031 C 
ATOM     57  C   UNL A   1      42.402  30.944  32.669  1.00  0.00     0.037 A 
BRANCH  44  58
ATOM     58  C   UNL A   1      44.983  32.834  28.315  1.00  0.00     0.057 A 
ATOM     59  C   UNL A   1      43.962  33.806  28.285  1.00  0.00     0.134 A 
ATOM     60  C   UNL A   1      46.289  33.336  28.160  1.00  0.00     0.134 A 
ATOM     61  F   UNL A   1      42.669  33.503  28.435  1.00  0.00    -0.206 F 
ATOM     62  C   UNL A   1      44.227  35.175  28.203  1.00  0.00     0.040 A 
ATOM     63  C   UNL A   1      46.567  34.707  28.121  1.00  0.00     0.040 A 
ATOM     64  F   UNL A   1      47.347  32.510  28.147  1.00  0.00    -0.206 F 
ATOM     65  C   UNL A   1      45.533  35.633  28.166  1.00  0.00     0.006 A 
ENDBRANCH  44  58
BRANCH  45  66
ATOM     66  C   UNL A   1      36.822  31.759  31.024  1.00  0.00     0.057 A 
ATOM     67  C   UNL A   1      36.421  32.361  29.819  1.00  0.00     0.134 A 
ATOM     68  C   UNL A   1      36.015  32.042  32.141  1.00  0.00     0.134 A 
ATOM     69  F   UNL A   1      37.159  32.229  28.708  1.00  0.00    -0.206 F 
ATOM     70  C   UNL A   1      35.302  33.201  29.729  1.00  0.00     0.040 A 
ATOM     71  C   UNL A   1      34.888  32.880  32.063  1.00  0.00     0.040 A 
ATOM     72  F   UNL A   1      36.335  31.566  33.353  1.00  0.00    -0.206 F 
ATOM     73  C   UNL A   1      34.535  33.471  30.854  1.00  0.00     0.006 A 
ENDBRANCH  45  66
BRANCH  57  74
ATOM     74  C   UNL A   1      42.119  29.986  33.793  1.00  0.00     0.057 A 
ATOM     75  C   UNL A   1      42.412  30.388  35.099  1.00  0.00     0.134 A 
ATOM     76  C   UNL A   1      41.700  28.658  33.619  1.00  0.00     0.134 A 
ATOM     77  F   UNL A   1      42.884  31.622  35.335  1.00  0.00    -0.206 F 
ATOM     78  C   UNL A   1      42.275  29.522  36.186  1.00  0.00     0.040 A 
ATOM     79  C   UNL A   1      41.527  27.789  34.702  1.00  0.00     0.040 A 
ATOM     80  F   UNL A   1      41.503  28.147  32.396  1.00  0.00    -0.206 F 
ATOM     81  C   UNL A   1      41.816  28.222  35.992  1.00  0.00     0.006 A 
ENDBRANCH  57  74
ENDBRANCH  31  32
ENDBRANCH  23  26
ENDBRANCH  21  22
ENDBRANCH   1  21
TORSDOF 12
ENDMDL
MODEL 3
REMARK VINA RESULT:     -12.2      2.157      6.375
REMARK SMILES Cc1cc(C(=O)NCCCNC(=O)c2ccc(-c3c4nc(c(-c5c(F)cccc5F)c5ccc([nH]5)c(-c5c(F)cccc5F)c5nc(c(-c6c(F)cccc6F)c6ccc3[nH]6)C=C5)C=C4)cc2)c(C#Cc2ccccc2)s1
REMARK SMILES IDX 9 1 8 2 7 3 5 4 6 5 4 7 1 8 2 9 3 10 77 11 68 12 69 13 70 14
REMARK SMILES IDX 71 15 72 16 76 17 73 18 75 19 74 20 10 21 11 22 12 23 13 25
REMARK SMILES IDX 14 26 15 27 67 28 16 29 66 30 17 31 18 32 19 33 60 34 20 35
REMARK SMILES IDX 65 36 59 37 61 38 21 39 64 40 58 41 57 42 22 44 48 45 31 46
REMARK SMILES IDX 47 47 32 48 35 49 46 50 62 51 33 52 34 53 45 55 63 56 36 57
REMARK SMILES IDX 23 58 24 59 29 60 25 61 26 62 28 63 30 64 27 65 49 66 50 67
REMARK SMILES IDX 55 68 51 69 52 70 54 71 56 72 53 73 37 74 38 75 43 76 39 77
REMARK SMILES IDX 40 78 42 79 44 80 41 81
REMARK H PARENT 7 6 11 24 61 43 35 54
REMARK Flexibility Score: inf
ROOT
ATOM      1  C   UNL A   1      34.314  30.941  27.425  1.00  0.00     0.042 C 
ENDROOT
BRANCH   1   2
ATOM      2  C   UNL A   1      33.149  30.473  26.545  1.00  0.00     0.118 C 
BRANCH   2   3
ATOM      3  N   UNL A   1      32.270  29.553  27.245  1.00  0.00    -0.352 N 
ATOM      4  C   UNL A   1      31.930  28.228  27.119  1.00  0.00     0.253 C 
ATOM      5  O   UNL A   1      31.171  27.819  28.002  1.00  0.00    -0.269 OA
ATOM      6  H   UNL A   1      31.801  29.986  27.994  1.00  0.00     0.163 HD
BRANCH   4   7
ATOM      7  C   UNL A   1      32.429  27.350  26.045  1.00  0.00     0.066 A 
ATOM      8  C   UNL A   1      34.517  24.467  24.678  1.00  0.00     0.056 C 
ATOM      9  C   UNL A   1      33.613  25.624  24.928  1.00  0.00     0.004 A 
ATOM     10  C   UNL A   1      33.427  26.312  26.109  1.00  0.00     0.030 A 
ATOM     11  S   UNL A   1      32.661  26.274  23.685  1.00  0.00    -0.131 S 
ATOM     12  C   UNL A   1      31.991  27.464  24.723  1.00  0.00     0.090 A 
BRANCH  12  13
ATOM     13  C   UNL A   1      31.083  28.430  24.171  1.00  0.00    -0.050 C 
ATOM     14  C   UNL A   1      30.367  29.242  23.659  1.00  0.00    -0.061 C 
BRANCH  14  15
ATOM     15  C   UNL A   1      29.517  30.207  23.022  1.00  0.00     0.025 A 
ATOM     16  C   UNL A   1      29.255  30.114  21.654  1.00  0.00     0.017 A 
ATOM     17  C   UNL A   1      28.958  31.250  23.766  1.00  0.00     0.017 A 
ATOM     18  C   UNL A   1      28.448  31.069  21.029  1.00  0.00     0.001 A 
ATOM     19  C   UNL A   1      28.152  32.203  23.141  1.00  0.00     0.001 A 
ATOM     20  C   UNL A   1      27.901  32.114  21.772  1.00  0.00     0.000 A 
ENDBRANCH  14  15
ENDBRANCH  12  13
ENDBRANCH   4   7
ENDBRANCH   2   3
ENDBRANCH   1   2
BRANCH   1  21
ATOM     21  C   UNL A   1      35.225  29.797  27.884  1.00  0.00     0.118 C 
BRANCH  21  22
ATOM     22  N   UNL A   1      35.492  29.803  29.310  1.00  0.00    -0.352 N 
ATOM     23  C   UNL A   1      36.554  29.526  30.118  1.00  0.00     0.251 C 
ATOM     24  H   UNL A   1      34.702  30.080  29.828  1.00  0.00     0.163 HD
ATOM     25  O   UNL A   1      36.375  29.754  31.318  1.00  0.00    -0.269 OA
BRANCH  23  26
ATOM     26  C   UNL A   1      37.839  28.904  29.705  1.00  0.00     0.039 A 
ATOM     27  C   UNL A   1      38.447  27.792  30.285  1.00  0.00     0.014 A 
ATOM     28  C   UNL A   1      38.523  29.586  28.677  1.00  0.00     0.014 A 
ATOM     29  C   UNL A   1      39.774  27.491  29.973  1.00  0.00     0.010 A 
ATOM     30  C   UNL A   1      39.827  29.268  28.339  1.00  0.00     0.010 A 
ATOM     31  C   UNL A   1      40.484  28.284  29.058  1.00  0.00    -0.014 A 
BRANCH  31  32
ATOM     32  C   UNL A   1      41.875  27.967  28.743  1.00  0.00     0.031 A 
ATOM     33  C   UNL A   1      42.003  26.705  27.969  1.00  0.00     0.074 A 
ATOM     34  C   UNL A   1      42.926  28.770  29.034  1.00  0.00     0.049 A 
ATOM     35  N   UNL A   1      42.492  25.587  28.393  1.00  0.00    -0.248 NA
ATOM     36  C   UNL A   1      41.330  26.599  26.663  1.00  0.00     0.031 C 
ATOM     37  C   UNL A   1      42.931  30.112  29.625  1.00  0.00     0.029 A 
ATOM     38  N   UNL A   1      44.258  28.550  28.804  1.00  0.00    -0.354 N 
ATOM     39  C   UNL A   1      42.393  24.693  27.331  1.00  0.00     0.074 A 
ATOM     40  C   UNL A   1      41.520  25.310  26.369  1.00  0.00     0.031 C 
ATOM     41  C   UNL A   1      44.160  30.671  29.491  1.00  0.00     0.029 A 
ATOM     42  C   UNL A   1      45.071  29.684  28.941  1.00  0.00     0.049 A 
ATOM     43  H   UNL A   1      44.616  27.665  28.561  1.00  0.00     0.167 HD
ATOM     44  C   UNL A   1      43.247  23.637  27.243  1.00  0.00     0.037 A 
ATOM     45  C   UNL A   1      46.390  29.778  28.608  1.00  0.00     0.037 A 
ATOM     46  C   UNL A   1      43.870  23.381  28.520  1.00  0.00     0.049 A 
ATOM     47  C   UNL A   1      46.932  28.394  28.595  1.00  0.00     0.074 A 
ATOM     48  C   UNL A   1      43.413  23.018  29.772  1.00  0.00     0.029 A 
ATOM     49  N   UNL A   1      45.130  23.892  28.715  1.00  0.00    -0.354 N 
ATOM     50  N   UNL A   1      47.062  27.680  29.679  1.00  0.00    -0.248 NA
ATOM     51  C   UNL A   1      46.797  27.644  27.354  1.00  0.00     0.031 C 
ATOM     52  C   UNL A   1      44.197  23.784  30.685  1.00  0.00     0.029 A 
ATOM     53  C   UNL A   1      45.151  24.488  29.950  1.00  0.00     0.049 A 
ATOM     54  H   UNL A   1      45.883  23.841  28.083  1.00  0.00     0.167 HD
ATOM     55  C   UNL A   1      46.564  26.434  29.332  1.00  0.00     0.074 A 
ATOM     56  C   UNL A   1      46.446  26.462  27.871  1.00  0.00     0.031 C 
ATOM     57  C   UNL A   1      45.996  25.613  30.264  1.00  0.00     0.037 A 
BRANCH  44  58
ATOM     58  C   UNL A   1      43.866  23.151  25.952  1.00  0.00     0.057 A 
ATOM     59  C   UNL A   1      44.729  23.920  25.146  1.00  0.00     0.134 A 
ATOM     60  C   UNL A   1      43.890  21.766  25.699  1.00  0.00     0.134 A 
ATOM     61  F   UNL A   1      44.842  25.247  25.266  1.00  0.00    -0.206 F 
ATOM     62  C   UNL A   1      45.614  23.349  24.229  1.00  0.00     0.040 A 
ATOM     63  C   UNL A   1      44.803  21.181  24.816  1.00  0.00     0.040 A 
ATOM     64  F   UNL A   1      43.097  20.927  26.384  1.00  0.00    -0.206 F 
ATOM     65  C   UNL A   1      45.686  21.973  24.093  1.00  0.00     0.006 A 
ENDBRANCH  44  58
BRANCH  45  66
ATOM     66  C   UNL A   1      47.138  30.911  27.996  1.00  0.00     0.057 A 
ATOM     67  C   UNL A   1      48.217  31.505  28.671  1.00  0.00     0.134 A 
ATOM     68  C   UNL A   1      46.643  31.629  26.893  1.00  0.00     0.134 A 
ATOM     69  F   UNL A   1      48.719  30.953  29.784  1.00  0.00    -0.206 F 
ATOM     70  C   UNL A   1      48.763  32.739  28.288  1.00  0.00     0.040 A 
ATOM     71  C   UNL A   1      47.182  32.866  26.497  1.00  0.00     0.040 A 
ATOM     72  F   UNL A   1      45.578  31.183  26.210  1.00  0.00    -0.206 F 
ATOM     73  C   UNL A   1      48.240  33.430  27.202  1.00  0.00     0.006 A 
ENDBRANCH  45  66
BRANCH  57  74
ATOM     74  C   UNL A   1      46.098  26.012  31.710  1.00  0.00     0.057 A 
ATOM     75  C   UNL A   1      45.045  26.737  32.275  1.00  0.00     0.134 A 
ATOM     76  C   UNL A   1      47.237  25.825  32.508  1.00  0.00     0.134 A 
ATOM     77  F   UNL A   1      43.951  27.015  31.549  1.00  0.00    -0.206 F 
ATOM     78  C   UNL A   1      45.106  27.233  33.579  1.00  0.00     0.040 A 
ATOM     79  C   UNL A   1      47.300  26.289  33.827  1.00  0.00     0.040 A 
ATOM     80  F   UNL A   1      48.339  25.243  32.019  1.00  0.00    -0.206 F 
ATOM     81  C   UNL A   1      46.230  26.997  34.366  1.00  0.00     0.006 A 
ENDBRANCH  57  74
ENDBRANCH  31  32
ENDBRANCH  23  26
ENDBRANCH  21  22
ENDBRANCH   1  21
TORSDOF 12
ENDMDL
