MODEL 1
REMARK VINA RESULT:     -12.3      0.000      0.000
REMARK SMILES C[C@H](NC(=O)N1CCN(/C=C/c2ccccc2)CC1)C(=O)NCCCNC(=O)c1ccc(-c2c3nc(c(-c4c(F)cccc4F)c4ccc([nH]4)c(-c4c(F)cccc4F)c4nc(c(-c5c(F)cccc5F)c5ccc2[nH]5)C=C4)C=C3)cc1
REMARK SMILES IDX 23 1 22 2 20 3 21 4 2 6 1 7 3 8 4 9 5 11 6 12 7 13 19 14
REMARK SMILES IDX 8 15 18 16 9 17 10 18 11 19 12 20 13 21 17 22 14 23 16 24
REMARK SMILES IDX 15 25 24 26 25 27 26 28 27 29 28 31 29 32 30 33 82 34 31 35
REMARK SMILES IDX 81 36 32 37 33 38 34 39 75 40 35 41 80 42 74 43 76 44 36 45
REMARK SMILES IDX 79 46 73 47 72 48 37 50 63 51 46 52 62 53 47 54 50 55 61 56
REMARK SMILES IDX 77 57 48 58 49 59 60 61 78 62 51 63 38 64 39 65 44 66 40 67
REMARK SMILES IDX 41 68 43 69 45 70 42 71 64 72 65 73 70 74 66 75 67 76 69 77
REMARK SMILES IDX 71 78 68 79 52 80 53 81 58 82 54 83 55 84 57 85 59 86 56 87
REMARK H PARENT 22 5 3 10 26 30 76 49 50 60
REMARK Flexibility Score: inf
ROOT
ATOM      1  C   UNL A   1      31.751  28.322  27.326  1.00  0.00     0.117 C 
ENDROOT
BRANCH   1   2
ATOM      2  N   UNL A   1      31.059  27.062  27.210  1.00  0.00    -0.354 N 
ATOM      3  C   UNL A   1      30.503  26.474  26.118  1.00  0.00     0.242 C 
ATOM      4  O   UNL A   1      30.042  25.338  26.284  1.00  0.00    -0.273 OA
ATOM      5  H   UNL A   1      30.978  26.551  28.047  1.00  0.00     0.163 HD
BRANCH   3   6
ATOM      6  C   UNL A   1      30.588  27.070  24.686  1.00  0.00     0.170 C 
ATOM      7  C   UNL A   1      29.394  26.612  23.871  1.00  0.00     0.041 C 
BRANCH   6   8
ATOM      8  N   UNL A   1      31.921  27.155  24.055  1.00  0.00    -0.326 N 
ATOM      9  C   UNL A   1      32.993  26.419  23.732  1.00  0.00     0.318 C 
ATOM     10  H   UNL A   1      32.077  28.084  23.768  1.00  0.00     0.166 HD
ATOM     11  O   UNL A   1      34.055  27.050  23.691  1.00  0.00    -0.249 OA
ATOM     12  N   UNL A   1      32.973  25.082  23.533  1.00  0.00    -0.321 N 
ATOM     13  C   UNL A   1      34.216  24.317  23.673  1.00  0.00     0.143 C 
ATOM     14  C   UNL A   1      31.946  24.298  22.864  1.00  0.00     0.143 C 
ATOM     15  C   UNL A   1      33.989  23.031  24.490  1.00  0.00     0.137 C 
ATOM     16  C   UNL A   1      31.619  23.022  23.653  1.00  0.00     0.137 C 
ATOM     17  N   UNL A   1      32.831  22.243  24.003  1.00  0.00    -0.374 N 
BRANCH  17  18
ATOM     18  C   UNL A   1      32.757  20.865  24.146  1.00  0.00     0.081 C 
ATOM     19  C   UNL A   1      33.612  20.024  24.745  1.00  0.00     0.025 C 
BRANCH  19  20
ATOM     20  C   UNL A   1      33.461  18.564  24.712  1.00  0.00    -0.024 A 
ATOM     21  C   UNL A   1      32.674  17.924  25.677  1.00  0.00     0.008 A 
ATOM     22  C   UNL A   1      34.175  17.781  23.794  1.00  0.00     0.008 A 
ATOM     23  C   UNL A   1      32.593  16.529  25.711  1.00  0.00     0.001 A 
ATOM     24  C   UNL A   1      34.094  16.389  23.829  1.00  0.00     0.001 A 
ATOM     25  C   UNL A   1      33.304  15.763  24.789  1.00  0.00     0.000 A 
ENDBRANCH  19  20
ENDBRANCH  17  18
ENDBRANCH   6   8
ENDBRANCH   3   6
ENDBRANCH   1   2
BRANCH   1  26
ATOM     26  C   UNL A   1      33.262  28.141  27.251  1.00  0.00     0.042 C 
BRANCH  26  27
ATOM     27  C   UNL A   1      33.984  29.345  26.668  1.00  0.00     0.118 C 
BRANCH  27  28
ATOM     28  N   UNL A   1      33.942  30.507  27.553  1.00  0.00    -0.352 N 
ATOM     29  C   UNL A   1      34.843  30.928  28.503  1.00  0.00     0.251 C 
ATOM     30  H   UNL A   1      33.144  31.076  27.456  1.00  0.00     0.163 HD
ATOM     31  O   UNL A   1      34.545  31.852  29.257  1.00  0.00    -0.269 OA
BRANCH  29  32
ATOM     32  C   UNL A   1      36.152  30.254  28.647  1.00  0.00     0.039 A 
ATOM     33  C   UNL A   1      37.060  30.296  27.585  1.00  0.00     0.014 A 
ATOM     34  C   UNL A   1      36.493  29.592  29.829  1.00  0.00     0.014 A 
ATOM     35  C   UNL A   1      38.342  29.761  27.743  1.00  0.00     0.010 A 
ATOM     36  C   UNL A   1      37.794  29.143  30.017  1.00  0.00     0.010 A 
ATOM     37  C   UNL A   1      38.736  29.229  28.979  1.00  0.00    -0.014 A 
BRANCH  37  38
ATOM     38  C   UNL A   1      40.123  28.762  29.235  1.00  0.00     0.031 A 
ATOM     39  C   UNL A   1      41.129  29.704  29.836  1.00  0.00     0.074 A 
ATOM     40  C   UNL A   1      40.506  27.539  28.819  1.00  0.00     0.049 A 
ATOM     41  N   UNL A   1      42.423  29.561  29.966  1.00  0.00    -0.248 NA
ATOM     42  C   UNL A   1      40.614  30.995  30.320  1.00  0.00     0.031 C 
ATOM     43  C   UNL A   1      39.636  26.548  28.183  1.00  0.00     0.029 A 
ATOM     44  N   UNL A   1      41.737  26.931  28.845  1.00  0.00    -0.354 N 
ATOM     45  C   UNL A   1      42.880  30.754  30.513  1.00  0.00     0.074 A 
ATOM     46  C   UNL A   1      41.733  31.625  30.651  1.00  0.00     0.031 C 
ATOM     47  C   UNL A   1      40.357  25.453  27.891  1.00  0.00     0.029 A 
ATOM     48  C   UNL A   1      41.746  25.682  28.273  1.00  0.00     0.049 A 
ATOM     49  H   UNL A   1      42.537  27.351  29.238  1.00  0.00     0.167 HD
ATOM     50  C   UNL A   1      44.140  31.086  30.882  1.00  0.00     0.037 A 
ATOM     51  C   UNL A   1      42.765  24.826  28.060  1.00  0.00     0.037 A 
ATOM     52  C   UNL A   1      45.270  30.203  30.780  1.00  0.00     0.049 A 
ATOM     53  C   UNL A   1      44.153  25.216  28.486  1.00  0.00     0.074 A 
ATOM     54  C   UNL A   1      46.574  30.421  31.188  1.00  0.00     0.029 A 
ATOM     55  N   UNL A   1      45.228  28.927  30.237  1.00  0.00    -0.354 N 
ATOM     56  N   UNL A   1      44.563  26.327  29.048  1.00  0.00    -0.248 NA
ATOM     57  C   UNL A   1      45.220  24.233  28.249  1.00  0.00     0.031 C 
ATOM     58  C   UNL A   1      47.329  29.291  30.859  1.00  0.00     0.029 A 
ATOM     59  C   UNL A   1      46.486  28.353  30.287  1.00  0.00     0.049 A 
ATOM     60  H   UNL A   1      44.423  28.496  29.870  1.00  0.00     0.167 HD
ATOM     61  C   UNL A   1      45.925  26.165  29.262  1.00  0.00     0.074 A 
ATOM     62  C   UNL A   1      46.272  24.847  28.773  1.00  0.00     0.031 C 
ATOM     63  C   UNL A   1      46.808  27.030  29.816  1.00  0.00     0.037 A 
BRANCH  50  64
ATOM     64  C   UNL A   1      44.358  32.464  31.436  1.00  0.00     0.057 A 
ATOM     65  C   UNL A   1      44.685  33.549  30.613  1.00  0.00     0.134 A 
ATOM     66  C   UNL A   1      44.209  32.715  32.806  1.00  0.00     0.134 A 
ATOM     67  F   UNL A   1      44.855  33.375  29.294  1.00  0.00    -0.206 F 
ATOM     68  C   UNL A   1      44.884  34.828  31.136  1.00  0.00     0.040 A 
ATOM     69  C   UNL A   1      44.378  33.994  33.337  1.00  0.00     0.040 A 
ATOM     70  F   UNL A   1      43.889  31.722  33.651  1.00  0.00    -0.206 F 
ATOM     71  C   UNL A   1      44.724  35.054  32.502  1.00  0.00     0.006 A 
ENDBRANCH  50  64
BRANCH  51  72
ATOM     72  C   UNL A   1      42.507  23.509  27.427  1.00  0.00     0.057 A 
ATOM     73  C   UNL A   1      42.133  22.403  28.199  1.00  0.00     0.134 A 
ATOM     74  C   UNL A   1      42.629  23.320  26.046  1.00  0.00     0.134 A 
ATOM     75  F   UNL A   1      42.021  22.517  29.531  1.00  0.00    -0.206 F 
ATOM     76  C   UNL A   1      41.905  21.152  27.623  1.00  0.00     0.040 A 
ATOM     77  C   UNL A   1      42.380  22.081  25.453  1.00  0.00     0.040 A 
ATOM     78  F   UNL A   1      42.977  24.343  25.251  1.00  0.00    -0.206 F 
ATOM     79  C   UNL A   1      42.023  20.991  26.245  1.00  0.00     0.006 A 
ENDBRANCH  51  72
BRANCH  63  80
ATOM     80  C   UNL A   1      48.225  26.565  29.976  1.00  0.00     0.057 A 
ATOM     81  C   UNL A   1      49.203  26.827  29.011  1.00  0.00     0.134 A 
ATOM     82  C   UNL A   1      48.624  25.901  31.144  1.00  0.00     0.134 A 
ATOM     83  F   UNL A   1      48.880  27.447  27.866  1.00  0.00    -0.206 F 
ATOM     84  C   UNL A   1      50.530  26.436  29.197  1.00  0.00     0.040 A 
ATOM     85  C   UNL A   1      49.951  25.526  31.351  1.00  0.00     0.040 A 
ATOM     86  F   UNL A   1      47.734  25.627  32.110  1.00  0.00    -0.206 F 
ATOM     87  C   UNL A   1      50.908  25.792  30.373  1.00  0.00     0.006 A 
ENDBRANCH  63  80
ENDBRANCH  37  38
ENDBRANCH  29  32
ENDBRANCH  27  28
ENDBRANCH  26  27
ENDBRANCH   1  26
TORSDOF 13
ENDMDL
MODEL 2
REMARK VINA RESULT:     -12.3      3.818      7.839
REMARK SMILES C[C@H](NC(=O)N1CCN(/C=C/c2ccccc2)CC1)C(=O)NCCCNC(=O)c1ccc(-c2c3nc(c(-c4c(F)cccc4F)c4ccc([nH]4)c(-c4c(F)cccc4F)c4nc(c(-c5c(F)cccc5F)c5ccc2[nH]5)C=C4)C=C3)cc1
REMARK SMILES IDX 23 1 22 2 20 3 21 4 2 6 1 7 3 8 4 9 5 11 6 12 7 13 19 14
REMARK SMILES IDX 8 15 18 16 9 17 10 18 11 19 12 20 13 21 17 22 14 23 16 24
REMARK SMILES IDX 15 25 24 26 25 27 26 28 27 29 28 31 29 32 30 33 82 34 31 35
REMARK SMILES IDX 81 36 32 37 33 38 34 39 75 40 35 41 80 42 74 43 76 44 36 45
REMARK SMILES IDX 79 46 73 47 72 48 37 50 63 51 46 52 62 53 47 54 50 55 61 56
REMARK SMILES IDX 77 57 48 58 49 59 60 61 78 62 51 63 38 64 39 65 44 66 40 67
REMARK SMILES IDX 41 68 43 69 45 70 42 71 64 72 65 73 70 74 66 75 67 76 69 77
REMARK SMILES IDX 71 78 68 79 52 80 53 81 58 82 54 83 55 84 57 85 59 86 56 87
REMARK H PARENT 22 5 3 10 26 30 76 49 50 60
REMARK Flexibility Score: inf
ROOT
ATOM      1  C   UNL A   1      31.959  30.461  26.163  1.00  0.00     0.117 C 
ENDROOT
BRANCH   1   2
ATOM      2  N   UNL A   1      31.751  29.558  27.267  1.00  0.00    -0.354 N 
ATOM      3  C   UNL A   1      31.805  28.200  27.301  1.00  0.00     0.242 C 
ATOM      4  O   UNL A   1      31.669  27.675  28.413  1.00  0.00    -0.273 OA
ATOM      5  H   UNL A   1      31.539  29.989  28.127  1.00  0.00     0.163 HD
BRANCH   3   6
ATOM      6  C   UNL A   1      32.202  27.327  26.079  1.00  0.00     0.170 C 
ATOM      7  C   UNL A   1      33.620  27.658  25.655  1.00  0.00     0.041 C 
BRANCH   6   8
ATOM      8  N   UNL A   1      31.169  27.069  25.054  1.00  0.00    -0.326 N 
ATOM      9  C   UNL A   1      30.711  26.125  24.222  1.00  0.00     0.318 C 
ATOM     10  H   UNL A   1      30.622  27.880  24.945  1.00  0.00     0.166 HD
ATOM     11  O   UNL A   1      30.166  26.562  23.201  1.00  0.00    -0.249 OA
ATOM     12  N   UNL A   1      30.875  24.796  24.405  1.00  0.00    -0.321 N 
ATOM     13  C   UNL A   1      30.789  23.896  23.250  1.00  0.00     0.143 C 
ATOM     14  C   UNL A   1      30.801  24.055  25.655  1.00  0.00     0.143 C 
ATOM     15  C   UNL A   1      31.932  22.864  23.263  1.00  0.00     0.137 C 
ATOM     16  C   UNL A   1      31.949  23.042  25.770  1.00  0.00     0.137 C 
ATOM     17  N   UNL A   1      32.068  22.179  24.570  1.00  0.00    -0.374 N 
BRANCH  17  18
ATOM     18  C   UNL A   1      32.571  20.892  24.685  1.00  0.00     0.081 C 
ATOM     19  C   UNL A   1      32.332  19.813  23.926  1.00  0.00     0.025 C 
BRANCH  19  20
ATOM     20  C   UNL A   1      32.847  18.475  24.244  1.00  0.00    -0.024 A 
ATOM     21  C   UNL A   1      33.552  17.752  23.274  1.00  0.00     0.008 A 
ATOM     22  C   UNL A   1      32.556  17.858  25.469  1.00  0.00     0.008 A 
ATOM     23  C   UNL A   1      33.970  16.443  23.533  1.00  0.00     0.001 A 
ATOM     24  C   UNL A   1      32.973  16.552  25.727  1.00  0.00     0.001 A 
ATOM     25  C   UNL A   1      33.679  15.844  24.758  1.00  0.00     0.000 A 
ENDBRANCH  19  20
ENDBRANCH  17  18
ENDBRANCH   6   8
ENDBRANCH   3   6
ENDBRANCH   1   2
BRANCH   1  26
ATOM     26  C   UNL A   1      31.603  31.896  26.537  1.00  0.00     0.042 C 
BRANCH  26  27
ATOM     27  C   UNL A   1      32.708  32.611  27.297  1.00  0.00     0.118 C 
BRANCH  27  28
ATOM     28  N   UNL A   1      32.377  34.004  27.587  1.00  0.00    -0.352 N 
ATOM     29  C   UNL A   1      32.939  34.878  28.489  1.00  0.00     0.251 C 
ATOM     30  H   UNL A   1      31.636  34.376  27.055  1.00  0.00     0.163 HD
ATOM     31  O   UNL A   1      32.408  35.969  28.691  1.00  0.00    -0.269 OA
BRANCH  29  32
ATOM     32  C   UNL A   1      34.154  34.500  29.243  1.00  0.00     0.039 A 
ATOM     33  C   UNL A   1      34.018  33.962  30.527  1.00  0.00     0.014 A 
ATOM     34  C   UNL A   1      35.425  34.660  28.687  1.00  0.00     0.014 A 
ATOM     35  C   UNL A   1      35.145  33.497  31.210  1.00  0.00     0.010 A 
ATOM     36  C   UNL A   1      36.532  34.116  29.326  1.00  0.00     0.010 A 
ATOM     37  C   UNL A   1      36.404  33.521  30.591  1.00  0.00    -0.014 A 
BRANCH  37  38
ATOM     38  C   UNL A   1      37.609  32.926  31.224  1.00  0.00     0.031 A 
ATOM     39  C   UNL A   1      38.267  31.727  30.599  1.00  0.00     0.074 A 
ATOM     40  C   UNL A   1      38.037  33.388  32.416  1.00  0.00     0.049 A 
ATOM     41  N   UNL A   1      39.201  30.949  31.082  1.00  0.00    -0.248 NA
ATOM     42  C   UNL A   1      37.778  31.328  29.270  1.00  0.00     0.031 C 
ATOM     43  C   UNL A   1      37.459  34.517  33.147  1.00  0.00     0.029 A 
ATOM     44  N   UNL A   1      39.045  32.944  33.236  1.00  0.00    -0.354 N 
ATOM     45  C   UNL A   1      39.388  29.952  30.133  1.00  0.00     0.074 A 
ATOM     46  C   UNL A   1      38.441  30.198  29.067  1.00  0.00     0.031 C 
ATOM     47  C   UNL A   1      38.127  34.684  34.299  1.00  0.00     0.029 A 
ATOM     48  C   UNL A   1      39.148  33.647  34.412  1.00  0.00     0.049 A 
ATOM     49  H   UNL A   1      39.638  32.193  33.003  1.00  0.00     0.167 HD
ATOM     50  C   UNL A   1      40.279  28.933  30.142  1.00  0.00     0.037 A 
ATOM     51  C   UNL A   1      39.958  33.464  35.472  1.00  0.00     0.037 A 
ATOM     52  C   UNL A   1      41.246  28.716  31.185  1.00  0.00     0.049 A 
ATOM     53  C   UNL A   1      40.945  32.330  35.455  1.00  0.00     0.074 A 
ATOM     54  C   UNL A   1      42.237  27.752  31.255  1.00  0.00     0.029 A 
ATOM     55  N   UNL A   1      41.347  29.480  32.338  1.00  0.00    -0.354 N 
ATOM     56  N   UNL A   1      41.145  31.423  34.529  1.00  0.00    -0.248 NA
ATOM     57  C   UNL A   1      41.819  32.192  36.628  1.00  0.00     0.031 C 
ATOM     58  C   UNL A   1      42.914  27.911  32.468  1.00  0.00     0.029 A 
ATOM     59  C   UNL A   1      42.375  29.000  33.131  1.00  0.00     0.049 A 
ATOM     60  H   UNL A   1      40.773  30.248  32.558  1.00  0.00     0.167 HD
ATOM     61  C   UNL A   1      42.187  30.631  34.990  1.00  0.00     0.074 A 
ATOM     62  C   UNL A   1      42.580  31.164  36.278  1.00  0.00     0.031 C 
ATOM     63  C   UNL A   1      42.767  29.558  34.400  1.00  0.00     0.037 A 
BRANCH  50  64
ATOM     64  C   UNL A   1      40.253  27.980  28.983  1.00  0.00     0.057 A 
ATOM     65  C   UNL A   1      40.978  28.221  27.810  1.00  0.00     0.134 A 
ATOM     66  C   UNL A   1      39.517  26.790  29.054  1.00  0.00     0.134 A 
ATOM     67  F   UNL A   1      41.694  29.348  27.673  1.00  0.00    -0.206 F 
ATOM     68  C   UNL A   1      40.950  27.329  26.737  1.00  0.00     0.040 A 
ATOM     69  C   UNL A   1      39.503  25.876  27.999  1.00  0.00     0.040 A 
ATOM     70  F   UNL A   1      38.804  26.492  30.152  1.00  0.00    -0.206 F 
ATOM     71  C   UNL A   1      40.215  26.148  26.833  1.00  0.00     0.006 A 
ENDBRANCH  50  64
BRANCH  51  72
ATOM     72  C   UNL A   1      39.883  34.386  36.632  1.00  0.00     0.057 A 
ATOM     73  C   UNL A   1      39.089  34.079  37.742  1.00  0.00     0.134 A 
ATOM     74  C   UNL A   1      40.596  35.590  36.662  1.00  0.00     0.134 A 
ATOM     75  F   UNL A   1      38.367  32.949  37.764  1.00  0.00    -0.206 F 
ATOM     76  C   UNL A   1      38.992  34.944  38.835  1.00  0.00     0.040 A 
ATOM     77  C   UNL A   1      40.528  36.453  37.757  1.00  0.00     0.040 A 
ATOM     78  F   UNL A   1      41.380  35.938  35.631  1.00  0.00    -0.206 F 
ATOM     79  C   UNL A   1      39.718  36.132  38.845  1.00  0.00     0.006 A 
ENDBRANCH  51  72
BRANCH  63  80
ATOM     80  C   UNL A   1      43.924  28.920  35.109  1.00  0.00     0.057 A 
ATOM     81  C   UNL A   1      45.239  29.359  34.923  1.00  0.00     0.134 A 
ATOM     82  C   UNL A   1      43.706  27.895  36.038  1.00  0.00     0.134 A 
ATOM     83  F   UNL A   1      45.514  30.329  34.037  1.00  0.00    -0.206 F 
ATOM     84  C   UNL A   1      46.301  28.793  35.630  1.00  0.00     0.040 A 
ATOM     85  C   UNL A   1      44.756  27.338  36.768  1.00  0.00     0.040 A 
ATOM     86  F   UNL A   1      42.466  27.436  36.268  1.00  0.00    -0.206 F 
ATOM     87  C   UNL A   1      46.059  27.787  36.562  1.00  0.00     0.006 A 
ENDBRANCH  63  80
ENDBRANCH  37  38
ENDBRANCH  29  32
ENDBRANCH  27  28
ENDBRANCH  26  27
ENDBRANCH   1  26
TORSDOF 13
ENDMDL
MODEL 3
REMARK VINA RESULT:     -12.3      3.714      7.458
REMARK SMILES C[C@H](NC(=O)N1CCN(/C=C/c2ccccc2)CC1)C(=O)NCCCNC(=O)c1ccc(-c2c3nc(c(-c4c(F)cccc4F)c4ccc([nH]4)c(-c4c(F)cccc4F)c4nc(c(-c5c(F)cccc5F)c5ccc2[nH]5)C=C4)C=C3)cc1
REMARK SMILES IDX 23 1 22 2 20 3 21 4 2 6 1 7 3 8 4 9 5 11 6 12 7 13 19 14
REMARK SMILES IDX 8 15 18 16 9 17 10 18 11 19 12 20 13 21 17 22 14 23 16 24
REMARK SMILES IDX 15 25 24 26 25 27 26 28 27 29 28 31 29 32 30 33 82 34 31 35
REMARK SMILES IDX 81 36 32 37 33 38 34 39 75 40 35 41 80 42 74 43 76 44 36 45
REMARK SMILES IDX 79 46 73 47 72 48 37 50 63 51 46 52 62 53 47 54 50 55 61 56
REMARK SMILES IDX 77 57 48 58 49 59 60 61 78 62 51 63 38 64 39 65 44 66 40 67
REMARK SMILES IDX 41 68 43 69 45 70 42 71 64 72 65 73 70 74 66 75 67 76 69 77
REMARK SMILES IDX 71 78 68 79 52 80 53 81 58 82 54 83 55 84 57 85 59 86 56 87
REMARK H PARENT 22 5 3 10 26 30 76 49 50 60
REMARK Flexibility Score: inf
ROOT
ATOM      1  C   UNL A   1      31.012  30.581  25.507  1.00  0.00     0.117 C 
ENDROOT
BRANCH   1   2
ATOM      2  N   UNL A   1      30.348  30.481  24.232  1.00  0.00    -0.354 N 
ATOM      3  C   UNL A   1      30.383  29.482  23.310  1.00  0.00     0.242 C 
ATOM      4  O   UNL A   1      29.642  29.618  22.329  1.00  0.00    -0.273 OA
ATOM      5  H   UNL A   1      29.783  31.251  23.993  1.00  0.00     0.163 HD
BRANCH   3   6
ATOM      6  C   UNL A   1      31.146  28.146  23.523  1.00  0.00     0.170 C 
ATOM      7  C   UNL A   1      30.158  27.041  23.845  1.00  0.00     0.041 C 
BRANCH   6   8
ATOM      8  N   UNL A   1      32.444  28.200  24.226  1.00  0.00    -0.326 N 
ATOM      9  C   UNL A   1      33.406  27.424  24.743  1.00  0.00     0.318 C 
ATOM     10  H   UNL A   1      32.691  29.143  24.362  1.00  0.00     0.166 HD
ATOM     11  O   UNL A   1      34.028  27.935  25.681  1.00  0.00    -0.249 OA
ATOM     12  N   UNL A   1      33.659  26.154  24.353  1.00  0.00    -0.321 N 
ATOM     13  C   UNL A   1      34.359  25.248  25.270  1.00  0.00     0.143 C 
ATOM     14  C   UNL A   1      33.633  25.618  23.001  1.00  0.00     0.143 C 
ATOM     15  C   UNL A   1      33.677  23.868  25.316  1.00  0.00     0.137 C 
ATOM     16  C   UNL A   1      32.912  24.263  22.954  1.00  0.00     0.137 C 
ATOM     17  N   UNL A   1      33.428  23.309  23.966  1.00  0.00    -0.374 N 
BRANCH  17  18
ATOM     18  C   UNL A   1      33.380  21.944  23.725  1.00  0.00     0.081 C 
ATOM     19  C   UNL A   1      33.379  20.924  24.595  1.00  0.00     0.025 C 
BRANCH  19  20
ATOM     20  C   UNL A   1      33.447  19.516  24.186  1.00  0.00    -0.024 A 
ATOM     21  C   UNL A   1      34.507  18.713  24.626  1.00  0.00     0.008 A 
ATOM     22  C   UNL A   1      32.528  18.981  23.273  1.00  0.00     0.008 A 
ATOM     23  C   UNL A   1      34.632  17.397  24.172  1.00  0.00     0.001 A 
ATOM     24  C   UNL A   1      32.654  17.667  22.820  1.00  0.00     0.001 A 
ATOM     25  C   UNL A   1      33.708  16.876  23.269  1.00  0.00     0.000 A 
ENDBRANCH  19  20
ENDBRANCH  17  18
ENDBRANCH   6   8
ENDBRANCH   3   6
ENDBRANCH   1   2
BRANCH   1  26
ATOM     26  C   UNL A   1      30.962  32.003  26.056  1.00  0.00     0.042 C 
BRANCH  26  27
ATOM     27  C   UNL A   1      32.255  32.433  26.730  1.00  0.00     0.118 C 
BRANCH  27  28
ATOM     28  N   UNL A   1      32.153  33.756  27.343  1.00  0.00    -0.352 N 
ATOM     29  C   UNL A   1      32.942  34.351  28.301  1.00  0.00     0.251 C 
ATOM     30  H   UNL A   1      31.404  34.308  27.020  1.00  0.00     0.163 HD
ATOM     31  O   UNL A   1      32.592  35.419  28.798  1.00  0.00    -0.269 OA
BRANCH  29  32
ATOM     32  C   UNL A   1      34.185  33.696  28.761  1.00  0.00     0.039 A 
ATOM     33  C   UNL A   1      35.401  34.374  28.628  1.00  0.00     0.014 A 
ATOM     34  C   UNL A   1      34.157  32.424  29.336  1.00  0.00     0.014 A 
ATOM     35  C   UNL A   1      36.569  33.819  29.158  1.00  0.00     0.010 A 
ATOM     36  C   UNL A   1      35.299  31.915  29.942  1.00  0.00     0.010 A 
ATOM     37  C   UNL A   1      36.517  32.610  29.867  1.00  0.00    -0.014 A 
BRANCH  37  38
ATOM     38  C   UNL A   1      37.705  32.042  30.554  1.00  0.00     0.031 A 
ATOM     39  C   UNL A   1      38.512  30.964  29.883  1.00  0.00     0.074 A 
ATOM     40  C   UNL A   1      37.986  32.408  31.820  1.00  0.00     0.049 A 
ATOM     41  N   UNL A   1      39.460  30.211  30.377  1.00  0.00    -0.248 NA
ATOM     42  C   UNL A   1      38.178  30.670  28.480  1.00  0.00     0.031 C 
ATOM     43  C   UNL A   1      37.255  33.411  32.596  1.00  0.00     0.029 A 
ATOM     44  N   UNL A   1      38.950  31.956  32.687  1.00  0.00    -0.354 N 
ATOM     45  C   UNL A   1      39.811  29.333  29.360  1.00  0.00     0.074 A 
ATOM     46  C   UNL A   1      38.946  29.618  28.236  1.00  0.00     0.031 C 
ATOM     47  C   UNL A   1      37.802  33.506  33.819  1.00  0.00     0.029 A 
ATOM     48  C   UNL A   1      38.890  32.541  33.930  1.00  0.00     0.049 A 
ATOM     49  H   UNL A   1      39.621  31.278  32.442  1.00  0.00     0.167 HD
ATOM     50  C   UNL A   1      40.779  28.386  29.357  1.00  0.00     0.037 A 
ATOM     51  C   UNL A   1      39.615  32.308  35.040  1.00  0.00     0.037 A 
ATOM     52  C   UNL A   1      41.663  28.133  30.463  1.00  0.00     0.049 A 
ATOM     53  C   UNL A   1      40.689  31.256  35.010  1.00  0.00     0.074 A 
ATOM     54  C   UNL A   1      42.719  27.242  30.536  1.00  0.00     0.029 A 
ATOM     55  N   UNL A   1      41.599  28.780  31.688  1.00  0.00    -0.354 N 
ATOM     56  N   UNL A   1      41.045  30.467  34.025  1.00  0.00    -0.248 NA
ATOM     57  C   UNL A   1      41.464  31.062  36.244  1.00  0.00     0.031 C 
ATOM     58  C   UNL A   1      43.271  27.323  31.818  1.00  0.00     0.029 A 
ATOM     59  C   UNL A   1      42.588  28.297  32.527  1.00  0.00     0.049 A 
ATOM     60  H   UNL A   1      40.947  29.477  31.925  1.00  0.00     0.167 HD
ATOM     61  C   UNL A   1      42.102  29.709  34.508  1.00  0.00     0.074 A 
ATOM     62  C   UNL A   1      42.334  30.134  35.872  1.00  0.00     0.031 C 
ATOM     63  C   UNL A   1      42.819  28.748  33.876  1.00  0.00     0.037 A 
BRANCH  50  64
ATOM     64  C   UNL A   1      40.934  27.557  28.116  1.00  0.00     0.057 A 
ATOM     65  C   UNL A   1      40.255  26.343  27.947  1.00  0.00     0.134 A 
ATOM     66  C   UNL A   1      41.747  27.994  27.062  1.00  0.00     0.134 A 
ATOM     67  F   UNL A   1      39.470  25.862  28.922  1.00  0.00    -0.206 F 
ATOM     68  C   UNL A   1      40.403  25.579  26.788  1.00  0.00     0.040 A 
ATOM     69  C   UNL A   1      41.881  27.252  25.887  1.00  0.00     0.040 A 
ATOM     70  F   UNL A   1      42.421  29.151  27.154  1.00  0.00    -0.206 F 
ATOM     71  C   UNL A   1      41.213  26.038  25.751  1.00  0.00     0.006 A 
ENDBRANCH  50  64
BRANCH  51  72
ATOM     72  C   UNL A   1      39.362  33.098  36.271  1.00  0.00     0.057 A 
ATOM     73  C   UNL A   1      40.030  34.306  36.498  1.00  0.00     0.134 A 
ATOM     74  C   UNL A   1      38.455  32.669  37.247  1.00  0.00     0.134 A 
ATOM     75  F   UNL A   1      40.927  34.759  35.609  1.00  0.00    -0.206 F 
ATOM     76  C   UNL A   1      39.818  35.053  37.659  1.00  0.00     0.040 A 
ATOM     77  C   UNL A   1      38.214  33.418  38.401  1.00  0.00     0.040 A 
ATOM     78  F   UNL A   1      37.778  31.523  37.085  1.00  0.00    -0.206 F 
ATOM     79  C   UNL A   1      38.903  34.611  38.611  1.00  0.00     0.006 A 
ENDBRANCH  51  72
BRANCH  63  80
ATOM     80  C   UNL A   1      43.956  28.126  34.629  1.00  0.00     0.057 A 
ATOM     81  C   UNL A   1      43.794  26.957  35.381  1.00  0.00     0.134 A 
ATOM     82  C   UNL A   1      45.243  28.672  34.545  1.00  0.00     0.134 A 
ATOM     83  F   UNL A   1      42.583  26.393  35.510  1.00  0.00    -0.206 F 
ATOM     84  C   UNL A   1      44.873  26.357  36.032  1.00  0.00     0.040 A 
ATOM     85  C   UNL A   1      46.333  28.069  35.172  1.00  0.00     0.040 A 
ATOM     86  F   UNL A   1      45.465  29.788  33.833  1.00  0.00    -0.206 F 
ATOM     87  C   UNL A   1      46.148  26.908  35.921  1.00  0.00     0.006 A 
ENDBRANCH  63  80
ENDBRANCH  37  38
ENDBRANCH  29  32
ENDBRANCH  27  28
ENDBRANCH  26  27
ENDBRANCH   1  26
TORSDOF 13
ENDMDL
