MODEL 1
REMARK VINA RESULT:     -12.5      0.000      0.000
REMARK SMILES CCOc1ccc(C(=O)N2CCC(C(=O)NCCCNC(=O)c3ccc(-c4c5nc(c(-c6c(F)cccc6F)c6ccc([nH]6)c(-c6c(F)cccc6F)c6nc(c(-c7c(F)cccc7F)c7ccc4[nH]7)C=C6)C=C5)cc3)(c3ccccc3)CC2)cc1OC
REMARK SMILES IDX 17 1 16 2 14 3 15 4 13 6 8 7 9 8 10 9 11 10 84 11 12 12
REMARK SMILES IDX 83 13 7 14 4 15 5 16 86 17 6 18 85 19 3 20 2 21 1 22 87 23
REMARK SMILES IDX 88 24 77 25 78 26 82 27 79 28 81 29 80 30 18 31 19 32 20 33
REMARK SMILES IDX 21 34 22 36 23 37 24 38 76 39 25 40 75 41 26 42 27 43 28 44
REMARK SMILES IDX 69 45 29 46 74 47 68 48 70 49 30 50 73 51 67 52 66 53 31 55
REMARK SMILES IDX 57 56 40 57 56 58 41 59 44 60 55 61 71 62 42 63 43 64 54 66
REMARK SMILES IDX 72 67 45 68 32 69 33 70 38 71 34 72 35 73 37 74 39 75 36 76
REMARK SMILES IDX 58 77 59 78 64 79 60 80 61 81 63 82 65 83 62 84 46 85 47 86
REMARK SMILES IDX 52 87 48 88 49 89 51 90 53 91 50 92
REMARK H PARENT 16 5 20 35 70 54 44 65
REMARK Flexibility Score: inf
ROOT
ATOM      1  C   UNL A   1      31.773  30.511  26.110  1.00  0.00     0.117 C 
ENDROOT
BRANCH   1   2
ATOM      2  N   UNL A   1      31.627  29.598  27.238  1.00  0.00    -0.355 N 
ATOM      3  C   UNL A   1      31.607  28.234  27.347  1.00  0.00     0.230 C 
ATOM      4  O   UNL A   1      31.347  27.844  28.488  1.00  0.00    -0.274 OA
ATOM      5  H   UNL A   1      31.522  30.060  28.101  1.00  0.00     0.163 HD
BRANCH   3   6
ATOM      6  C   UNL A   1      31.861  27.296  26.113  1.00  0.00     0.077 C 
ATOM      7  C   UNL A   1      33.790  23.385  26.115  1.00  0.00     0.253 C 
ATOM      8  O   UNL A   1      34.866  23.329  26.711  1.00  0.00    -0.269 OA
ATOM      9  N   UNL A   1      33.088  24.599  25.998  1.00  0.00    -0.339 N 
ATOM     10  C   UNL A   1      33.907  25.738  25.625  1.00  0.00     0.121 C 
ATOM     11  C   UNL A   1      31.637  24.715  25.857  1.00  0.00     0.121 C 
ATOM     12  C   UNL A   1      33.400  27.092  26.083  1.00  0.00     0.043 C 
ATOM     13  C   UNL A   1      31.034  26.005  26.387  1.00  0.00     0.043 C 
BRANCH   7  14
ATOM     14  C   UNL A   1      33.330  22.156  25.391  1.00  0.00     0.043 A 
ATOM     15  C   UNL A   1      32.709  19.797  23.967  1.00  0.00     0.161 A 
ATOM     16  C   UNL A   1      33.109  19.736  25.311  1.00  0.00     0.051 A 
ATOM     17  C   UNL A   1      32.589  21.034  23.340  1.00  0.00     0.161 A 
ATOM     18  C   UNL A   1      33.409  20.910  26.022  1.00  0.00     0.018 A 
ATOM     19  C   UNL A   1      32.976  22.178  24.043  1.00  0.00     0.064 A 
BRANCH  15  20
ATOM     20  O   UNL A   1      32.407  18.642  23.305  1.00  0.00    -0.490 OA
BRANCH  20  21
ATOM     21  C   UNL A   1      32.901  17.472  23.967  1.00  0.00     0.226 C 
ATOM     22  C   UNL A   1      34.044  16.898  23.145  1.00  0.00     0.049 C 
ENDBRANCH  20  21
ENDBRANCH  15  20
BRANCH  17  23
ATOM     23  O   UNL A   1      32.164  21.350  22.083  1.00  0.00    -0.493 OA
ATOM     24  C   UNL A   1      32.545  22.578  21.495  1.00  0.00     0.278 C 
ENDBRANCH  17  23
ENDBRANCH   7  14
BRANCH   6  25
ATOM     25  C   UNL A   1      31.419  27.843  24.706  1.00  0.00    -0.032 A 
ATOM     26  C   UNL A   1      32.288  28.437  23.777  1.00  0.00     0.005 A 
ATOM     27  C   UNL A   1      30.062  27.779  24.308  1.00  0.00     0.005 A 
ATOM     28  C   UNL A   1      31.838  28.921  22.538  1.00  0.00     0.000 A 
ATOM     29  C   UNL A   1      29.605  28.275  23.082  1.00  0.00     0.000 A 
ATOM     30  C   UNL A   1      30.497  28.846  22.191  1.00  0.00     0.000 A 
ENDBRANCH   6  25
ENDBRANCH   3   6
ENDBRANCH   1   2
BRANCH   1  31
ATOM     31  C   UNL A   1      31.560  31.965  26.508  1.00  0.00     0.042 C 
BRANCH  31  32
ATOM     32  C   UNL A   1      32.828  32.696  26.921  1.00  0.00     0.118 C 
BRANCH  32  33
ATOM     33  N   UNL A   1      32.560  33.950  27.606  1.00  0.00    -0.352 N 
ATOM     34  C   UNL A   1      33.147  34.498  28.720  1.00  0.00     0.251 C 
ATOM     35  H   UNL A   1      31.842  34.493  27.208  1.00  0.00     0.163 HD
ATOM     36  O   UNL A   1      32.643  35.489  29.240  1.00  0.00    -0.269 OA
BRANCH  34  37
ATOM     37  C   UNL A   1      34.364  33.897  29.309  1.00  0.00     0.039 A 
ATOM     38  C   UNL A   1      34.213  32.971  30.345  1.00  0.00     0.014 A 
ATOM     39  C   UNL A   1      35.645  34.255  28.880  1.00  0.00     0.014 A 
ATOM     40  C   UNL A   1      35.339  32.365  30.905  1.00  0.00     0.010 A 
ATOM     41  C   UNL A   1      36.761  33.585  29.376  1.00  0.00     0.010 A 
ATOM     42  C   UNL A   1      36.621  32.640  30.401  1.00  0.00    -0.014 A 
BRANCH  42  43
ATOM     43  C   UNL A   1      37.811  31.936  30.942  1.00  0.00     0.031 A 
ATOM     44  C   UNL A   1      38.337  32.255  32.315  1.00  0.00     0.074 A 
ATOM     45  C   UNL A   1      38.441  31.023  30.176  1.00  0.00     0.049 A 
ATOM     46  N   UNL A   1      39.347  31.721  32.956  1.00  0.00    -0.248 NA
ATOM     47  C   UNL A   1      37.657  33.328  33.055  1.00  0.00     0.031 C 
ATOM     48  C   UNL A   1      38.073  30.674  28.802  1.00  0.00     0.029 A 
ATOM     49  N   UNL A   1      39.519  30.220  30.446  1.00  0.00    -0.354 N 
ATOM     50  C   UNL A   1      39.427  32.398  34.167  1.00  0.00     0.074 A 
ATOM     51  C   UNL A   1      38.402  33.420  34.147  1.00  0.00     0.031 C 
ATOM     52  C   UNL A   1      38.885  29.699  28.364  1.00  0.00     0.029 A 
ATOM     53  C   UNL A   1      39.847  29.375  29.412  1.00  0.00     0.049 A 
ATOM     54  H   UNL A   1      40.011  30.245  31.297  1.00  0.00     0.167 HD
ATOM     55  C   UNL A   1      40.260  32.174  35.211  1.00  0.00     0.037 A 
ATOM     56  C   UNL A   1      40.808  28.437  29.324  1.00  0.00     0.037 A 
ATOM     57  C   UNL A   1      41.265  31.143  35.238  1.00  0.00     0.049 A 
ATOM     58  C   UNL A   1      41.702  28.189  30.505  1.00  0.00     0.074 A 
ATOM     59  C   UNL A   1      42.117  30.794  36.272  1.00  0.00     0.029 A 
ATOM     60  N   UNL A   1      41.556  30.295  34.179  1.00  0.00    -0.354 N 
ATOM     61  N   UNL A   1      41.712  28.782  31.674  1.00  0.00    -0.248 NA
ATOM     62  C   UNL A   1      42.710  27.130  30.358  1.00  0.00     0.031 C 
ATOM     63  C   UNL A   1      42.951  29.764  35.825  1.00  0.00     0.029 A 
ATOM     64  C   UNL A   1      42.586  29.438  34.529  1.00  0.00     0.049 A 
ATOM     65  H   UNL A   1      41.096  30.302  33.308  1.00  0.00     0.167 HD
ATOM     66  C   UNL A   1      42.711  28.156  32.409  1.00  0.00     0.074 A 
ATOM     67  C   UNL A   1      43.265  27.122  31.562  1.00  0.00     0.031 C 
ATOM     68  C   UNL A   1      43.133  28.417  33.671  1.00  0.00     0.037 A 
BRANCH  55  69
ATOM     69  C   UNL A   1      40.110  33.055  36.417  1.00  0.00     0.057 A 
ATOM     70  C   UNL A   1      40.868  34.224  36.577  1.00  0.00     0.134 A 
ATOM     71  C   UNL A   1      39.177  32.751  37.417  1.00  0.00     0.134 A 
ATOM     72  F   UNL A   1      41.788  34.567  35.663  1.00  0.00    -0.206 F 
ATOM     73  C   UNL A   1      40.721  35.044  37.697  1.00  0.00     0.040 A 
ATOM     74  C   UNL A   1      39.002  33.577  38.528  1.00  0.00     0.040 A 
ATOM     75  F   UNL A   1      38.415  31.651  37.325  1.00  0.00    -0.206 F 
ATOM     76  C   UNL A   1      39.780  34.724  38.674  1.00  0.00     0.006 A 
ENDBRANCH  55  69
BRANCH  56  77
ATOM     77  C   UNL A   1      40.947  27.633  28.085  1.00  0.00     0.057 A 
ATOM     78  C   UNL A   1      41.790  28.047  27.045  1.00  0.00     0.134 A 
ATOM     79  C   UNL A   1      40.242  26.437  27.906  1.00  0.00     0.134 A 
ATOM     80  F   UNL A   1      42.478  29.193  27.152  1.00  0.00    -0.206 F 
ATOM     81  C   UNL A   1      41.910  27.314  25.865  1.00  0.00     0.040 A 
ATOM     82  C   UNL A   1      40.372  25.680  26.740  1.00  0.00     0.040 A 
ATOM     83  F   UNL A   1      39.425  25.983  28.867  1.00  0.00    -0.206 F 
ATOM     84  C   UNL A   1      41.202  26.123  25.712  1.00  0.00     0.006 A 
ENDBRANCH  56  77
BRANCH  68  85
ATOM     85  C   UNL A   1      44.233  27.550  34.210  1.00  0.00     0.057 A 
ATOM     86  C   UNL A   1      45.585  27.850  33.990  1.00  0.00     0.134 A 
ATOM     87  C   UNL A   1      43.939  26.404  34.958  1.00  0.00     0.134 A 
ATOM     88  F   UNL A   1      45.934  28.928  33.269  1.00  0.00    -0.206 F 
ATOM     89  C   UNL A   1      46.602  27.021  34.465  1.00  0.00     0.040 A 
ATOM     90  C   UNL A   1      44.949  25.583  35.462  1.00  0.00     0.040 A 
ATOM     91  F   UNL A   1      42.666  26.064  35.213  1.00  0.00    -0.206 F 
ATOM     92  C   UNL A   1      46.285  25.885  35.207  1.00  0.00     0.006 A 
ENDBRANCH  68  85
ENDBRANCH  42  43
ENDBRANCH  34  37
ENDBRANCH  32  33
ENDBRANCH  31  32
ENDBRANCH   1  31
TORSDOF 15
ENDMDL
MODEL 2
REMARK VINA RESULT:     -12.0      4.414      7.952
REMARK SMILES CCOc1ccc(C(=O)N2CCC(C(=O)NCCCNC(=O)c3ccc(-c4c5nc(c(-c6c(F)cccc6F)c6ccc([nH]6)c(-c6c(F)cccc6F)c6nc(c(-c7c(F)cccc7F)c7ccc4[nH]7)C=C6)C=C5)cc3)(c3ccccc3)CC2)cc1OC
REMARK SMILES IDX 17 1 16 2 14 3 15 4 13 6 8 7 9 8 10 9 11 10 84 11 12 12
REMARK SMILES IDX 83 13 7 14 4 15 5 16 86 17 6 18 85 19 3 20 2 21 1 22 87 23
REMARK SMILES IDX 88 24 77 25 78 26 82 27 79 28 81 29 80 30 18 31 19 32 20 33
REMARK SMILES IDX 21 34 22 36 23 37 24 38 76 39 25 40 75 41 26 42 27 43 28 44
REMARK SMILES IDX 69 45 29 46 74 47 68 48 70 49 30 50 73 51 67 52 66 53 31 55
REMARK SMILES IDX 57 56 40 57 56 58 41 59 44 60 55 61 71 62 42 63 43 64 54 66
REMARK SMILES IDX 72 67 45 68 32 69 33 70 38 71 34 72 35 73 37 74 39 75 36 76
REMARK SMILES IDX 58 77 59 78 64 79 60 80 61 81 63 82 65 83 62 84 46 85 47 86
REMARK SMILES IDX 52 87 48 88 49 89 51 90 53 91 50 92
REMARK H PARENT 16 5 20 35 70 54 44 65
REMARK Flexibility Score: inf
ROOT
ATOM      1  C   UNL A   1      33.886  29.590  26.790  1.00  0.00     0.117 C 
ENDROOT
BRANCH   1   2
ATOM      2  N   UNL A   1      32.780  29.082  27.593  1.00  0.00    -0.355 N 
ATOM      3  C   UNL A   1      31.890  28.056  27.426  1.00  0.00     0.230 C 
ATOM      4  O   UNL A   1      31.020  28.023  28.299  1.00  0.00    -0.274 OA
ATOM      5  H   UNL A   1      32.646  29.581  28.431  1.00  0.00     0.163 HD
BRANCH   3   6
ATOM      6  C   UNL A   1      31.982  27.063  26.213  1.00  0.00     0.077 C 
ATOM      7  C   UNL A   1      33.931  23.163  26.127  1.00  0.00     0.253 C 
ATOM      8  O   UNL A   1      35.079  23.138  26.572  1.00  0.00    -0.269 OA
ATOM      9  N   UNL A   1      33.208  24.368  26.052  1.00  0.00    -0.339 N 
ATOM     10  C   UNL A   1      33.957  25.492  25.520  1.00  0.00     0.121 C 
ATOM     11  C   UNL A   1      31.750  24.472  26.105  1.00  0.00     0.121 C 
ATOM     12  C   UNL A   1      33.505  26.864  25.981  1.00  0.00     0.043 C 
ATOM     13  C   UNL A   1      31.213  25.784  26.654  1.00  0.00     0.043 C 
BRANCH   7  14
ATOM     14  C   UNL A   1      33.388  21.901  25.529  1.00  0.00     0.043 A 
ATOM     15  C   UNL A   1      32.607  19.462  24.337  1.00  0.00     0.161 A 
ATOM     16  C   UNL A   1      33.052  19.497  25.668  1.00  0.00     0.051 A 
ATOM     17  C   UNL A   1      32.523  20.644  23.608  1.00  0.00     0.161 A 
ATOM     18  C   UNL A   1      33.431  20.711  26.264  1.00  0.00     0.018 A 
ATOM     19  C   UNL A   1      32.988  21.824  24.196  1.00  0.00     0.064 A 
BRANCH  15  20
ATOM     20  O   UNL A   1      32.228  18.270  23.789  1.00  0.00    -0.490 OA
BRANCH  20  21
ATOM     21  C   UNL A   1      33.228  17.705  22.932  1.00  0.00     0.226 C 
ATOM     22  C   UNL A   1      33.936  16.591  23.686  1.00  0.00     0.049 C 
ENDBRANCH  20  21
ENDBRANCH  15  20
BRANCH  17  23
ATOM     23  O   UNL A   1      32.070  20.871  22.341  1.00  0.00    -0.493 OA
ATOM     24  C   UNL A   1      32.265  22.134  21.736  1.00  0.00     0.278 C 
ENDBRANCH  17  23
ENDBRANCH   7  14
BRANCH   6  25
ATOM     25  C   UNL A   1      31.348  27.544  24.856  1.00  0.00    -0.032 A 
ATOM     26  C   UNL A   1      30.099  27.124  24.370  1.00  0.00     0.005 A 
ATOM     27  C   UNL A   1      32.050  28.443  24.018  1.00  0.00     0.005 A 
ATOM     28  C   UNL A   1      29.584  27.576  23.144  1.00  0.00     0.000 A 
ATOM     29  C   UNL A   1      31.550  28.883  22.786  1.00  0.00     0.000 A 
ATOM     30  C   UNL A   1      30.310  28.451  22.349  1.00  0.00     0.000 A 
ENDBRANCH   6  25
ENDBRANCH   3   6
ENDBRANCH   1   2
BRANCH   1  31
ATOM     31  C   UNL A   1      35.190  29.657  27.573  1.00  0.00     0.042 C 
BRANCH  31  32
ATOM     32  C   UNL A   1      35.499  31.023  28.166  1.00  0.00     0.118 C 
BRANCH  32  33
ATOM     33  N   UNL A   1      35.442  31.036  29.619  1.00  0.00    -0.352 N 
ATOM     34  C   UNL A   1      36.313  30.521  30.547  1.00  0.00     0.251 C 
ATOM     35  H   UNL A   1      34.652  31.484  29.998  1.00  0.00     0.163 HD
ATOM     36  O   UNL A   1      35.981  30.483  31.728  1.00  0.00    -0.269 OA
BRANCH  34  37
ATOM     37  C   UNL A   1      37.634  29.995  30.137  1.00  0.00     0.039 A 
ATOM     38  C   UNL A   1      38.119  30.328  28.870  1.00  0.00     0.014 A 
ATOM     39  C   UNL A   1      38.382  29.155  30.968  1.00  0.00     0.014 A 
ATOM     40  C   UNL A   1      39.372  29.870  28.462  1.00  0.00     0.010 A 
ATOM     41  C   UNL A   1      39.669  28.773  30.598  1.00  0.00     0.010 A 
ATOM     42  C   UNL A   1      40.175  29.117  29.337  1.00  0.00    -0.014 A 
BRANCH  42  43
ATOM     43  C   UNL A   1      41.541  28.697  28.934  1.00  0.00     0.031 A 
ATOM     44  C   UNL A   1      41.813  27.287  28.487  1.00  0.00     0.074 A 
ATOM     45  C   UNL A   1      42.550  29.588  29.002  1.00  0.00     0.049 A 
ATOM     46  N   UNL A   1      42.937  26.754  28.077  1.00  0.00    -0.248 NA
ATOM     47  C   UNL A   1      40.684  26.346  28.530  1.00  0.00     0.031 C 
ATOM     48  C   UNL A   1      42.431  30.966  29.485  1.00  0.00     0.029 A 
ATOM     49  N   UNL A   1      43.873  29.469  28.660  1.00  0.00    -0.354 N 
ATOM     50  C   UNL A   1      42.652  25.418  27.821  1.00  0.00     0.074 A 
ATOM     51  C   UNL A   1      41.265  25.208  28.178  1.00  0.00     0.031 C 
ATOM     52  C   UNL A   1      43.621  31.575  29.370  1.00  0.00     0.029 A 
ATOM     53  C   UNL A   1      44.592  30.628  28.833  1.00  0.00     0.049 A 
ATOM     54  H   UNL A   1      44.269  28.634  28.322  1.00  0.00     0.167 HD
ATOM     55  C   UNL A   1      43.462  24.460  27.310  1.00  0.00     0.037 A 
ATOM     56  C   UNL A   1      45.886  30.898  28.579  1.00  0.00     0.037 A 
ATOM     57  C   UNL A   1      44.834  24.676  26.936  1.00  0.00     0.049 A 
ATOM     58  C   UNL A   1      46.756  29.826  27.989  1.00  0.00     0.074 A 
ATOM     59  C   UNL A   1      45.721  23.787  26.352  1.00  0.00     0.029 A 
ATOM     60  N   UNL A   1      45.523  25.868  27.110  1.00  0.00    -0.354 N 
ATOM     61  N   UNL A   1      46.450  28.590  27.676  1.00  0.00    -0.248 NA
ATOM     62  C   UNL A   1      48.151  30.192  27.704  1.00  0.00     0.031 C 
ATOM     63  C   UNL A   1      46.958  24.428  26.212  1.00  0.00     0.029 A 
ATOM     64  C   UNL A   1      46.828  25.731  26.663  1.00  0.00     0.049 A 
ATOM     65  H   UNL A   1      45.140  26.690  27.495  1.00  0.00     0.167 HD
ATOM     66  C   UNL A   1      47.606  28.037  27.139  1.00  0.00     0.074 A 
ATOM     67  C   UNL A   1      48.609  29.081  27.146  1.00  0.00     0.031 C 
ATOM     68  C   UNL A   1      47.818  26.778  26.684  1.00  0.00     0.037 A 
BRANCH  55  69
ATOM     69  C   UNL A   1      42.877  23.091  27.118  1.00  0.00     0.057 A 
ATOM     70  C   UNL A   1      42.663  22.221  28.196  1.00  0.00     0.134 A 
ATOM     71  C   UNL A   1      42.494  22.647  25.846  1.00  0.00     0.134 A 
ATOM     72  F   UNL A   1      43.019  22.579  29.439  1.00  0.00    -0.206 F 
ATOM     73  C   UNL A   1      42.114  20.950  28.013  1.00  0.00     0.040 A 
ATOM     74  C   UNL A   1      41.919  21.389  25.654  1.00  0.00     0.040 A 
ATOM     75  F   UNL A   1      42.665  23.430  24.771  1.00  0.00    -0.206 F 
ATOM     76  C   UNL A   1      41.734  20.534  26.738  1.00  0.00     0.006 A 
ENDBRANCH  55  69
BRANCH  56  77
ATOM     77  C   UNL A   1      46.425  32.255  28.843  1.00  0.00     0.057 A 
ATOM     78  C   UNL A   1      46.971  32.586  30.089  1.00  0.00     0.134 A 
ATOM     79  C   UNL A   1      46.404  33.253  27.862  1.00  0.00     0.134 A 
ATOM     80  F   UNL A   1      47.002  31.676  31.075  1.00  0.00    -0.206 F 
ATOM     81  C   UNL A   1      47.458  33.865  30.358  1.00  0.00     0.040 A 
ATOM     82  C   UNL A   1      46.911  34.530  28.109  1.00  0.00     0.040 A 
ATOM     83  F   UNL A   1      45.902  32.996  26.646  1.00  0.00    -0.206 F 
ATOM     84  C   UNL A   1      47.432  34.841  29.363  1.00  0.00     0.006 A 
ENDBRANCH  56  77
BRANCH  68  85
ATOM     85  C   UNL A   1      49.183  26.476  26.138  1.00  0.00     0.057 A 
ATOM     86  C   UNL A   1      50.158  25.823  26.905  1.00  0.00     0.134 A 
ATOM     87  C   UNL A   1      49.526  26.839  24.829  1.00  0.00     0.134 A 
ATOM     88  F   UNL A   1      49.896  25.460  28.170  1.00  0.00    -0.206 F 
ATOM     89  C   UNL A   1      51.436  25.576  26.402  1.00  0.00     0.040 A 
ATOM     90  C   UNL A   1      50.791  26.571  24.307  1.00  0.00     0.040 A 
ATOM     91  F   UNL A   1      48.637  27.458  24.038  1.00  0.00    -0.206 F 
ATOM     92  C   UNL A   1      51.755  25.948  25.097  1.00  0.00     0.006 A 
ENDBRANCH  68  85
ENDBRANCH  42  43
ENDBRANCH  34  37
ENDBRANCH  32  33
ENDBRANCH  31  32
ENDBRANCH   1  31
TORSDOF 15
ENDMDL
MODEL 3
REMARK VINA RESULT:     -12.0      4.472      6.420
REMARK SMILES CCOc1ccc(C(=O)N2CCC(C(=O)NCCCNC(=O)c3ccc(-c4c5nc(c(-c6c(F)cccc6F)c6ccc([nH]6)c(-c6c(F)cccc6F)c6nc(c(-c7c(F)cccc7F)c7ccc4[nH]7)C=C6)C=C5)cc3)(c3ccccc3)CC2)cc1OC
REMARK SMILES IDX 17 1 16 2 14 3 15 4 13 6 8 7 9 8 10 9 11 10 84 11 12 12
REMARK SMILES IDX 83 13 7 14 4 15 5 16 86 17 6 18 85 19 3 20 2 21 1 22 87 23
REMARK SMILES IDX 88 24 77 25 78 26 82 27 79 28 81 29 80 30 18 31 19 32 20 33
REMARK SMILES IDX 21 34 22 36 23 37 24 38 76 39 25 40 75 41 26 42 27 43 28 44
REMARK SMILES IDX 69 45 29 46 74 47 68 48 70 49 30 50 73 51 67 52 66 53 31 55
REMARK SMILES IDX 57 56 40 57 56 58 41 59 44 60 55 61 71 62 42 63 43 64 54 66
REMARK SMILES IDX 72 67 45 68 32 69 33 70 38 71 34 72 35 73 37 74 39 75 36 76
REMARK SMILES IDX 58 77 59 78 64 79 60 80 61 81 63 82 65 83 62 84 46 85 47 86
REMARK SMILES IDX 52 87 48 88 49 89 51 90 53 91 50 92
REMARK H PARENT 16 5 20 35 70 54 44 65
REMARK Flexibility Score: inf
ROOT
ATOM      1  C   UNL A   1      33.672  29.794  26.777  1.00  0.00     0.117 C 
ENDROOT
BRANCH   1   2
ATOM      2  N   UNL A   1      32.634  29.193  27.606  1.00  0.00    -0.355 N 
ATOM      3  C   UNL A   1      31.826  28.099  27.457  1.00  0.00     0.230 C 
ATOM      4  O   UNL A   1      30.986  27.991  28.353  1.00  0.00    -0.274 OA
ATOM      5  H   UNL A   1      32.483  29.677  28.451  1.00  0.00     0.163 HD
BRANCH   3   6
ATOM      6  C   UNL A   1      31.966  27.121  26.236  1.00  0.00     0.077 C 
ATOM      7  C   UNL A   1      33.843  23.185  26.198  1.00  0.00     0.253 C 
ATOM      8  O   UNL A   1      34.964  23.130  26.705  1.00  0.00    -0.269 OA
ATOM      9  N   UNL A   1      33.148  24.404  26.102  1.00  0.00    -0.339 N 
ATOM     10  C   UNL A   1      33.946  25.521  25.628  1.00  0.00     0.121 C 
ATOM     11  C   UNL A   1      31.691  24.537  26.077  1.00  0.00     0.121 C 
ATOM     12  C   UNL A   1      33.495  26.895  26.085  1.00  0.00     0.043 C 
ATOM     13  C   UNL A   1      31.150  25.851  26.615  1.00  0.00     0.043 C 
BRANCH   7  14
ATOM     14  C   UNL A   1      33.310  21.942  25.552  1.00  0.00     0.043 A 
ATOM     15  C   UNL A   1      32.550  19.536  24.283  1.00  0.00     0.161 A 
ATOM     16  C   UNL A   1      32.924  19.543  25.635  1.00  0.00     0.051 A 
ATOM     17  C   UNL A   1      32.525  20.730  23.569  1.00  0.00     0.161 A 
ATOM     18  C   UNL A   1      33.293  20.741  26.269  1.00  0.00     0.018 A 
ATOM     19  C   UNL A   1      32.979  21.893  24.199  1.00  0.00     0.064 A 
BRANCH  15  20
ATOM     20  O   UNL A   1      32.179  18.360  23.696  1.00  0.00    -0.490 OA
BRANCH  20  21
ATOM     21  C   UNL A   1      33.282  17.646  23.126  1.00  0.00     0.226 C 
ATOM     22  C   UNL A   1      33.442  16.330  23.869  1.00  0.00     0.049 C 
ENDBRANCH  20  21
ENDBRANCH  15  20
BRANCH  17  23
ATOM     23  O   UNL A   1      32.143  20.985  22.284  1.00  0.00    -0.493 OA
ATOM     24  C   UNL A   1      32.395  22.252  21.709  1.00  0.00     0.278 C 
ENDBRANCH  17  23
ENDBRANCH   7  14
BRANCH   6  25
ATOM     25  C   UNL A   1      31.417  27.633  24.853  1.00  0.00    -0.032 A 
ATOM     26  C   UNL A   1      32.122  28.479  23.982  1.00  0.00     0.005 A 
ATOM     27  C   UNL A   1      30.121  27.266  24.420  1.00  0.00     0.005 A 
ATOM     28  C   UNL A   1      31.579  28.917  22.764  1.00  0.00     0.000 A 
ATOM     29  C   UNL A   1      29.566  27.714  23.215  1.00  0.00     0.000 A 
ATOM     30  C   UNL A   1      30.299  28.541  22.381  1.00  0.00     0.000 A 
ENDBRANCH   6  25
ENDBRANCH   3   6
ENDBRANCH   1   2
BRANCH   1  31
ATOM     31  C   UNL A   1      35.047  29.724  27.426  1.00  0.00     0.042 C 
BRANCH  31  32
ATOM     32  C   UNL A   1      35.474  31.001  28.133  1.00  0.00     0.118 C 
BRANCH  32  33
ATOM     33  N   UNL A   1      35.415  30.891  29.582  1.00  0.00    -0.352 N 
ATOM     34  C   UNL A   1      36.283  30.299  30.465  1.00  0.00     0.251 C 
ATOM     35  H   UNL A   1      34.625  31.309  29.996  1.00  0.00     0.163 HD
ATOM     36  O   UNL A   1      35.950  30.163  31.638  1.00  0.00    -0.269 OA
BRANCH  34  37
ATOM     37  C   UNL A   1      37.604  29.805  30.015  1.00  0.00     0.039 A 
ATOM     38  C   UNL A   1      37.988  30.047  28.693  1.00  0.00     0.014 A 
ATOM     39  C   UNL A   1      38.448  29.082  30.862  1.00  0.00     0.014 A 
ATOM     40  C   UNL A   1      39.238  29.618  28.244  1.00  0.00     0.010 A 
ATOM     41  C   UNL A   1      39.729  28.734  30.441  1.00  0.00     0.010 A 
ATOM     42  C   UNL A   1      40.135  28.988  29.124  1.00  0.00    -0.014 A 
BRANCH  42  43
ATOM     43  C   UNL A   1      41.495  28.604  28.668  1.00  0.00     0.031 A 
ATOM     44  C   UNL A   1      42.607  29.616  28.628  1.00  0.00     0.074 A 
ATOM     45  C   UNL A   1      41.720  27.340  28.259  1.00  0.00     0.049 A 
ATOM     46  N   UNL A   1      43.860  29.451  28.283  1.00  0.00    -0.248 NA
ATOM     47  C   UNL A   1      42.265  30.997  28.997  1.00  0.00     0.031 C 
ATOM     48  C   UNL A   1      40.709  26.283  28.184  1.00  0.00     0.029 A 
ATOM     49  N   UNL A   1      42.872  26.729  27.834  1.00  0.00    -0.354 N 
ATOM     50  C   UNL A   1      44.450  30.705  28.387  1.00  0.00     0.074 A 
ATOM     51  C   UNL A   1      43.407  31.631  28.770  1.00  0.00     0.031 C 
ATOM     52  C   UNL A   1      41.293  25.145  27.779  1.00  0.00     0.029 A 
ATOM     53  C   UNL A   1      42.710  25.396  27.539  1.00  0.00     0.049 A 
ATOM     54  H   UNL A   1      43.732  27.199  27.749  1.00  0.00     0.167 HD
ATOM     55  C   UNL A   1      45.748  31.050  28.206  1.00  0.00     0.037 A 
ATOM     56  C   UNL A   1      43.606  24.478  27.130  1.00  0.00     0.037 A 
ATOM     57  C   UNL A   1      46.789  30.123  27.847  1.00  0.00     0.049 A 
ATOM     58  C   UNL A   1      45.043  24.880  26.963  1.00  0.00     0.074 A 
ATOM     59  C   UNL A   1      48.145  30.362  27.700  1.00  0.00     0.029 A 
ATOM     60  N   UNL A   1      46.590  28.778  27.573  1.00  0.00    -0.354 N 
ATOM     61  N   UNL A   1      45.601  26.052  27.145  1.00  0.00    -0.248 NA
ATOM     62  C   UNL A   1      45.977  23.826  26.546  1.00  0.00     0.031 C 
ATOM     63  C   UNL A   1      48.760  29.171  27.298  1.00  0.00     0.029 A 
ATOM     64  C   UNL A   1      47.795  28.179  27.241  1.00  0.00     0.049 A 
ATOM     65  H   UNL A   1      45.720  28.317  27.610  1.00  0.00     0.167 HD
ATOM     66  C   UNL A   1      46.954  25.873  26.885  1.00  0.00     0.074 A 
ATOM     67  C   UNL A   1      47.134  24.474  26.559  1.00  0.00     0.031 C 
ATOM     68  C   UNL A   1      47.956  26.786  26.911  1.00  0.00     0.037 A 
BRANCH  55  69
ATOM     69  C   UNL A   1      46.114  32.492  28.407  1.00  0.00     0.057 A 
ATOM     70  C   UNL A   1      46.512  32.986  29.656  1.00  0.00     0.134 A 
ATOM     71  C   UNL A   1      46.098  33.392  27.334  1.00  0.00     0.134 A 
ATOM     72  F   UNL A   1      46.537  32.180  30.729  1.00  0.00    -0.206 F 
ATOM     73  C   UNL A   1      46.857  34.327  29.837  1.00  0.00     0.040 A 
ATOM     74  C   UNL A   1      46.467  34.728  27.495  1.00  0.00     0.040 A 
ATOM     75  F   UNL A   1      45.732  32.985  26.108  1.00  0.00    -0.206 F 
ATOM     76  C   UNL A   1      46.842  35.201  28.751  1.00  0.00     0.006 A 
ENDBRANCH  55  69
BRANCH  56  77
ATOM     77  C   UNL A   1      43.176  23.078  26.892  1.00  0.00     0.057 A 
ATOM     78  C   UNL A   1      43.036  22.577  25.592  1.00  0.00     0.134 A 
ATOM     79  C   UNL A   1      42.890  22.211  27.953  1.00  0.00     0.134 A 
ATOM     80  F   UNL A   1      43.278  23.367  24.535  1.00  0.00    -0.206 F 
ATOM     81  C   UNL A   1      42.608  21.271  25.354  1.00  0.00     0.040 A 
ATOM     82  C   UNL A   1      42.485  20.893  27.729  1.00  0.00     0.040 A 
ATOM     83  F   UNL A   1      43.012  22.628  29.220  1.00  0.00    -0.206 F 
ATOM     84  C   UNL A   1      42.335  20.423  26.427  1.00  0.00     0.006 A 
ENDBRANCH  56  77
BRANCH  68  85
ATOM     85  C   UNL A   1      49.336  26.285  26.598  1.00  0.00     0.057 A 
ATOM     86  C   UNL A   1      49.887  26.390  25.313  1.00  0.00     0.134 A 
ATOM     87  C   UNL A   1      50.124  25.693  27.593  1.00  0.00     0.134 A 
ATOM     88  F   UNL A   1      49.178  26.936  24.313  1.00  0.00    -0.206 F 
ATOM     89  C   UNL A   1      51.157  25.891  25.021  1.00  0.00     0.040 A 
ATOM     90  C   UNL A   1      51.407  25.217  27.319  1.00  0.00     0.040 A 
ATOM     91  F   UNL A   1      49.662  25.569  28.846  1.00  0.00    -0.206 F 
ATOM     92  C   UNL A   1      51.923  25.306  26.028  1.00  0.00     0.006 A 
ENDBRANCH  68  85
ENDBRANCH  42  43
ENDBRANCH  34  37
ENDBRANCH  32  33
ENDBRANCH  31  32
ENDBRANCH   1  31
TORSDOF 15
ENDMDL
