MODEL 1
REMARK VINA RESULT:     -12.6      0.000      0.000
REMARK SMILES Cc1ccc(C(=O)NCCCNC(=O)c2ccc(-c3c4nc(c(-c5c(F)cccc5F)c5ccc([nH]5)c(-c5c(F)cccc5F)c5nc(c(-c6c(F)cccc6F)c6ccc3[nH]6)C=C5)C=C4)cc2)c2c1N[C@H](c1ccccc1F)[C@H]1CC=C[C@@H]21
REMARK SMILES IDX 10 1 9 2 8 3 6 4 7 5 5 7 1 8 2 9 3 10 70 11 4 12 69 13 71 14
REMARK SMILES IDX 84 15 72 16 80 18 83 19 81 20 82 21 73 22 74 23 78 24 75 25
REMARK SMILES IDX 77 26 79 27 76 28 11 29 12 30 13 31 14 33 15 34 16 35 68 36
REMARK SMILES IDX 17 37 67 38 18 39 19 40 20 41 61 42 21 43 66 44 60 45 62 46
REMARK SMILES IDX 22 47 65 48 59 49 58 50 23 52 49 53 32 54 48 55 33 56 36 57
REMARK SMILES IDX 47 58 63 59 34 60 35 61 46 63 64 64 37 65 24 66 25 67 30 68
REMARK SMILES IDX 26 69 27 70 29 71 31 72 28 73 50 74 51 75 56 76 52 77 53 78
REMARK SMILES IDX 55 79 57 80 54 81 38 82 39 83 44 84 40 85 41 86 43 87 45 88
REMARK SMILES IDX 42 89
REMARK H PARENT 8 6 71 17 12 32 62 51 36 62
REMARK Flexibility Score: inf
ROOT
ATOM      1  C   UNL A   1      33.999  28.302  25.704  1.00  0.00     0.042 C 
ENDROOT
BRANCH   1   2
ATOM      2  C   UNL A   1      32.754  28.759  24.941  1.00  0.00     0.118 C 
BRANCH   2   3
ATOM      3  N   UNL A   1      31.626  27.923  25.297  1.00  0.00    -0.352 N 
ATOM      4  C   UNL A   1      30.984  26.863  24.713  1.00  0.00     0.251 C 
ATOM      5  O   UNL A   1      29.885  26.619  25.208  1.00  0.00    -0.269 OA
ATOM      6  H   UNL A   1      31.227  28.176  26.161  1.00  0.00     0.163 HD
BRANCH   4   7
ATOM      7  C   UNL A   1      31.546  26.028  23.590  1.00  0.00     0.045 A 
ATOM      8  C   UNL A   1      33.331  23.811  20.317  1.00  0.00     0.046 C 
ATOM      9  C   UNL A   1      32.642  24.504  21.464  1.00  0.00    -0.028 A 
ATOM     10  C   UNL A   1      32.176  25.804  21.252  1.00  0.00     0.006 A 
ATOM     11  C   UNL A   1      32.505  23.914  22.739  1.00  0.00     0.042 A 
ATOM     12  C   UNL A   1      31.595  26.530  22.288  1.00  0.00     0.014 A 
ATOM     13  C   UNL A   1      31.989  24.686  23.814  1.00  0.00    -0.005 A 
ATOM     14  N   UNL A   1      32.868  22.588  22.922  1.00  0.00    -0.377 N 
ATOM     15  C   UNL A   1      31.857  24.032  25.174  1.00  0.00     0.050 C 
ATOM     16  C   UNL A   1      33.096  22.016  24.240  1.00  0.00     0.117 C 
ATOM     17  H   UNL A   1      32.977  22.013  22.131  1.00  0.00     0.161 HD
ATOM     18  C   UNL A   1      32.016  22.502  25.216  1.00  0.00     0.031 C 
ATOM     19  C   UNL A   1      32.858  24.472  26.212  1.00  0.00    -0.023 C 
ATOM     20  C   UNL A   1      32.416  22.224  26.679  1.00  0.00     0.034 C 
ATOM     21  C   UNL A   1      33.147  23.474  27.057  1.00  0.00    -0.030 C 
BRANCH  16  22
ATOM     22  C   UNL A   1      33.253  20.503  24.099  1.00  0.00     0.010 A 
ATOM     23  C   UNL A   1      32.308  19.800  23.325  1.00  0.00     0.009 A 
ATOM     24  C   UNL A   1      34.291  19.753  24.671  1.00  0.00     0.128 A 
ATOM     25  C   UNL A   1      32.414  18.419  23.122  1.00  0.00     0.001 A 
ATOM     26  C   UNL A   1      34.406  18.378  24.466  1.00  0.00     0.039 A 
ATOM     27  F   UNL A   1      35.240  20.328  25.423  1.00  0.00    -0.207 F 
ATOM     28  C   UNL A   1      33.469  17.709  23.689  1.00  0.00     0.003 A 
ENDBRANCH  16  22
ENDBRANCH   4   7
ENDBRANCH   2   3
ENDBRANCH   1   2
BRANCH   1  29
ATOM     29  C   UNL A   1      33.870  28.501  27.214  1.00  0.00     0.118 C 
BRANCH  29  30
ATOM     30  N   UNL A   1      33.774  29.914  27.559  1.00  0.00    -0.352 N 
ATOM     31  C   UNL A   1      34.648  30.688  28.279  1.00  0.00     0.251 C 
ATOM     32  H   UNL A   1      32.969  30.376  27.231  1.00  0.00     0.163 HD
ATOM     33  O   UNL A   1      34.295  31.768  28.734  1.00  0.00    -0.269 OA
BRANCH  31  34
ATOM     34  C   UNL A   1      36.026  30.210  28.490  1.00  0.00     0.039 A 
ATOM     35  C   UNL A   1      36.381  29.669  29.729  1.00  0.00     0.014 A 
ATOM     36  C   UNL A   1      36.973  30.332  27.468  1.00  0.00     0.014 A 
ATOM     37  C   UNL A   1      37.683  29.213  29.930  1.00  0.00     0.010 A 
ATOM     38  C   UNL A   1      38.254  29.822  27.651  1.00  0.00     0.010 A 
ATOM     39  C   UNL A   1      38.623  29.276  28.888  1.00  0.00    -0.014 A 
BRANCH  39  40
ATOM     40  C   UNL A   1      40.021  28.834  29.094  1.00  0.00     0.031 A 
ATOM     41  C   UNL A   1      41.007  29.776  29.726  1.00  0.00     0.074 A 
ATOM     42  C   UNL A   1      40.408  27.613  28.683  1.00  0.00     0.049 A 
ATOM     43  N   UNL A   1      42.283  29.607  29.957  1.00  0.00    -0.248 NA
ATOM     44  C   UNL A   1      40.490  31.094  30.132  1.00  0.00     0.031 C 
ATOM     45  C   UNL A   1      39.545  26.624  28.035  1.00  0.00     0.029 A 
ATOM     46  N   UNL A   1      41.632  27.000  28.741  1.00  0.00    -0.354 N 
ATOM     47  C   UNL A   1      42.718  30.789  30.544  1.00  0.00     0.074 A 
ATOM     48  C   UNL A   1      41.588  31.693  30.567  1.00  0.00     0.031 C 
ATOM     49  C   UNL A   1      40.266  25.523  27.766  1.00  0.00     0.029 A 
ATOM     50  C   UNL A   1      41.644  25.741  28.193  1.00  0.00     0.049 A 
ATOM     51  H   UNL A   1      42.429  27.423  29.137  1.00  0.00     0.167 HD
ATOM     52  C   UNL A   1      43.940  31.085  31.043  1.00  0.00     0.037 A 
ATOM     53  C   UNL A   1      42.660  24.869  28.049  1.00  0.00     0.037 A 
ATOM     54  C   UNL A   1      45.062  30.186  31.009  1.00  0.00     0.049 A 
ATOM     55  C   UNL A   1      44.027  25.251  28.554  1.00  0.00     0.074 A 
ATOM     56  C   UNL A   1      46.339  30.377  31.507  1.00  0.00     0.029 A 
ATOM     57  N   UNL A   1      45.041  28.924  30.434  1.00  0.00    -0.354 N 
ATOM     58  N   UNL A   1      44.411  26.346  29.164  1.00  0.00    -0.248 NA
ATOM     59  C   UNL A   1      45.101  24.269  28.353  1.00  0.00     0.031 C 
ATOM     60  C   UNL A   1      47.104  29.250  31.190  1.00  0.00     0.029 A 
ATOM     61  C   UNL A   1      46.290  28.334  30.543  1.00  0.00     0.049 A 
ATOM     62  H   UNL A   1      44.255  28.508  30.011  1.00  0.00     0.167 HD
ATOM     63  C   UNL A   1      45.759  26.171  29.450  1.00  0.00     0.074 A 
ATOM     64  C   UNL A   1      46.120  24.855  28.963  1.00  0.00     0.031 C 
ATOM     65  C   UNL A   1      46.625  27.020  30.057  1.00  0.00     0.037 A 
BRANCH  52  66
ATOM     66  C   UNL A   1      44.115  32.438  31.670  1.00  0.00     0.057 A 
ATOM     67  C   UNL A   1      44.546  33.532  30.910  1.00  0.00     0.134 A 
ATOM     68  C   UNL A   1      43.869  32.655  33.033  1.00  0.00     0.134 A 
ATOM     69  F   UNL A   1      44.804  33.395  29.601  1.00  0.00    -0.206 F 
ATOM     70  C   UNL A   1      44.723  34.793  31.483  1.00  0.00     0.040 A 
ATOM     71  C   UNL A   1      44.014  33.917  33.610  1.00  0.00     0.040 A 
ATOM     72  F   UNL A   1      43.440  31.652  33.814  1.00  0.00    -0.206 F 
ATOM     73  C   UNL A   1      44.448  34.990  32.835  1.00  0.00     0.006 A 
ENDBRANCH  52  66
BRANCH  53  74
ATOM     74  C   UNL A   1      42.441  23.548  27.406  1.00  0.00     0.057 A 
ATOM     75  C   UNL A   1      42.551  23.380  26.021  1.00  0.00     0.134 A 
ATOM     76  C   UNL A   1      42.174  22.407  28.174  1.00  0.00     0.134 A 
ATOM     77  F   UNL A   1      42.797  24.433  25.227  1.00  0.00    -0.206 F 
ATOM     78  C   UNL A   1      42.413  22.126  25.423  1.00  0.00     0.040 A 
ATOM     79  C   UNL A   1      42.064  21.143  27.593  1.00  0.00     0.040 A 
ATOM     80  F   UNL A   1      42.075  22.500  29.508  1.00  0.00    -0.206 F 
ATOM     81  C   UNL A   1      42.184  21.000  26.211  1.00  0.00     0.006 A 
ENDBRANCH  53  74
BRANCH  65  82
ATOM     82  C   UNL A   1      48.030  26.530  30.261  1.00  0.00     0.057 A 
ATOM     83  C   UNL A   1      49.007  26.745  29.281  1.00  0.00     0.134 A 
ATOM     84  C   UNL A   1      48.413  25.832  31.413  1.00  0.00     0.134 A 
ATOM     85  F   UNL A   1      48.706  27.397  28.148  1.00  0.00    -0.206 F 
ATOM     86  C   UNL A   1      50.315  26.286  29.442  1.00  0.00     0.040 A 
ATOM     87  C   UNL A   1      49.726  25.397  31.600  1.00  0.00     0.040 A 
ATOM     88  F   UNL A   1      47.528  25.605  32.397  1.00  0.00    -0.206 F 
ATOM     89  C   UNL A   1      50.679  25.618  30.609  1.00  0.00     0.006 A 
ENDBRANCH  65  82
ENDBRANCH  39  40
ENDBRANCH  31  34
ENDBRANCH  29  30
ENDBRANCH   1  29
TORSDOF 11
ENDMDL
MODEL 2
REMARK VINA RESULT:     -12.6      4.498      9.136
REMARK SMILES Cc1ccc(C(=O)NCCCNC(=O)c2ccc(-c3c4nc(c(-c5c(F)cccc5F)c5ccc([nH]5)c(-c5c(F)cccc5F)c5nc(c(-c6c(F)cccc6F)c6ccc3[nH]6)C=C5)C=C4)cc2)c2c1N[C@H](c1ccccc1F)[C@H]1CC=C[C@@H]21
REMARK SMILES IDX 10 1 9 2 8 3 6 4 7 5 5 7 1 8 2 9 3 10 70 11 4 12 69 13 71 14
REMARK SMILES IDX 84 15 72 16 80 18 83 19 81 20 82 21 73 22 74 23 78 24 75 25
REMARK SMILES IDX 77 26 79 27 76 28 11 29 12 30 13 31 14 33 15 34 16 35 68 36
REMARK SMILES IDX 17 37 67 38 18 39 19 40 20 41 61 42 21 43 66 44 60 45 62 46
REMARK SMILES IDX 22 47 65 48 59 49 58 50 23 52 49 53 32 54 48 55 33 56 36 57
REMARK SMILES IDX 47 58 63 59 34 60 35 61 46 63 64 64 37 65 24 66 25 67 30 68
REMARK SMILES IDX 26 69 27 70 29 71 31 72 28 73 50 74 51 75 56 76 52 77 53 78
REMARK SMILES IDX 55 79 57 80 54 81 38 82 39 83 44 84 40 85 41 86 43 87 45 88
REMARK SMILES IDX 42 89
REMARK H PARENT 8 6 71 17 12 32 62 51 36 62
REMARK Flexibility Score: inf
ROOT
ATOM      1  C   UNL A   1      37.335  23.374  25.578  1.00  0.00     0.042 C 
ENDROOT
BRANCH   1   2
ATOM      2  C   UNL A   1      35.926  23.967  25.511  1.00  0.00     0.118 C 
BRANCH   2   3
ATOM      3  N   UNL A   1      35.465  23.980  24.138  1.00  0.00    -0.352 N 
ATOM      4  C   UNL A   1      34.238  23.956  23.527  1.00  0.00     0.251 C 
ATOM      5  O   UNL A   1      34.289  23.690  22.327  1.00  0.00    -0.269 OA
ATOM      6  H   UNL A   1      36.207  24.014  23.491  1.00  0.00     0.163 HD
BRANCH   4   7
ATOM      7  C   UNL A   1      32.929  24.253  24.214  1.00  0.00     0.045 A 
ATOM      8  C   UNL A   1      29.273  25.047  26.410  1.00  0.00     0.046 C 
ATOM      9  C   UNL A   1      30.491  24.792  25.559  1.00  0.00    -0.028 A 
ATOM     10  C   UNL A   1      31.123  23.552  25.685  1.00  0.00     0.006 A 
ATOM     11  C   UNL A   1      31.036  25.768  24.698  1.00  0.00     0.042 A 
ATOM     12  C   UNL A   1      32.294  23.276  24.984  1.00  0.00     0.014 A 
ATOM     13  C   UNL A   1      32.275  25.515  24.050  1.00  0.00    -0.005 A 
ATOM     14  N   UNL A   1      30.352  26.957  24.491  1.00  0.00    -0.377 N 
ATOM     15  C   UNL A   1      32.843  26.581  23.136  1.00  0.00     0.050 C 
ATOM     16  C   UNL A   1      30.989  28.135  23.923  1.00  0.00     0.117 C 
ATOM     17  H   UNL A   1      29.400  27.005  24.737  1.00  0.00     0.161 HD
ATOM     18  C   UNL A   1      31.893  27.729  22.752  1.00  0.00     0.031 C 
ATOM     19  C   UNL A   1      34.034  27.335  23.669  1.00  0.00    -0.023 C 
ATOM     20  C   UNL A   1      32.852  28.871  22.362  1.00  0.00     0.034 C 
ATOM     21  C   UNL A   1      34.047  28.596  23.220  1.00  0.00    -0.030 C 
BRANCH  16  22
ATOM     22  C   UNL A   1      29.914  29.178  23.622  1.00  0.00     0.010 A 
ATOM     23  C   UNL A   1      28.844  28.815  22.779  1.00  0.00     0.009 A 
ATOM     24  C   UNL A   1      29.899  30.480  24.144  1.00  0.00     0.128 A 
ATOM     25  C   UNL A   1      27.806  29.709  22.493  1.00  0.00     0.001 A 
ATOM     26  C   UNL A   1      28.863  31.372  23.868  1.00  0.00     0.039 A 
ATOM     27  F   UNL A   1      30.869  30.922  24.956  1.00  0.00    -0.207 F 
ATOM     28  C   UNL A   1      27.813  30.987  23.045  1.00  0.00     0.003 A 
ENDBRANCH  16  22
ENDBRANCH   4   7
ENDBRANCH   2   3
ENDBRANCH   1   2
BRANCH   1  29
ATOM     29  C   UNL A   1      38.261  24.164  26.504  1.00  0.00     0.118 C 
BRANCH  29  30
ATOM     30  N   UNL A   1      39.658  24.009  26.119  1.00  0.00    -0.352 N 
ATOM     31  C   UNL A   1      40.724  24.829  26.389  1.00  0.00     0.251 C 
ATOM     32  H   UNL A   1      39.865  23.204  25.590  1.00  0.00     0.163 HD
ATOM     33  O   UNL A   1      41.767  24.725  25.757  1.00  0.00    -0.269 OA
BRANCH  31  34
ATOM     34  C   UNL A   1      40.605  25.834  27.461  1.00  0.00     0.039 A 
ATOM     35  C   UNL A   1      41.410  26.975  27.422  1.00  0.00     0.014 A 
ATOM     36  C   UNL A   1      39.717  25.623  28.521  1.00  0.00     0.014 A 
ATOM     37  C   UNL A   1      41.297  27.929  28.433  1.00  0.00     0.010 A 
ATOM     38  C   UNL A   1      39.563  26.603  29.496  1.00  0.00     0.010 A 
ATOM     39  C   UNL A   1      40.364  27.754  29.468  1.00  0.00    -0.014 A 
BRANCH  39  40
ATOM     40  C   UNL A   1      40.256  28.735  30.571  1.00  0.00     0.031 A 
ATOM     41  C   UNL A   1      39.252  29.849  30.472  1.00  0.00     0.074 A 
ATOM     42  C   UNL A   1      41.079  28.648  31.633  1.00  0.00     0.049 A 
ATOM     43  N   UNL A   1      39.024  30.835  31.301  1.00  0.00    -0.248 NA
ATOM     44  C   UNL A   1      38.405  29.866  29.268  1.00  0.00     0.031 C 
ATOM     45  C   UNL A   1      42.108  27.625  31.824  1.00  0.00     0.029 A 
ATOM     46  N   UNL A   1      41.184  29.440  32.746  1.00  0.00    -0.354 N 
ATOM     47  C   UNL A   1      38.004  31.581  30.724  1.00  0.00     0.074 A 
ATOM     48  C   UNL A   1      37.707  30.977  29.444  1.00  0.00     0.031 C 
ATOM     49  C   UNL A   1      42.733  27.846  32.993  1.00  0.00     0.029 A 
ATOM     50  C   UNL A   1      42.170  29.041  33.614  1.00  0.00     0.049 A 
ATOM     51  H   UNL A   1      40.607  30.222  32.908  1.00  0.00     0.167 HD
ATOM     52  C   UNL A   1      37.354  32.656  31.229  1.00  0.00     0.037 A 
ATOM     53  C   UNL A   1      42.573  29.588  34.776  1.00  0.00     0.037 A 
ATOM     54  C   UNL A   1      37.659  33.258  32.498  1.00  0.00     0.049 A 
ATOM     55  C   UNL A   1      41.876  30.825  35.282  1.00  0.00     0.074 A 
ATOM     56  C   UNL A   1      37.048  34.335  33.114  1.00  0.00     0.029 A 
ATOM     57  N   UNL A   1      38.674  32.836  33.345  1.00  0.00    -0.354 N 
ATOM     58  N   UNL A   1      40.870  31.483  34.759  1.00  0.00    -0.248 NA
ATOM     59  C   UNL A   1      42.371  31.388  36.545  1.00  0.00     0.031 C 
ATOM     60  C   UNL A   1      37.724  34.596  34.311  1.00  0.00     0.029 A 
ATOM     61  C   UNL A   1      38.721  33.646  34.467  1.00  0.00     0.049 A 
ATOM     62  H   UNL A   1      39.272  32.072  33.174  1.00  0.00     0.167 HD
ATOM     63  C   UNL A   1      40.590  32.517  35.644  1.00  0.00     0.074 A 
ATOM     64  C   UNL A   1      41.520  32.383  36.747  1.00  0.00     0.031 C 
ATOM     65  C   UNL A   1      39.652  33.492  35.556  1.00  0.00     0.037 A 
BRANCH  52  66
ATOM     66  C   UNL A   1      36.248  33.239  30.398  1.00  0.00     0.057 A 
ATOM     67  C   UNL A   1      36.529  34.066  29.304  1.00  0.00     0.134 A 
ATOM     68  C   UNL A   1      34.899  32.991  30.691  1.00  0.00     0.134 A 
ATOM     69  F   UNL A   1      37.797  34.349  28.969  1.00  0.00    -0.206 F 
ATOM     70  C   UNL A   1      35.508  34.624  28.531  1.00  0.00     0.040 A 
ATOM     71  C   UNL A   1      33.872  33.519  29.908  1.00  0.00     0.040 A 
ATOM     72  F   UNL A   1      34.561  32.196  31.717  1.00  0.00    -0.206 F 
ATOM     73  C   UNL A   1      34.176  34.344  28.826  1.00  0.00     0.006 A 
ENDBRANCH  52  66
BRANCH  53  74
ATOM     74  C   UNL A   1      43.686  28.983  35.554  1.00  0.00     0.057 A 
ATOM     75  C   UNL A   1      43.455  27.981  36.503  1.00  0.00     0.134 A 
ATOM     76  C   UNL A   1      45.016  29.355  35.320  1.00  0.00     0.134 A 
ATOM     77  F   UNL A   1      42.205  27.584  36.780  1.00  0.00    -0.206 F 
ATOM     78  C   UNL A   1      44.506  27.364  37.184  1.00  0.00     0.040 A 
ATOM     79  C   UNL A   1      46.077  28.726  35.971  1.00  0.00     0.040 A 
ATOM     80  F   UNL A   1      45.303  30.297  34.409  1.00  0.00    -0.206 F 
ATOM     81  C   UNL A   1      45.823  27.725  36.908  1.00  0.00     0.006 A 
ENDBRANCH  53  74
BRANCH  65  82
ATOM     82  C   UNL A   1      39.564  34.459  36.701  1.00  0.00     0.057 A 
ATOM     83  C   UNL A   1      38.832  34.136  37.851  1.00  0.00     0.134 A 
ATOM     84  C   UNL A   1      40.186  35.713  36.663  1.00  0.00     0.134 A 
ATOM     85  F   UNL A   1      38.202  32.956  37.950  1.00  0.00    -0.206 F 
ATOM     86  C   UNL A   1      38.723  35.025  38.921  1.00  0.00     0.040 A 
ATOM     87  C   UNL A   1      40.112  36.597  37.740  1.00  0.00     0.040 A 
ATOM     88  F   UNL A   1      40.915  36.079  35.596  1.00  0.00    -0.206 F 
ATOM     89  C   UNL A   1      39.374  36.256  38.871  1.00  0.00     0.006 A 
ENDBRANCH  65  82
ENDBRANCH  39  40
ENDBRANCH  31  34
ENDBRANCH  29  30
ENDBRANCH   1  29
TORSDOF 11
ENDMDL
MODEL 3
REMARK VINA RESULT:     -12.5      2.068      6.461
REMARK SMILES Cc1ccc(C(=O)NCCCNC(=O)c2ccc(-c3c4nc(c(-c5c(F)cccc5F)c5ccc([nH]5)c(-c5c(F)cccc5F)c5nc(c(-c6c(F)cccc6F)c6ccc3[nH]6)C=C5)C=C4)cc2)c2c1N[C@H](c1ccccc1F)[C@H]1CC=C[C@@H]21
REMARK SMILES IDX 10 1 9 2 8 3 6 4 7 5 5 7 1 8 2 9 3 10 70 11 4 12 69 13 71 14
REMARK SMILES IDX 84 15 72 16 80 18 83 19 81 20 82 21 73 22 74 23 78 24 75 25
REMARK SMILES IDX 77 26 79 27 76 28 11 29 12 30 13 31 14 33 15 34 16 35 68 36
REMARK SMILES IDX 17 37 67 38 18 39 19 40 20 41 61 42 21 43 66 44 60 45 62 46
REMARK SMILES IDX 22 47 65 48 59 49 58 50 23 52 49 53 32 54 48 55 33 56 36 57
REMARK SMILES IDX 47 58 63 59 34 60 35 61 46 63 64 64 37 65 24 66 25 67 30 68
REMARK SMILES IDX 26 69 27 70 29 71 31 72 28 73 50 74 51 75 56 76 52 77 53 78
REMARK SMILES IDX 55 79 57 80 54 81 38 82 39 83 44 84 40 85 41 86 43 87 45 88
REMARK SMILES IDX 42 89
REMARK H PARENT 8 6 71 17 12 32 62 51 36 62
REMARK Flexibility Score: inf
ROOT
ATOM      1  C   UNL A   1      33.740  29.044  27.117  1.00  0.00     0.042 C 
ENDROOT
BRANCH   1   2
ATOM      2  C   UNL A   1      33.650  27.778  26.261  1.00  0.00     0.118 C 
BRANCH   2   3
ATOM      3  N   UNL A   1      32.452  27.039  26.603  1.00  0.00    -0.352 N 
ATOM      4  C   UNL A   1      31.631  26.165  25.941  1.00  0.00     0.251 C 
ATOM      5  O   UNL A   1      30.551  25.983  26.501  1.00  0.00    -0.269 OA
ATOM      6  H   UNL A   1      32.158  27.205  27.529  1.00  0.00     0.163 HD
BRANCH   4   7
ATOM      7  C   UNL A   1      31.988  25.448  24.663  1.00  0.00     0.045 A 
ATOM      8  C   UNL A   1      33.178  23.574  20.937  1.00  0.00     0.046 C 
ATOM      9  C   UNL A   1      32.696  24.148  22.244  1.00  0.00    -0.028 A 
ATOM     10  C   UNL A   1      32.234  25.467  22.244  1.00  0.00     0.006 A 
ATOM     11  C   UNL A   1      32.747  23.429  23.457  1.00  0.00     0.042 A 
ATOM     12  C   UNL A   1      31.843  26.085  23.429  1.00  0.00     0.014 A 
ATOM     13  C   UNL A   1      32.427  24.087  24.675  1.00  0.00    -0.005 A 
ATOM     14  N   UNL A   1      33.102  22.088  23.443  1.00  0.00    -0.377 N 
ATOM     15  C   UNL A   1      32.496  23.295  25.964  1.00  0.00     0.050 C 
ATOM     16  C   UNL A   1      33.521  21.379  24.642  1.00  0.00     0.117 C 
ATOM     17  H   UNL A   1      33.070  21.598  22.590  1.00  0.00     0.161 HD
ATOM     18  C   UNL A   1      32.622  21.767  25.822  1.00  0.00     0.031 C 
ATOM     19  C   UNL A   1      33.659  23.615  26.868  1.00  0.00    -0.023 C 
ATOM     20  C   UNL A   1      33.241  21.334  27.166  1.00  0.00     0.034 C 
ATOM     21  C   UNL A   1      34.054  22.531  27.548  1.00  0.00    -0.030 C 
BRANCH  16  22
ATOM     22  C   UNL A   1      33.617  19.887  24.323  1.00  0.00     0.010 A 
ATOM     23  C   UNL A   1      32.529  19.269  23.674  1.00  0.00     0.009 A 
ATOM     24  C   UNL A   1      34.728  19.080  24.612  1.00  0.00     0.128 A 
ATOM     25  C   UNL A   1      32.566  17.916  23.318  1.00  0.00     0.001 A 
ATOM     26  C   UNL A   1      34.772  17.733  24.252  1.00  0.00     0.039 A 
ATOM     27  F   UNL A   1      35.812  19.573  25.225  1.00  0.00    -0.207 F 
ATOM     28  C   UNL A   1      33.693  17.150  23.602  1.00  0.00     0.003 A 
ENDBRANCH  16  22
ENDBRANCH   4   7
ENDBRANCH   2   3
ENDBRANCH   1   2
BRANCH   1  29
ATOM     29  C   UNL A   1      35.166  29.334  27.588  1.00  0.00     0.118 C 
BRANCH  29  30
ATOM     30  N   UNL A   1      35.174  30.202  28.758  1.00  0.00    -0.352 N 
ATOM     31  C   UNL A   1      36.166  30.391  29.686  1.00  0.00     0.251 C 
ATOM     32  H   UNL A   1      34.352  30.726  28.903  1.00  0.00     0.163 HD
ATOM     33  O   UNL A   1      35.920  30.919  30.763  1.00  0.00    -0.269 OA
BRANCH  31  34
ATOM     34  C   UNL A   1      37.540  29.960  29.369  1.00  0.00     0.039 A 
ATOM     35  C   UNL A   1      38.371  29.509  30.398  1.00  0.00     0.014 A 
ATOM     36  C   UNL A   1      38.011  30.037  28.055  1.00  0.00     0.014 A 
ATOM     37  C   UNL A   1      39.669  29.097  30.100  1.00  0.00     0.010 A 
ATOM     38  C   UNL A   1      39.285  29.570  27.750  1.00  0.00     0.010 A 
ATOM     39  C   UNL A   1      40.129  29.114  28.773  1.00  0.00    -0.014 A 
BRANCH  39  40
ATOM     40  C   UNL A   1      41.516  28.718  28.441  1.00  0.00     0.031 A 
ATOM     41  C   UNL A   1      41.817  27.280  28.122  1.00  0.00     0.074 A 
ATOM     42  C   UNL A   1      42.501  29.635  28.465  1.00  0.00     0.049 A 
ATOM     43  N   UNL A   1      42.964  26.716  27.848  1.00  0.00    -0.248 NA
ATOM     44  C   UNL A   1      40.675  26.351  28.132  1.00  0.00     0.031 C 
ATOM     45  C   UNL A   1      42.331  31.052  28.786  1.00  0.00     0.029 A 
ATOM     46  N   UNL A   1      43.844  29.506  28.224  1.00  0.00    -0.354 N 
ATOM     47  C   UNL A   1      42.681  25.371  27.645  1.00  0.00     0.074 A 
ATOM     48  C   UNL A   1      41.267  25.191  27.897  1.00  0.00     0.031 C 
ATOM     49  C   UNL A   1      43.525  31.665  28.710  1.00  0.00     0.029 A 
ATOM     50  C   UNL A   1      44.544  30.678  28.366  1.00  0.00     0.049 A 
ATOM     51  H   UNL A   1      44.267  28.653  27.973  1.00  0.00     0.167 HD
ATOM     52  C   UNL A   1      43.517  24.380  27.256  1.00  0.00     0.037 A 
ATOM     53  C   UNL A   1      45.862  30.920  28.240  1.00  0.00     0.037 A 
ATOM     54  C   UNL A   1      44.923  24.562  27.016  1.00  0.00     0.049 A 
ATOM     55  C   UNL A   1      46.781  29.784  27.872  1.00  0.00     0.074 A 
ATOM     56  C   UNL A   1      45.857  23.631  26.597  1.00  0.00     0.029 A 
ATOM     57  N   UNL A   1      45.600  25.761  27.184  1.00  0.00    -0.354 N 
ATOM     58  N   UNL A   1      46.491  28.531  27.619  1.00  0.00    -0.248 NA
ATOM     59  C   UNL A   1      48.211  30.102  27.766  1.00  0.00     0.031 C 
ATOM     60  C   UNL A   1      47.108  24.254  26.559  1.00  0.00     0.029 A 
ATOM     61  C   UNL A   1      46.945  25.588  26.900  1.00  0.00     0.049 A 
ATOM     62  H   UNL A   1      45.187  26.610  27.463  1.00  0.00     0.167 HD
ATOM     63  C   UNL A   1      47.696  27.919  27.292  1.00  0.00     0.074 A 
ATOM     64  C   UNL A   1      48.715  28.947  27.359  1.00  0.00     0.031 C 
ATOM     65  C   UNL A   1      47.942  26.626  26.967  1.00  0.00     0.037 A 
BRANCH  52  66
ATOM     66  C   UNL A   1      42.921  23.015  27.066  1.00  0.00     0.057 A 
ATOM     67  C   UNL A   1      42.631  22.198  28.165  1.00  0.00     0.134 A 
ATOM     68  C   UNL A   1      42.645  22.504  25.790  1.00  0.00     0.134 A 
ATOM     69  F   UNL A   1      42.873  22.621  29.414  1.00  0.00    -0.206 F 
ATOM     70  C   UNL A   1      42.087  20.922  28.001  1.00  0.00     0.040 A 
ATOM     71  C   UNL A   1      42.073  21.243  25.615  1.00  0.00     0.040 A 
ATOM     72  F   UNL A   1      42.885  23.242  24.695  1.00  0.00    -0.206 F 
ATOM     73  C   UNL A   1      41.798  20.445  26.723  1.00  0.00     0.006 A 
ENDBRANCH  52  66
BRANCH  53  74
ATOM     74  C   UNL A   1      46.407  32.285  28.456  1.00  0.00     0.057 A 
ATOM     75  C   UNL A   1      46.512  33.206  27.406  1.00  0.00     0.134 A 
ATOM     76  C   UNL A   1      46.780  32.721  29.734  1.00  0.00     0.134 A 
ATOM     77  F   UNL A   1      46.179  32.851  26.157  1.00  0.00    -0.206 F 
ATOM     78  C   UNL A   1      46.959  34.511  27.621  1.00  0.00     0.040 A 
ATOM     79  C   UNL A   1      47.200  34.031  29.967  1.00  0.00     0.040 A 
ATOM     80  F   UNL A   1      46.684  31.891  30.783  1.00  0.00    -0.206 F 
ATOM     81  C   UNL A   1      47.290  34.931  28.908  1.00  0.00     0.006 A 
ENDBRANCH  53  74
BRANCH  65  82
ATOM     82  C   UNL A   1      49.359  26.267  26.624  1.00  0.00     0.057 A 
ATOM     83  C   UNL A   1      50.255  25.871  27.624  1.00  0.00     0.134 A 
ATOM     84  C   UNL A   1      49.842  26.329  25.311  1.00  0.00     0.134 A 
ATOM     85  F   UNL A   1      49.860  25.800  28.905  1.00  0.00    -0.206 F 
ATOM     86  C   UNL A   1      51.580  25.547  27.331  1.00  0.00     0.040 A 
ATOM     87  C   UNL A   1      51.156  25.976  25.000  1.00  0.00     0.040 A 
ATOM     88  F   UNL A   1      49.031  26.688  24.303  1.00  0.00    -0.206 F 
ATOM     89  C   UNL A   1      52.031  25.590  26.013  1.00  0.00     0.006 A 
ENDBRANCH  65  82
ENDBRANCH  39  40
ENDBRANCH  31  34
ENDBRANCH  29  30
ENDBRANCH   1  29
TORSDOF 11
ENDMDL
