MODEL 1
REMARK VINA RESULT:     -12.0      0.000      0.000
REMARK SMILES Cc1nc(Oc2ccc(F)cc2)c(C(=O)NCCCNC(=O)c2ccc(-c3c4nc(c(-c5c(F)cccc5F)c5ccc([nH]5)c(-c5c(F)cccc5F)c5nc(c(-c6c(F)cccc6F)c6ccc3[nH]6)C=C5)C=C4)cc2)c(C)c1Cl
REMARK SMILES IDX 18 1 17 2 16 3 14 4 15 5 13 7 1 8 2 9 3 10 79 11 4 12 77 13
REMARK SMILES IDX 80 14 78 15 5 16 6 17 7 18 12 19 8 20 11 21 9 22 10 23 19 24
REMARK SMILES IDX 20 25 21 26 22 28 23 29 24 30 76 31 25 32 75 33 26 34 27 35
REMARK SMILES IDX 28 36 69 37 29 38 74 39 68 40 70 41 30 42 73 43 67 44 66 45
REMARK SMILES IDX 31 47 57 48 40 49 56 50 41 51 44 52 55 53 71 54 42 55 43 56
REMARK SMILES IDX 54 58 72 59 45 60 32 61 33 62 38 63 34 64 35 65 37 66 39 67
REMARK SMILES IDX 36 68 58 69 59 70 64 71 60 72 61 73 63 74 65 75 62 76 46 77
REMARK SMILES IDX 47 78 52 79 48 80 49 81 51 82 53 83 50 84
REMARK H PARENT 16 6 20 27 70 46 44 57
REMARK Flexibility Score: inf
ROOT
ATOM      1  C   UNL A   1      37.526  20.172  24.530  1.00  0.00     0.042 C 
ENDROOT
BRANCH   1   2
ATOM      2  C   UNL A   1      36.077  20.193  24.995  1.00  0.00     0.118 C 
BRANCH   2   3
ATOM      3  N   UNL A   1      35.655  21.561  25.171  1.00  0.00    -0.352 N 
ATOM      4  C   UNL A   1      34.723  21.872  26.126  1.00  0.00     0.257 C 
ATOM      5  O   UNL A   1      34.745  21.442  27.270  1.00  0.00    -0.269 OA
ATOM      6  H   UNL A   1      36.038  22.271  24.606  1.00  0.00     0.163 HD
BRANCH   4   7
ATOM      7  C   UNL A   1      33.544  22.600  25.626  1.00  0.00     0.106 A 
ATOM      8  C   UNL A   1      30.581  24.239  23.094  1.00  0.00     0.068 C 
ATOM      9  C   UNL A   1      31.597  23.775  24.098  1.00  0.00     0.060 A 
ATOM     10  N   UNL A   1      31.377  22.538  24.617  1.00  0.00    -0.216 NA
ATOM     11  C   UNL A   1      32.744  24.518  24.381  1.00  0.00     0.066 A 
ATOM     12  C   UNL A   1      32.341  21.946  25.366  1.00  0.00     0.232 A 
ATOM     13  C   UNL A   1      33.736  23.941  25.185  1.00  0.00    -0.012 A 
ATOM     14  Cl  UNL A   1      32.948  26.093  23.685  1.00  0.00    -0.082 Cl
ATOM     15  C   UNL A   1      34.988  24.699  25.549  1.00  0.00     0.047 C 
BRANCH  12  16
ATOM     16  O   UNL A   1      31.976  20.665  25.696  1.00  0.00    -0.438 OA
BRANCH  16  17
ATOM     17  C   UNL A   1      32.405  19.587  24.973  1.00  0.00     0.129 A 
ATOM     18  C   UNL A   1      32.903  18.505  25.704  1.00  0.00     0.050 A 
ATOM     19  C   UNL A   1      32.462  19.584  23.577  1.00  0.00     0.050 A 
ATOM     20  C   UNL A   1      33.387  17.379  25.042  1.00  0.00     0.043 A 
ATOM     21  C   UNL A   1      32.944  18.449  22.914  1.00  0.00     0.043 A 
ATOM     22  C   UNL A   1      33.391  17.354  23.653  1.00  0.00     0.123 A 
ATOM     23  F   UNL A   1      33.832  16.263  23.014  1.00  0.00    -0.207 F 
ENDBRANCH  16  17
ENDBRANCH  12  16
ENDBRANCH   4   7
ENDBRANCH   2   3
ENDBRANCH   1   2
BRANCH   1  24
ATOM     24  C   UNL A   1      38.472  20.471  25.672  1.00  0.00     0.118 C 
BRANCH  24  25
ATOM     25  N   UNL A   1      39.529  19.474  25.752  1.00  0.00    -0.352 N 
ATOM     26  C   UNL A   1      40.863  19.653  26.026  1.00  0.00     0.251 C 
ATOM     27  H   UNL A   1      39.250  18.545  25.588  1.00  0.00     0.163 HD
ATOM     28  O   UNL A   1      41.671  18.763  25.815  1.00  0.00    -0.269 OA
BRANCH  26  29
ATOM     29  C   UNL A   1      41.303  20.951  26.574  1.00  0.00     0.039 A 
ATOM     30  C   UNL A   1      41.222  21.176  27.949  1.00  0.00     0.014 A 
ATOM     31  C   UNL A   1      41.805  21.933  25.716  1.00  0.00     0.014 A 
ATOM     32  C   UNL A   1      41.686  22.382  28.470  1.00  0.00     0.010 A 
ATOM     33  C   UNL A   1      42.355  23.088  26.244  1.00  0.00     0.010 A 
ATOM     34  C   UNL A   1      42.269  23.336  27.622  1.00  0.00    -0.014 A 
BRANCH  34  35
ATOM     35  C   UNL A   1      42.705  24.654  28.129  1.00  0.00     0.031 A 
ATOM     36  C   UNL A   1      41.675  25.730  28.323  1.00  0.00     0.074 A 
ATOM     37  C   UNL A   1      44.007  24.893  28.354  1.00  0.00     0.049 A 
ATOM     38  N   UNL A   1      41.834  26.973  28.694  1.00  0.00    -0.248 NA
ATOM     39  C   UNL A   1      40.279  25.365  28.025  1.00  0.00     0.031 C 
ATOM     40  C   UNL A   1      45.094  23.932  28.158  1.00  0.00     0.029 A 
ATOM     41  N   UNL A   1      44.639  26.029  28.787  1.00  0.00    -0.354 N 
ATOM     42  C   UNL A   1      40.564  27.534  28.670  1.00  0.00     0.074 A 
ATOM     43  C   UNL A   1      39.660  26.525  28.168  1.00  0.00     0.031 C 
ATOM     44  C   UNL A   1      46.258  24.514  28.491  1.00  0.00     0.029 A 
ATOM     45  C   UNL A   1      46.000  25.894  28.894  1.00  0.00     0.049 A 
ATOM     46  H   UNL A   1      44.161  26.862  29.003  1.00  0.00     0.167 HD
ATOM     47  C   UNL A   1      40.178  28.769  29.065  1.00  0.00     0.037 A 
ATOM     48  C   UNL A   1      46.928  26.791  29.274  1.00  0.00     0.037 A 
ATOM     49  C   UNL A   1      41.085  29.764  29.569  1.00  0.00     0.049 A 
ATOM     50  C   UNL A   1      46.483  28.171  29.674  1.00  0.00     0.074 A 
ATOM     51  C   UNL A   1      40.806  31.035  30.033  1.00  0.00     0.029 A 
ATOM     52  N   UNL A   1      42.459  29.591  29.665  1.00  0.00    -0.354 N 
ATOM     53  N   UNL A   1      45.271  28.672  29.713  1.00  0.00    -0.248 NA
ATOM     54  C   UNL A   1      47.534  29.107  30.092  1.00  0.00     0.031 C 
ATOM     55  C   UNL A   1      42.018  31.649  30.369  1.00  0.00     0.029 A 
ATOM     56  C   UNL A   1      43.047  30.744  30.159  1.00  0.00     0.049 A 
ATOM     57  H   UNL A   1      42.945  28.772  29.417  1.00  0.00     0.167 HD
ATOM     58  C   UNL A   1      45.410  29.972  30.183  1.00  0.00     0.074 A 
ATOM     59  C   UNL A   1      46.824  30.173  30.432  1.00  0.00     0.031 C 
ATOM     60  C   UNL A   1      44.459  30.915  30.393  1.00  0.00     0.037 A 
BRANCH  47  61
ATOM     61  C   UNL A   1      38.715  29.089  28.959  1.00  0.00     0.057 A 
ATOM     62  C   UNL A   1      37.871  28.971  30.069  1.00  0.00     0.134 A 
ATOM     63  C   UNL A   1      38.147  29.549  27.761  1.00  0.00     0.134 A 
ATOM     64  F   UNL A   1      38.347  28.537  31.245  1.00  0.00    -0.206 F 
ATOM     65  C   UNL A   1      36.519  29.313  29.996  1.00  0.00     0.040 A 
ATOM     66  C   UNL A   1      36.804  29.923  27.686  1.00  0.00     0.040 A 
ATOM     67  F   UNL A   1      38.903  29.704  26.664  1.00  0.00    -0.206 F 
ATOM     68  C   UNL A   1      35.985  29.803  28.805  1.00  0.00     0.006 A 
ENDBRANCH  47  61
BRANCH  48  69
ATOM     69  C   UNL A   1      48.361  26.407  29.326  1.00  0.00     0.057 A 
ATOM     70  C   UNL A   1      49.223  26.644  28.249  1.00  0.00     0.134 A 
ATOM     71  C   UNL A   1      48.904  25.804  30.467  1.00  0.00     0.134 A 
ATOM     72  F   UNL A   1      48.763  27.211  27.125  1.00  0.00    -0.206 F 
ATOM     73  C   UNL A   1      50.574  26.296  28.304  1.00  0.00     0.040 A 
ATOM     74  C   UNL A   1      50.257  25.472  30.544  1.00  0.00     0.040 A 
ATOM     75  F   UNL A   1      48.131  25.567  31.536  1.00  0.00    -0.206 F 
ATOM     76  C   UNL A   1      51.096  25.716  29.459  1.00  0.00     0.006 A 
ENDBRANCH  48  69
BRANCH  60  77
ATOM     77  C   UNL A   1      44.920  32.234  30.940  1.00  0.00     0.057 A 
ATOM     78  C   UNL A   1      44.988  32.446  32.323  1.00  0.00     0.134 A 
ATOM     79  C   UNL A   1      45.272  33.300  30.103  1.00  0.00     0.134 A 
ATOM     80  F   UNL A   1      44.655  31.469  33.180  1.00  0.00    -0.206 F 
ATOM     81  C   UNL A   1      45.389  33.672  32.854  1.00  0.00     0.040 A 
ATOM     82  C   UNL A   1      45.704  34.521  30.621  1.00  0.00     0.040 A 
ATOM     83  F   UNL A   1      45.242  33.155  28.769  1.00  0.00    -0.206 F 
ATOM     84  C   UNL A   1      45.757  34.712  32.001  1.00  0.00     0.006 A 
ENDBRANCH  60  77
ENDBRANCH  34  35
ENDBRANCH  26  29
ENDBRANCH  24  25
ENDBRANCH   1  24
TORSDOF 12
ENDMDL
MODEL 2
REMARK VINA RESULT:     -11.8      1.520      2.187
REMARK SMILES Cc1nc(Oc2ccc(F)cc2)c(C(=O)NCCCNC(=O)c2ccc(-c3c4nc(c(-c5c(F)cccc5F)c5ccc([nH]5)c(-c5c(F)cccc5F)c5nc(c(-c6c(F)cccc6F)c6ccc3[nH]6)C=C5)C=C4)cc2)c(C)c1Cl
REMARK SMILES IDX 18 1 17 2 16 3 14 4 15 5 13 7 1 8 2 9 3 10 79 11 4 12 77 13
REMARK SMILES IDX 80 14 78 15 5 16 6 17 7 18 12 19 8 20 11 21 9 22 10 23 19 24
REMARK SMILES IDX 20 25 21 26 22 28 23 29 24 30 76 31 25 32 75 33 26 34 27 35
REMARK SMILES IDX 28 36 69 37 29 38 74 39 68 40 70 41 30 42 73 43 67 44 66 45
REMARK SMILES IDX 31 47 57 48 40 49 56 50 41 51 44 52 55 53 71 54 42 55 43 56
REMARK SMILES IDX 54 58 72 59 45 60 32 61 33 62 38 63 34 64 35 65 37 66 39 67
REMARK SMILES IDX 36 68 58 69 59 70 64 71 60 72 61 73 63 74 65 75 62 76 46 77
REMARK SMILES IDX 47 78 52 79 48 80 49 81 51 82 53 83 50 84
REMARK H PARENT 16 6 20 27 70 46 44 57
REMARK Flexibility Score: inf
ROOT
ATOM      1  C   UNL A   1      38.049  20.263  24.833  1.00  0.00     0.042 C 
ENDROOT
BRANCH   1   2
ATOM      2  C   UNL A   1      37.410  21.625  24.604  1.00  0.00     0.118 C 
BRANCH   2   3
ATOM      3  N   UNL A   1      36.009  21.449  24.312  1.00  0.00    -0.352 N 
ATOM      4  C   UNL A   1      35.322  22.426  23.642  1.00  0.00     0.257 C 
ATOM      5  O   UNL A   1      35.741  22.997  22.645  1.00  0.00    -0.269 OA
ATOM      6  H   UNL A   1      35.547  20.626  24.592  1.00  0.00     0.163 HD
BRANCH   4   7
ATOM      7  C   UNL A   1      34.114  22.916  24.328  1.00  0.00     0.106 A 
ATOM      8  C   UNL A   1      30.549  25.000  25.237  1.00  0.00     0.068 C 
ATOM      9  C   UNL A   1      31.835  24.241  25.074  1.00  0.00     0.060 A 
ATOM     10  N   UNL A   1      31.728  23.052  24.423  1.00  0.00    -0.216 NA
ATOM     11  C   UNL A   1      33.061  24.782  25.461  1.00  0.00     0.066 A 
ATOM     12  C   UNL A   1      32.853  22.396  24.042  1.00  0.00     0.232 A 
ATOM     13  C   UNL A   1      34.235  24.100  25.111  1.00  0.00    -0.012 A 
ATOM     14  Cl  UNL A   1      33.113  26.300  26.294  1.00  0.00    -0.082 Cl
ATOM     15  C   UNL A   1      35.591  24.617  25.519  1.00  0.00     0.047 C 
BRANCH  12  16
ATOM     16  O   UNL A   1      32.534  21.285  23.301  1.00  0.00    -0.438 OA
BRANCH  16  17
ATOM     17  C   UNL A   1      32.596  20.027  23.832  1.00  0.00     0.129 A 
ATOM     18  C   UNL A   1      32.462  18.964  22.934  1.00  0.00     0.050 A 
ATOM     19  C   UNL A   1      32.672  19.785  25.207  1.00  0.00     0.050 A 
ATOM     20  C   UNL A   1      32.484  17.650  23.398  1.00  0.00     0.043 A 
ATOM     21  C   UNL A   1      32.700  18.465  25.669  1.00  0.00     0.043 A 
ATOM     22  C   UNL A   1      32.617  17.411  24.759  1.00  0.00     0.123 A 
ATOM     23  F   UNL A   1      32.665  16.149  25.206  1.00  0.00    -0.207 F 
ENDBRANCH  16  17
ENDBRANCH  12  16
ENDBRANCH   4   7
ENDBRANCH   2   3
ENDBRANCH   1   2
BRANCH   1  24
ATOM     24  C   UNL A   1      38.865  20.247  26.107  1.00  0.00     0.118 C 
BRANCH  24  25
ATOM     25  N   UNL A   1      39.927  19.254  26.036  1.00  0.00    -0.352 N 
ATOM     26  C   UNL A   1      41.288  19.447  26.044  1.00  0.00     0.251 C 
ATOM     27  H   UNL A   1      39.631  18.318  25.975  1.00  0.00     0.163 HD
ATOM     28  O   UNL A   1      42.049  18.547  25.729  1.00  0.00    -0.269 OA
BRANCH  26  29
ATOM     29  C   UNL A   1      41.811  20.771  26.432  1.00  0.00     0.039 A 
ATOM     30  C   UNL A   1      42.059  21.042  27.779  1.00  0.00     0.014 A 
ATOM     31  C   UNL A   1      42.062  21.734  25.450  1.00  0.00     0.014 A 
ATOM     32  C   UNL A   1      42.601  22.274  28.138  1.00  0.00     0.010 A 
ATOM     33  C   UNL A   1      42.691  22.917  25.797  1.00  0.00     0.010 A 
ATOM     34  C   UNL A   1      42.934  23.210  27.147  1.00  0.00    -0.014 A 
BRANCH  34  35
ATOM     35  C   UNL A   1      43.443  24.552  27.496  1.00  0.00     0.031 A 
ATOM     36  C   UNL A   1      42.464  25.606  27.929  1.00  0.00     0.074 A 
ATOM     37  C   UNL A   1      44.751  24.832  27.369  1.00  0.00     0.049 A 
ATOM     38  N   UNL A   1      42.673  26.863  28.220  1.00  0.00    -0.248 NA
ATOM     39  C   UNL A   1      41.051  25.196  28.012  1.00  0.00     0.031 C 
ATOM     40  C   UNL A   1      45.781  23.895  26.917  1.00  0.00     0.029 A 
ATOM     41  N   UNL A   1      45.435  25.996  27.600  1.00  0.00    -0.354 N 
ATOM     42  C   UNL A   1      41.422  27.389  28.515  1.00  0.00     0.074 A 
ATOM     43  C   UNL A   1      40.453  26.342  28.287  1.00  0.00     0.031 C 
ATOM     44  C   UNL A   1      46.972  24.517  26.924  1.00  0.00     0.029 A 
ATOM     45  C   UNL A   1      46.781  25.901  27.352  1.00  0.00     0.049 A 
ATOM     46  H   UNL A   1      45.002  26.823  27.915  1.00  0.00     0.167 HD
ATOM     47  C   UNL A   1      41.111  28.624  28.973  1.00  0.00     0.037 A 
ATOM     48  C   UNL A   1      47.746  26.832  27.459  1.00  0.00     0.037 A 
ATOM     49  C   UNL A   1      42.085  29.656  29.202  1.00  0.00     0.049 A 
ATOM     50  C   UNL A   1      47.375  28.211  27.933  1.00  0.00     0.074 A 
ATOM     51  C   UNL A   1      41.894  30.932  29.697  1.00  0.00     0.029 A 
ATOM     52  N   UNL A   1      43.442  29.523  28.941  1.00  0.00    -0.354 N 
ATOM     53  N   UNL A   1      46.198  28.680  28.275  1.00  0.00    -0.248 NA
ATOM     54  C   UNL A   1      48.466  29.186  28.043  1.00  0.00     0.031 C 
ATOM     55  C   UNL A   1      43.130  31.588  29.693  1.00  0.00     0.029 A 
ATOM     56  C   UNL A   1      44.099  30.704  29.242  1.00  0.00     0.049 A 
ATOM     57  H   UNL A   1      43.873  28.710  28.592  1.00  0.00     0.167 HD
ATOM     58  C   UNL A   1      46.412  29.996  28.666  1.00  0.00     0.074 A 
ATOM     59  C   UNL A   1      47.834  30.242  28.534  1.00  0.00     0.031 C 
ATOM     60  C   UNL A   1      45.517  30.919  29.097  1.00  0.00     0.037 A 
BRANCH  47  61
ATOM     61  C   UNL A   1      39.661  28.901  29.243  1.00  0.00     0.057 A 
ATOM     62  C   UNL A   1      38.811  29.344  28.223  1.00  0.00     0.134 A 
ATOM     63  C   UNL A   1      39.096  28.697  30.511  1.00  0.00     0.134 A 
ATOM     64  F   UNL A   1      39.285  29.560  26.987  1.00  0.00    -0.206 F 
ATOM     65  C   UNL A   1      37.450  29.557  28.449  1.00  0.00     0.040 A 
ATOM     66  C   UNL A   1      37.731  28.877  30.740  1.00  0.00     0.040 A 
ATOM     67  F   UNL A   1      39.850  28.255  31.529  1.00  0.00    -0.206 F 
ATOM     68  C   UNL A   1      36.904  29.311  29.708  1.00  0.00     0.006 A 
ENDBRANCH  47  61
BRANCH  48  69
ATOM     69  C   UNL A   1      49.155  26.488  27.144  1.00  0.00     0.057 A 
ATOM     70  C   UNL A   1      50.004  25.922  28.102  1.00  0.00     0.134 A 
ATOM     71  C   UNL A   1      49.682  26.707  25.865  1.00  0.00     0.134 A 
ATOM     72  F   UNL A   1      49.562  25.694  29.348  1.00  0.00    -0.206 F 
ATOM     73  C   UNL A   1      51.325  25.586  27.801  1.00  0.00     0.040 A 
ATOM     74  C   UNL A   1      50.993  26.355  25.544  1.00  0.00     0.040 A 
ATOM     75  F   UNL A   1      48.912  27.232  24.901  1.00  0.00    -0.206 F 
ATOM     76  C   UNL A   1      51.820  25.794  26.515  1.00  0.00     0.006 A 
ENDBRANCH  48  69
BRANCH  60  77
ATOM     77  C   UNL A   1      46.060  32.265  29.478  1.00  0.00     0.057 A 
ATOM     78  C   UNL A   1      46.500  32.511  30.785  1.00  0.00     0.134 A 
ATOM     79  C   UNL A   1      46.126  33.323  28.562  1.00  0.00     0.134 A 
ATOM     80  F   UNL A   1      46.455  31.543  31.712  1.00  0.00    -0.206 F 
ATOM     81  C   UNL A   1      46.986  33.761  31.168  1.00  0.00     0.040 A 
ATOM     82  C   UNL A   1      46.637  34.570  28.925  1.00  0.00     0.040 A 
ATOM     83  F   UNL A   1      45.734  33.147  27.291  1.00  0.00    -0.206 F 
ATOM     84  C   UNL A   1      47.062  34.793  30.234  1.00  0.00     0.006 A 
ENDBRANCH  60  77
ENDBRANCH  34  35
ENDBRANCH  26  29
ENDBRANCH  24  25
ENDBRANCH   1  24
TORSDOF 12
ENDMDL
MODEL 3
REMARK VINA RESULT:     -11.7      5.188      9.762
REMARK SMILES Cc1nc(Oc2ccc(F)cc2)c(C(=O)NCCCNC(=O)c2ccc(-c3c4nc(c(-c5c(F)cccc5F)c5ccc([nH]5)c(-c5c(F)cccc5F)c5nc(c(-c6c(F)cccc6F)c6ccc3[nH]6)C=C5)C=C4)cc2)c(C)c1Cl
REMARK SMILES IDX 18 1 17 2 16 3 14 4 15 5 13 7 1 8 2 9 3 10 79 11 4 12 77 13
REMARK SMILES IDX 80 14 78 15 5 16 6 17 7 18 12 19 8 20 11 21 9 22 10 23 19 24
REMARK SMILES IDX 20 25 21 26 22 28 23 29 24 30 76 31 25 32 75 33 26 34 27 35
REMARK SMILES IDX 28 36 69 37 29 38 74 39 68 40 70 41 30 42 73 43 67 44 66 45
REMARK SMILES IDX 31 47 57 48 40 49 56 50 41 51 44 52 55 53 71 54 42 55 43 56
REMARK SMILES IDX 54 58 72 59 45 60 32 61 33 62 38 63 34 64 35 65 37 66 39 67
REMARK SMILES IDX 36 68 58 69 59 70 64 71 60 72 61 73 63 74 65 75 62 76 46 77
REMARK SMILES IDX 47 78 52 79 48 80 49 81 51 82 53 83 50 84
REMARK H PARENT 16 6 20 27 70 46 44 57
REMARK Flexibility Score: inf
ROOT
ATOM      1  C   UNL A   1      31.708  31.384  26.874  1.00  0.00     0.042 C 
ENDROOT
BRANCH   1   2
ATOM      2  C   UNL A   1      32.142  29.929  26.976  1.00  0.00     0.118 C 
BRANCH   2   3
ATOM      3  N   UNL A   1      31.404  29.146  26.015  1.00  0.00    -0.352 N 
ATOM      4  C   UNL A   1      31.294  27.790  26.178  1.00  0.00     0.257 C 
ATOM      5  O   UNL A   1      31.025  27.247  27.240  1.00  0.00    -0.269 OA
ATOM      6  H   UNL A   1      30.978  29.585  25.244  1.00  0.00     0.163 HD
BRANCH   4   7
ATOM      7  C   UNL A   1      31.739  26.990  25.024  1.00  0.00     0.106 A 
ATOM      8  C   UNL A   1      32.529  23.762  22.409  1.00  0.00     0.068 C 
ATOM      9  C   UNL A   1      32.369  24.987  23.264  1.00  0.00     0.060 A 
ATOM     10  N   UNL A   1      31.179  25.631  23.137  1.00  0.00    -0.216 NA
ATOM     11  C   UNL A   1      33.332  25.358  24.202  1.00  0.00     0.066 A 
ATOM     12  C   UNL A   1      30.857  26.617  24.012  1.00  0.00     0.232 A 
ATOM     13  C   UNL A   1      33.035  26.401  25.091  1.00  0.00    -0.012 A 
ATOM     14  Cl  UNL A   1      34.830  24.490  24.297  1.00  0.00    -0.082 Cl
ATOM     15  C   UNL A   1      34.040  26.869  26.113  1.00  0.00     0.047 C 
BRANCH  12  16
ATOM     16  O   UNL A   1      29.576  27.057  23.790  1.00  0.00    -0.438 OA
BRANCH  16  17
ATOM     17  C   UNL A   1      29.322  28.224  23.125  1.00  0.00     0.129 A 
ATOM     18  C   UNL A   1      27.997  28.669  23.126  1.00  0.00     0.050 A 
ATOM     19  C   UNL A   1      30.293  28.898  22.378  1.00  0.00     0.050 A 
ATOM     20  C   UNL A   1      27.650  29.834  22.447  1.00  0.00     0.043 A 
ATOM     21  C   UNL A   1      29.942  30.072  21.701  1.00  0.00     0.043 A 
ATOM     22  C   UNL A   1      28.627  30.533  21.751  1.00  0.00     0.123 A 
ATOM     23  F   UNL A   1      28.302  31.668  21.119  1.00  0.00    -0.207 F 
ENDBRANCH  16  17
ENDBRANCH  12  16
ENDBRANCH   4   7
ENDBRANCH   2   3
ENDBRANCH   1   2
BRANCH   1  24
ATOM     24  C   UNL A   1      32.902  32.305  26.759  1.00  0.00     0.118 C 
BRANCH  24  25
ATOM     25  N   UNL A   1      32.585  33.638  27.252  1.00  0.00    -0.352 N 
ATOM     26  C   UNL A   1      33.068  34.281  28.366  1.00  0.00     0.251 C 
ATOM     27  H   UNL A   1      31.938  34.147  26.714  1.00  0.00     0.163 HD
ATOM     28  O   UNL A   1      32.528  35.291  28.789  1.00  0.00    -0.269 OA
BRANCH  26  29
ATOM     29  C   UNL A   1      34.249  33.720  29.049  1.00  0.00     0.039 A 
ATOM     30  C   UNL A   1      35.516  34.223  28.751  1.00  0.00     0.014 A 
ATOM     31  C   UNL A   1      34.087  32.701  29.992  1.00  0.00     0.014 A 
ATOM     32  C   UNL A   1      36.625  33.728  29.435  1.00  0.00     0.010 A 
ATOM     33  C   UNL A   1      35.174  32.280  30.739  1.00  0.00     0.010 A 
ATOM     34  C   UNL A   1      36.456  32.766  30.443  1.00  0.00    -0.014 A 
BRANCH  34  35
ATOM     35  C   UNL A   1      37.614  32.167  31.137  1.00  0.00     0.031 A 
ATOM     36  C   UNL A   1      38.366  31.056  30.461  1.00  0.00     0.074 A 
ATOM     37  C   UNL A   1      37.945  32.575  32.373  1.00  0.00     0.049 A 
ATOM     38  N   UNL A   1      39.367  30.343  30.904  1.00  0.00    -0.248 NA
ATOM     39  C   UNL A   1      37.904  30.674  29.115  1.00  0.00     0.031 C 
ATOM     40  C   UNL A   1      37.256  33.617  33.137  1.00  0.00     0.029 A 
ATOM     41  N   UNL A   1      38.943  32.150  33.210  1.00  0.00    -0.354 N 
ATOM     42  C   UNL A   1      39.650  29.430  29.896  1.00  0.00     0.074 A 
ATOM     43  C   UNL A   1      38.663  29.622  28.857  1.00  0.00     0.031 C 
ATOM     44  C   UNL A   1      37.867  33.764  34.325  1.00  0.00     0.029 A 
ATOM     45  C   UNL A   1      38.968  32.808  34.414  1.00  0.00     0.049 A 
ATOM     46  H   UNL A   1      39.582  31.440  32.970  1.00  0.00     0.167 HD
ATOM     47  C   UNL A   1      40.663  28.537  29.823  1.00  0.00     0.037 A 
ATOM     48  C   UNL A   1      39.790  32.649  35.467  1.00  0.00     0.037 A 
ATOM     49  C   UNL A   1      41.642  28.358  30.860  1.00  0.00     0.049 A 
ATOM     50  C   UNL A   1      40.887  31.624  35.382  1.00  0.00     0.074 A 
ATOM     51  C   UNL A   1      42.733  27.511  30.884  1.00  0.00     0.029 A 
ATOM     52  N   UNL A   1      41.637  29.045  32.067  1.00  0.00    -0.354 N 
ATOM     53  N   UNL A   1      41.188  30.811  34.397  1.00  0.00    -0.248 NA
ATOM     54  C   UNL A   1      41.764  31.499  36.553  1.00  0.00     0.031 C 
ATOM     55  C   UNL A   1      43.365  27.652  32.125  1.00  0.00     0.029 A 
ATOM     56  C   UNL A   1      42.694  28.622  32.855  1.00  0.00     0.049 A 
ATOM     57  H   UNL A   1      40.979  29.729  32.325  1.00  0.00     0.167 HD
ATOM     58  C   UNL A   1      42.304  30.099  34.817  1.00  0.00     0.074 A 
ATOM     59  C   UNL A   1      42.635  30.588  36.140  1.00  0.00     0.031 C 
ATOM     60  C   UNL A   1      42.996  29.128  34.171  1.00  0.00     0.037 A 
BRANCH  47  61
ATOM     61  C   UNL A   1      40.740  27.698  28.581  1.00  0.00     0.057 A 
ATOM     62  C   UNL A   1      40.023  26.501  28.476  1.00  0.00     0.134 A 
ATOM     63  C   UNL A   1      41.499  28.096  27.470  1.00  0.00     0.134 A 
ATOM     64  F   UNL A   1      39.277  26.061  29.500  1.00  0.00    -0.206 F 
ATOM     65  C   UNL A   1      40.046  25.736  27.307  1.00  0.00     0.040 A 
ATOM     66  C   UNL A   1      41.504  27.356  26.286  1.00  0.00     0.040 A 
ATOM     67  F   UNL A   1      42.194  29.243  27.495  1.00  0.00    -0.206 F 
ATOM     68  C   UNL A   1      40.778  26.171  26.203  1.00  0.00     0.006 A 
ENDBRANCH  47  61
BRANCH  48  69
ATOM     69  C   UNL A   1      39.631  33.498  36.674  1.00  0.00     0.057 A 
ATOM     70  C   UNL A   1      40.312  34.713  36.811  1.00  0.00     0.134 A 
ATOM     71  C   UNL A   1      38.779  33.115  37.716  1.00  0.00     0.134 A 
ATOM     72  F   UNL A   1      41.149  35.133  35.851  1.00  0.00    -0.206 F 
ATOM     73  C   UNL A   1      40.151  35.518  37.940  1.00  0.00     0.040 A 
ATOM     74  C   UNL A   1      38.591  33.921  38.840  1.00  0.00     0.040 A 
ATOM     75  F   UNL A   1      38.088  31.969  37.635  1.00  0.00    -0.206 F 
ATOM     76  C   UNL A   1      39.281  35.126  38.956  1.00  0.00     0.006 A 
ENDBRANCH  48  69
BRANCH  60  77
ATOM     77  C   UNL A   1      44.189  28.557  34.880  1.00  0.00     0.057 A 
ATOM     78  C   UNL A   1      44.058  27.427  35.697  1.00  0.00     0.134 A 
ATOM     79  C   UNL A   1      45.459  29.138  34.775  1.00  0.00     0.134 A 
ATOM     80  F   UNL A   1      42.867  26.830  35.849  1.00  0.00    -0.206 F 
ATOM     81  C   UNL A   1      45.149  26.895  36.385  1.00  0.00     0.040 A 
ATOM     82  C   UNL A   1      46.564  28.597  35.435  1.00  0.00     0.040 A 
ATOM     83  F   UNL A   1      45.653  30.213  33.996  1.00  0.00    -0.206 F 
ATOM     84  C   UNL A   1      46.408  27.476  36.248  1.00  0.00     0.006 A 
ENDBRANCH  60  77
ENDBRANCH  34  35
ENDBRANCH  26  29
ENDBRANCH  24  25
ENDBRANCH   1  24
TORSDOF 12
ENDMDL
