MODEL 1
REMARK VINA RESULT:     -10.7      0.000      0.000
REMARK SMILES C=CCN(CC(=O)NCCCNC(=O)c1ccc(-c2c3nc(c(-c4c(F)cccc4F)c4ccc([nH]4)c(-c4c(F)cccc4F)c4nc(c(-c5c(F)cccc5F)c5ccc2[nH]5)C=C4)C=C3)cc1)c1ccc([N+](=O)[O-])cc1Br
REMARK SMILES IDX 9 1 8 2 6 3 7 4 5 6 4 7 3 8 2 9 1 10 69 11 70 12 77 13 71 14
REMARK SMILES IDX 76 15 78 16 72 17 73 18 74 19 75 20 10 21 11 22 12 23 13 24
REMARK SMILES IDX 14 26 15 27 16 28 68 29 17 30 67 31 18 32 19 33 20 34 61 35
REMARK SMILES IDX 21 36 66 37 60 38 62 39 22 40 65 41 59 42 58 43 23 45 49 46
REMARK SMILES IDX 32 47 48 48 33 49 36 50 47 51 63 52 34 53 35 54 46 56 64 57
REMARK SMILES IDX 37 58 24 59 25 60 30 61 26 62 27 63 29 64 31 65 28 66 50 67
REMARK SMILES IDX 51 68 56 69 52 70 53 71 55 72 57 73 54 74 38 75 39 76 44 77
REMARK SMILES IDX 40 78 41 79 43 80 45 81 42 82
REMARK H PARENT 8 5 12 25 62 44 36 55
REMARK Flexibility Score: inf
ROOT
ATOM      1  C   UNL A   1      36.253  20.082  25.009  1.00  0.00     0.117 C 
ENDROOT
BRANCH   1   2
ATOM      2  N   UNL A   1      36.079  21.361  25.666  1.00  0.00    -0.354 N 
ATOM      3  C   UNL A   1      34.987  21.893  26.296  1.00  0.00     0.239 C 
ATOM      4  O   UNL A   1      35.132  23.010  26.805  1.00  0.00    -0.273 OA
ATOM      5  H   UNL A   1      36.874  21.941  25.657  1.00  0.00     0.163 HD
BRANCH   3   6
ATOM      6  C   UNL A   1      33.648  21.142  26.382  1.00  0.00     0.216 C 
BRANCH   6   7
ATOM      7  N   UNL A   1      32.846  21.138  25.143  1.00  0.00    -0.358 N 
BRANCH   7   8
ATOM      8  C   UNL A   1      32.422  19.870  24.558  1.00  0.00     0.144 C 
BRANCH   8   9
ATOM      9  C   UNL A   1      32.722  18.715  25.457  1.00  0.00    -0.014 C 
ATOM     10  C   UNL A   1      32.519  17.433  25.123  1.00  0.00     0.006 C 
ENDBRANCH   8   9
ENDBRANCH   7   8
BRANCH   7  11
ATOM     11  C   UNL A   1      32.762  22.294  24.369  1.00  0.00     0.052 A 
ATOM     12  C   UNL A   1      33.485  22.371  23.164  1.00  0.00     0.034 A 
ATOM     13  C   UNL A   1      31.955  23.405  24.705  1.00  0.00     0.048 A 
ATOM     14  C   UNL A   1      33.398  23.475  22.312  1.00  0.00     0.088 A 
ATOM     15  C   UNL A   1      31.821  24.500  23.837  1.00  0.00     0.103 A 
ATOM     16  Br  UNL A   1      31.070  23.564  26.382  1.00  0.00    -0.048 Br
ATOM     17  C   UNL A   1      32.544  24.525  22.644  1.00  0.00     0.270 A 
BRANCH  17  18
ATOM     18  N   UNL A   1      32.408  25.664  21.733  1.00  0.00     0.062 N 
ATOM     19  O   UNL A   1      31.361  26.322  21.789  1.00  0.00    -0.258 OA
ATOM     20  O   UNL A   1      33.356  25.906  20.973  1.00  0.00    -0.258 OA
ENDBRANCH  17  18
ENDBRANCH   7  11
ENDBRANCH   6   7
ENDBRANCH   3   6
ENDBRANCH   1   2
BRANCH   1  21
ATOM     21  C   UNL A   1      37.717  19.763  24.708  1.00  0.00     0.042 C 
BRANCH  21  22
ATOM     22  C   UNL A   1      38.708  20.143  25.808  1.00  0.00     0.118 C 
BRANCH  22  23
ATOM     23  N   UNL A   1      39.887  19.295  25.812  1.00  0.00    -0.352 N 
ATOM     24  C   UNL A   1      41.210  19.584  26.034  1.00  0.00     0.251 C 
ATOM     25  H   UNL A   1      39.705  18.347  25.623  1.00  0.00     0.163 HD
ATOM     26  O   UNL A   1      42.042  18.709  25.804  1.00  0.00    -0.269 OA
BRANCH  24  27
ATOM     27  C   UNL A   1      41.669  20.906  26.531  1.00  0.00     0.039 A 
ATOM     28  C   UNL A   1      41.549  21.165  27.903  1.00  0.00     0.014 A 
ATOM     29  C   UNL A   1      42.112  21.924  25.682  1.00  0.00     0.014 A 
ATOM     30  C   UNL A   1      41.896  22.416  28.422  1.00  0.00     0.010 A 
ATOM     31  C   UNL A   1      42.516  23.156  26.208  1.00  0.00     0.010 A 
ATOM     32  C   UNL A   1      42.398  23.420  27.581  1.00  0.00    -0.014 A 
BRANCH  32  33
ATOM     33  C   UNL A   1      42.774  24.751  28.128  1.00  0.00     0.031 A 
ATOM     34  C   UNL A   1      41.727  25.808  28.357  1.00  0.00     0.074 A 
ATOM     35  C   UNL A   1      44.064  25.023  28.402  1.00  0.00     0.049 A 
ATOM     36  N   UNL A   1      41.869  27.032  28.801  1.00  0.00    -0.248 NA
ATOM     37  C   UNL A   1      40.340  25.448  28.027  1.00  0.00     0.031 C 
ATOM     38  C   UNL A   1      45.184  24.102  28.200  1.00  0.00     0.029 A 
ATOM     39  N   UNL A   1      44.653  26.156  28.908  1.00  0.00    -0.354 N 
ATOM     40  C   UNL A   1      40.599  27.592  28.790  1.00  0.00     0.074 A 
ATOM     41  C   UNL A   1      39.701  26.587  28.259  1.00  0.00     0.031 C 
ATOM     42  C   UNL A   1      46.320  24.699  28.599  1.00  0.00     0.029 A 
ATOM     43  C   UNL A   1      46.013  26.050  29.058  1.00  0.00     0.049 A 
ATOM     44  H   UNL A   1      44.146  26.966  29.142  1.00  0.00     0.167 HD
ATOM     45  C   UNL A   1      40.208  28.822  29.202  1.00  0.00     0.037 A 
ATOM     46  C   UNL A   1      46.915  26.940  29.514  1.00  0.00     0.037 A 
ATOM     47  C   UNL A   1      41.088  29.814  29.762  1.00  0.00     0.049 A 
ATOM     48  C   UNL A   1      46.455  28.296  29.969  1.00  0.00     0.074 A 
ATOM     49  C   UNL A   1      40.770  31.068  30.258  1.00  0.00     0.029 A 
ATOM     50  N   UNL A   1      42.457  29.664  29.904  1.00  0.00    -0.354 N 
ATOM     51  N   UNL A   1      45.242  28.791  29.999  1.00  0.00    -0.248 NA
ATOM     52  C   UNL A   1      47.492  29.217  30.459  1.00  0.00     0.031 C 
ATOM     53  C   UNL A   1      41.954  31.687  30.674  1.00  0.00     0.029 A 
ATOM     54  C   UNL A   1      43.003  30.806  30.466  1.00  0.00     0.049 A 
ATOM     55  H   UNL A   1      42.968  28.863  29.644  1.00  0.00     0.167 HD
ATOM     56  C   UNL A   1      45.365  30.068  30.530  1.00  0.00     0.074 A 
ATOM     57  C   UNL A   1      46.770  30.269  30.819  1.00  0.00     0.031 C 
ATOM     58  C   UNL A   1      44.401  30.991  30.754  1.00  0.00     0.037 A 
BRANCH  45  59
ATOM     59  C   UNL A   1      38.753  29.163  29.068  1.00  0.00     0.057 A 
ATOM     60  C   UNL A   1      37.879  29.099  30.161  1.00  0.00     0.134 A 
ATOM     61  C   UNL A   1      38.229  29.596  27.843  1.00  0.00     0.134 A 
ATOM     62  F   UNL A   1      38.318  28.681  31.357  1.00  0.00    -0.206 F 
ATOM     63  C   UNL A   1      36.530  29.433  30.036  1.00  0.00     0.040 A 
ATOM     64  C   UNL A   1      36.886  29.953  27.711  1.00  0.00     0.040 A 
ATOM     65  F   UNL A   1      39.014  29.687  26.760  1.00  0.00    -0.206 F 
ATOM     66  C   UNL A   1      36.031  29.867  28.809  1.00  0.00     0.006 A 
ENDBRANCH  45  59
BRANCH  46  67
ATOM     67  C   UNL A   1      48.348  26.570  29.588  1.00  0.00     0.057 A 
ATOM     68  C   UNL A   1      48.860  25.895  30.702  1.00  0.00     0.134 A 
ATOM     69  C   UNL A   1      49.241  26.888  28.557  1.00  0.00     0.134 A 
ATOM     70  F   UNL A   1      48.056  25.583  31.728  1.00  0.00    -0.206 F 
ATOM     71  C   UNL A   1      50.212  25.561  30.796  1.00  0.00     0.040 A 
ATOM     72  C   UNL A   1      50.590  26.544  28.629  1.00  0.00     0.040 A 
ATOM     73  F   UNL A   1      48.808  27.531  27.463  1.00  0.00    -0.206 F 
ATOM     74  C   UNL A   1      51.080  25.883  29.755  1.00  0.00     0.006 A 
ENDBRANCH  46  67
BRANCH  58  75
ATOM     75  C   UNL A   1      44.828  32.292  31.364  1.00  0.00     0.057 A 
ATOM     76  C   UNL A   1      45.191  33.390  30.576  1.00  0.00     0.134 A 
ATOM     77  C   UNL A   1      44.849  32.455  32.755  1.00  0.00     0.134 A 
ATOM     78  F   UNL A   1      45.204  33.290  29.237  1.00  0.00    -0.206 F 
ATOM     79  C   UNL A   1      45.578  34.602  31.149  1.00  0.00     0.040 A 
ATOM     80  C   UNL A   1      45.216  33.669  33.339  1.00  0.00     0.040 A 
ATOM     81  F   UNL A   1      44.508  31.443  33.566  1.00  0.00    -0.206 F 
ATOM     82  C   UNL A   1      45.586  34.745  32.535  1.00  0.00     0.006 A 
ENDBRANCH  58  75
ENDBRANCH  32  33
ENDBRANCH  24  27
ENDBRANCH  22  23
ENDBRANCH  21  22
ENDBRANCH   1  21
TORSDOF 15
ENDMDL
MODEL 2
REMARK VINA RESULT:     -10.7      1.520      2.414
REMARK SMILES C=CCN(CC(=O)NCCCNC(=O)c1ccc(-c2c3nc(c(-c4c(F)cccc4F)c4ccc([nH]4)c(-c4c(F)cccc4F)c4nc(c(-c5c(F)cccc5F)c5ccc2[nH]5)C=C4)C=C3)cc1)c1ccc([N+](=O)[O-])cc1Br
REMARK SMILES IDX 9 1 8 2 6 3 7 4 5 6 4 7 3 8 2 9 1 10 69 11 70 12 77 13 71 14
REMARK SMILES IDX 76 15 78 16 72 17 73 18 74 19 75 20 10 21 11 22 12 23 13 24
REMARK SMILES IDX 14 26 15 27 16 28 68 29 17 30 67 31 18 32 19 33 20 34 61 35
REMARK SMILES IDX 21 36 66 37 60 38 62 39 22 40 65 41 59 42 58 43 23 45 49 46
REMARK SMILES IDX 32 47 48 48 33 49 36 50 47 51 63 52 34 53 35 54 46 56 64 57
REMARK SMILES IDX 37 58 24 59 25 60 30 61 26 62 27 63 29 64 31 65 28 66 50 67
REMARK SMILES IDX 51 68 56 69 52 70 53 71 55 72 57 73 54 74 38 75 39 76 44 77
REMARK SMILES IDX 40 78 41 79 43 80 45 81 42 82
REMARK H PARENT 8 5 12 25 62 44 36 55
REMARK Flexibility Score: inf
ROOT
ATOM      1  C   UNL A   1      35.944  20.498  25.018  1.00  0.00     0.117 C 
ENDROOT
BRANCH   1   2
ATOM      2  N   UNL A   1      34.718  19.731  25.105  1.00  0.00    -0.354 N 
ATOM      3  C   UNL A   1      33.472  20.099  25.533  1.00  0.00     0.239 C 
ATOM      4  O   UNL A   1      32.587  19.238  25.467  1.00  0.00    -0.273 OA
ATOM      5  H   UNL A   1      34.794  18.795  24.809  1.00  0.00     0.163 HD
BRANCH   3   6
ATOM      6  C   UNL A   1      33.173  21.513  26.059  1.00  0.00     0.216 C 
BRANCH   6   7
ATOM      7  N   UNL A   1      32.499  22.413  25.103  1.00  0.00    -0.358 N 
BRANCH   7   8
ATOM      8  C   UNL A   1      32.355  22.011  23.708  1.00  0.00     0.144 C 
BRANCH   8   9
ATOM      9  C   UNL A   1      33.394  22.639  22.836  1.00  0.00    -0.014 C 
ATOM     10  C   UNL A   1      33.127  23.545  21.887  1.00  0.00     0.006 C 
ENDBRANCH   8   9
ENDBRANCH   7   8
BRANCH   7  11
ATOM     11  C   UNL A   1      32.287  23.748  25.441  1.00  0.00     0.052 A 
ATOM     12  C   UNL A   1      30.970  24.236  25.528  1.00  0.00     0.034 A 
ATOM     13  C   UNL A   1      33.328  24.655  25.742  1.00  0.00     0.048 A 
ATOM     14  C   UNL A   1      30.685  25.547  25.920  1.00  0.00     0.088 A 
ATOM     15  C   UNL A   1      33.056  25.959  26.184  1.00  0.00     0.103 A 
ATOM     16  Br  UNL A   1      35.166  24.234  25.485  1.00  0.00    -0.048 Br
ATOM     17  C   UNL A   1      31.733  26.395  26.271  1.00  0.00     0.270 A 
BRANCH  17  18
ATOM     18  N   UNL A   1      31.442  27.754  26.731  1.00  0.00     0.062 N 
ATOM     19  O   UNL A   1      31.449  28.660  25.886  1.00  0.00    -0.258 OA
ATOM     20  O   UNL A   1      31.195  27.912  27.934  1.00  0.00    -0.258 OA
ENDBRANCH  17  18
ENDBRANCH   7  11
ENDBRANCH   6   7
ENDBRANCH   3   6
ENDBRANCH   1   2
BRANCH   1  21
ATOM     21  C   UNL A   1      37.194  19.617  24.989  1.00  0.00     0.042 C 
BRANCH  21  22
ATOM     22  C   UNL A   1      38.495  20.316  25.381  1.00  0.00     0.118 C 
BRANCH  22  23
ATOM     23  N   UNL A   1      39.582  19.382  25.609  1.00  0.00    -0.352 N 
ATOM     24  C   UNL A   1      40.876  19.580  26.025  1.00  0.00     0.251 C 
ATOM     25  H   UNL A   1      39.352  18.441  25.435  1.00  0.00     0.163 HD
ATOM     26  O   UNL A   1      41.655  18.632  25.968  1.00  0.00    -0.269 OA
BRANCH  24  27
ATOM     27  C   UNL A   1      41.363  20.888  26.530  1.00  0.00     0.039 A 
ATOM     28  C   UNL A   1      41.170  21.176  27.887  1.00  0.00     0.014 A 
ATOM     29  C   UNL A   1      41.904  21.870  25.695  1.00  0.00     0.014 A 
ATOM     30  C   UNL A   1      41.542  22.420  28.408  1.00  0.00     0.010 A 
ATOM     31  C   UNL A   1      42.332  23.091  26.227  1.00  0.00     0.010 A 
ATOM     32  C   UNL A   1      42.141  23.385  27.586  1.00  0.00    -0.014 A 
BRANCH  32  33
ATOM     33  C   UNL A   1      42.543  24.707  28.135  1.00  0.00     0.031 A 
ATOM     34  C   UNL A   1      41.519  25.787  28.358  1.00  0.00     0.074 A 
ATOM     35  C   UNL A   1      43.838  24.950  28.417  1.00  0.00     0.049 A 
ATOM     36  N   UNL A   1      41.686  27.008  28.803  1.00  0.00    -0.248 NA
ATOM     37  C   UNL A   1      40.126  25.459  28.019  1.00  0.00     0.031 C 
ATOM     38  C   UNL A   1      44.938  24.004  28.222  1.00  0.00     0.029 A 
ATOM     39  N   UNL A   1      44.449  26.069  28.928  1.00  0.00    -0.354 N 
ATOM     40  C   UNL A   1      40.429  27.596  28.784  1.00  0.00     0.074 A 
ATOM     41  C   UNL A   1      39.512  26.612  28.247  1.00  0.00     0.031 C 
ATOM     42  C   UNL A   1      46.084  24.575  28.628  1.00  0.00     0.029 A 
ATOM     43  C   UNL A   1      45.805  25.933  29.085  1.00  0.00     0.049 A 
ATOM     44  H   UNL A   1      43.959  26.891  29.158  1.00  0.00     0.167 HD
ATOM     45  C   UNL A   1      40.063  28.835  29.194  1.00  0.00     0.037 A 
ATOM     46  C   UNL A   1      46.724  26.802  29.547  1.00  0.00     0.037 A 
ATOM     47  C   UNL A   1      40.961  29.806  29.760  1.00  0.00     0.049 A 
ATOM     48  C   UNL A   1      46.291  28.168  30.000  1.00  0.00     0.074 A 
ATOM     49  C   UNL A   1      40.669  31.067  30.254  1.00  0.00     0.029 A 
ATOM     50  N   UNL A   1      42.326  29.626  29.910  1.00  0.00    -0.354 N 
ATOM     51  N   UNL A   1      45.090  28.690  30.023  1.00  0.00    -0.248 NA
ATOM     52  C   UNL A   1      47.346  29.066  30.496  1.00  0.00     0.031 C 
ATOM     53  C   UNL A   1      41.864  31.660  30.678  1.00  0.00     0.029 A 
ATOM     54  C   UNL A   1      42.894  30.756  30.476  1.00  0.00     0.049 A 
ATOM     55  H   UNL A   1      42.820  28.813  29.653  1.00  0.00     0.167 HD
ATOM     56  C   UNL A   1      45.238  29.964  30.554  1.00  0.00     0.074 A 
ATOM     57  C   UNL A   1      46.646  30.133  30.852  1.00  0.00     0.031 C 
ATOM     58  C   UNL A   1      44.293  30.909  30.773  1.00  0.00     0.037 A 
BRANCH  45  59
ATOM     59  C   UNL A   1      38.617  29.209  29.051  1.00  0.00     0.057 A 
ATOM     60  C   UNL A   1      37.738  29.177  30.141  1.00  0.00     0.134 A 
ATOM     61  C   UNL A   1      38.107  29.641  27.820  1.00  0.00     0.134 A 
ATOM     62  F   UNL A   1      38.162  28.761  31.343  1.00  0.00    -0.206 F 
ATOM     63  C   UNL A   1      36.397  29.540  30.007  1.00  0.00     0.040 A 
ATOM     64  C   UNL A   1      36.774  30.028  27.679  1.00  0.00     0.040 A 
ATOM     65  F   UNL A   1      38.898  29.702  26.739  1.00  0.00    -0.206 F 
ATOM     66  C   UNL A   1      35.913  29.974  28.774  1.00  0.00     0.006 A 
ENDBRANCH  45  59
BRANCH  46  67
ATOM     67  C   UNL A   1      48.148  26.400  29.630  1.00  0.00     0.057 A 
ATOM     68  C   UNL A   1      49.025  26.636  28.565  1.00  0.00     0.134 A 
ATOM     69  C   UNL A   1      48.664  25.763  30.765  1.00  0.00     0.134 A 
ATOM     70  F   UNL A   1      48.582  27.223  27.445  1.00  0.00    -0.206 F 
ATOM     71  C   UNL A   1      50.362  26.240  28.619  1.00  0.00     0.040 A 
ATOM     72  C   UNL A   1      50.002  25.380  30.841  1.00  0.00     0.040 A 
ATOM     73  F   UNL A   1      47.872  25.513  31.819  1.00  0.00    -0.206 F 
ATOM     74  C   UNL A   1      50.855  25.614  29.763  1.00  0.00     0.006 A 
ENDBRANCH  46  67
BRANCH  58  75
ATOM     75  C   UNL A   1      44.746  32.199  31.386  1.00  0.00     0.057 A 
ATOM     76  C   UNL A   1      44.792  32.379  32.773  1.00  0.00     0.134 A 
ATOM     77  C   UNL A   1      45.168  33.264  30.579  1.00  0.00     0.134 A 
ATOM     78  F   UNL A   1      44.387  31.400  33.598  1.00  0.00    -0.206 F 
ATOM     79  C   UNL A   1      45.224  33.579  33.339  1.00  0.00     0.040 A 
ATOM     80  C   UNL A   1      45.621  34.462  31.133  1.00  0.00     0.040 A 
ATOM     81  F   UNL A   1      45.154  33.153  29.242  1.00  0.00    -0.206 F 
ATOM     82  C   UNL A   1      45.646  34.622  32.517  1.00  0.00     0.006 A 
ENDBRANCH  58  75
ENDBRANCH  32  33
ENDBRANCH  24  27
ENDBRANCH  22  23
ENDBRANCH  21  22
ENDBRANCH   1  21
TORSDOF 15
ENDMDL
MODEL 3
REMARK VINA RESULT:     -10.7      3.553      7.362
REMARK SMILES C=CCN(CC(=O)NCCCNC(=O)c1ccc(-c2c3nc(c(-c4c(F)cccc4F)c4ccc([nH]4)c(-c4c(F)cccc4F)c4nc(c(-c5c(F)cccc5F)c5ccc2[nH]5)C=C4)C=C3)cc1)c1ccc([N+](=O)[O-])cc1Br
REMARK SMILES IDX 9 1 8 2 6 3 7 4 5 6 4 7 3 8 2 9 1 10 69 11 70 12 77 13 71 14
REMARK SMILES IDX 76 15 78 16 72 17 73 18 74 19 75 20 10 21 11 22 12 23 13 24
REMARK SMILES IDX 14 26 15 27 16 28 68 29 17 30 67 31 18 32 19 33 20 34 61 35
REMARK SMILES IDX 21 36 66 37 60 38 62 39 22 40 65 41 59 42 58 43 23 45 49 46
REMARK SMILES IDX 32 47 48 48 33 49 36 50 47 51 63 52 34 53 35 54 46 56 64 57
REMARK SMILES IDX 37 58 24 59 25 60 30 61 26 62 27 63 29 64 31 65 28 66 50 67
REMARK SMILES IDX 51 68 56 69 52 70 53 71 55 72 57 73 54 74 38 75 39 76 44 77
REMARK SMILES IDX 40 78 41 79 43 80 45 81 42 82
REMARK H PARENT 8 5 12 25 62 44 36 55
REMARK Flexibility Score: inf
ROOT
ATOM      1  C   UNL A   1      31.761  27.648  26.671  1.00  0.00     0.117 C 
ENDROOT
BRANCH   1   2
ATOM      2  N   UNL A   1      31.341  26.335  27.117  1.00  0.00    -0.354 N 
ATOM      3  C   UNL A   1      31.438  25.117  26.502  1.00  0.00     0.239 C 
ATOM      4  O   UNL A   1      31.023  24.142  27.136  1.00  0.00    -0.273 OA
ATOM      5  H   UNL A   1      30.920  26.316  28.006  1.00  0.00     0.163 HD
BRANCH   3   6
ATOM      6  C   UNL A   1      32.042  24.958  25.096  1.00  0.00     0.216 C 
BRANCH   6   7
ATOM      7  N   UNL A   1      31.067  24.936  23.989  1.00  0.00    -0.358 N 
BRANCH   7   8
ATOM      8  C   UNL A   1      30.882  23.715  23.211  1.00  0.00     0.144 C 
BRANCH   8   9
ATOM      9  C   UNL A   1      32.151  22.937  23.084  1.00  0.00    -0.014 C 
ATOM     10  C   UNL A   1      32.203  21.604  22.966  1.00  0.00     0.006 C 
ENDBRANCH   8   9
ENDBRANCH   7   8
BRANCH   7  11
ATOM     11  C   UNL A   1      30.565  26.134  23.485  1.00  0.00     0.052 A 
ATOM     12  C   UNL A   1      29.236  26.499  23.771  1.00  0.00     0.034 A 
ATOM     13  C   UNL A   1      31.327  27.044  22.719  1.00  0.00     0.048 A 
ATOM     14  C   UNL A   1      28.688  27.713  23.349  1.00  0.00     0.088 A 
ATOM     15  C   UNL A   1      30.807  28.288  22.329  1.00  0.00     0.103 A 
ATOM     16  Br  UNL A   1      33.068  26.633  22.067  1.00  0.00    -0.048 Br
ATOM     17  C   UNL A   1      29.489  28.614  22.650  1.00  0.00     0.270 A 
BRANCH  17  18
ATOM     18  N   UNL A   1      28.939  29.909  22.246  1.00  0.00     0.062 N 
ATOM     19  O   UNL A   1      29.202  30.891  22.954  1.00  0.00    -0.258 OA
ATOM     20  O   UNL A   1      28.256  29.946  21.214  1.00  0.00    -0.258 OA
ENDBRANCH  17  18
ENDBRANCH   7  11
ENDBRANCH   6   7
ENDBRANCH   3   6
ENDBRANCH   1   2
BRANCH   1  21
ATOM     21  C   UNL A   1      33.273  27.851  26.761  1.00  0.00     0.042 C 
BRANCH  21  22
ATOM     22  C   UNL A   1      33.829  29.004  25.926  1.00  0.00     0.118 C 
BRANCH  22  23
ATOM     23  N   UNL A   1      33.714  30.285  26.599  1.00  0.00    -0.352 N 
ATOM     24  C   UNL A   1      34.469  30.858  27.592  1.00  0.00     0.251 C 
ATOM     25  H   UNL A   1      32.964  30.841  26.289  1.00  0.00     0.163 HD
ATOM     26  O   UNL A   1      34.053  31.888  28.117  1.00  0.00    -0.269 OA
BRANCH  24  27
ATOM     27  C   UNL A   1      35.756  30.279  28.055  1.00  0.00     0.039 A 
ATOM     28  C   UNL A   1      35.794  29.719  29.339  1.00  0.00     0.014 A 
ATOM     29  C   UNL A   1      36.936  30.363  27.313  1.00  0.00     0.014 A 
ATOM     30  C   UNL A   1      36.992  29.222  29.860  1.00  0.00     0.010 A 
ATOM     31  C   UNL A   1      38.123  29.812  27.810  1.00  0.00     0.010 A 
ATOM     32  C   UNL A   1      38.167  29.249  29.094  1.00  0.00    -0.014 A 
BRANCH  32  33
ATOM     33  C   UNL A   1      39.443  28.718  29.642  1.00  0.00     0.031 A 
ATOM     34  C   UNL A   1      40.067  29.333  30.866  1.00  0.00     0.074 A 
ATOM     35  C   UNL A   1      40.060  27.690  29.026  1.00  0.00     0.049 A 
ATOM     36  N   UNL A   1      41.187  29.022  31.470  1.00  0.00    -0.248 NA
ATOM     37  C   UNL A   1      39.347  30.458  31.481  1.00  0.00     0.031 C 
ATOM     38  C   UNL A   1      39.582  27.019  27.816  1.00  0.00     0.029 A 
ATOM     39  N   UNL A   1      41.225  27.031  29.334  1.00  0.00    -0.354 N 
ATOM     40  C   UNL A   1      41.313  29.918  32.523  1.00  0.00     0.074 A 
ATOM     41  C   UNL A   1      40.175  30.811  32.455  1.00  0.00     0.031 C 
ATOM     42  C   UNL A   1      40.434  26.031  27.497  1.00  0.00     0.029 A 
ATOM     43  C   UNL A   1      41.529  26.015  28.463  1.00  0.00     0.049 A 
ATOM     44  H   UNL A   1      41.787  27.265  30.107  1.00  0.00     0.167 HD
ATOM     45  C   UNL A   1      42.276  29.981  33.475  1.00  0.00     0.037 A 
ATOM     46  C   UNL A   1      42.573  25.165  28.441  1.00  0.00     0.037 A 
ATOM     47  C   UNL A   1      43.391  29.077  33.570  1.00  0.00     0.049 A 
ATOM     48  C   UNL A   1      43.625  25.253  29.511  1.00  0.00     0.074 A 
ATOM     49  C   UNL A   1      44.386  29.032  34.533  1.00  0.00     0.029 A 
ATOM     50  N   UNL A   1      43.659  28.057  32.672  1.00  0.00    -0.354 N 
ATOM     51  N   UNL A   1      43.702  26.074  30.529  1.00  0.00    -0.248 NA
ATOM     52  C   UNL A   1      44.735  24.291  29.428  1.00  0.00     0.031 C 
ATOM     53  C   UNL A   1      45.271  28.000  34.201  1.00  0.00     0.029 A 
ATOM     54  C   UNL A   1      44.810  27.385  33.049  1.00  0.00     0.049 A 
ATOM     55  H   UNL A   1      43.111  27.841  31.882  1.00  0.00     0.167 HD
ATOM     56  C   UNL A   1      44.852  25.716  31.220  1.00  0.00     0.074 A 
ATOM     57  C   UNL A   1      45.435  24.595  30.512  1.00  0.00     0.031 C 
ATOM     58  C   UNL A   1      45.377  26.268  32.339  1.00  0.00     0.037 A 
BRANCH  45  59
ATOM     59  C   UNL A   1      42.159  31.069  34.501  1.00  0.00     0.057 A 
ATOM     60  C   UNL A   1      42.765  32.319  34.322  1.00  0.00     0.134 A 
ATOM     61  C   UNL A   1      41.402  30.877  35.664  1.00  0.00     0.134 A 
ATOM     62  F   UNL A   1      43.513  32.560  33.235  1.00  0.00    -0.206 F 
ATOM     63  C   UNL A   1      42.641  33.333  35.272  1.00  0.00     0.040 A 
ATOM     64  C   UNL A   1      41.251  31.891  36.611  1.00  0.00     0.040 A 
ATOM     65  F   UNL A   1      40.789  29.706  35.893  1.00  0.00    -0.206 F 
ATOM     66  C   UNL A   1      41.876  33.122  36.419  1.00  0.00     0.006 A 
ENDBRANCH  45  59
BRANCH  46  67
ATOM     67  C   UNL A   1      42.665  24.133  27.381  1.00  0.00     0.057 A 
ATOM     68  C   UNL A   1      43.251  24.424  26.144  1.00  0.00     0.134 A 
ATOM     69  C   UNL A   1      42.164  22.840  27.572  1.00  0.00     0.134 A 
ATOM     70  F   UNL A   1      43.730  25.651  25.897  1.00  0.00    -0.206 F 
ATOM     71  C   UNL A   1      43.323  23.470  25.127  1.00  0.00     0.040 A 
ATOM     72  C   UNL A   1      42.246  21.871  26.573  1.00  0.00     0.040 A 
ATOM     73  F   UNL A   1      41.595  22.501  28.739  1.00  0.00    -0.206 F 
ATOM     74  C   UNL A   1      42.823  22.187  25.344  1.00  0.00     0.006 A 
ENDBRANCH  46  67
BRANCH  58  75
ATOM     75  C   UNL A   1      46.631  25.652  32.881  1.00  0.00     0.057 A 
ATOM     76  C   UNL A   1      47.897  26.058  32.445  1.00  0.00     0.134 A 
ATOM     77  C   UNL A   1      46.571  24.663  33.871  1.00  0.00     0.134 A 
ATOM     78  F   UNL A   1      48.019  26.992  31.488  1.00  0.00    -0.206 F 
ATOM     79  C   UNL A   1      49.062  25.489  32.961  1.00  0.00     0.040 A 
ATOM     80  C   UNL A   1      47.730  24.100  34.408  1.00  0.00     0.040 A 
ATOM     81  F   UNL A   1      45.388  24.234  34.335  1.00  0.00    -0.206 F 
ATOM     82  C   UNL A   1      48.980  24.511  33.949  1.00  0.00     0.006 A 
ENDBRANCH  58  75
ENDBRANCH  32  33
ENDBRANCH  24  27
ENDBRANCH  22  23
ENDBRANCH  21  22
ENDBRANCH   1  21
TORSDOF 15
ENDMDL
