MODEL 1
REMARK VINA RESULT:     -12.6      0.000      0.000
REMARK SMILES C[C@H]1[C@@H](C(=O)NCCCNC(=O)c2ccc(-c3c4nc(c(-c5c(F)cccc5F)c5ccc([nH]5)c(-c5c(F)cccc5F)c5nc(c(-c6c(F)cccc6F)c6ccc3[nH]6)C=C5)C=C4)cc2)CCN1C(=O)N[C@@H]1CC[N@H+]2CCCC[C@H]12
REMARK SMILES IDX 8 1 7 2 6 3 4 4 5 5 3 7 1 8 2 9 69 10 67 11 68 12 70 13
REMARK SMILES IDX 71 14 72 15 73 17 74 18 81 19 75 20 76 21 80 22 77 23 79 25
REMARK SMILES IDX 78 26 9 27 10 28 11 29 12 31 13 32 14 33 66 34 15 35 65 36
REMARK SMILES IDX 16 37 17 38 18 39 59 40 19 41 64 42 58 43 60 44 20 45 63 46
REMARK SMILES IDX 57 47 56 48 21 50 47 51 30 52 46 53 31 54 34 55 45 56 61 57
REMARK SMILES IDX 32 58 33 59 44 61 62 62 35 63 22 64 23 65 28 66 24 67 25 68
REMARK SMILES IDX 27 69 29 70 26 71 48 72 49 73 54 74 50 75 51 76 53 77 55 78
REMARK SMILES IDX 52 79 36 80 37 81 42 82 38 83 39 84 41 85 43 86 40 87
REMARK H PARENT 6 6 72 16 76 24 10 30 60 49 34 60
REMARK Flexibility Score: inf
ROOT
ATOM      1  C   UNL A   1      37.809  19.628  24.983  1.00  0.00     0.042 C 
ENDROOT
BRANCH   1   2
ATOM      2  C   UNL A   1      36.586  20.536  24.929  1.00  0.00     0.117 C 
BRANCH   2   3
ATOM      3  N   UNL A   1      35.343  19.798  25.042  1.00  0.00    -0.356 N 
ATOM      4  C   UNL A   1      34.053  20.225  24.957  1.00  0.00     0.225 C 
ATOM      5  O   UNL A   1      33.186  19.356  24.922  1.00  0.00    -0.275 OA
ATOM      6  H   UNL A   1      35.449  18.833  25.205  1.00  0.00     0.163 HD
BRANCH   4   7
ATOM      7  C   UNL A   1      33.775  21.715  24.828  1.00  0.00     0.102 C 
ATOM      8  C   UNL A   1      33.602  21.779  27.427  1.00  0.00     0.032 C 
ATOM      9  C   UNL A   1      33.462  22.529  26.109  1.00  0.00     0.096 C 
ATOM     10  N   UNL A   1      32.114  23.064  25.928  1.00  0.00    -0.321 N 
ATOM     11  C   UNL A   1      32.557  21.927  23.922  1.00  0.00     0.037 C 
ATOM     12  C   UNL A   1      31.444  22.318  24.878  1.00  0.00     0.122 C 
BRANCH  10  13
ATOM     13  C   UNL A   1      31.415  24.011  26.614  1.00  0.00     0.318 C 
ATOM     14  O   UNL A   1      30.490  23.695  27.370  1.00  0.00    -0.249 OA
ATOM     15  N   UNL A   1      31.658  25.333  26.522  1.00  0.00    -0.329 N 
ATOM     16  H   UNL A   1      31.128  25.842  27.177  1.00  0.00     0.165 HD
BRANCH  15  17
ATOM     17  C   UNL A   1      32.495  26.216  25.713  1.00  0.00     0.147 C 
ATOM     18  C   UNL A   1      33.144  27.325  26.565  1.00  0.00     0.092 C 
ATOM     19  C   UNL A   1      31.740  27.011  24.624  1.00  0.00     0.207 C 
ATOM     20  C   UNL A   1      32.848  28.636  25.851  1.00  0.00     0.264 C 
ATOM     21  N   UNL A   1      31.575  28.351  25.206  1.00  0.00    -0.331 N 
ATOM     22  C   UNL A   1      30.389  26.504  24.134  1.00  0.00     0.067 C 
ATOM     23  C   UNL A   1      31.199  29.326  24.188  1.00  0.00     0.262 C 
ATOM     24  H   UNL A   1      30.815  28.402  25.884  1.00  0.00     0.348 HD
ATOM     25  C   UNL A   1      29.856  27.466  23.066  1.00  0.00     0.012 C 
ATOM     26  C   UNL A   1      29.860  28.919  23.558  1.00  0.00     0.062 C 
ENDBRANCH  15  17
ENDBRANCH  10  13
ENDBRANCH   4   7
ENDBRANCH   2   3
ENDBRANCH   1   2
BRANCH   1  27
ATOM     27  C   UNL A   1      39.000  20.215  25.739  1.00  0.00     0.118 C 
BRANCH  27  28
ATOM     28  N   UNL A   1      40.155  19.327  25.762  1.00  0.00    -0.352 N 
ATOM     29  C   UNL A   1      41.469  19.576  26.058  1.00  0.00     0.251 C 
ATOM     30  H   UNL A   1      39.958  18.391  25.525  1.00  0.00     0.163 HD
ATOM     31  O   UNL A   1      42.312  18.706  25.844  1.00  0.00    -0.269 OA
BRANCH  29  32
ATOM     32  C   UNL A   1      41.886  20.881  26.607  1.00  0.00     0.039 A 
ATOM     33  C   UNL A   1      42.320  21.871  25.721  1.00  0.00     0.014 A 
ATOM     34  C   UNL A   1      41.877  21.128  27.982  1.00  0.00     0.014 A 
ATOM     35  C   UNL A   1      42.679  23.127  26.210  1.00  0.00     0.010 A 
ATOM     36  C   UNL A   1      42.155  22.406  28.460  1.00  0.00     0.010 A 
ATOM     37  C   UNL A   1      42.562  23.418  27.579  1.00  0.00    -0.014 A 
BRANCH  37  38
ATOM     38  C   UNL A   1      42.848  24.781  28.093  1.00  0.00     0.031 A 
ATOM     39  C   UNL A   1      44.247  25.177  28.477  1.00  0.00     0.074 A 
ATOM     40  C   UNL A   1      41.832  25.650  28.261  1.00  0.00     0.049 A 
ATOM     41  N   UNL A   1      44.679  26.311  28.968  1.00  0.00    -0.248 NA
ATOM     42  C   UNL A   1      45.294  24.157  28.311  1.00  0.00     0.031 C 
ATOM     43  C   UNL A   1      40.423  25.367  27.980  1.00  0.00     0.029 A 
ATOM     44  N   UNL A   1      41.826  26.945  28.711  1.00  0.00    -0.354 N 
ATOM     45  C   UNL A   1      46.042  26.140  29.171  1.00  0.00     0.074 A 
ATOM     46  C   UNL A   1      46.354  24.773  28.813  1.00  0.00     0.031 C 
ATOM     47  C   UNL A   1      39.694  26.464  28.238  1.00  0.00     0.029 A 
ATOM     48  C   UNL A   1      40.575  27.513  28.738  1.00  0.00     0.049 A 
ATOM     49  H   UNL A   1      42.641  27.423  28.990  1.00  0.00     0.167 HD
ATOM     50  C   UNL A   1      46.957  27.047  29.591  1.00  0.00     0.037 A 
ATOM     51  C   UNL A   1      40.180  28.740  29.128  1.00  0.00     0.037 A 
ATOM     52  C   UNL A   1      46.645  28.409  29.941  1.00  0.00     0.049 A 
ATOM     53  C   UNL A   1      41.213  29.725  29.601  1.00  0.00     0.074 A 
ATOM     54  C   UNL A   1      47.506  29.418  30.334  1.00  0.00     0.029 A 
ATOM     55  N   UNL A   1      45.367  28.951  29.945  1.00  0.00    -0.354 N 
ATOM     56  N   UNL A   1      42.509  29.571  29.721  1.00  0.00    -0.248 NA
ATOM     57  C   UNL A   1      40.727  31.057  29.984  1.00  0.00     0.031 C 
ATOM     58  C   UNL A   1      46.745  30.555  30.626  1.00  0.00     0.029 A 
ATOM     59  C   UNL A   1      45.414  30.273  30.358  1.00  0.00     0.049 A 
ATOM     60  H   UNL A   1      44.548  28.467  29.692  1.00  0.00     0.167 HD
ATOM     61  C   UNL A   1      42.997  30.793  30.169  1.00  0.00     0.074 A 
ATOM     62  C   UNL A   1      41.858  31.681  30.278  1.00  0.00     0.031 C 
ATOM     63  C   UNL A   1      44.272  31.146  30.466  1.00  0.00     0.037 A 
BRANCH  50  64
ATOM     64  C   UNL A   1      48.385  26.591  29.694  1.00  0.00     0.057 A 
ATOM     65  C   UNL A   1      49.304  26.800  28.654  1.00  0.00     0.134 A 
ATOM     66  C   UNL A   1      48.858  25.962  30.852  1.00  0.00     0.134 A 
ATOM     67  F   UNL A   1      48.916  27.385  27.512  1.00  0.00    -0.206 F 
ATOM     68  C   UNL A   1      50.629  26.370  28.752  1.00  0.00     0.040 A 
ATOM     69  C   UNL A   1      50.189  25.557  30.974  1.00  0.00     0.040 A 
ATOM     70  F   UNL A   1      48.037  25.737  31.889  1.00  0.00    -0.206 F 
ATOM     71  C   UNL A   1      51.076  25.754  29.918  1.00  0.00     0.006 A 
ENDBRANCH  50  64
BRANCH  51  72
ATOM     72  C   UNL A   1      38.743  29.110  29.068  1.00  0.00     0.057 A 
ATOM     73  C   UNL A   1      38.160  29.563  27.879  1.00  0.00     0.134 A 
ATOM     74  C   UNL A   1      37.921  29.023  30.198  1.00  0.00     0.134 A 
ATOM     75  F   UNL A   1      38.900  29.685  26.767  1.00  0.00    -0.206 F 
ATOM     76  C   UNL A   1      36.816  29.937  27.822  1.00  0.00     0.040 A 
ATOM     77  C   UNL A   1      36.569  29.365  30.146  1.00  0.00     0.040 A 
ATOM     78  F   UNL A   1      38.416  28.584  31.364  1.00  0.00    -0.206 F 
ATOM     79  C   UNL A   1      36.015  29.833  28.956  1.00  0.00     0.006 A 
ENDBRANCH  51  72
BRANCH  63  80
ATOM     80  C   UNL A   1      44.503  32.562  30.910  1.00  0.00     0.057 A 
ATOM     81  C   UNL A   1      44.491  32.928  32.263  1.00  0.00     0.134 A 
ATOM     82  C   UNL A   1      44.758  33.570  29.972  1.00  0.00     0.134 A 
ATOM     83  F   UNL A   1      44.241  32.013  33.212  1.00  0.00    -0.206 F 
ATOM     84  C   UNL A   1      44.691  34.250  32.663  1.00  0.00     0.040 A 
ATOM     85  C   UNL A   1      44.991  34.890  30.361  1.00  0.00     0.040 A 
ATOM     86  F   UNL A   1      44.794  33.288  28.661  1.00  0.00    -0.206 F 
ATOM     87  C   UNL A   1      44.948  35.234  31.710  1.00  0.00     0.006 A 
ENDBRANCH  63  80
ENDBRANCH  37  38
ENDBRANCH  29  32
ENDBRANCH  27  28
ENDBRANCH   1  27
TORSDOF 12
ENDMDL
MODEL 2
REMARK VINA RESULT:     -12.6      1.432      6.334
REMARK SMILES C[C@H]1[C@@H](C(=O)NCCCNC(=O)c2ccc(-c3c4nc(c(-c5c(F)cccc5F)c5ccc([nH]5)c(-c5c(F)cccc5F)c5nc(c(-c6c(F)cccc6F)c6ccc3[nH]6)C=C5)C=C4)cc2)CCN1C(=O)N[C@@H]1CC[N@H+]2CCCC[C@H]12
REMARK SMILES IDX 8 1 7 2 6 3 4 4 5 5 3 7 1 8 2 9 69 10 67 11 68 12 70 13
REMARK SMILES IDX 71 14 72 15 73 17 74 18 81 19 75 20 76 21 80 22 77 23 79 25
REMARK SMILES IDX 78 26 9 27 10 28 11 29 12 31 13 32 14 33 66 34 15 35 65 36
REMARK SMILES IDX 16 37 17 38 18 39 59 40 19 41 64 42 58 43 60 44 20 45 63 46
REMARK SMILES IDX 57 47 56 48 21 50 47 51 30 52 46 53 31 54 34 55 45 56 61 57
REMARK SMILES IDX 32 58 33 59 44 61 62 62 35 63 22 64 23 65 28 66 24 67 25 68
REMARK SMILES IDX 27 69 29 70 26 71 48 72 49 73 54 74 50 75 51 76 53 77 55 78
REMARK SMILES IDX 52 79 36 80 37 81 42 82 38 83 39 84 41 85 43 86 40 87
REMARK H PARENT 6 6 72 16 76 24 10 30 60 49 34 60
REMARK Flexibility Score: inf
ROOT
ATOM      1  C   UNL A   1      37.900  19.632  24.899  1.00  0.00     0.042 C 
ENDROOT
BRANCH   1   2
ATOM      2  C   UNL A   1      36.683  20.547  24.975  1.00  0.00     0.117 C 
BRANCH   2   3
ATOM      3  N   UNL A   1      35.436  19.808  24.998  1.00  0.00    -0.356 N 
ATOM      4  C   UNL A   1      34.153  20.237  24.850  1.00  0.00     0.225 C 
ATOM      5  O   UNL A   1      33.290  19.370  24.744  1.00  0.00    -0.275 OA
ATOM      6  H   UNL A   1      35.533  18.838  25.143  1.00  0.00     0.163 HD
BRANCH   4   7
ATOM      7  C   UNL A   1      33.882  21.731  24.743  1.00  0.00     0.102 C 
ATOM      8  C   UNL A   1      33.640  21.744  27.338  1.00  0.00     0.032 C 
ATOM      9  C   UNL A   1      33.537  22.520  26.031  1.00  0.00     0.096 C 
ATOM     10  N   UNL A   1      32.196  23.063  25.826  1.00  0.00    -0.321 N 
ATOM     11  C   UNL A   1      32.689  21.964  23.810  1.00  0.00     0.037 C 
ATOM     12  C   UNL A   1      31.552  22.339  24.744  1.00  0.00     0.122 C 
BRANCH  10  13
ATOM     13  C   UNL A   1      31.481  23.998  26.512  1.00  0.00     0.318 C 
ATOM     14  O   UNL A   1      30.553  23.667  27.258  1.00  0.00    -0.249 OA
ATOM     15  N   UNL A   1      31.712  25.322  26.430  1.00  0.00    -0.329 N 
ATOM     16  H   UNL A   1      31.171  25.822  27.084  1.00  0.00     0.165 HD
BRANCH  15  17
ATOM     17  C   UNL A   1      32.547  26.219  25.635  1.00  0.00     0.147 C 
ATOM     18  C   UNL A   1      33.185  27.323  26.501  1.00  0.00     0.092 C 
ATOM     19  C   UNL A   1      31.791  27.022  24.551  1.00  0.00     0.207 C 
ATOM     20  C   UNL A   1      32.884  28.639  25.800  1.00  0.00     0.264 C 
ATOM     21  N   UNL A   1      31.616  28.355  25.148  1.00  0.00    -0.331 N 
ATOM     22  C   UNL A   1      30.445  26.513  24.050  1.00  0.00     0.067 C 
ATOM     23  C   UNL A   1      31.238  29.339  24.139  1.00  0.00     0.262 C 
ATOM     24  H   UNL A   1      30.853  28.394  25.823  1.00  0.00     0.348 HD
ATOM     25  C   UNL A   1      29.911  27.484  22.991  1.00  0.00     0.012 C 
ATOM     26  C   UNL A   1      29.904  28.931  23.500  1.00  0.00     0.062 C 
ENDBRANCH  15  17
ENDBRANCH  10  13
ENDBRANCH   4   7
ENDBRANCH   2   3
ENDBRANCH   1   2
BRANCH   1  27
ATOM     27  C   UNL A   1      39.076  20.070  25.770  1.00  0.00     0.118 C 
BRANCH  27  28
ATOM     28  N   UNL A   1      40.132  19.070  25.849  1.00  0.00    -0.352 N 
ATOM     29  C   UNL A   1      41.481  19.206  26.043  1.00  0.00     0.251 C 
ATOM     30  H   UNL A   1      39.825  18.140  25.743  1.00  0.00     0.163 HD
ATOM     31  O   UNL A   1      42.215  18.229  25.900  1.00  0.00    -0.269 OA
BRANCH  29  32
ATOM     32  C   UNL A   1      42.065  20.515  26.399  1.00  0.00     0.039 A 
ATOM     33  C   UNL A   1      42.505  21.352  25.370  1.00  0.00     0.014 A 
ATOM     34  C   UNL A   1      42.205  20.911  27.731  1.00  0.00     0.014 A 
ATOM     35  C   UNL A   1      43.022  22.611  25.677  1.00  0.00     0.010 A 
ATOM     36  C   UNL A   1      42.642  22.198  28.031  1.00  0.00     0.010 A 
ATOM     37  C   UNL A   1      43.057  23.061  27.007  1.00  0.00    -0.014 A 
BRANCH  37  38
ATOM     38  C   UNL A   1      43.514  24.436  27.332  1.00  0.00     0.031 A 
ATOM     39  C   UNL A   1      42.530  25.489  27.759  1.00  0.00     0.074 A 
ATOM     40  C   UNL A   1      44.817  24.748  27.195  1.00  0.00     0.049 A 
ATOM     41  N   UNL A   1      42.742  26.747  28.056  1.00  0.00    -0.248 NA
ATOM     42  C   UNL A   1      41.117  25.085  27.838  1.00  0.00     0.031 C 
ATOM     43  C   UNL A   1      45.862  23.831  26.734  1.00  0.00     0.029 A 
ATOM     44  N   UNL A   1      45.486  25.923  27.425  1.00  0.00    -0.354 N 
ATOM     45  C   UNL A   1      41.495  27.281  28.353  1.00  0.00     0.074 A 
ATOM     46  C   UNL A   1      40.523  26.231  28.137  1.00  0.00     0.031 C 
ATOM     47  C   UNL A   1      47.043  24.469  26.742  1.00  0.00     0.029 A 
ATOM     48  C   UNL A   1      46.834  25.848  27.170  1.00  0.00     0.049 A 
ATOM     49  H   UNL A   1      45.043  26.743  27.743  1.00  0.00     0.167 HD
ATOM     50  C   UNL A   1      41.189  28.525  28.793  1.00  0.00     0.037 A 
ATOM     51  C   UNL A   1      47.795  26.786  27.264  1.00  0.00     0.037 A 
ATOM     52  C   UNL A   1      42.159  29.567  29.014  1.00  0.00     0.049 A 
ATOM     53  C   UNL A   1      47.429  28.163  27.743  1.00  0.00     0.074 A 
ATOM     54  C   UNL A   1      41.956  30.845  29.501  1.00  0.00     0.029 A 
ATOM     55  N   UNL A   1      43.518  29.449  28.754  1.00  0.00    -0.354 N 
ATOM     56  N   UNL A   1      46.256  28.634  28.089  1.00  0.00    -0.248 NA
ATOM     57  C   UNL A   1      48.523  29.136  27.855  1.00  0.00     0.031 C 
ATOM     58  C   UNL A   1      43.182  31.520  29.487  1.00  0.00     0.029 A 
ATOM     59  C   UNL A   1      44.161  30.642  29.048  1.00  0.00     0.049 A 
ATOM     60  H   UNL A   1      43.959  28.639  28.411  1.00  0.00     0.167 HD
ATOM     61  C   UNL A   1      46.474  29.948  28.482  1.00  0.00     0.074 A 
ATOM     62  C   UNL A   1      47.895  30.191  28.352  1.00  0.00     0.031 C 
ATOM     63  C   UNL A   1      45.577  30.872  28.909  1.00  0.00     0.037 A 
BRANCH  50  64
ATOM     64  C   UNL A   1      39.742  28.825  29.066  1.00  0.00     0.057 A 
ATOM     65  C   UNL A   1      39.189  28.691  30.348  1.00  0.00     0.134 A 
ATOM     66  C   UNL A   1      38.897  29.279  28.047  1.00  0.00     0.134 A 
ATOM     67  F   UNL A   1      39.938  28.248  31.369  1.00  0.00    -0.206 F 
ATOM     68  C   UNL A   1      37.843  28.966  30.597  1.00  0.00     0.040 A 
ATOM     69  C   UNL A   1      37.557  29.589  28.290  1.00  0.00     0.040 A 
ATOM     70  F   UNL A   1      39.360  29.438  26.798  1.00  0.00    -0.206 F 
ATOM     71  C   UNL A   1      37.025  29.423  29.567  1.00  0.00     0.006 A 
ENDBRANCH  50  64
BRANCH  51  72
ATOM     72  C   UNL A   1      49.198  26.448  26.914  1.00  0.00     0.057 A 
ATOM     73  C   UNL A   1      49.698  26.672  25.625  1.00  0.00     0.134 A 
ATOM     74  C   UNL A   1      50.072  25.893  27.856  1.00  0.00     0.134 A 
ATOM     75  F   UNL A   1      48.905  27.186  24.673  1.00  0.00    -0.206 F 
ATOM     76  C   UNL A   1      51.008  26.335  25.281  1.00  0.00     0.040 A 
ATOM     77  C   UNL A   1      51.392  25.578  27.533  1.00  0.00     0.040 A 
ATOM     78  F   UNL A   1      49.658  25.665  29.112  1.00  0.00    -0.206 F 
ATOM     79  C   UNL A   1      51.861  25.791  26.238  1.00  0.00     0.006 A 
ENDBRANCH  51  72
BRANCH  63  80
ATOM     80  C   UNL A   1      46.116  32.220  29.293  1.00  0.00     0.057 A 
ATOM     81  C   UNL A   1      46.186  33.280  28.379  1.00  0.00     0.134 A 
ATOM     82  C   UNL A   1      46.554  32.467  30.601  1.00  0.00     0.134 A 
ATOM     83  F   UNL A   1      45.794  33.108  27.108  1.00  0.00    -0.206 F 
ATOM     84  C   UNL A   1      46.704  34.524  28.743  1.00  0.00     0.040 A 
ATOM     85  C   UNL A   1      47.043  33.716  30.985  1.00  0.00     0.040 A 
ATOM     86  F   UNL A   1      46.505  31.500  31.530  1.00  0.00    -0.206 F 
ATOM     87  C   UNL A   1      47.129  34.746  30.052  1.00  0.00     0.006 A 
ENDBRANCH  63  80
ENDBRANCH  37  38
ENDBRANCH  29  32
ENDBRANCH  27  28
ENDBRANCH   1  27
TORSDOF 12
ENDMDL
MODEL 3
REMARK VINA RESULT:     -12.6      1.552      6.234
REMARK SMILES C[C@H]1[C@@H](C(=O)NCCCNC(=O)c2ccc(-c3c4nc(c(-c5c(F)cccc5F)c5ccc([nH]5)c(-c5c(F)cccc5F)c5nc(c(-c6c(F)cccc6F)c6ccc3[nH]6)C=C5)C=C4)cc2)CCN1C(=O)N[C@@H]1CC[N@H+]2CCCC[C@H]12
REMARK SMILES IDX 8 1 7 2 6 3 4 4 5 5 3 7 1 8 2 9 69 10 67 11 68 12 70 13
REMARK SMILES IDX 71 14 72 15 73 17 74 18 81 19 75 20 76 21 80 22 77 23 79 25
REMARK SMILES IDX 78 26 9 27 10 28 11 29 12 31 13 32 14 33 66 34 15 35 65 36
REMARK SMILES IDX 16 37 17 38 18 39 59 40 19 41 64 42 58 43 60 44 20 45 63 46
REMARK SMILES IDX 57 47 56 48 21 50 47 51 30 52 46 53 31 54 34 55 45 56 61 57
REMARK SMILES IDX 32 58 33 59 44 61 62 62 35 63 22 64 23 65 28 66 24 67 25 68
REMARK SMILES IDX 27 69 29 70 26 71 48 72 49 73 54 74 50 75 51 76 53 77 55 78
REMARK SMILES IDX 52 79 36 80 37 81 42 82 38 83 39 84 41 85 43 86 40 87
REMARK H PARENT 6 6 72 16 76 24 10 30 60 49 34 60
REMARK Flexibility Score: inf
ROOT
ATOM      1  C   UNL A   1      37.894  19.578  24.988  1.00  0.00     0.042 C 
ENDROOT
BRANCH   1   2
ATOM      2  C   UNL A   1      36.697  20.521  25.021  1.00  0.00     0.117 C 
BRANCH   2   3
ATOM      3  N   UNL A   1      35.433  19.812  25.001  1.00  0.00    -0.356 N 
ATOM      4  C   UNL A   1      34.163  20.276  24.843  1.00  0.00     0.225 C 
ATOM      5  O   UNL A   1      33.281  19.434  24.697  1.00  0.00    -0.275 OA
ATOM      6  H   UNL A   1      35.504  18.837  25.120  1.00  0.00     0.163 HD
BRANCH   4   7
ATOM      7  C   UNL A   1      33.929  21.778  24.773  1.00  0.00     0.102 C 
ATOM      8  C   UNL A   1      33.571  21.714  27.354  1.00  0.00     0.032 C 
ATOM      9  C   UNL A   1      33.543  22.533  26.070  1.00  0.00     0.096 C 
ATOM     10  N   UNL A   1      32.224  23.113  25.824  1.00  0.00    -0.321 N 
ATOM     11  C   UNL A   1      32.784  22.068  23.796  1.00  0.00     0.037 C 
ATOM     12  C   UNL A   1      31.615  22.439  24.691  1.00  0.00     0.122 C 
BRANCH  10  13
ATOM     13  C   UNL A   1      31.500  24.042  26.507  1.00  0.00     0.318 C 
ATOM     14  O   UNL A   1      30.573  23.703  27.251  1.00  0.00    -0.249 OA
ATOM     15  N   UNL A   1      31.719  25.369  26.426  1.00  0.00    -0.329 N 
ATOM     16  H   UNL A   1      31.172  25.863  27.078  1.00  0.00     0.165 HD
BRANCH  15  17
ATOM     17  C   UNL A   1      32.548  26.273  25.633  1.00  0.00     0.147 C 
ATOM     18  C   UNL A   1      33.178  27.379  26.501  1.00  0.00     0.092 C 
ATOM     19  C   UNL A   1      31.787  27.072  24.550  1.00  0.00     0.207 C 
ATOM     20  C   UNL A   1      32.868  28.695  25.803  1.00  0.00     0.264 C 
ATOM     21  N   UNL A   1      31.602  28.402  25.149  1.00  0.00    -0.331 N 
ATOM     22  C   UNL A   1      30.445  26.554  24.048  1.00  0.00     0.067 C 
ATOM     23  C   UNL A   1      31.217  29.386  24.141  1.00  0.00     0.262 C 
ATOM     24  H   UNL A   1      30.839  28.435  25.824  1.00  0.00     0.348 HD
ATOM     25  C   UNL A   1      29.904  27.523  22.990  1.00  0.00     0.012 C 
ATOM     26  C   UNL A   1      29.887  28.970  23.501  1.00  0.00     0.062 C 
ENDBRANCH  15  17
ENDBRANCH  10  13
ENDBRANCH   4   7
ENDBRANCH   2   3
ENDBRANCH   1   2
BRANCH   1  27
ATOM     27  C   UNL A   1      39.119  20.084  25.749  1.00  0.00     0.118 C 
BRANCH  27  28
ATOM     28  N   UNL A   1      40.160  19.075  25.889  1.00  0.00    -0.352 N 
ATOM     29  C   UNL A   1      41.506  19.203  26.109  1.00  0.00     0.251 C 
ATOM     30  H   UNL A   1      39.844  18.145  25.812  1.00  0.00     0.163 HD
ATOM     31  O   UNL A   1      42.230  18.213  26.020  1.00  0.00    -0.269 OA
BRANCH  29  32
ATOM     32  C   UNL A   1      42.097  20.517  26.429  1.00  0.00     0.039 A 
ATOM     33  C   UNL A   1      42.523  21.333  25.376  1.00  0.00     0.014 A 
ATOM     34  C   UNL A   1      42.259  20.940  27.750  1.00  0.00     0.014 A 
ATOM     35  C   UNL A   1      43.047  22.596  25.649  1.00  0.00     0.010 A 
ATOM     36  C   UNL A   1      42.703  22.232  28.017  1.00  0.00     0.010 A 
ATOM     37  C   UNL A   1      43.104  23.073  26.968  1.00  0.00    -0.014 A 
BRANCH  37  38
ATOM     38  C   UNL A   1      43.568  24.453  27.258  1.00  0.00     0.031 A 
ATOM     39  C   UNL A   1      42.595  25.515  27.689  1.00  0.00     0.074 A 
ATOM     40  C   UNL A   1      44.868  24.762  27.085  1.00  0.00     0.049 A 
ATOM     41  N   UNL A   1      42.814  26.777  27.958  1.00  0.00    -0.248 NA
ATOM     42  C   UNL A   1      41.185  25.113  27.809  1.00  0.00     0.031 C 
ATOM     43  C   UNL A   1      45.902  23.836  26.616  1.00  0.00     0.029 A 
ATOM     44  N   UNL A   1      45.543  25.941  27.278  1.00  0.00    -0.354 N 
ATOM     45  C   UNL A   1      41.575  27.318  28.275  1.00  0.00     0.074 A 
ATOM     46  C   UNL A   1      40.598  26.264  28.101  1.00  0.00     0.031 C 
ATOM     47  C   UNL A   1      47.082  24.474  26.585  1.00  0.00     0.029 A 
ATOM     48  C   UNL A   1      46.885  25.861  26.993  1.00  0.00     0.049 A 
ATOM     49  H   UNL A   1      45.107  26.767  27.591  1.00  0.00     0.167 HD
ATOM     50  C   UNL A   1      41.279  28.569  28.699  1.00  0.00     0.037 A 
ATOM     51  C   UNL A   1      47.847  26.799  27.047  1.00  0.00     0.037 A 
ATOM     52  C   UNL A   1      42.254  29.615  28.878  1.00  0.00     0.049 A 
ATOM     53  C   UNL A   1      47.492  28.185  27.510  1.00  0.00     0.074 A 
ATOM     54  C   UNL A   1      42.063  30.902  29.347  1.00  0.00     0.029 A 
ATOM     55  N   UNL A   1      43.606  29.492  28.589  1.00  0.00    -0.354 N 
ATOM     56  N   UNL A   1      46.328  28.663  27.874  1.00  0.00    -0.248 NA
ATOM     57  C   UNL A   1      48.589  29.160  27.579  1.00  0.00     0.031 C 
ATOM     58  C   UNL A   1      43.289  31.575  29.292  1.00  0.00     0.029 A 
ATOM     59  C   UNL A   1      44.256  30.689  28.846  1.00  0.00     0.049 A 
ATOM     60  H   UNL A   1      44.039  28.675  28.250  1.00  0.00     0.167 HD
ATOM     61  C   UNL A   1      46.555  29.984  28.238  1.00  0.00     0.074 A 
ATOM     62  C   UNL A   1      47.973  30.224  28.071  1.00  0.00     0.031 C 
ATOM     63  C   UNL A   1      45.669  30.916  28.670  1.00  0.00     0.037 A 
BRANCH  50  64
ATOM     64  C   UNL A   1      39.839  28.875  29.001  1.00  0.00     0.057 A 
ATOM     65  C   UNL A   1      38.946  29.289  28.001  1.00  0.00     0.134 A 
ATOM     66  C   UNL A   1      39.329  28.731  30.297  1.00  0.00     0.134 A 
ATOM     67  F   UNL A   1      39.370  29.461  26.740  1.00  0.00    -0.206 F 
ATOM     68  C   UNL A   1      37.610  29.577  28.286  1.00  0.00     0.040 A 
ATOM     69  C   UNL A   1      37.987  28.985  30.588  1.00  0.00     0.040 A 
ATOM     70  F   UNL A   1      40.124  28.332  31.301  1.00  0.00    -0.206 F 
ATOM     71  C   UNL A   1      37.126  29.418  29.583  1.00  0.00     0.006 A 
ENDBRANCH  50  64
BRANCH  51  72
ATOM     72  C   UNL A   1      49.242  26.455  26.670  1.00  0.00     0.057 A 
ATOM     73  C   UNL A   1      49.716  26.672  25.371  1.00  0.00     0.134 A 
ATOM     74  C   UNL A   1      50.132  25.899  27.597  1.00  0.00     0.134 A 
ATOM     75  F   UNL A   1      48.907  27.186  24.433  1.00  0.00    -0.206 F 
ATOM     76  C   UNL A   1      51.018  26.328  25.002  1.00  0.00     0.040 A 
ATOM     77  C   UNL A   1      51.444  25.578  27.249  1.00  0.00     0.040 A 
ATOM     78  F   UNL A   1      49.742  25.678  28.861  1.00  0.00    -0.206 F 
ATOM     79  C   UNL A   1      51.888  25.784  25.944  1.00  0.00     0.006 A 
ENDBRANCH  51  72
BRANCH  63  80
ATOM     80  C   UNL A   1      46.217  32.271  29.017  1.00  0.00     0.057 A 
ATOM     81  C   UNL A   1      46.686  32.575  30.302  1.00  0.00     0.134 A 
ATOM     82  C   UNL A   1      46.293  33.278  28.047  1.00  0.00     0.134 A 
ATOM     83  F   UNL A   1      46.630  31.659  31.280  1.00  0.00    -0.206 F 
ATOM     84  C   UNL A   1      47.178  33.843  30.617  1.00  0.00     0.040 A 
ATOM     85  C   UNL A   1      46.814  34.539  28.341  1.00  0.00     0.040 A 
ATOM     86  F   UNL A   1      45.872  33.052  26.794  1.00  0.00    -0.206 F 
ATOM     87  C   UNL A   1      47.248  34.827  29.633  1.00  0.00     0.006 A 
ENDBRANCH  63  80
ENDBRANCH  37  38
ENDBRANCH  29  32
ENDBRANCH  27  28
ENDBRANCH   1  27
TORSDOF 12
ENDMDL
