MODEL 1
REMARK VINA RESULT:     -10.8      0.000      0.000
REMARK SMILES C[C@@H](SCCC(=O)NCCCNC(=O)c1ccc(-c2c3nc(c(-c4c(F)cccc4F)c4ccc([nH]4)c(-c4c(F)cccc4F)c4nc(c(-c5c(F)cccc5F)c5ccc2[nH]5)C=C4)C=C3)cc1)C(=O)Nc1ccc(C(N)=O)cc1
REMARK SMILES IDX 6 1 7 2 8 3 5 5 4 6 3 7 2 8 1 9 69 10 70 11 71 12 72 14
REMARK SMILES IDX 73 15 80 16 74 17 79 18 75 19 76 20 77 21 78 22 9 25 10 26
REMARK SMILES IDX 11 27 12 28 13 29 14 31 15 32 16 33 68 34 17 35 67 36 18 37
REMARK SMILES IDX 19 38 20 39 61 40 21 41 66 42 60 43 62 44 22 45 65 46 59 47
REMARK SMILES IDX 58 48 23 50 49 51 32 52 48 53 33 54 36 55 47 56 63 57 34 58
REMARK SMILES IDX 35 59 46 61 64 62 37 63 24 64 25 65 30 66 26 67 27 68 29 69
REMARK SMILES IDX 31 70 28 71 50 72 51 73 56 74 52 75 53 76 55 77 57 78 54 79
REMARK SMILES IDX 38 80 39 81 44 82 40 83 41 84 43 85 45 86 42 87
REMARK H PARENT 8 4 71 13 77 23 77 24 12 30 62 49 36 60
REMARK Flexibility Score: inf
ROOT
ATOM      1  C   UNL A   1      33.456  28.581  25.119  1.00  0.00     0.220 C 
ATOM      2  O   UNL A   1      33.877  28.647  23.962  1.00  0.00    -0.275 OA
ATOM      3  N   UNL A   1      32.779  29.658  25.602  1.00  0.00    -0.356 N 
ATOM      4  H   UNL A   1      32.738  30.418  24.977  1.00  0.00     0.163 HD
ENDROOT
BRANCH   1   5
ATOM      5  C   UNL A   1      33.692  27.348  25.961  1.00  0.00     0.111 C 
BRANCH   5   6
ATOM      6  C   UNL A   1      33.949  26.103  25.109  1.00  0.00     0.080 C 
BRANCH   6   7
ATOM      7  S   UNL A   1      33.495  24.509  25.907  1.00  0.00    -0.148 SA
BRANCH   7   8
ATOM      8  C   UNL A   1      33.289  23.424  24.450  1.00  0.00     0.133 C 
ATOM      9  C   UNL A   1      34.150  23.800  23.254  1.00  0.00     0.030 C 
BRANCH   8  10
ATOM     10  C   UNL A   1      31.798  23.119  24.182  1.00  0.00     0.237 C 
ATOM     11  O   UNL A   1      31.186  22.255  24.823  1.00  0.00    -0.273 OA
ATOM     12  N   UNL A   1      31.059  23.780  23.238  1.00  0.00    -0.325 N 
ATOM     13  H   UNL A   1      30.546  23.275  22.566  1.00  0.00     0.169 HD
BRANCH  12  14
ATOM     14  C   UNL A   1      31.038  25.174  23.237  1.00  0.00     0.041 A 
ATOM     15  C   UNL A   1      31.617  25.833  22.152  1.00  0.00     0.027 A 
ATOM     16  C   UNL A   1      30.367  25.868  24.233  1.00  0.00     0.027 A 
ATOM     17  C   UNL A   1      31.404  27.197  21.995  1.00  0.00     0.016 A 
ATOM     18  C   UNL A   1      30.134  27.227  24.066  1.00  0.00     0.016 A 
ATOM     19  C   UNL A   1      30.633  27.890  22.938  1.00  0.00     0.039 A 
BRANCH  19  20
ATOM     20  C   UNL A   1      30.260  29.311  22.748  1.00  0.00     0.248 C 
ATOM     21  N   UNL A   1      30.816  29.964  21.686  1.00  0.00    -0.366 N 
ATOM     22  O   UNL A   1      29.500  29.880  23.517  1.00  0.00    -0.270 OA
ATOM     23  H   UNL A   1      31.428  29.487  21.079  1.00  0.00     0.159 HD
ATOM     24  H   UNL A   1      30.606  30.912  21.527  1.00  0.00     0.159 HD
ENDBRANCH  19  20
ENDBRANCH  12  14
ENDBRANCH   8  10
ENDBRANCH   7   8
ENDBRANCH   6   7
ENDBRANCH   5   6
ENDBRANCH   1   5
BRANCH   3  25
ATOM     25  C   UNL A   1      32.107  29.894  26.867  1.00  0.00     0.117 C 
BRANCH  25  26
ATOM     26  C   UNL A   1      31.281  31.187  26.938  1.00  0.00     0.042 C 
BRANCH  26  27
ATOM     27  C   UNL A   1      31.789  32.387  26.106  1.00  0.00     0.118 C 
BRANCH  27  28
ATOM     28  N   UNL A   1      31.986  33.563  26.939  1.00  0.00    -0.352 N 
ATOM     29  C   UNL A   1      32.861  33.925  27.929  1.00  0.00     0.251 C 
ATOM     30  H   UNL A   1      31.332  34.272  26.743  1.00  0.00     0.163 HD
ATOM     31  O   UNL A   1      32.537  34.917  28.591  1.00  0.00    -0.269 OA
BRANCH  29  32
ATOM     32  C   UNL A   1      34.168  33.284  28.261  1.00  0.00     0.039 A 
ATOM     33  C   UNL A   1      34.096  32.035  28.904  1.00  0.00     0.014 A 
ATOM     34  C   UNL A   1      35.413  33.915  28.204  1.00  0.00     0.014 A 
ATOM     35  C   UNL A   1      35.220  31.446  29.505  1.00  0.00     0.010 A 
ATOM     36  C   UNL A   1      36.558  33.297  28.779  1.00  0.00     0.010 A 
ATOM     37  C   UNL A   1      36.476  32.065  29.457  1.00  0.00    -0.014 A 
BRANCH  37  38
ATOM     38  C   UNL A   1      37.655  31.411  30.129  1.00  0.00     0.031 A 
ATOM     39  C   UNL A   1      37.998  31.678  31.580  1.00  0.00     0.074 A 
ATOM     40  C   UNL A   1      38.414  30.516  29.459  1.00  0.00     0.049 A 
ATOM     41  N   UNL A   1      38.971  31.181  32.310  1.00  0.00    -0.248 NA
ATOM     42  C   UNL A   1      37.138  32.622  32.304  1.00  0.00     0.031 C 
ATOM     43  C   UNL A   1      38.217  30.116  28.068  1.00  0.00     0.029 A 
ATOM     44  N   UNL A   1      39.505  29.774  29.862  1.00  0.00    -0.354 N 
ATOM     45  C   UNL A   1      38.848  31.757  33.571  1.00  0.00     0.074 A 
ATOM     46  C   UNL A   1      37.721  32.666  33.496  1.00  0.00     0.031 C 
ATOM     47  C   UNL A   1      39.141  29.200  27.735  1.00  0.00     0.029 A 
ATOM     48  C   UNL A   1      40.028  28.973  28.874  1.00  0.00     0.049 A 
ATOM     49  H   UNL A   1      39.876  29.816  30.773  1.00  0.00     0.167 HD
ATOM     50  C   UNL A   1      39.589  31.550  34.691  1.00  0.00     0.037 A 
ATOM     51  C   UNL A   1      41.104  28.157  28.863  1.00  0.00     0.037 A 
ATOM     52  C   UNL A   1      40.704  30.637  34.797  1.00  0.00     0.049 A 
ATOM     53  C   UNL A   1      41.943  27.983  30.102  1.00  0.00     0.074 A 
ATOM     54  C   UNL A   1      41.473  30.346  35.915  1.00  0.00     0.029 A 
ATOM     55  N   UNL A   1      41.217  29.878  33.759  1.00  0.00    -0.354 N 
ATOM     56  N   UNL A   1      41.784  28.512  31.290  1.00  0.00    -0.248 NA
ATOM     57  C   UNL A   1      43.110  27.093  29.998  1.00  0.00     0.031 C 
ATOM     58  C   UNL A   1      42.488  29.461  35.538  1.00  0.00     0.029 A 
ATOM     59  C   UNL A   1      42.312  29.147  34.202  1.00  0.00     0.049 A 
ATOM     60  H   UNL A   1      40.859  29.860  32.843  1.00  0.00     0.167 HD
ATOM     61  C   UNL A   1      42.809  27.997  32.077  1.00  0.00     0.074 A 
ATOM     62  C   UNL A   1      43.576  27.102  31.238  1.00  0.00     0.031 C 
ATOM     63  C   UNL A   1      43.083  28.249  33.380  1.00  0.00     0.037 A 
BRANCH  50  64
ATOM     64  C   UNL A   1      39.236  32.341  35.923  1.00  0.00     0.057 A 
ATOM     65  C   UNL A   1      38.371  31.841  36.904  1.00  0.00     0.134 A 
ATOM     66  C   UNL A   1      39.836  33.584  36.168  1.00  0.00     0.134 A 
ATOM     67  F   UNL A   1      37.764  30.656  36.736  1.00  0.00    -0.206 F 
ATOM     68  C   UNL A   1      38.096  32.559  38.071  1.00  0.00     0.040 A 
ATOM     69  C   UNL A   1      39.592  34.297  37.344  1.00  0.00     0.040 A 
ATOM     70  F   UNL A   1      40.692  34.114  35.281  1.00  0.00    -0.206 F 
ATOM     71  C   UNL A   1      38.714  33.787  38.297  1.00  0.00     0.006 A 
ENDBRANCH  50  64
BRANCH  51  72
ATOM     72  C   UNL A   1      41.472  27.438  27.613  1.00  0.00     0.057 A 
ATOM     73  C   UNL A   1      42.253  28.046  26.624  1.00  0.00     0.134 A 
ATOM     74  C   UNL A   1      41.022  26.135  27.367  1.00  0.00     0.134 A 
ATOM     75  F   UNL A   1      42.691  29.304  26.786  1.00  0.00    -0.206 F 
ATOM     76  C   UNL A   1      42.558  27.393  25.427  1.00  0.00     0.040 A 
ATOM     77  C   UNL A   1      41.343  25.459  26.189  1.00  0.00     0.040 A 
ATOM     78  F   UNL A   1      40.271  25.493  28.275  1.00  0.00    -0.206 F 
ATOM     79  C   UNL A   1      42.108  26.092  25.211  1.00  0.00     0.006 A 
ENDBRANCH  51  72
BRANCH  63  80
ATOM     80  C   UNL A   1      44.243  27.521  34.007  1.00  0.00     0.057 A 
ATOM     81  C   UNL A   1      44.107  26.243  34.565  1.00  0.00     0.134 A 
ATOM     82  C   UNL A   1      45.523  28.094  34.021  1.00  0.00     0.134 A 
ATOM     83  F   UNL A   1      42.910  25.638  34.598  1.00  0.00    -0.206 F 
ATOM     84  C   UNL A   1      45.193  25.574  35.137  1.00  0.00     0.040 A 
ATOM     85  C   UNL A   1      46.621  27.423  34.563  1.00  0.00     0.040 A 
ATOM     86  F   UNL A   1      45.730  29.311  33.497  1.00  0.00    -0.206 F 
ATOM     87  C   UNL A   1      46.457  26.162  35.130  1.00  0.00     0.006 A 
ENDBRANCH  63  80
ENDBRANCH  37  38
ENDBRANCH  29  32
ENDBRANCH  27  28
ENDBRANCH  26  27
ENDBRANCH  25  26
ENDBRANCH   3  25
TORSDOF 16
ENDMDL
MODEL 2
REMARK VINA RESULT:     -10.6      1.154      6.481
REMARK SMILES C[C@@H](SCCC(=O)NCCCNC(=O)c1ccc(-c2c3nc(c(-c4c(F)cccc4F)c4ccc([nH]4)c(-c4c(F)cccc4F)c4nc(c(-c5c(F)cccc5F)c5ccc2[nH]5)C=C4)C=C3)cc1)C(=O)Nc1ccc(C(N)=O)cc1
REMARK SMILES IDX 6 1 7 2 8 3 5 5 4 6 3 7 2 8 1 9 69 10 70 11 71 12 72 14
REMARK SMILES IDX 73 15 80 16 74 17 79 18 75 19 76 20 77 21 78 22 9 25 10 26
REMARK SMILES IDX 11 27 12 28 13 29 14 31 15 32 16 33 68 34 17 35 67 36 18 37
REMARK SMILES IDX 19 38 20 39 61 40 21 41 66 42 60 43 62 44 22 45 65 46 59 47
REMARK SMILES IDX 58 48 23 50 49 51 32 52 48 53 33 54 36 55 47 56 63 57 34 58
REMARK SMILES IDX 35 59 46 61 64 62 37 63 24 64 25 65 30 66 26 67 27 68 29 69
REMARK SMILES IDX 31 70 28 71 50 72 51 73 56 74 52 75 53 76 55 77 57 78 54 79
REMARK SMILES IDX 38 80 39 81 44 82 40 83 41 84 43 85 45 86 42 87
REMARK H PARENT 8 4 71 13 77 23 77 24 12 30 62 49 36 60
REMARK Flexibility Score: inf
ROOT
ATOM      1  C   UNL A   1      33.813  28.133  23.071  1.00  0.00     0.220 C 
ATOM      2  O   UNL A   1      34.347  28.257  21.967  1.00  0.00    -0.275 OA
ATOM      3  N   UNL A   1      33.790  29.224  23.883  1.00  0.00    -0.356 N 
ATOM      4  H   UNL A   1      34.260  30.007  23.515  1.00  0.00     0.163 HD
ENDROOT
BRANCH   1   5
ATOM      5  C   UNL A   1      33.211  26.813  23.497  1.00  0.00     0.111 C 
BRANCH   5   6
ATOM      6  C   UNL A   1      34.062  26.099  24.549  1.00  0.00     0.080 C 
BRANCH   6   7
ATOM      7  S   UNL A   1      33.108  25.227  25.858  1.00  0.00    -0.148 SA
BRANCH   7   8
ATOM      8  C   UNL A   1      31.568  26.212  25.896  1.00  0.00     0.133 C 
ATOM      9  C   UNL A   1      31.483  27.210  27.040  1.00  0.00     0.030 C 
BRANCH   8  10
ATOM     10  C   UNL A   1      30.328  25.329  25.632  1.00  0.00     0.237 C 
ATOM     11  O   UNL A   1      29.806  24.656  26.530  1.00  0.00    -0.273 OA
ATOM     12  N   UNL A   1      29.724  25.239  24.407  1.00  0.00    -0.325 N 
ATOM     13  H   UNL A   1      29.551  24.357  24.002  1.00  0.00     0.169 HD
BRANCH  12  14
ATOM     14  C   UNL A   1      29.354  26.404  23.738  1.00  0.00     0.041 A 
ATOM     15  C   UNL A   1      28.046  26.862  23.900  1.00  0.00     0.027 A 
ATOM     16  C   UNL A   1      30.294  27.133  23.024  1.00  0.00     0.027 A 
ATOM     17  C   UNL A   1      27.712  28.134  23.451  1.00  0.00     0.016 A 
ATOM     18  C   UNL A   1      29.968  28.414  22.596  1.00  0.00     0.016 A 
ATOM     19  C   UNL A   1      28.685  28.925  22.827  1.00  0.00     0.039 A 
BRANCH  19  20
ATOM     20  C   UNL A   1      28.424  30.334  22.455  1.00  0.00     0.248 C 
ATOM     21  N   UNL A   1      29.475  31.053  21.964  1.00  0.00    -0.366 N 
ATOM     22  O   UNL A   1      27.319  30.837  22.593  1.00  0.00    -0.270 OA
ATOM     23  H   UNL A   1      30.358  30.628  21.861  1.00  0.00     0.159 HD
ATOM     24  H   UNL A   1      29.352  31.997  21.714  1.00  0.00     0.159 HD
ENDBRANCH  19  20
ENDBRANCH  12  14
ENDBRANCH   8  10
ENDBRANCH   7   8
ENDBRANCH   6   7
ENDBRANCH   5   6
ENDBRANCH   1   5
BRANCH   3  25
ATOM     25  C   UNL A   1      33.202  29.448  25.192  1.00  0.00     0.117 C 
BRANCH  25  26
ATOM     26  C   UNL A   1      31.975  30.371  25.209  1.00  0.00     0.042 C 
BRANCH  26  27
ATOM     27  C   UNL A   1      31.466  30.831  26.595  1.00  0.00     0.118 C 
BRANCH  27  28
ATOM     28  N   UNL A   1      31.678  32.257  26.788  1.00  0.00    -0.352 N 
ATOM     29  C   UNL A   1      32.621  33.030  27.411  1.00  0.00     0.251 C 
ATOM     30  H   UNL A   1      30.971  32.799  26.368  1.00  0.00     0.163 HD
ATOM     31  O   UNL A   1      32.308  34.213  27.591  1.00  0.00    -0.269 OA
BRANCH  29  32
ATOM     32  C   UNL A   1      33.986  32.615  27.851  1.00  0.00     0.039 A 
ATOM     33  C   UNL A   1      34.129  31.267  28.224  1.00  0.00     0.014 A 
ATOM     34  C   UNL A   1      35.040  33.485  28.142  1.00  0.00     0.014 A 
ATOM     35  C   UNL A   1      35.270  30.802  28.898  1.00  0.00     0.010 A 
ATOM     36  C   UNL A   1      36.211  33.004  28.790  1.00  0.00     0.010 A 
ATOM     37  C   UNL A   1      36.336  31.662  29.198  1.00  0.00    -0.014 A 
BRANCH  37  38
ATOM     38  C   UNL A   1      37.534  31.131  29.940  1.00  0.00     0.031 A 
ATOM     39  C   UNL A   1      38.557  30.237  29.272  1.00  0.00     0.074 A 
ATOM     40  C   UNL A   1      37.757  31.489  31.224  1.00  0.00     0.049 A 
ATOM     41  N   UNL A   1      39.654  29.709  29.769  1.00  0.00    -0.248 NA
ATOM     42  C   UNL A   1      38.320  29.891  27.865  1.00  0.00     0.031 C 
ATOM     43  C   UNL A   1      36.895  32.362  32.018  1.00  0.00     0.029 A 
ATOM     44  N   UNL A   1      38.783  31.166  32.088  1.00  0.00    -0.354 N 
ATOM     45  C   UNL A   1      40.229  28.964  28.745  1.00  0.00     0.074 A 
ATOM     46  C   UNL A   1      39.342  29.083  27.605  1.00  0.00     0.031 C 
ATOM     47  C   UNL A   1      37.428  32.515  33.242  1.00  0.00     0.029 A 
ATOM     48  C   UNL A   1      38.649  31.718  33.341  1.00  0.00     0.049 A 
ATOM     49  H   UNL A   1      39.540  30.592  31.832  1.00  0.00     0.167 HD
ATOM     50  C   UNL A   1      41.388  28.254  28.740  1.00  0.00     0.037 A 
ATOM     51  C   UNL A   1      39.402  31.596  34.454  1.00  0.00     0.037 A 
ATOM     52  C   UNL A   1      42.298  28.134  29.856  1.00  0.00     0.049 A 
ATOM     53  C   UNL A   1      40.655  30.760  34.441  1.00  0.00     0.074 A 
ATOM     54  C   UNL A   1      43.513  27.464  29.906  1.00  0.00     0.029 A 
ATOM     55  N   UNL A   1      42.099  28.680  31.112  1.00  0.00    -0.354 N 
ATOM     56  N   UNL A   1      41.196  30.095  33.450  1.00  0.00    -0.248 NA
ATOM     57  C   UNL A   1      41.406  30.663  35.703  1.00  0.00     0.031 C 
ATOM     58  C   UNL A   1      44.016  27.552  31.208  1.00  0.00     0.029 A 
ATOM     59  C   UNL A   1      43.149  28.333  31.953  1.00  0.00     0.049 A 
ATOM     60  H   UNL A   1      41.326  29.232  31.372  1.00  0.00     0.167 HD
ATOM     61  C   UNL A   1      42.359  29.527  33.961  1.00  0.00     0.074 A 
ATOM     62  C   UNL A   1      42.456  29.938  35.344  1.00  0.00     0.031 C 
ATOM     63  C   UNL A   1      43.262  28.738  33.331  1.00  0.00     0.037 A 
BRANCH  50  64
ATOM     64  C   UNL A   1      41.754  27.517  27.479  1.00  0.00     0.057 A 
ATOM     65  C   UNL A   1      42.487  28.123  26.450  1.00  0.00     0.134 A 
ATOM     66  C   UNL A   1      41.440  26.159  27.330  1.00  0.00     0.134 A 
ATOM     67  F   UNL A   1      42.825  29.420  26.529  1.00  0.00    -0.206 F 
ATOM     68  C   UNL A   1      42.873  27.413  25.310  1.00  0.00     0.040 A 
ATOM     69  C   UNL A   1      41.845  25.431  26.208  1.00  0.00     0.040 A 
ATOM     70  F   UNL A   1      40.759  25.508  28.285  1.00  0.00    -0.206 F 
ATOM     71  C   UNL A   1      42.559  26.061  25.191  1.00  0.00     0.006 A 
ENDBRANCH  50  64
BRANCH  51  72
ATOM     72  C   UNL A   1      38.982  32.280  35.708  1.00  0.00     0.057 A 
ATOM     73  C   UNL A   1      38.234  31.615  36.687  1.00  0.00     0.134 A 
ATOM     74  C   UNL A   1      39.294  33.625  35.939  1.00  0.00     0.134 A 
ATOM     75  F   UNL A   1      37.878  30.334  36.511  1.00  0.00    -0.206 F 
ATOM     76  C   UNL A   1      37.795  32.268  37.841  1.00  0.00     0.040 A 
ATOM     77  C   UNL A   1      38.887  34.282  37.101  1.00  0.00     0.040 A 
ATOM     78  F   UNL A   1      40.010  34.321  35.043  1.00  0.00    -0.206 F 
ATOM     79  C   UNL A   1      38.128  33.604  38.054  1.00  0.00     0.006 A 
ENDBRANCH  51  72
BRANCH  63  80
ATOM     80  C   UNL A   1      44.466  28.286  34.114  1.00  0.00     0.057 A 
ATOM     81  C   UNL A   1      45.637  29.052  34.191  1.00  0.00     0.134 A 
ATOM     82  C   UNL A   1      44.441  27.080  34.830  1.00  0.00     0.134 A 
ATOM     83  F   UNL A   1      45.737  30.211  33.522  1.00  0.00    -0.206 F 
ATOM     84  C   UNL A   1      46.744  28.625  34.928  1.00  0.00     0.040 A 
ATOM     85  C   UNL A   1      45.531  26.657  35.594  1.00  0.00     0.040 A 
ATOM     86  F   UNL A   1      43.352  26.298  34.810  1.00  0.00    -0.206 F 
ATOM     87  C   UNL A   1      46.690  27.428  35.639  1.00  0.00     0.006 A 
ENDBRANCH  63  80
ENDBRANCH  37  38
ENDBRANCH  29  32
ENDBRANCH  27  28
ENDBRANCH  26  27
ENDBRANCH  25  26
ENDBRANCH   3  25
TORSDOF 16
ENDMDL
MODEL 3
REMARK VINA RESULT:     -10.6      4.377      7.888
REMARK SMILES C[C@@H](SCCC(=O)NCCCNC(=O)c1ccc(-c2c3nc(c(-c4c(F)cccc4F)c4ccc([nH]4)c(-c4c(F)cccc4F)c4nc(c(-c5c(F)cccc5F)c5ccc2[nH]5)C=C4)C=C3)cc1)C(=O)Nc1ccc(C(N)=O)cc1
REMARK SMILES IDX 6 1 7 2 8 3 5 5 4 6 3 7 2 8 1 9 69 10 70 11 71 12 72 14
REMARK SMILES IDX 73 15 80 16 74 17 79 18 75 19 76 20 77 21 78 22 9 25 10 26
REMARK SMILES IDX 11 27 12 28 13 29 14 31 15 32 16 33 68 34 17 35 67 36 18 37
REMARK SMILES IDX 19 38 20 39 61 40 21 41 66 42 60 43 62 44 22 45 65 46 59 47
REMARK SMILES IDX 58 48 23 50 49 51 32 52 48 53 33 54 36 55 47 56 63 57 34 58
REMARK SMILES IDX 35 59 46 61 64 62 37 63 24 64 25 65 30 66 26 67 27 68 29 69
REMARK SMILES IDX 31 70 28 71 50 72 51 73 56 74 52 75 53 76 55 77 57 78 54 79
REMARK SMILES IDX 38 80 39 81 44 82 40 83 41 84 43 85 45 86 42 87
REMARK H PARENT 8 4 71 13 77 23 77 24 12 30 62 49 36 60
REMARK Flexibility Score: inf
ROOT
ATOM      1  C   UNL A   1      33.716  28.433  24.657  1.00  0.00     0.220 C 
ATOM      2  O   UNL A   1      34.104  28.337  23.490  1.00  0.00    -0.275 OA
ATOM      3  N   UNL A   1      33.590  29.685  25.174  1.00  0.00    -0.356 N 
ATOM      4  H   UNL A   1      33.877  30.402  24.564  1.00  0.00     0.163 HD
ENDROOT
BRANCH   1   5
ATOM      5  C   UNL A   1      33.397  27.200  25.471  1.00  0.00     0.111 C 
BRANCH   5   6
ATOM      6  C   UNL A   1      34.008  25.933  24.871  1.00  0.00     0.080 C 
BRANCH   6   7
ATOM      7  S   UNL A   1      33.702  24.393  25.830  1.00  0.00    -0.148 SA
BRANCH   7   8
ATOM      8  C   UNL A   1      33.219  23.233  24.503  1.00  0.00     0.133 C 
ATOM      9  C   UNL A   1      33.884  23.494  23.161  1.00  0.00     0.030 C 
BRANCH   8  10
ATOM     10  C   UNL A   1      31.695  22.981  24.502  1.00  0.00     0.237 C 
ATOM     11  O   UNL A   1      31.162  22.218  25.317  1.00  0.00    -0.273 OA
ATOM     12  N   UNL A   1      30.840  23.583  23.619  1.00  0.00    -0.325 N 
ATOM     13  H   UNL A   1      30.209  23.042  23.091  1.00  0.00     0.169 HD
BRANCH  12  14
ATOM     14  C   UNL A   1      30.870  24.969  23.472  1.00  0.00     0.041 A 
ATOM     15  C   UNL A   1      31.493  25.492  22.339  1.00  0.00     0.027 A 
ATOM     16  C   UNL A   1      30.205  25.786  24.376  1.00  0.00     0.027 A 
ATOM     17  C   UNL A   1      31.333  26.839  22.037  1.00  0.00     0.016 A 
ATOM     18  C   UNL A   1      30.025  27.127  24.064  1.00  0.00     0.016 A 
ATOM     19  C   UNL A   1      30.570  27.652  22.885  1.00  0.00     0.039 A 
BRANCH  19  20
ATOM     20  C   UNL A   1      30.253  29.057  22.541  1.00  0.00     0.248 C 
ATOM     21  N   UNL A   1      31.168  29.736  21.789  1.00  0.00    -0.366 N 
ATOM     22  O   UNL A   1      29.223  29.592  22.925  1.00  0.00    -0.270 OA
ATOM     23  H   UNL A   1      31.991  29.286  21.491  1.00  0.00     0.159 HD
ATOM     24  H   UNL A   1      31.005  30.675  21.546  1.00  0.00     0.159 HD
ENDBRANCH  19  20
ENDBRANCH  12  14
ENDBRANCH   8  10
ENDBRANCH   7   8
ENDBRANCH   6   7
ENDBRANCH   5   6
ENDBRANCH   1   5
BRANCH   3  25
ATOM     25  C   UNL A   1      33.110  30.159  26.460  1.00  0.00     0.117 C 
BRANCH  25  26
ATOM     26  C   UNL A   1      34.136  30.107  27.601  1.00  0.00     0.042 C 
BRANCH  26  27
ATOM     27  C   UNL A   1      34.786  31.447  28.019  1.00  0.00     0.118 C 
BRANCH  27  28
ATOM     28  N   UNL A   1      35.184  31.429  29.417  1.00  0.00    -0.352 N 
ATOM     29  C   UNL A   1      36.144  30.786  30.152  1.00  0.00     0.251 C 
ATOM     30  H   UNL A   1      34.628  32.024  29.970  1.00  0.00     0.163 HD
ATOM     31  O   UNL A   1      35.993  30.826  31.379  1.00  0.00    -0.269 OA
BRANCH  29  32
ATOM     32  C   UNL A   1      37.361  30.089  29.641  1.00  0.00     0.039 A 
ATOM     33  C   UNL A   1      38.284  29.666  30.615  1.00  0.00     0.014 A 
ATOM     34  C   UNL A   1      37.760  30.039  28.302  1.00  0.00     0.014 A 
ATOM     35  C   UNL A   1      39.577  29.239  30.273  1.00  0.00     0.010 A 
ATOM     36  C   UNL A   1      39.057  29.570  27.957  1.00  0.00     0.010 A 
ATOM     37  C   UNL A   1      39.993  29.183  28.936  1.00  0.00    -0.014 A 
BRANCH  37  38
ATOM     38  C   UNL A   1      41.395  28.738  28.611  1.00  0.00     0.031 A 
ATOM     39  C   UNL A   1      41.713  27.307  28.233  1.00  0.00     0.074 A 
ATOM     40  C   UNL A   1      42.410  29.632  28.595  1.00  0.00     0.049 A 
ATOM     41  N   UNL A   1      42.867  26.768  27.909  1.00  0.00    -0.248 NA
ATOM     42  C   UNL A   1      40.592  26.359  28.216  1.00  0.00     0.031 C 
ATOM     43  C   UNL A   1      42.286  31.054  28.905  1.00  0.00     0.029 A 
ATOM     44  N   UNL A   1      43.748  29.475  28.301  1.00  0.00    -0.354 N 
ATOM     45  C   UNL A   1      42.615  25.422  27.661  1.00  0.00     0.074 A 
ATOM     46  C   UNL A   1      41.200  25.221  27.902  1.00  0.00     0.031 C 
ATOM     47  C   UNL A   1      43.487  31.641  28.775  1.00  0.00     0.029 A 
ATOM     48  C   UNL A   1      44.482  30.633  28.414  1.00  0.00     0.049 A 
ATOM     49  H   UNL A   1      44.142  28.613  28.035  1.00  0.00     0.167 HD
ATOM     50  C   UNL A   1      43.468  24.443  27.261  1.00  0.00     0.037 A 
ATOM     51  C   UNL A   1      45.802  30.871  28.264  1.00  0.00     0.037 A 
ATOM     52  C   UNL A   1      44.878  24.621  26.996  1.00  0.00     0.049 A 
ATOM     53  C   UNL A   1      46.738  29.759  27.872  1.00  0.00     0.074 A 
ATOM     54  C   UNL A   1      45.793  23.680  26.547  1.00  0.00     0.029 A 
ATOM     55  N   UNL A   1      45.579  25.803  27.162  1.00  0.00    -0.354 N 
ATOM     56  N   UNL A   1      46.469  28.504  27.609  1.00  0.00    -0.248 NA
ATOM     57  C   UNL A   1      48.165  30.099  27.751  1.00  0.00     0.031 C 
ATOM     58  C   UNL A   1      47.057  24.276  26.501  1.00  0.00     0.029 A 
ATOM     59  C   UNL A   1      46.920  25.607  26.858  1.00  0.00     0.049 A 
ATOM     60  H   UNL A   1      45.185  26.657  27.454  1.00  0.00     0.167 HD
ATOM     61  C   UNL A   1      47.683  27.916  27.265  1.00  0.00     0.074 A 
ATOM     62  C   UNL A   1      48.688  28.954  27.337  1.00  0.00     0.031 C 
ATOM     63  C   UNL A   1      47.932  26.630  26.921  1.00  0.00     0.037 A 
BRANCH  50  64
ATOM     64  C   UNL A   1      42.913  23.054  27.091  1.00  0.00     0.057 A 
ATOM     65  C   UNL A   1      42.616  22.233  28.186  1.00  0.00     0.134 A 
ATOM     66  C   UNL A   1      42.594  22.565  25.816  1.00  0.00     0.134 A 
ATOM     67  F   UNL A   1      42.891  22.640  29.435  1.00  0.00    -0.206 F 
ATOM     68  C   UNL A   1      42.046  20.968  28.019  1.00  0.00     0.040 A 
ATOM     69  C   UNL A   1      41.997  21.314  25.638  1.00  0.00     0.040 A 
ATOM     70  F   UNL A   1      42.831  23.305  24.723  1.00  0.00    -0.206 F 
ATOM     71  C   UNL A   1      41.727  20.509  26.742  1.00  0.00     0.006 A 
ENDBRANCH  50  64
BRANCH  51  72
ATOM     72  C   UNL A   1      46.337  32.239  28.503  1.00  0.00     0.057 A 
ATOM     73  C   UNL A   1      46.460  33.167  27.463  1.00  0.00     0.134 A 
ATOM     74  C   UNL A   1      46.768  32.637  29.775  1.00  0.00     0.134 A 
ATOM     75  F   UNL A   1      46.092  32.837  26.216  1.00  0.00    -0.206 F 
ATOM     76  C   UNL A   1      47.008  34.434  27.673  1.00  0.00     0.040 A 
ATOM     77  C   UNL A   1      47.291  33.910  30.005  1.00  0.00     0.040 A 
ATOM     78  F   UNL A   1      46.677  31.797  30.817  1.00  0.00    -0.206 F 
ATOM     79  C   UNL A   1      47.420  34.811  28.950  1.00  0.00     0.006 A 
ENDBRANCH  51  72
BRANCH  63  80
ATOM     80  C   UNL A   1      49.346  26.263  26.554  1.00  0.00     0.057 A 
ATOM     81  C   UNL A   1      49.889  26.553  25.295  1.00  0.00     0.134 A 
ATOM     82  C   UNL A   1      50.187  25.640  27.487  1.00  0.00     0.134 A 
ATOM     83  F   UNL A   1      49.139  27.138  24.349  1.00  0.00    -0.206 F 
ATOM     84  C   UNL A   1      51.205  26.215  24.970  1.00  0.00     0.040 A 
ATOM     85  C   UNL A   1      51.513  25.324  27.184  1.00  0.00     0.040 A 
ATOM     86  F   UNL A   1      49.739  25.339  28.714  1.00  0.00    -0.206 F 
ATOM     87  C   UNL A   1      52.024  25.605  25.919  1.00  0.00     0.006 A 
ENDBRANCH  63  80
ENDBRANCH  37  38
ENDBRANCH  29  32
ENDBRANCH  27  28
ENDBRANCH  26  27
ENDBRANCH  25  26
ENDBRANCH   3  25
TORSDOF 16
ENDMDL
