MODEL 1
REMARK VINA RESULT:     -13.6      0.000      0.000
REMARK SMILES O=C(NCCCNC(=O)c1ccc(-c2c3nc(c(-c4c(F)cccc4F)c4ccc([nH]4)c(-c4c(F)cccc4F)c4nc(c(-c5c(F)cccc5F)c5ccc2[nH]5)C=C4)C=C3)cc1)C1=Cc2cc(S(F)(F)(F)(F)F)cc(Br)c2O[C@@H]1C(F)(F)F
REMARK SMILES IDX 5 1 4 2 3 3 1 4 2 5 64 7 65 8 80 9 66 10 79 11 67 12 78 13
REMARK SMILES IDX 68 14 76 15 75 16 77 17 81 18 82 19 83 20 84 21 69 22 70 23
REMARK SMILES IDX 71 24 72 25 73 26 74 27 6 28 7 29 8 30 9 32 10 33 11 34
REMARK SMILES IDX 63 35 12 36 62 37 13 38 14 39 15 40 56 41 16 42 61 43 55 44
REMARK SMILES IDX 57 45 17 46 60 47 54 48 53 49 18 51 44 52 27 53 43 54 28 55
REMARK SMILES IDX 31 56 42 57 58 58 29 59 30 60 41 62 59 63 32 64 19 65 20 66
REMARK SMILES IDX 25 67 21 68 22 69 24 70 26 71 23 72 45 73 46 74 51 75 47 76
REMARK SMILES IDX 48 77 50 78 52 79 49 80 33 81 34 82 39 83 35 84 36 85 38 86
REMARK SMILES IDX 40 87 37 88
REMARK H PARENT 3 6 7 31 57 50 31 61
REMARK Flexibility Score: inf
ROOT
ATOM      1  C   UNL A   1      38.331  22.663  26.127  1.00  0.00     0.042 C 
ENDROOT
BRANCH   1   2
ATOM      2  C   UNL A   1      37.301  23.728  25.785  1.00  0.00     0.118 C 
BRANCH   2   3
ATOM      3  N   UNL A   1      37.032  23.704  24.340  1.00  0.00    -0.352 N 
ATOM      4  O   UNL A   1      35.646  22.933  22.571  1.00  0.00    -0.270 OA
ATOM      5  C   UNL A   1      35.879  22.955  23.820  1.00  0.00     0.251 C 
ATOM      6  H   UNL A   1      37.624  24.189  23.720  1.00  0.00     0.163 HD
BRANCH   5   7
ATOM      7  C   UNL A   1      34.965  22.207  24.777  1.00  0.00     0.067 C 
ATOM      8  C   UNL A   1      33.965  22.868  25.420  1.00  0.00     0.025 C 
ATOM      9  C   UNL A   1      35.168  20.720  25.016  1.00  0.00     0.314 C 
ATOM     10  C   UNL A   1      33.762  24.356  25.181  1.00  0.00     0.020 A 
ATOM     11  O   UNL A   1      34.279  23.884  22.909  1.00  0.00    -0.474 OA
ATOM     12  C   UNL A   1      33.457  25.231  26.210  1.00  0.00     0.036 A 
ATOM     13  C   UNL A   1      33.808  24.765  23.918  1.00  0.00     0.142 A 
ATOM     14  C   UNL A   1      32.929  26.469  25.772  1.00  0.00     0.109 A 
ATOM     15  C   UNL A   1      33.405  26.035  23.580  1.00  0.00     0.062 A 
ATOM     16  C   UNL A   1      33.033  26.934  24.540  1.00  0.00     0.044 A 
ATOM     17  Br  UNL A   1      33.360  26.563  21.693  1.00  0.00    -0.047 Br
BRANCH   9  18
ATOM     18  C   UNL A   1      33.911  19.965  24.614  1.00  0.00     0.429 C 
ATOM     19  F   UNL A   1      34.247  18.776  24.121  1.00  0.00    -0.167 F 
ATOM     20  F   UNL A   1      33.133  19.800  25.680  1.00  0.00    -0.167 F 
ATOM     21  F   UNL A   1      33.254  20.658  23.688  1.00  0.00    -0.167 F 
ENDBRANCH   9  18
BRANCH  14  22
ATOM     22  S   UNL A   1      32.049  27.484  26.984  1.00  0.00     0.310 S 
ATOM     23  F   UNL A   1      31.739  28.614  25.914  1.00  0.00    -0.094 F 
ATOM     24  F   UNL A   1      33.399  28.238  27.286  1.00  0.00    -0.094 F 
ATOM     25  F   UNL A   1      31.297  28.356  28.031  1.00  0.00    -0.094 F 
ATOM     26  F   UNL A   1      30.679  26.816  26.569  1.00  0.00    -0.094 F 
ATOM     27  F   UNL A   1      32.776  26.671  25.840  1.00  0.00    -0.094 F 
ENDBRANCH  14  22
ENDBRANCH   5   7
ENDBRANCH   2   3
ENDBRANCH   1   2
BRANCH   1  28
ATOM     28  C   UNL A   1      39.470  23.293  26.913  1.00  0.00     0.118 C 
BRANCH  28  29
ATOM     29  N   UNL A   1      40.646  23.434  26.042  1.00  0.00    -0.352 N 
ATOM     30  C   UNL A   1      41.512  24.615  26.163  1.00  0.00     0.251 C 
ATOM     31  H   UNL A   1      40.853  22.738  25.377  1.00  0.00     0.163 HD
ATOM     32  O   UNL A   1      42.530  24.738  25.410  1.00  0.00    -0.269 OA
BRANCH  30  33
ATOM     33  C   UNL A   1      41.193  25.690  27.189  1.00  0.00     0.039 A 
ATOM     34  C   UNL A   1      40.379  25.479  28.290  1.00  0.00     0.014 A 
ATOM     35  C   UNL A   1      41.863  26.826  27.036  1.00  0.00     0.014 A 
ATOM     36  C   UNL A   1      40.109  26.650  29.037  1.00  0.00     0.010 A 
ATOM     37  C   UNL A   1      41.648  27.885  27.886  1.00  0.00     0.010 A 
ATOM     38  C   UNL A   1      40.812  27.765  28.961  1.00  0.00    -0.014 A 
BRANCH  38  39
ATOM     39  C   UNL A   1      40.697  28.858  30.011  1.00  0.00     0.031 A 
ATOM     40  C   UNL A   1      41.559  28.752  31.104  1.00  0.00     0.074 A 
ATOM     41  C   UNL A   1      39.680  29.792  29.915  1.00  0.00     0.049 A 
ATOM     42  N   UNL A   1      41.586  29.518  32.195  1.00  0.00    -0.248 NA
ATOM     43  C   UNL A   1      42.617  27.738  31.223  1.00  0.00     0.031 C 
ATOM     44  C   UNL A   1      38.812  29.912  28.812  1.00  0.00     0.029 A 
ATOM     45  N   UNL A   1      39.326  30.753  30.836  1.00  0.00    -0.354 N 
ATOM     46  C   UNL A   1      42.566  29.122  33.012  1.00  0.00     0.074 A 
ATOM     47  C   UNL A   1      43.238  27.967  32.401  1.00  0.00     0.031 C 
ATOM     48  C   UNL A   1      37.939  30.921  29.070  1.00  0.00     0.029 A 
ATOM     49  C   UNL A   1      38.248  31.451  30.337  1.00  0.00     0.049 A 
ATOM     50  H   UNL A   1      39.766  30.913  31.702  1.00  0.00     0.167 HD
ATOM     51  C   UNL A   1      42.924  29.679  34.240  1.00  0.00     0.037 A 
ATOM     52  C   UNL A   1      37.558  32.491  30.938  1.00  0.00     0.037 A 
ATOM     53  C   UNL A   1      42.261  30.748  34.822  1.00  0.00     0.049 A 
ATOM     54  C   UNL A   1      37.880  33.011  32.194  1.00  0.00     0.074 A 
ATOM     55  C   UNL A   1      42.615  31.326  36.056  1.00  0.00     0.029 A 
ATOM     56  N   UNL A   1      41.168  31.429  34.334  1.00  0.00    -0.354 N 
ATOM     57  N   UNL A   1      38.883  32.640  32.993  1.00  0.00    -0.248 NA
ATOM     58  C   UNL A   1      37.136  34.091  32.856  1.00  0.00     0.031 C 
ATOM     59  C   UNL A   1      41.741  32.336  36.314  1.00  0.00     0.029 A 
ATOM     60  C   UNL A   1      40.828  32.404  35.245  1.00  0.00     0.049 A 
ATOM     61  H   UNL A   1      40.709  31.250  33.482  1.00  0.00     0.167 HD
ATOM     62  C   UNL A   1      38.884  33.380  34.103  1.00  0.00     0.074 A 
ATOM     63  C   UNL A   1      37.756  34.319  34.034  1.00  0.00     0.031 C 
ATOM     64  C   UNL A   1      39.783  33.312  35.169  1.00  0.00     0.037 A 
BRANCH  51  65
ATOM     65  C   UNL A   1      44.108  29.079  34.982  1.00  0.00     0.057 A 
ATOM     66  C   UNL A   1      45.363  29.560  34.648  1.00  0.00     0.134 A 
ATOM     67  C   UNL A   1      43.959  28.085  35.849  1.00  0.00     0.134 A 
ATOM     68  F   UNL A   1      45.552  30.701  33.991  1.00  0.00    -0.206 F 
ATOM     69  C   UNL A   1      46.427  28.727  35.068  1.00  0.00     0.040 A 
ATOM     70  C   UNL A   1      45.053  27.403  36.324  1.00  0.00     0.040 A 
ATOM     71  F   UNL A   1      42.741  27.748  36.262  1.00  0.00    -0.206 F 
ATOM     72  C   UNL A   1      46.322  27.786  35.989  1.00  0.00     0.006 A 
ENDBRANCH  51  65
BRANCH  52  73
ATOM     73  C   UNL A   1      36.384  33.101  30.189  1.00  0.00     0.057 A 
ATOM     74  C   UNL A   1      35.127  32.655  30.562  1.00  0.00     0.134 A 
ATOM     75  C   UNL A   1      36.534  34.050  29.272  1.00  0.00     0.134 A 
ATOM     76  F   UNL A   1      34.915  31.903  31.639  1.00  0.00    -0.206 F 
ATOM     77  C   UNL A   1      34.090  33.071  29.695  1.00  0.00     0.040 A 
ATOM     78  C   UNL A   1      35.455  34.506  28.555  1.00  0.00     0.040 A 
ATOM     79  F   UNL A   1      37.741  34.560  29.044  1.00  0.00    -0.206 F 
ATOM     80  C   UNL A   1      34.190  34.065  28.830  1.00  0.00     0.006 A 
ENDBRANCH  52  73
BRANCH  64  81
ATOM     81  C   UNL A   1      39.604  34.293  36.316  1.00  0.00     0.057 A 
ATOM     82  C   UNL A   1      40.045  35.603  36.236  1.00  0.00     0.134 A 
ATOM     83  C   UNL A   1      38.949  33.852  37.384  1.00  0.00     0.134 A 
ATOM     84  F   UNL A   1      40.473  36.156  35.103  1.00  0.00    -0.206 F 
ATOM     85  C   UNL A   1      40.000  36.301  37.466  1.00  0.00     0.040 A 
ATOM     86  C   UNL A   1      38.826  34.639  38.503  1.00  0.00     0.040 A 
ATOM     87  F   UNL A   1      38.408  32.637  37.370  1.00  0.00    -0.206 F 
ATOM     88  C   UNL A   1      39.292  35.924  38.515  1.00  0.00     0.006 A 
ENDBRANCH  64  81
ENDBRANCH  38  39
ENDBRANCH  30  33
ENDBRANCH  28  29
ENDBRANCH   1  28
TORSDOF 12
ENDMDL
MODEL 2
REMARK VINA RESULT:     -13.6      5.063      9.887
REMARK SMILES O=C(NCCCNC(=O)c1ccc(-c2c3nc(c(-c4c(F)cccc4F)c4ccc([nH]4)c(-c4c(F)cccc4F)c4nc(c(-c5c(F)cccc5F)c5ccc2[nH]5)C=C4)C=C3)cc1)C1=Cc2cc(S(F)(F)(F)(F)F)cc(Br)c2O[C@@H]1C(F)(F)F
REMARK SMILES IDX 5 1 4 2 3 3 1 4 2 5 64 7 65 8 80 9 66 10 79 11 67 12 78 13
REMARK SMILES IDX 68 14 76 15 75 16 77 17 81 18 82 19 83 20 84 21 69 22 70 23
REMARK SMILES IDX 71 24 72 25 73 26 74 27 6 28 7 29 8 30 9 32 10 33 11 34
REMARK SMILES IDX 63 35 12 36 62 37 13 38 14 39 15 40 56 41 16 42 61 43 55 44
REMARK SMILES IDX 57 45 17 46 60 47 54 48 53 49 18 51 44 52 27 53 43 54 28 55
REMARK SMILES IDX 31 56 42 57 58 58 29 59 30 60 41 62 59 63 32 64 19 65 20 66
REMARK SMILES IDX 25 67 21 68 22 69 24 70 26 71 23 72 45 73 46 74 51 75 47 76
REMARK SMILES IDX 48 77 50 78 52 79 49 80 33 81 34 82 39 83 35 84 36 85 38 86
REMARK SMILES IDX 40 87 37 88
REMARK H PARENT 3 6 7 31 57 50 31 61
REMARK Flexibility Score: inf
ROOT
ATOM      1  C   UNL A   1      34.032  30.382  27.255  1.00  0.00     0.042 C 
ENDROOT
BRANCH   1   2
ATOM      2  C   UNL A   1      34.157  28.874  27.105  1.00  0.00     0.118 C 
BRANCH   2   3
ATOM      3  N   UNL A   1      32.956  28.226  27.650  1.00  0.00    -0.352 N 
ATOM      4  O   UNL A   1      30.787  27.350  27.238  1.00  0.00    -0.270 OA
ATOM      5  C   UNL A   1      31.825  27.911  26.766  1.00  0.00     0.251 C 
ATOM      6  H   UNL A   1      32.909  28.003  28.609  1.00  0.00     0.163 HD
BRANCH   5   7
ATOM      7  C   UNL A   1      31.899  28.254  25.287  1.00  0.00     0.067 C 
ATOM      8  C   UNL A   1      32.515  27.405  24.422  1.00  0.00     0.025 C 
ATOM      9  C   UNL A   1      31.282  29.546  24.776  1.00  0.00     0.314 C 
ATOM     10  C   UNL A   1      33.132  26.113  24.934  1.00  0.00     0.020 A 
ATOM     11  O   UNL A   1      31.234  25.977  26.358  1.00  0.00    -0.474 OA
ATOM     12  C   UNL A   1      34.352  25.648  24.474  1.00  0.00     0.036 A 
ATOM     13  C   UNL A   1      32.399  25.404  25.785  1.00  0.00     0.142 A 
ATOM     14  C   UNL A   1      34.586  24.280  24.751  1.00  0.00     0.109 A 
ATOM     15  C   UNL A   1      32.761  24.120  26.116  1.00  0.00     0.062 A 
ATOM     16  C   UNL A   1      33.925  23.575  25.651  1.00  0.00     0.044 A 
ATOM     17  Br  UNL A   1      31.589  23.056  27.271  1.00  0.00    -0.047 Br
BRANCH   9  18
ATOM     18  C   UNL A   1      30.208  29.224  23.749  1.00  0.00     0.429 C 
ATOM     19  F   UNL A   1      29.689  28.028  24.012  1.00  0.00    -0.167 F 
ATOM     20  F   UNL A   1      29.251  30.145  23.805  1.00  0.00    -0.167 F 
ATOM     21  F   UNL A   1      30.746  29.216  22.532  1.00  0.00    -0.167 F 
ENDBRANCH   9  18
BRANCH  14  22
ATOM     22  S   UNL A   1      35.879  23.439  23.805  1.00  0.00     0.310 S 
ATOM     23  F   UNL A   1      35.595  22.051  24.521  1.00  0.00    -0.094 F 
ATOM     24  F   UNL A   1      36.892  23.753  24.970  1.00  0.00    -0.094 F 
ATOM     25  F   UNL A   1      36.994  22.720  22.993  1.00  0.00    -0.094 F 
ATOM     26  F   UNL A   1      34.819  23.010  22.714  1.00  0.00    -0.094 F 
ATOM     27  F   UNL A   1      34.713  24.065  24.670  1.00  0.00    -0.094 F 
ENDBRANCH  14  22
ENDBRANCH   5   7
ENDBRANCH   2   3
ENDBRANCH   1   2
BRANCH   1  28
ATOM     28  C   UNL A   1      35.298  30.935  27.890  1.00  0.00     0.118 C 
BRANCH  28  29
ATOM     29  N   UNL A   1      35.045  31.236  29.306  1.00  0.00    -0.352 N 
ATOM     30  C   UNL A   1      36.072  30.941  30.315  1.00  0.00     0.251 C 
ATOM     31  H   UNL A   1      34.187  31.635  29.579  1.00  0.00     0.163 HD
ATOM     32  O   UNL A   1      35.853  31.201  31.540  1.00  0.00    -0.269 OA
BRANCH  30  33
ATOM     33  C   UNL A   1      37.396  30.325  29.894  1.00  0.00     0.039 A 
ATOM     34  C   UNL A   1      37.938  30.469  28.627  1.00  0.00     0.014 A 
ATOM     35  C   UNL A   1      38.079  29.744  30.873  1.00  0.00     0.014 A 
ATOM     36  C   UNL A   1      39.107  29.702  28.413  1.00  0.00     0.010 A 
ATOM     37  C   UNL A   1      39.282  29.130  30.618  1.00  0.00     0.010 A 
ATOM     38  C   UNL A   1      39.848  29.183  29.375  1.00  0.00    -0.014 A 
BRANCH  38  39
ATOM     39  C   UNL A   1      41.255  28.668  29.114  1.00  0.00     0.031 A 
ATOM     40  C   UNL A   1      42.273  29.621  29.151  1.00  0.00     0.074 A 
ATOM     41  C   UNL A   1      41.438  27.354  28.720  1.00  0.00     0.049 A 
ATOM     42  N   UNL A   1      43.563  29.445  28.861  1.00  0.00    -0.248 NA
ATOM     43  C   UNL A   1      42.073  31.026  29.536  1.00  0.00     0.031 C 
ATOM     44  C   UNL A   1      40.418  26.383  28.688  1.00  0.00     0.029 A 
ATOM     45  N   UNL A   1      42.604  26.753  28.298  1.00  0.00    -0.354 N 
ATOM     46  C   UNL A   1      44.234  30.587  29.032  1.00  0.00     0.074 A 
ATOM     47  C   UNL A   1      43.284  31.621  29.463  1.00  0.00     0.031 C 
ATOM     48  C   UNL A   1      40.957  25.218  28.241  1.00  0.00     0.029 A 
ATOM     49  C   UNL A   1      42.324  25.441  27.988  1.00  0.00     0.049 A 
ATOM     50  H   UNL A   1      43.485  27.187  28.228  1.00  0.00     0.167 HD
ATOM     51  C   UNL A   1      45.600  30.804  28.847  1.00  0.00     0.037 A 
ATOM     52  C   UNL A   1      43.196  24.477  27.508  1.00  0.00     0.037 A 
ATOM     53  C   UNL A   1      46.482  29.828  28.409  1.00  0.00     0.049 A 
ATOM     54  C   UNL A   1      44.552  24.710  27.267  1.00  0.00     0.074 A 
ATOM     55  C   UNL A   1      47.863  30.030  28.225  1.00  0.00     0.029 A 
ATOM     56  N   UNL A   1      46.196  28.523  28.076  1.00  0.00    -0.354 N 
ATOM     57  N   UNL A   1      45.231  25.840  27.476  1.00  0.00    -0.248 NA
ATOM     58  C   UNL A   1      45.480  23.706  26.729  1.00  0.00     0.031 C 
ATOM     59  C   UNL A   1      48.403  28.864  27.778  1.00  0.00     0.029 A 
ATOM     60  C   UNL A   1      47.366  27.916  27.675  1.00  0.00     0.049 A 
ATOM     61  H   UNL A   1      45.310  28.097  28.117  1.00  0.00     0.167 HD
ATOM     62  C   UNL A   1      46.513  25.674  27.146  1.00  0.00     0.074 A 
ATOM     63  C   UNL A   1      46.690  24.302  26.653  1.00  0.00     0.031 C 
ATOM     64  C   UNL A   1      47.543  26.612  27.239  1.00  0.00     0.037 A 
BRANCH  51  65
ATOM     65  C   UNL A   1      46.152  32.189  29.143  1.00  0.00     0.057 A 
ATOM     66  C   UNL A   1      46.208  33.079  28.083  1.00  0.00     0.134 A 
ATOM     67  C   UNL A   1      46.634  32.509  30.338  1.00  0.00     0.134 A 
ATOM     68  F   UNL A   1      45.524  32.909  26.956  1.00  0.00    -0.206 F 
ATOM     69  C   UNL A   1      47.060  34.186  28.309  1.00  0.00     0.040 A 
ATOM     70  C   UNL A   1      47.341  33.674  30.517  1.00  0.00     0.040 A 
ATOM     71  F   UNL A   1      46.431  31.696  31.370  1.00  0.00    -0.206 F 
ATOM     72  C   UNL A   1      47.487  34.572  29.497  1.00  0.00     0.006 A 
ENDBRANCH  51  65
BRANCH  52  73
ATOM     73  C   UNL A   1      42.647  23.087  27.228  1.00  0.00     0.057 A 
ATOM     74  C   UNL A   1      42.328  22.815  25.908  1.00  0.00     0.134 A 
ATOM     75  C   UNL A   1      42.530  22.159  28.170  1.00  0.00     0.134 A 
ATOM     76  F   UNL A   1      42.664  23.617  24.901  1.00  0.00    -0.206 F 
ATOM     77  C   UNL A   1      41.614  21.607  25.728  1.00  0.00     0.040 A 
ATOM     78  C   UNL A   1      41.944  20.949  27.891  1.00  0.00     0.040 A 
ATOM     79  F   UNL A   1      42.984  22.405  29.396  1.00  0.00    -0.206 F 
ATOM     80  C   UNL A   1      41.551  20.634  26.620  1.00  0.00     0.006 A 
ENDBRANCH  52  73
BRANCH  64  81
ATOM     81  C   UNL A   1      48.942  26.176  26.837  1.00  0.00     0.057 A 
ATOM     82  C   UNL A   1      49.769  25.477  27.701  1.00  0.00     0.134 A 
ATOM     83  C   UNL A   1      49.319  26.447  25.593  1.00  0.00     0.134 A 
ATOM     84  F   UNL A   1      49.346  24.967  28.855  1.00  0.00    -0.206 F 
ATOM     85  C   UNL A   1      51.103  25.355  27.247  1.00  0.00     0.040 A 
ATOM     86  C   UNL A   1      50.599  26.175  25.175  1.00  0.00     0.040 A 
ATOM     87  F   UNL A   1      48.448  26.985  24.743  1.00  0.00    -0.206 F 
ATOM     88  C   UNL A   1      51.488  25.540  25.997  1.00  0.00     0.006 A 
ENDBRANCH  64  81
ENDBRANCH  38  39
ENDBRANCH  30  33
ENDBRANCH  28  29
ENDBRANCH   1  28
TORSDOF 12
ENDMDL
MODEL 3
REMARK VINA RESULT:     -13.6      5.231      9.988
REMARK SMILES O=C(NCCCNC(=O)c1ccc(-c2c3nc(c(-c4c(F)cccc4F)c4ccc([nH]4)c(-c4c(F)cccc4F)c4nc(c(-c5c(F)cccc5F)c5ccc2[nH]5)C=C4)C=C3)cc1)C1=Cc2cc(S(F)(F)(F)(F)F)cc(Br)c2O[C@@H]1C(F)(F)F
REMARK SMILES IDX 5 1 4 2 3 3 1 4 2 5 64 7 65 8 80 9 66 10 79 11 67 12 78 13
REMARK SMILES IDX 68 14 76 15 75 16 77 17 81 18 82 19 83 20 84 21 69 22 70 23
REMARK SMILES IDX 71 24 72 25 73 26 74 27 6 28 7 29 8 30 9 32 10 33 11 34
REMARK SMILES IDX 63 35 12 36 62 37 13 38 14 39 15 40 56 41 16 42 61 43 55 44
REMARK SMILES IDX 57 45 17 46 60 47 54 48 53 49 18 51 44 52 27 53 43 54 28 55
REMARK SMILES IDX 31 56 42 57 58 58 29 59 30 60 41 62 59 63 32 64 19 65 20 66
REMARK SMILES IDX 25 67 21 68 22 69 24 70 26 71 23 72 45 73 46 74 51 75 47 76
REMARK SMILES IDX 48 77 50 78 52 79 49 80 33 81 34 82 39 83 35 84 36 85 38 86
REMARK SMILES IDX 40 87 37 88
REMARK H PARENT 3 6 7 31 57 50 31 61
REMARK Flexibility Score: inf
ROOT
ATOM      1  C   UNL A   1      34.095  30.385  27.346  1.00  0.00     0.042 C 
ENDROOT
BRANCH   1   2
ATOM      2  C   UNL A   1      34.176  28.886  27.110  1.00  0.00     0.118 C 
BRANCH   2   3
ATOM      3  N   UNL A   1      32.977  28.237  27.660  1.00  0.00    -0.352 N 
ATOM      4  O   UNL A   1      30.803  27.369  27.257  1.00  0.00    -0.270 OA
ATOM      5  C   UNL A   1      31.839  27.930  26.782  1.00  0.00     0.251 C 
ATOM      6  H   UNL A   1      32.936  28.008  28.617  1.00  0.00     0.163 HD
BRANCH   5   7
ATOM      7  C   UNL A   1      31.903  28.283  25.305  1.00  0.00     0.067 C 
ATOM      8  C   UNL A   1      32.512  27.439  24.430  1.00  0.00     0.025 C 
ATOM      9  C   UNL A   1      31.285  29.579  24.806  1.00  0.00     0.314 C 
ATOM     10  C   UNL A   1      33.130  26.143  24.929  1.00  0.00     0.020 A 
ATOM     11  O   UNL A   1      31.242  26.000  26.365  1.00  0.00    -0.474 OA
ATOM     12  C   UNL A   1      34.346  25.679  24.458  1.00  0.00     0.036 A 
ATOM     13  C   UNL A   1      32.402  25.429  25.780  1.00  0.00     0.142 A 
ATOM     14  C   UNL A   1      34.580  24.308  24.724  1.00  0.00     0.109 A 
ATOM     15  C   UNL A   1      32.764  24.143  26.101  1.00  0.00     0.062 A 
ATOM     16  C   UNL A   1      33.924  23.599  25.624  1.00  0.00     0.044 A 
ATOM     17  Br  UNL A   1      31.598  23.072  27.257  1.00  0.00    -0.047 Br
BRANCH   9  18
ATOM     18  C   UNL A   1      30.204  29.266  23.784  1.00  0.00     0.429 C 
ATOM     19  F   UNL A   1      29.701  28.059  24.028  1.00  0.00    -0.167 F 
ATOM     20  F   UNL A   1      29.237  30.175  23.869  1.00  0.00    -0.167 F 
ATOM     21  F   UNL A   1      30.728  29.288  22.562  1.00  0.00    -0.167 F 
ENDBRANCH   9  18
BRANCH  14  22
ATOM     22  S   UNL A   1      35.865  23.471  23.764  1.00  0.00     0.310 S 
ATOM     23  F   UNL A   1      35.595  22.084  24.485  1.00  0.00    -0.094 F 
ATOM     24  F   UNL A   1      36.890  23.791  24.916  1.00  0.00    -0.094 F 
ATOM     25  F   UNL A   1      36.974  22.757  22.939  1.00  0.00    -0.094 F 
ATOM     26  F   UNL A   1      34.795  23.037  22.686  1.00  0.00    -0.094 F 
ATOM     27  F   UNL A   1      34.707  24.094  24.642  1.00  0.00    -0.094 F 
ENDBRANCH  14  22
ENDBRANCH   5   7
ENDBRANCH   2   3
ENDBRANCH   1   2
BRANCH   1  28
ATOM     28  C   UNL A   1      35.369  30.861  28.026  1.00  0.00     0.118 C 
BRANCH  28  29
ATOM     29  N   UNL A   1      35.178  30.857  29.483  1.00  0.00    -0.352 N 
ATOM     30  C   UNL A   1      36.245  30.361  30.363  1.00  0.00     0.251 C 
ATOM     31  H   UNL A   1      34.334  31.187  29.870  1.00  0.00     0.163 HD
ATOM     32  O   UNL A   1      36.081  30.358  31.623  1.00  0.00    -0.269 OA
BRANCH  30  33
ATOM     33  C   UNL A   1      37.548  29.853  29.766  1.00  0.00     0.039 A 
ATOM     34  C   UNL A   1      37.870  29.968  28.424  1.00  0.00     0.014 A 
ATOM     35  C   UNL A   1      38.431  29.405  30.651  1.00  0.00     0.014 A 
ATOM     36  C   UNL A   1      39.068  29.307  28.063  1.00  0.00     0.010 A 
ATOM     37  C   UNL A   1      39.639  28.897  30.236  1.00  0.00     0.010 A 
ATOM     38  C   UNL A   1      39.999  28.926  28.917  1.00  0.00    -0.014 A 
BRANCH  38  39
ATOM     39  C   UNL A   1      41.395  28.536  28.460  1.00  0.00     0.031 A 
ATOM     40  C   UNL A   1      41.592  27.184  28.175  1.00  0.00     0.074 A 
ATOM     41  C   UNL A   1      42.410  29.477  28.488  1.00  0.00     0.049 A 
ATOM     42  N   UNL A   1      42.736  26.579  27.855  1.00  0.00    -0.248 NA
ATOM     43  C   UNL A   1      40.521  26.177  28.178  1.00  0.00     0.031 C 
ATOM     44  C   UNL A   1      42.219  30.845  28.767  1.00  0.00     0.029 A 
ATOM     45  N   UNL A   1      43.753  29.278  28.259  1.00  0.00    -0.354 N 
ATOM     46  C   UNL A   1      42.523  25.280  27.631  1.00  0.00     0.074 A 
ATOM     47  C   UNL A   1      41.096  25.002  27.842  1.00  0.00     0.031 C 
ATOM     48  C   UNL A   1      43.431  31.458  28.719  1.00  0.00     0.029 A 
ATOM     49  C   UNL A   1      44.399  30.485  28.409  1.00  0.00     0.049 A 
ATOM     50  H   UNL A   1      44.179  28.420  28.030  1.00  0.00     0.167 HD
ATOM     51  C   UNL A   1      43.463  24.317  27.260  1.00  0.00     0.037 A 
ATOM     52  C   UNL A   1      45.755  30.743  28.287  1.00  0.00     0.037 A 
ATOM     53  C   UNL A   1      44.813  24.584  27.095  1.00  0.00     0.049 A 
ATOM     54  C   UNL A   1      46.704  29.769  27.972  1.00  0.00     0.074 A 
ATOM     55  C   UNL A   1      45.772  23.627  26.713  1.00  0.00     0.029 A 
ATOM     56  N   UNL A   1      45.462  25.787  27.269  1.00  0.00    -0.354 N 
ATOM     57  N   UNL A   1      46.487  28.479  27.710  1.00  0.00    -0.248 NA
ATOM     58  C   UNL A   1      48.148  30.024  27.872  1.00  0.00     0.031 C 
ATOM     59  C   UNL A   1      46.985  24.241  26.665  1.00  0.00     0.029 A 
ATOM     60  C   UNL A   1      46.803  25.592  27.018  1.00  0.00     0.049 A 
ATOM     61  H   UNL A   1      45.041  26.638  27.527  1.00  0.00     0.167 HD
ATOM     62  C   UNL A   1      47.638  27.865  27.431  1.00  0.00     0.074 A 
ATOM     63  C   UNL A   1      48.724  28.848  27.538  1.00  0.00     0.031 C 
ATOM     64  C   UNL A   1      47.826  26.525  27.088  1.00  0.00     0.037 A 
BRANCH  51  65
ATOM     65  C   UNL A   1      42.979  22.896  27.021  1.00  0.00     0.057 A 
ATOM     66  C   UNL A   1      42.655  22.557  25.718  1.00  0.00     0.134 A 
ATOM     67  C   UNL A   1      42.796  22.043  28.021  1.00  0.00     0.134 A 
ATOM     68  F   UNL A   1      43.048  23.266  24.664  1.00  0.00    -0.206 F 
ATOM     69  C   UNL A   1      41.867  21.386  25.609  1.00  0.00     0.040 A 
ATOM     70  C   UNL A   1      42.136  20.855  27.815  1.00  0.00     0.040 A 
ATOM     71  F   UNL A   1      43.254  22.339  29.233  1.00  0.00    -0.206 F 
ATOM     72  C   UNL A   1      41.735  20.482  26.562  1.00  0.00     0.006 A 
ENDBRANCH  51  65
BRANCH  52  73
ATOM     73  C   UNL A   1      46.237  32.168  28.509  1.00  0.00     0.057 A 
ATOM     74  C   UNL A   1      46.261  32.983  27.390  1.00  0.00     0.134 A 
ATOM     75  C   UNL A   1      46.562  32.635  29.709  1.00  0.00     0.134 A 
ATOM     76  F   UNL A   1      45.710  32.638  26.230  1.00  0.00    -0.206 F 
ATOM     77  C   UNL A   1      46.925  34.216  27.593  1.00  0.00     0.040 A 
ATOM     78  C   UNL A   1      47.080  33.900  29.850  1.00  0.00     0.040 A 
ATOM     79  F   UNL A   1      46.386  31.871  30.784  1.00  0.00    -0.206 F 
ATOM     80  C   UNL A   1      47.187  34.740  28.777  1.00  0.00     0.006 A 
ENDBRANCH  52  73
BRANCH  64  81
ATOM     81  C   UNL A   1      49.238  26.061  26.773  1.00  0.00     0.057 A 
ATOM     82  C   UNL A   1      50.018  25.400  27.707  1.00  0.00     0.134 A 
ATOM     83  C   UNL A   1      49.674  26.267  25.535  1.00  0.00     0.134 A 
ATOM     84  F   UNL A   1      49.538  24.950  28.864  1.00  0.00    -0.206 F 
ATOM     85  C   UNL A   1      51.371  25.247  27.321  1.00  0.00     0.040 A 
ATOM     86  C   UNL A   1      50.970  25.967  25.191  1.00  0.00     0.040 A 
ATOM     87  F   UNL A   1      48.848  26.767  24.621  1.00  0.00    -0.206 F 
ATOM     88  C   UNL A   1      51.814  25.367  26.083  1.00  0.00     0.006 A 
ENDBRANCH  64  81
ENDBRANCH  38  39
ENDBRANCH  30  33
ENDBRANCH  28  29
ENDBRANCH   1  28
TORSDOF 12
ENDMDL
