MODEL 1
REMARK VINA RESULT:      -9.5      0.000      0.000
REMARK SMILES CC(C)Cc1ccc([C@@H](C)C(=O)NCCCNC(=O)c2ccc(-c3c4nc(c(-c5c(F)cccc5F)c5ccc([nH]5)c(-c5c(F)cccc5F)c5nc(c(-c6c(F)cccc6F)c6ccc3[nH]6)C=C5)C=C4)cc2)cc1
REMARK SMILES IDX 14 1 13 2 11 3 12 4 9 6 10 7 8 8 5 9 6 10 75 11 7 12 74 13
REMARK SMILES IDX 4 14 2 15 1 16 3 17 15 18 16 19 17 20 18 21 19 23 20 24
REMARK SMILES IDX 21 25 73 26 22 27 72 28 23 29 24 30 25 31 66 32 26 33 71 34
REMARK SMILES IDX 65 35 67 36 27 37 70 38 64 39 63 40 28 42 54 43 37 44 53 45
REMARK SMILES IDX 38 46 41 47 52 48 68 49 39 50 40 51 51 53 69 54 42 55 29 56
REMARK SMILES IDX 30 57 35 58 31 59 32 60 34 61 36 62 33 63 55 64 56 65 61 66
REMARK SMILES IDX 57 67 58 68 60 69 62 70 59 71 43 72 44 73 49 74 45 75 46 76
REMARK SMILES IDX 48 77 50 78 47 79
REMARK H PARENT 13 5 17 22 67 41 41 52
REMARK Flexibility Score: inf
ROOT
ATOM      1  C   UNL A   1      33.243  35.745  32.071  1.00  0.00     0.117 C 
ENDROOT
BRANCH   1   2
ATOM      2  N   UNL A   1      34.644  35.898  32.412  1.00  0.00    -0.356 N 
ATOM      3  C   UNL A   1      35.571  35.008  32.861  1.00  0.00     0.227 C 
ATOM      4  O   UNL A   1      36.689  35.470  33.122  1.00  0.00    -0.274 OA
ATOM      5  H   UNL A   1      34.988  36.813  32.297  1.00  0.00     0.163 HD
BRANCH   3   6
ATOM      6  C   UNL A   1      35.301  33.510  33.043  1.00  0.00     0.105 C 
ATOM      7  C   UNL A   1      33.868  33.172  33.460  1.00  0.00     0.023 C 
BRANCH   6   8
ATOM      8  C   UNL A   1      36.401  32.785  33.800  1.00  0.00    -0.036 A 
ATOM      9  C   UNL A   1      38.464  31.375  35.126  1.00  0.00    -0.048 A 
ATOM     10  C   UNL A   1      37.842  32.468  35.734  1.00  0.00     0.004 A 
ATOM     11  C   UNL A   1      38.064  30.999  33.841  1.00  0.00     0.004 A 
ATOM     12  C   UNL A   1      36.806  33.146  35.089  1.00  0.00     0.005 A 
ATOM     13  C   UNL A   1      37.053  31.704  33.182  1.00  0.00     0.005 A 
BRANCH   9  14
ATOM     14  C   UNL A   1      39.508  30.583  35.877  1.00  0.00     0.038 C 
BRANCH  14  15
ATOM     15  C   UNL A   1      40.861  30.546  35.139  1.00  0.00    -0.013 C 
ATOM     16  C   UNL A   1      42.015  30.988  36.043  1.00  0.00     0.008 C 
ATOM     17  C   UNL A   1      41.129  29.143  34.595  1.00  0.00     0.008 C 
ENDBRANCH  14  15
ENDBRANCH   9  14
ENDBRANCH   6   8
ENDBRANCH   3   6
ENDBRANCH   1   2
BRANCH   1  18
ATOM     18  C   UNL A   1      32.804  36.700  30.963  1.00  0.00     0.042 C 
BRANCH  18  19
ATOM     19  C   UNL A   1      33.426  36.395  29.605  1.00  0.00     0.118 C 
BRANCH  19  20
ATOM     20  N   UNL A   1      32.664  35.403  28.856  1.00  0.00    -0.352 N 
ATOM     21  C   UNL A   1      33.042  34.205  28.302  1.00  0.00     0.251 C 
ATOM     22  H   UNL A   1      31.715  35.631  28.725  1.00  0.00     0.163 HD
ATOM     23  O   UNL A   1      32.281  33.638  27.523  1.00  0.00    -0.269 OA
BRANCH  21  24
ATOM     24  C   UNL A   1      34.354  33.591  28.613  1.00  0.00     0.039 A 
ATOM     25  C   UNL A   1      35.451  33.903  27.801  1.00  0.00     0.014 A 
ATOM     26  C   UNL A   1      34.504  32.672  29.654  1.00  0.00     0.014 A 
ATOM     27  C   UNL A   1      36.707  33.358  28.081  1.00  0.00     0.010 A 
ATOM     28  C   UNL A   1      35.769  32.182  29.976  1.00  0.00     0.010 A 
ATOM     29  C   UNL A   1      36.885  32.525  29.196  1.00  0.00    -0.014 A 
BRANCH  29  30
ATOM     30  C   UNL A   1      38.228  32.025  29.586  1.00  0.00     0.031 A 
ATOM     31  C   UNL A   1      38.697  30.669  29.138  1.00  0.00     0.074 A 
ATOM     32  C   UNL A   1      38.990  32.759  30.421  1.00  0.00     0.049 A 
ATOM     33  N   UNL A   1      39.780  30.016  29.475  1.00  0.00    -0.248 NA
ATOM     34  C   UNL A   1      37.823  29.942  28.204  1.00  0.00     0.031 C 
ATOM     35  C   UNL A   1      38.633  34.075  30.955  1.00  0.00     0.029 A 
ATOM     36  N   UNL A   1      40.214  32.494  30.981  1.00  0.00    -0.354 N 
ATOM     37  C   UNL A   1      39.710  28.798  28.812  1.00  0.00     0.074 A 
ATOM     38  C   UNL A   1      38.460  28.786  28.082  1.00  0.00     0.031 C 
ATOM     39  C   UNL A   1      39.619  34.505  31.758  1.00  0.00     0.029 A 
ATOM     40  C   UNL A   1      40.655  33.480  31.831  1.00  0.00     0.049 A 
ATOM     41  H   UNL A   1      40.728  31.676  30.792  1.00  0.00     0.167 HD
ATOM     42  C   UNL A   1      40.612  27.788  28.799  1.00  0.00     0.037 A 
ATOM     43  C   UNL A   1      41.757  33.543  32.600  1.00  0.00     0.037 A 
ATOM     44  C   UNL A   1      41.867  27.811  29.506  1.00  0.00     0.049 A 
ATOM     45  C   UNL A   1      42.729  32.397  32.591  1.00  0.00     0.074 A 
ATOM     46  C   UNL A   1      42.881  26.870  29.493  1.00  0.00     0.029 A 
ATOM     47  N   UNL A   1      42.275  28.827  30.357  1.00  0.00    -0.354 N 
ATOM     48  N   UNL A   1      42.680  31.278  31.910  1.00  0.00    -0.248 NA
ATOM     49  C   UNL A   1      43.906  32.519  33.463  1.00  0.00     0.031 C 
ATOM     50  C   UNL A   1      43.884  27.294  30.372  1.00  0.00     0.029 A 
ATOM     51  C   UNL A   1      43.512  28.521  30.900  1.00  0.00     0.049 A 
ATOM     52  H   UNL A   1      41.761  29.646  30.547  1.00  0.00     0.167 HD
ATOM     53  C   UNL A   1      43.822  30.570  32.259  1.00  0.00     0.074 A 
ATOM     54  C   UNL A   1      44.555  31.393  33.198  1.00  0.00     0.031 C 
ATOM     55  C   UNL A   1      44.225  29.346  31.840  1.00  0.00     0.037 A 
BRANCH  42  56
ATOM     56  C   UNL A   1      40.277  26.567  27.992  1.00  0.00     0.057 A 
ATOM     57  C   UNL A   1      40.824  26.351  26.722  1.00  0.00     0.134 A 
ATOM     58  C   UNL A   1      39.431  25.579  28.510  1.00  0.00     0.134 A 
ATOM     59  F   UNL A   1      41.634  27.263  26.165  1.00  0.00    -0.206 F 
ATOM     60  C   UNL A   1      40.523  25.204  25.985  1.00  0.00     0.040 A 
ATOM     61  C   UNL A   1      39.142  24.417  27.793  1.00  0.00     0.040 A 
ATOM     62  F   UNL A   1      38.880  25.721  29.725  1.00  0.00    -0.206 F 
ATOM     63  C   UNL A   1      39.685  24.230  26.523  1.00  0.00     0.006 A 
ENDBRANCH  42  56
BRANCH  43  64
ATOM     64  C   UNL A   1      42.001  34.737  33.448  1.00  0.00     0.057 A 
ATOM     65  C   UNL A   1      41.425  34.846  34.718  1.00  0.00     0.134 A 
ATOM     66  C   UNL A   1      42.812  35.792  33.012  1.00  0.00     0.134 A 
ATOM     67  F   UNL A   1      40.622  33.877  35.180  1.00  0.00    -0.206 F 
ATOM     68  C   UNL A   1      41.636  35.968  35.521  1.00  0.00     0.040 A 
ATOM     69  C   UNL A   1      43.050  36.908  33.814  1.00  0.00     0.040 A 
ATOM     70  F   UNL A   1      43.397  35.743  31.806  1.00  0.00    -0.206 F 
ATOM     71  C   UNL A   1      42.456  37.001  35.071  1.00  0.00     0.006 A 
ENDBRANCH  43  64
BRANCH  55  72
ATOM     72  C   UNL A   1      45.519  28.827  32.391  1.00  0.00     0.057 A 
ATOM     73  C   UNL A   1      46.740  29.081  31.755  1.00  0.00     0.134 A 
ATOM     74  C   UNL A   1      45.550  28.104  33.589  1.00  0.00     0.134 A 
ATOM     75  F   UNL A   1      46.776  29.755  30.596  1.00  0.00    -0.206 F 
ATOM     76  C   UNL A   1      47.947  28.619  32.283  1.00  0.00     0.040 A 
ATOM     77  C   UNL A   1      46.751  27.657  34.140  1.00  0.00     0.040 A 
ATOM     78  F   UNL A   1      44.414  27.832  34.251  1.00  0.00    -0.206 F 
ATOM     79  C   UNL A   1      47.954  27.912  33.484  1.00  0.00     0.006 A 
ENDBRANCH  55  72
ENDBRANCH  29  30
ENDBRANCH  21  24
ENDBRANCH  19  20
ENDBRANCH  18  19
ENDBRANCH   1  18
TORSDOF 13
ENDMDL
MODEL 2
REMARK VINA RESULT:      -9.3      3.982      9.638
REMARK SMILES CC(C)Cc1ccc([C@@H](C)C(=O)NCCCNC(=O)c2ccc(-c3c4nc(c(-c5c(F)cccc5F)c5ccc([nH]5)c(-c5c(F)cccc5F)c5nc(c(-c6c(F)cccc6F)c6ccc3[nH]6)C=C5)C=C4)cc2)cc1
REMARK SMILES IDX 14 1 13 2 11 3 12 4 9 6 10 7 8 8 5 9 6 10 75 11 7 12 74 13
REMARK SMILES IDX 4 14 2 15 1 16 3 17 15 18 16 19 17 20 18 21 19 23 20 24
REMARK SMILES IDX 21 25 73 26 22 27 72 28 23 29 24 30 25 31 66 32 26 33 71 34
REMARK SMILES IDX 65 35 67 36 27 37 70 38 64 39 63 40 28 42 54 43 37 44 53 45
REMARK SMILES IDX 38 46 41 47 52 48 68 49 39 50 40 51 51 53 69 54 42 55 29 56
REMARK SMILES IDX 30 57 35 58 31 59 32 60 34 61 36 62 33 63 55 64 56 65 61 66
REMARK SMILES IDX 57 67 58 68 60 69 62 70 59 71 43 72 44 73 49 74 45 75 46 76
REMARK SMILES IDX 48 77 50 78 47 79
REMARK H PARENT 13 5 17 22 67 41 41 52
REMARK Flexibility Score: inf
ROOT
ATOM      1  C   UNL A   1      32.848  28.878  24.748  1.00  0.00     0.117 C 
ENDROOT
BRANCH   1   2
ATOM      2  N   UNL A   1      31.918  27.768  24.678  1.00  0.00    -0.356 N 
ATOM      3  C   UNL A   1      31.972  26.580  24.015  1.00  0.00     0.227 C 
ATOM      4  O   UNL A   1      30.973  25.857  24.112  1.00  0.00    -0.274 OA
ATOM      5  H   UNL A   1      31.099  27.897  25.207  1.00  0.00     0.163 HD
BRANCH   3   6
ATOM      6  C   UNL A   1      33.177  26.115  23.190  1.00  0.00     0.105 C 
ATOM      7  C   UNL A   1      32.896  25.954  21.695  1.00  0.00     0.023 C 
BRANCH   6   8
ATOM      8  C   UNL A   1      33.958  24.987  23.843  1.00  0.00    -0.036 A 
ATOM      9  C   UNL A   1      35.413  22.838  24.969  1.00  0.00    -0.048 A 
ATOM     10  C   UNL A   1      35.120  23.976  25.726  1.00  0.00     0.004 A 
ATOM     11  C   UNL A   1      34.992  22.786  23.637  1.00  0.00     0.004 A 
ATOM     12  C   UNL A   1      34.379  25.024  25.177  1.00  0.00     0.005 A 
ATOM     13  C   UNL A   1      34.284  23.853  23.079  1.00  0.00     0.005 A 
BRANCH   9  14
ATOM     14  C   UNL A   1      36.120  21.666  25.607  1.00  0.00     0.038 C 
BRANCH  14  15
ATOM     15  C   UNL A   1      37.582  21.535  25.134  1.00  0.00    -0.013 C 
ATOM     16  C   UNL A   1      38.553  22.245  26.082  1.00  0.00     0.008 C 
ATOM     17  C   UNL A   1      37.965  20.061  25.000  1.00  0.00     0.008 C 
ENDBRANCH  14  15
ENDBRANCH   9  14
ENDBRANCH   6   8
ENDBRANCH   3   6
ENDBRANCH   1   2
BRANCH   1  18
ATOM     18  C   UNL A   1      34.038  28.588  25.659  1.00  0.00     0.042 C 
BRANCH  18  19
ATOM     19  C   UNL A   1      33.707  28.655  27.146  1.00  0.00     0.118 C 
BRANCH  19  20
ATOM     20  N   UNL A   1      33.737  30.018  27.661  1.00  0.00    -0.352 N 
ATOM     21  C   UNL A   1      34.699  30.693  28.372  1.00  0.00     0.251 C 
ATOM     22  H   UNL A   1      32.929  30.546  27.465  1.00  0.00     0.163 HD
ATOM     23  O   UNL A   1      34.415  31.768  28.892  1.00  0.00    -0.269 OA
BRANCH  21  24
ATOM     24  C   UNL A   1      36.064  30.143  28.535  1.00  0.00     0.039 A 
ATOM     25  C   UNL A   1      36.945  30.197  27.447  1.00  0.00     0.014 A 
ATOM     26  C   UNL A   1      36.468  29.525  29.721  1.00  0.00     0.014 A 
ATOM     27  C   UNL A   1      38.247  29.706  27.575  1.00  0.00     0.010 A 
ATOM     28  C   UNL A   1      37.788  29.099  29.871  1.00  0.00     0.010 A 
ATOM     29  C   UNL A   1      38.692  29.191  28.802  1.00  0.00    -0.014 A 
BRANCH  29  30
ATOM     30  C   UNL A   1      40.103  28.770  29.002  1.00  0.00     0.031 A 
ATOM     31  C   UNL A   1      41.122  29.742  29.527  1.00  0.00     0.074 A 
ATOM     32  C   UNL A   1      40.483  27.534  28.626  1.00  0.00     0.049 A 
ATOM     33  N   UNL A   1      42.416  29.596  29.653  1.00  0.00    -0.248 NA
ATOM     34  C   UNL A   1      40.623  31.062  29.944  1.00  0.00     0.031 C 
ATOM     35  C   UNL A   1      39.598  26.508  28.070  1.00  0.00     0.029 A 
ATOM     36  N   UNL A   1      41.718  26.935  28.635  1.00  0.00    -0.354 N 
ATOM     37  C   UNL A   1      42.889  30.805  30.146  1.00  0.00     0.074 A 
ATOM     38  C   UNL A   1      41.747  31.689  30.260  1.00  0.00     0.031 C 
ATOM     39  C   UNL A   1      40.316  25.407  27.800  1.00  0.00     0.029 A 
ATOM     40  C   UNL A   1      41.716  25.661  28.122  1.00  0.00     0.049 A 
ATOM     41  H   UNL A   1      42.528  27.377  28.979  1.00  0.00     0.167 HD
ATOM     42  C   UNL A   1      44.155  31.143  30.486  1.00  0.00     0.037 A 
ATOM     43  C   UNL A   1      42.730  24.802  27.911  1.00  0.00     0.037 A 
ATOM     44  C   UNL A   1      45.285  30.255  30.395  1.00  0.00     0.049 A 
ATOM     45  C   UNL A   1      44.130  25.211  28.270  1.00  0.00     0.074 A 
ATOM     46  C   UNL A   1      46.592  30.481  30.788  1.00  0.00     0.029 A 
ATOM     47  N   UNL A   1      45.241  28.974  29.867  1.00  0.00    -0.354 N 
ATOM     48  N   UNL A   1      44.553  26.336  28.794  1.00  0.00    -0.248 NA
ATOM     49  C   UNL A   1      45.195  24.235  28.002  1.00  0.00     0.031 C 
ATOM     50  C   UNL A   1      47.350  29.352  30.457  1.00  0.00     0.029 A 
ATOM     51  C   UNL A   1      46.505  28.407  29.895  1.00  0.00     0.049 A 
ATOM     52  H   UNL A   1      44.431  28.531  29.524  1.00  0.00     0.167 HD
ATOM     53  C   UNL A   1      45.927  26.198  28.931  1.00  0.00     0.074 A 
ATOM     54  C   UNL A   1      46.266  24.874  28.453  1.00  0.00     0.031 C 
ATOM     55  C   UNL A   1      46.828  27.092  29.408  1.00  0.00     0.037 A 
BRANCH  42  56
ATOM     56  C   UNL A   1      44.389  32.536  30.993  1.00  0.00     0.057 A 
ATOM     57  C   UNL A   1      44.341  32.842  32.359  1.00  0.00     0.134 A 
ATOM     58  C   UNL A   1      44.707  33.574  30.109  1.00  0.00     0.134 A 
ATOM     59  F   UNL A   1      44.033  31.895  33.257  1.00  0.00    -0.206 F 
ATOM     60  C   UNL A   1      44.578  34.136  32.825  1.00  0.00     0.040 A 
ATOM     61  C   UNL A   1      44.971  34.867  30.565  1.00  0.00     0.040 A 
ATOM     62  F   UNL A   1      44.778  33.348  28.788  1.00  0.00    -0.206 F 
ATOM     63  C   UNL A   1      44.901  35.152  31.928  1.00  0.00     0.006 A 
ENDBRANCH  42  56
BRANCH  43  64
ATOM     64  C   UNL A   1      42.458  23.465  27.326  1.00  0.00     0.057 A 
ATOM     65  C   UNL A   1      42.545  23.253  25.946  1.00  0.00     0.134 A 
ATOM     66  C   UNL A   1      42.105  22.372  28.127  1.00  0.00     0.134 A 
ATOM     67  F   UNL A   1      42.858  24.267  25.126  1.00  0.00    -0.206 F 
ATOM     68  C   UNL A   1      42.281  22.005  25.380  1.00  0.00     0.040 A 
ATOM     69  C   UNL A   1      41.861  21.114  27.577  1.00  0.00     0.040 A 
ATOM     70  F   UNL A   1      42.010  22.511  29.458  1.00  0.00    -0.206 F 
ATOM     71  C   UNL A   1      41.942  20.929  26.199  1.00  0.00     0.006 A 
ENDBRANCH  43  64
BRANCH  55  72
ATOM     72  C   UNL A   1      48.264  26.662  29.442  1.00  0.00     0.057 A 
ATOM     73  C   UNL A   1      49.143  26.961  28.394  1.00  0.00     0.134 A 
ATOM     74  C   UNL A   1      48.783  25.981  30.549  1.00  0.00     0.134 A 
ATOM     75  F   UNL A   1      48.703  27.599  27.298  1.00  0.00    -0.206 F 
ATOM     76  C   UNL A   1      50.486  26.583  28.439  1.00  0.00     0.040 A 
ATOM     77  C   UNL A   1      50.128  25.617  30.617  1.00  0.00     0.040 A 
ATOM     78  F   UNL A   1      47.994  25.669  31.589  1.00  0.00    -0.206 F 
ATOM     79  C   UNL A   1      50.983  25.916  29.557  1.00  0.00     0.006 A 
ENDBRANCH  55  72
ENDBRANCH  29  30
ENDBRANCH  21  24
ENDBRANCH  19  20
ENDBRANCH  18  19
ENDBRANCH   1  18
TORSDOF 13
ENDMDL
MODEL 3
REMARK VINA RESULT:      -9.2      1.134      6.582
REMARK SMILES CC(C)Cc1ccc([C@@H](C)C(=O)NCCCNC(=O)c2ccc(-c3c4nc(c(-c5c(F)cccc5F)c5ccc([nH]5)c(-c5c(F)cccc5F)c5nc(c(-c6c(F)cccc6F)c6ccc3[nH]6)C=C5)C=C4)cc2)cc1
REMARK SMILES IDX 14 1 13 2 11 3 12 4 9 6 10 7 8 8 5 9 6 10 75 11 7 12 74 13
REMARK SMILES IDX 4 14 2 15 1 16 3 17 15 18 16 19 17 20 18 21 19 23 20 24
REMARK SMILES IDX 21 25 73 26 22 27 72 28 23 29 24 30 25 31 66 32 26 33 71 34
REMARK SMILES IDX 65 35 67 36 27 37 70 38 64 39 63 40 28 42 54 43 37 44 53 45
REMARK SMILES IDX 38 46 41 47 52 48 68 49 39 50 40 51 51 53 69 54 42 55 29 56
REMARK SMILES IDX 30 57 35 58 31 59 32 60 34 61 36 62 33 63 55 64 56 65 61 66
REMARK SMILES IDX 57 67 58 68 60 69 62 70 59 71 43 72 44 73 49 74 45 75 46 76
REMARK SMILES IDX 48 77 50 78 47 79
REMARK H PARENT 13 5 17 22 67 41 41 52
REMARK Flexibility Score: inf
ROOT
ATOM      1  C   UNL A   1      34.266  34.247  33.281  1.00  0.00     0.117 C 
ENDROOT
BRANCH   1   2
ATOM      2  N   UNL A   1      35.603  34.805  33.329  1.00  0.00    -0.356 N 
ATOM      3  C   UNL A   1      36.713  34.441  34.028  1.00  0.00     0.227 C 
ATOM      4  O   UNL A   1      37.704  35.170  33.895  1.00  0.00    -0.274 OA
ATOM      5  H   UNL A   1      35.731  35.590  32.750  1.00  0.00     0.163 HD
BRANCH   3   6
ATOM      6  C   UNL A   1      36.787  33.208  34.935  1.00  0.00     0.105 C 
ATOM      7  C   UNL A   1      36.765  33.520  36.432  1.00  0.00     0.023 C 
BRANCH   6   8
ATOM      8  C   UNL A   1      37.819  32.187  34.485  1.00  0.00    -0.036 A 
ATOM      9  C   UNL A   1      39.812  30.337  33.704  1.00  0.00    -0.048 A 
ATOM     10  C   UNL A   1      38.484  30.167  33.304  1.00  0.00     0.004 A 
ATOM     11  C   UNL A   1      40.139  31.429  34.513  1.00  0.00     0.004 A 
ATOM     12  C   UNL A   1      37.506  31.095  33.669  1.00  0.00     0.005 A 
ATOM     13  C   UNL A   1      39.152  32.335  34.908  1.00  0.00     0.005 A 
BRANCH   9  14
ATOM     14  C   UNL A   1      40.878  29.388  33.213  1.00  0.00     0.038 C 
BRANCH  14  15
ATOM     15  C   UNL A   1      41.692  28.771  34.368  1.00  0.00    -0.013 C 
ATOM     16  C   UNL A   1      41.726  27.242  34.288  1.00  0.00     0.008 C 
ATOM     17  C   UNL A   1      43.115  29.328  34.370  1.00  0.00     0.008 C 
ENDBRANCH  14  15
ENDBRANCH   9  14
ENDBRANCH   6   8
ENDBRANCH   3   6
ENDBRANCH   1   2
BRANCH   1  18
ATOM     18  C   UNL A   1      33.228  35.256  32.794  1.00  0.00     0.042 C 
BRANCH  18  19
ATOM     19  C   UNL A   1      33.610  35.952  31.492  1.00  0.00     0.118 C 
BRANCH  19  20
ATOM     20  N   UNL A   1      32.933  35.378  30.336  1.00  0.00    -0.352 N 
ATOM     21  C   UNL A   1      33.375  34.502  29.375  1.00  0.00     0.251 C 
ATOM     22  H   UNL A   1      31.998  35.666  30.226  1.00  0.00     0.163 HD
ATOM     23  O   UNL A   1      32.697  34.327  28.367  1.00  0.00    -0.269 OA
BRANCH  21  24
ATOM     24  C   UNL A   1      34.659  33.778  29.524  1.00  0.00     0.039 A 
ATOM     25  C   UNL A   1      35.756  34.192  28.758  1.00  0.00     0.014 A 
ATOM     26  C   UNL A   1      34.780  32.665  30.358  1.00  0.00     0.014 A 
ATOM     27  C   UNL A   1      36.987  33.544  28.890  1.00  0.00     0.010 A 
ATOM     28  C   UNL A   1      36.024  32.062  30.543  1.00  0.00     0.010 A 
ATOM     29  C   UNL A   1      37.142  32.500  29.815  1.00  0.00    -0.014 A 
BRANCH  29  30
ATOM     30  C   UNL A   1      38.464  31.870  30.062  1.00  0.00     0.031 A 
ATOM     31  C   UNL A   1      39.542  32.619  30.793  1.00  0.00     0.074 A 
ATOM     32  C   UNL A   1      38.723  30.652  29.547  1.00  0.00     0.049 A 
ATOM     33  N   UNL A   1      40.790  32.284  30.997  1.00  0.00    -0.248 NA
ATOM     34  C   UNL A   1      39.173  33.930  31.352  1.00  0.00     0.031 C 
ATOM     35  C   UNL A   1      37.773  29.836  28.786  1.00  0.00     0.029 A 
ATOM     36  N   UNL A   1      39.867  29.896  29.567  1.00  0.00    -0.354 N 
ATOM     37  C   UNL A   1      41.361  33.345  31.689  1.00  0.00     0.074 A 
ATOM     38  C   UNL A   1      40.331  34.352  31.838  1.00  0.00     0.031 C 
ATOM     39  C   UNL A   1      38.372  28.692  28.421  1.00  0.00     0.029 A 
ATOM     40  C   UNL A   1      39.756  28.711  28.881  1.00  0.00     0.049 A 
ATOM     41  H   UNL A   1      40.690  30.176  30.029  1.00  0.00     0.167 HD
ATOM     42  C   UNL A   1      42.621  33.461  32.169  1.00  0.00     0.037 A 
ATOM     43  C   UNL A   1      40.671  27.756  28.630  1.00  0.00     0.037 A 
ATOM     44  C   UNL A   1      43.636  32.448  32.041  1.00  0.00     0.049 A 
ATOM     45  C   UNL A   1      42.071  27.922  29.149  1.00  0.00     0.074 A 
ATOM     46  C   UNL A   1      44.918  32.442  32.561  1.00  0.00     0.029 A 
ATOM     47  N   UNL A   1      43.484  31.263  31.338  1.00  0.00    -0.354 N 
ATOM     48  N   UNL A   1      42.578  28.903  29.856  1.00  0.00    -0.248 NA
ATOM     49  C   UNL A   1      43.028  26.854  28.830  1.00  0.00     0.031 C 
ATOM     50  C   UNL A   1      45.558  31.273  32.134  1.00  0.00     0.029 A 
ATOM     51  C   UNL A   1      44.660  30.532  31.383  1.00  0.00     0.049 A 
ATOM     52  H   UNL A   1      42.661  30.982  30.875  1.00  0.00     0.167 HD
ATOM     53  C   UNL A   1      43.907  28.564  30.078  1.00  0.00     0.074 A 
ATOM     54  C   UNL A   1      44.122  27.279  29.447  1.00  0.00     0.031 C 
ATOM     55  C   UNL A   1      44.862  29.258  30.743  1.00  0.00     0.037 A 
BRANCH  42  56
ATOM     56  C   UNL A   1      42.977  34.733  32.882  1.00  0.00     0.057 A 
ATOM     57  C   UNL A   1      42.865  34.855  34.273  1.00  0.00     0.134 A 
ATOM     58  C   UNL A   1      43.476  35.834  32.175  1.00  0.00     0.134 A 
ATOM     59  F   UNL A   1      42.385  33.841  35.008  1.00  0.00    -0.206 F 
ATOM     60  C   UNL A   1      43.216  36.034  34.932  1.00  0.00     0.040 A 
ATOM     61  C   UNL A   1      43.853  37.010  32.826  1.00  0.00     0.040 A 
ATOM     62  F   UNL A   1      43.616  35.781  30.842  1.00  0.00    -0.206 F 
ATOM     63  C   UNL A   1      43.718  37.114  34.209  1.00  0.00     0.006 A 
ENDBRANCH  42  56
BRANCH  43  64
ATOM     64  C   UNL A   1      40.292  26.555  27.844  1.00  0.00     0.057 A 
ATOM     65  C   UNL A   1      39.488  25.556  28.402  1.00  0.00     0.134 A 
ATOM     66  C   UNL A   1      40.722  26.377  26.524  1.00  0.00     0.134 A 
ATOM     67  F   UNL A   1      39.063  25.661  29.670  1.00  0.00    -0.206 F 
ATOM     68  C   UNL A   1      39.133  24.416  27.680  1.00  0.00     0.040 A 
ATOM     69  C   UNL A   1      40.356  25.254  25.783  1.00  0.00     0.040 A 
ATOM     70  F   UNL A   1      41.491  27.303  25.932  1.00  0.00    -0.206 F 
ATOM     71  C   UNL A   1      39.564  24.265  26.363  1.00  0.00     0.006 A 
ENDBRANCH  43  64
BRANCH  55  72
ATOM     72  C   UNL A   1      46.224  28.638  30.825  1.00  0.00     0.057 A 
ATOM     73  C   UNL A   1      47.217  28.919  29.878  1.00  0.00     0.134 A 
ATOM     74  C   UNL A   1      46.561  27.786  31.884  1.00  0.00     0.134 A 
ATOM     75  F   UNL A   1      46.951  29.716  28.832  1.00  0.00    -0.206 F 
ATOM     76  C   UNL A   1      48.492  28.360  29.972  1.00  0.00     0.040 A 
ATOM     77  C   UNL A   1      47.839  27.239  32.002  1.00  0.00     0.040 A 
ATOM     78  F   UNL A   1      45.656  27.481  32.828  1.00  0.00    -0.206 F 
ATOM     79  C   UNL A   1      48.808  27.524  31.041  1.00  0.00     0.006 A 
ENDBRANCH  55  72
ENDBRANCH  29  30
ENDBRANCH  21  24
ENDBRANCH  19  20
ENDBRANCH  18  19
ENDBRANCH   1  18
TORSDOF 13
ENDMDL
