MODEL 1
REMARK VINA RESULT:     -11.6      0.000      0.000
REMARK SMILES O=C(NCCCNC(=O)[C@H]1C[C@@H]2N=CN=C2C[NH2+]1)c1ccc(-c2c3nc(c(-c4c(F)cccc4F)c4ccc([nH]4)c(-c4c(F)cccc4F)c4nc(c(-c5c(F)cccc5F)c5ccc2[nH]5)C=C4)C=C3)cc1
REMARK SMILES IDX 4 1 3 2 1 3 2 4 19 6 20 7 72 8 21 9 71 10 22 11 23 12 24 13
REMARK SMILES IDX 65 14 25 15 70 16 64 17 66 18 26 19 69 20 63 21 62 22 27 24
REMARK SMILES IDX 53 25 36 26 52 27 37 28 40 29 51 30 67 31 38 32 39 33 50 35
REMARK SMILES IDX 68 36 41 37 28 38 29 39 34 40 30 41 31 42 33 43 35 44 32 45
REMARK SMILES IDX 54 46 55 47 60 48 56 49 57 50 59 51 61 52 58 53 42 54 43 55
REMARK SMILES IDX 48 56 44 57 45 58 47 59 49 60 46 61 5 62 6 63 7 64 8 65 9 67
REMARK SMILES IDX 10 68 11 69 18 70 12 71 17 72 13 75 16 76 14 77 15 78
REMARK H PARENT 3 5 66 23 40 34 7 66 18 73 18 74
REMARK Flexibility Score: inf
ROOT
ATOM      1  C   UNL A   1      36.263  31.860  30.144  1.00  0.00     0.118 C 
ENDROOT
BRANCH   1   2
ATOM      2  N   UNL A   1      35.585  30.942  29.252  1.00  0.00    -0.352 N 
ATOM      3  O   UNL A   1      35.091  29.299  27.856  1.00  0.00    -0.269 OA
ATOM      4  C   UNL A   1      35.975  29.867  28.507  1.00  0.00     0.251 C 
ATOM      5  H   UNL A   1      34.626  31.139  29.161  1.00  0.00     0.163 HD
BRANCH   4   6
ATOM      6  C   UNL A   1      37.374  29.382  28.377  1.00  0.00     0.039 A 
ATOM      7  C   UNL A   1      38.252  29.704  27.340  1.00  0.00     0.014 A 
ATOM      8  C   UNL A   1      37.834  28.563  29.424  1.00  0.00     0.014 A 
ATOM      9  C   UNL A   1      39.535  29.157  27.311  1.00  0.00     0.010 A 
ATOM     10  C   UNL A   1      39.121  28.041  29.416  1.00  0.00     0.010 A 
ATOM     11  C   UNL A   1      39.966  28.319  28.345  1.00  0.00    -0.014 A 
BRANCH  11  12
ATOM     12  C   UNL A   1      41.379  27.932  28.394  1.00  0.00     0.031 A 
ATOM     13  C   UNL A   1      41.684  26.625  27.732  1.00  0.00     0.074 A 
ATOM     14  C   UNL A   1      42.368  28.757  28.799  1.00  0.00     0.049 A 
ATOM     15  N   UNL A   1      42.271  25.583  28.229  1.00  0.00    -0.248 NA
ATOM     16  C   UNL A   1      41.185  26.424  26.358  1.00  0.00     0.031 C 
ATOM     17  C   UNL A   1      42.265  30.170  29.172  1.00  0.00     0.029 A 
ATOM     18  N   UNL A   1      43.712  28.527  28.859  1.00  0.00    -0.354 N 
ATOM     19  C   UNL A   1      42.372  24.663  27.186  1.00  0.00     0.074 A 
ATOM     20  C   UNL A   1      41.576  25.176  26.104  1.00  0.00     0.031 C 
ATOM     21  C   UNL A   1      43.502  30.718  29.198  1.00  0.00     0.029 A 
ATOM     22  C   UNL A   1      44.488  29.675  28.973  1.00  0.00     0.049 A 
ATOM     23  H   UNL A   1      44.100  27.622  28.823  1.00  0.00     0.167 HD
ATOM     24  C   UNL A   1      43.270  23.639  27.209  1.00  0.00     0.037 A 
ATOM     25  C   UNL A   1      45.836  29.770  28.834  1.00  0.00     0.037 A 
ATOM     26  C   UNL A   1      43.718  23.354  28.543  1.00  0.00     0.049 A 
ATOM     27  C   UNL A   1      46.403  28.408  28.976  1.00  0.00     0.074 A 
ATOM     28  C   UNL A   1      43.099  22.953  29.711  1.00  0.00     0.029 A 
ATOM     29  N   UNL A   1      44.957  23.806  28.920  1.00  0.00    -0.354 N 
ATOM     30  N   UNL A   1      46.422  27.737  30.091  1.00  0.00    -0.248 NA
ATOM     31  C   UNL A   1      46.564  27.618  27.765  1.00  0.00     0.031 C 
ATOM     32  C   UNL A   1      43.781  23.658  30.746  1.00  0.00     0.029 A 
ATOM     33  C   UNL A   1      44.807  24.391  30.150  1.00  0.00     0.049 A 
ATOM     34  H   UNL A   1      45.793  23.725  28.407  1.00  0.00     0.167 HD
ATOM     35  C   UNL A   1      46.151  26.430  29.716  1.00  0.00     0.074 A 
ATOM     36  C   UNL A   1      46.337  26.403  28.268  1.00  0.00     0.031 C 
ATOM     37  C   UNL A   1      45.531  25.566  30.571  1.00  0.00     0.037 A 
BRANCH  24  38
ATOM     38  C   UNL A   1      43.998  23.133  25.988  1.00  0.00     0.057 A 
ATOM     39  C   UNL A   1      43.983  21.759  25.683  1.00  0.00     0.134 A 
ATOM     40  C   UNL A   1      44.949  23.892  25.276  1.00  0.00     0.134 A 
ATOM     41  F   UNL A   1      43.142  20.925  26.311  1.00  0.00    -0.206 F 
ATOM     42  C   UNL A   1      44.889  21.179  24.785  1.00  0.00     0.040 A 
ATOM     43  C   UNL A   1      45.824  23.332  24.341  1.00  0.00     0.040 A 
ATOM     44  F   UNL A   1      45.154  25.193  25.521  1.00  0.00    -0.206 F 
ATOM     45  C   UNL A   1      45.817  21.965  24.114  1.00  0.00     0.006 A 
ENDBRANCH  24  38
BRANCH  25  46
ATOM     46  C   UNL A   1      46.643  30.887  28.286  1.00  0.00     0.057 A 
ATOM     47  C   UNL A   1      46.489  31.317  26.959  1.00  0.00     0.134 A 
ATOM     48  C   UNL A   1      47.372  31.744  29.129  1.00  0.00     0.134 A 
ATOM     49  F   UNL A   1      45.773  30.593  26.086  1.00  0.00    -0.206 F 
ATOM     50  C   UNL A   1      47.009  32.537  26.505  1.00  0.00     0.040 A 
ATOM     51  C   UNL A   1      47.901  32.961  28.687  1.00  0.00     0.040 A 
ATOM     52  F   UNL A   1      47.514  31.472  30.434  1.00  0.00    -0.206 F 
ATOM     53  C   UNL A   1      47.708  33.369  27.373  1.00  0.00     0.006 A 
ENDBRANCH  25  46
BRANCH  37  54
ATOM     54  C   UNL A   1      45.372  25.986  32.007  1.00  0.00     0.057 A 
ATOM     55  C   UNL A   1      44.254  26.671  32.508  1.00  0.00     0.134 A 
ATOM     56  C   UNL A   1      46.318  25.553  32.941  1.00  0.00     0.134 A 
ATOM     57  F   UNL A   1      43.246  27.039  31.707  1.00  0.00    -0.206 F 
ATOM     58  C   UNL A   1      44.109  26.949  33.871  1.00  0.00     0.040 A 
ATOM     59  C   UNL A   1      46.167  25.793  34.309  1.00  0.00     0.040 A 
ATOM     60  F   UNL A   1      47.386  24.843  32.543  1.00  0.00    -0.206 F 
ATOM     61  C   UNL A   1      45.065  26.503  34.777  1.00  0.00     0.006 A 
ENDBRANCH  37  54
ENDBRANCH  11  12
ENDBRANCH   4   6
ENDBRANCH   1   2
BRANCH   1  62
ATOM     62  C   UNL A   1      37.229  32.820  29.460  1.00  0.00     0.042 C 
BRANCH  62  63
ATOM     63  C   UNL A   1      36.629  34.186  29.131  1.00  0.00     0.118 C 
BRANCH  63  64
ATOM     64  N   UNL A   1      35.302  34.094  28.567  1.00  0.00    -0.351 N 
ATOM     65  C   UNL A   1      34.075  34.452  29.016  1.00  0.00     0.278 C 
ATOM     66  H   UNL A   1      35.286  33.686  27.672  1.00  0.00     0.163 HD
ATOM     67  O   UNL A   1      33.155  34.261  28.209  1.00  0.00    -0.268 OA
BRANCH  65  68
ATOM     68  C   UNL A   1      33.763  35.053  30.417  1.00  0.00     0.275 C 
ATOM     69  C   UNL A   1      32.440  35.780  30.706  1.00  0.00     0.109 C 
ATOM     70  N   UNL A   1      34.034  34.012  31.460  1.00  0.00    -0.331 N 
ATOM     71  C   UNL A   1      32.482  36.502  32.050  1.00  0.00     0.164 C 
ATOM     72  C   UNL A   1      33.653  34.384  32.834  1.00  0.00     0.316 C 
ATOM     73  H   UNL A   1      35.034  33.812  31.452  1.00  0.00     0.347 HD
ATOM     74  H   UNL A   1      33.454  33.209  31.214  1.00  0.00     0.347 HD
ATOM     75  N   UNL A   1      32.990  37.885  31.950  1.00  0.00    -0.264 NA
ATOM     76  C   UNL A   1      33.546  35.871  32.872  1.00  0.00     0.098 C 
ATOM     77  C   UNL A   1      34.027  37.904  32.735  1.00  0.00     0.216 C 
ATOM     78  N   UNL A   1      34.408  36.720  33.320  1.00  0.00    -0.238 NA
ENDBRANCH  65  68
ENDBRANCH  63  64
ENDBRANCH  62  63
ENDBRANCH   1  62
TORSDOF 10
ENDMDL
MODEL 2
REMARK VINA RESULT:     -11.4      4.080      7.919
REMARK SMILES O=C(NCCCNC(=O)[C@H]1C[C@@H]2N=CN=C2C[NH2+]1)c1ccc(-c2c3nc(c(-c4c(F)cccc4F)c4ccc([nH]4)c(-c4c(F)cccc4F)c4nc(c(-c5c(F)cccc5F)c5ccc2[nH]5)C=C4)C=C3)cc1
REMARK SMILES IDX 4 1 3 2 1 3 2 4 19 6 20 7 72 8 21 9 71 10 22 11 23 12 24 13
REMARK SMILES IDX 65 14 25 15 70 16 64 17 66 18 26 19 69 20 63 21 62 22 27 24
REMARK SMILES IDX 53 25 36 26 52 27 37 28 40 29 51 30 67 31 38 32 39 33 50 35
REMARK SMILES IDX 68 36 41 37 28 38 29 39 34 40 30 41 31 42 33 43 35 44 32 45
REMARK SMILES IDX 54 46 55 47 60 48 56 49 57 50 59 51 61 52 58 53 42 54 43 55
REMARK SMILES IDX 48 56 44 57 45 58 47 59 49 60 46 61 5 62 6 63 7 64 8 65 9 67
REMARK SMILES IDX 10 68 11 69 18 70 12 71 17 72 13 75 16 76 14 77 15 78
REMARK H PARENT 3 5 66 23 40 34 7 66 18 73 18 74
REMARK Flexibility Score: inf
ROOT
ATOM      1  C   UNL A   1      34.034  30.793  27.249  1.00  0.00     0.118 C 
ENDROOT
BRANCH   1   2
ATOM      2  N   UNL A   1      34.090  31.643  28.420  1.00  0.00    -0.352 N 
ATOM      3  O   UNL A   1      34.705  32.684  30.272  1.00  0.00    -0.269 OA
ATOM      4  C   UNL A   1      34.998  31.838  29.419  1.00  0.00     0.251 C 
ATOM      5  H   UNL A   1      33.291  32.209  28.517  1.00  0.00     0.163 HD
BRANCH   4   6
ATOM      6  C   UNL A   1      36.260  31.071  29.586  1.00  0.00     0.039 A 
ATOM      7  C   UNL A   1      36.354  29.688  29.759  1.00  0.00     0.014 A 
ATOM      8  C   UNL A   1      37.444  31.827  29.519  1.00  0.00     0.014 A 
ATOM      9  C   UNL A   1      37.599  29.086  29.938  1.00  0.00     0.010 A 
ATOM     10  C   UNL A   1      38.689  31.228  29.666  1.00  0.00     0.010 A 
ATOM     11  C   UNL A   1      38.766  29.857  29.901  1.00  0.00    -0.014 A 
BRANCH  11  12
ATOM     12  C   UNL A   1      40.062  29.172  29.882  1.00  0.00     0.031 A 
ATOM     13  C   UNL A   1      40.685  28.996  31.231  1.00  0.00     0.074 A 
ATOM     14  C   UNL A   1      40.567  28.555  28.793  1.00  0.00     0.049 A 
ATOM     15  N   UNL A   1      41.857  29.368  31.636  1.00  0.00    -0.248 NA
ATOM     16  C   UNL A   1      39.851  28.404  32.295  1.00  0.00     0.031 C 
ATOM     17  C   UNL A   1      39.929  28.366  27.488  1.00  0.00     0.029 A 
ATOM     18  N   UNL A   1      41.736  27.863  28.660  1.00  0.00    -0.354 N 
ATOM     19  C   UNL A   1      41.978  28.906  32.947  1.00  0.00     0.074 A 
ATOM     20  C   UNL A   1      40.675  28.441  33.342  1.00  0.00     0.031 C 
ATOM     21  C   UNL A   1      40.611  27.432  26.786  1.00  0.00     0.029 A 
ATOM     22  C   UNL A   1      41.800  27.053  27.531  1.00  0.00     0.049 A 
ATOM     23  H   UNL A   1      42.473  27.930  29.310  1.00  0.00     0.167 HD
ATOM     24  C   UNL A   1      43.188  28.748  33.550  1.00  0.00     0.037 A 
ATOM     25  C   UNL A   1      42.728  26.099  27.259  1.00  0.00     0.037 A 
ATOM     26  C   UNL A   1      44.211  29.518  32.901  1.00  0.00     0.049 A 
ATOM     27  C   UNL A   1      43.903  26.349  28.126  1.00  0.00     0.074 A 
ATOM     28  C   UNL A   1      44.408  30.865  32.661  1.00  0.00     0.029 A 
ATOM     29  N   UNL A   1      45.084  28.866  32.069  1.00  0.00    -0.354 N 
ATOM     30  N   UNL A   1      44.702  27.368  27.997  1.00  0.00    -0.248 NA
ATOM     31  C   UNL A   1      43.936  25.685  29.420  1.00  0.00     0.031 C 
ATOM     32  C   UNL A   1      44.993  30.922  31.362  1.00  0.00     0.029 A 
ATOM     33  C   UNL A   1      45.171  29.611  30.922  1.00  0.00     0.049 A 
ATOM     34  H   UNL A   1      45.558  28.024  32.259  1.00  0.00     0.167 HD
ATOM     35  C   UNL A   1      45.001  27.745  29.297  1.00  0.00     0.074 A 
ATOM     36  C   UNL A   1      44.574  26.620  30.127  1.00  0.00     0.031 C 
ATOM     37  C   UNL A   1      45.304  29.039  29.604  1.00  0.00     0.037 A 
BRANCH  24  38
ATOM     38  C   UNL A   1      43.508  27.628  34.510  1.00  0.00     0.057 A 
ATOM     39  C   UNL A   1      43.552  26.300  34.046  1.00  0.00     0.134 A 
ATOM     40  C   UNL A   1      43.481  27.769  35.912  1.00  0.00     0.134 A 
ATOM     41  F   UNL A   1      43.555  26.030  32.732  1.00  0.00    -0.206 F 
ATOM     42  C   UNL A   1      43.508  25.199  34.912  1.00  0.00     0.040 A 
ATOM     43  C   UNL A   1      43.488  26.680  36.787  1.00  0.00     0.040 A 
ATOM     44  F   UNL A   1      43.342  28.961  36.507  1.00  0.00    -0.206 F 
ATOM     45  C   UNL A   1      43.471  25.388  36.288  1.00  0.00     0.006 A 
ENDBRANCH  24  38
BRANCH  25  46
ATOM     46  C   UNL A   1      42.564  24.815  26.534  1.00  0.00     0.057 A 
ATOM     47  C   UNL A   1      43.298  24.533  25.372  1.00  0.00     0.134 A 
ATOM     48  C   UNL A   1      41.901  23.724  27.123  1.00  0.00     0.134 A 
ATOM     49  F   UNL A   1      44.001  25.497  24.759  1.00  0.00    -0.206 F 
ATOM     50  C   UNL A   1      43.387  23.239  24.841  1.00  0.00     0.040 A 
ATOM     51  C   UNL A   1      41.977  22.429  26.600  1.00  0.00     0.040 A 
ATOM     52  F   UNL A   1      41.236  23.861  28.278  1.00  0.00    -0.206 F 
ATOM     53  C   UNL A   1      42.734  22.179  25.462  1.00  0.00     0.006 A 
ENDBRANCH  25  46
BRANCH  37  54
ATOM     54  C   UNL A   1      45.548  29.995  28.468  1.00  0.00     0.057 A 
ATOM     55  C   UNL A   1      44.540  30.726  27.823  1.00  0.00     0.134 A 
ATOM     56  C   UNL A   1      46.868  30.293  28.115  1.00  0.00     0.134 A 
ATOM     57  F   UNL A   1      43.252  30.587  28.163  1.00  0.00    -0.206 F 
ATOM     58  C   UNL A   1      44.831  31.678  26.841  1.00  0.00     0.040 A 
ATOM     59  C   UNL A   1      47.175  31.266  27.161  1.00  0.00     0.040 A 
ATOM     60  F   UNL A   1      47.890  29.674  28.729  1.00  0.00    -0.206 F 
ATOM     61  C   UNL A   1      46.154  31.955  26.512  1.00  0.00     0.006 A 
ENDBRANCH  37  54
ENDBRANCH  11  12
ENDBRANCH   4   6
ENDBRANCH   1   2
BRANCH   1  62
ATOM     62  C   UNL A   1      32.784  29.927  27.147  1.00  0.00     0.042 C 
BRANCH  62  63
ATOM     63  C   UNL A   1      31.974  30.141  25.870  1.00  0.00     0.118 C 
BRANCH  63  64
ATOM     64  N   UNL A   1      32.326  29.211  24.821  1.00  0.00    -0.351 N 
ATOM     65  C   UNL A   1      31.702  28.810  23.688  1.00  0.00     0.278 C 
ATOM     66  H   UNL A   1      33.200  28.780  24.958  1.00  0.00     0.163 HD
ATOM     67  O   UNL A   1      32.353  28.019  22.992  1.00  0.00    -0.268 OA
BRANCH  65  68
ATOM     68  C   UNL A   1      30.282  29.253  23.230  1.00  0.00     0.275 C 
ATOM     69  C   UNL A   1      30.036  29.865  21.842  1.00  0.00     0.109 C 
ATOM     70  N   UNL A   1      29.319  28.134  23.493  1.00  0.00    -0.331 N 
ATOM     71  C   UNL A   1      28.633  30.455  21.733  1.00  0.00     0.164 C 
ATOM     72  C   UNL A   1      27.953  28.348  22.984  1.00  0.00     0.316 C 
ATOM     73  H   UNL A   1      29.264  27.997  24.502  1.00  0.00     0.347 HD
ATOM     74  H   UNL A   1      29.684  27.324  22.990  1.00  0.00     0.347 HD
ATOM     75  N   UNL A   1      28.564  31.870  22.149  1.00  0.00    -0.264 NA
ATOM     76  C   UNL A   1      27.788  29.814  22.772  1.00  0.00     0.098 C 
ATOM     77  C   UNL A   1      27.699  31.876  23.121  1.00  0.00     0.216 C 
ATOM     78  N   UNL A   1      27.196  30.667  23.537  1.00  0.00    -0.238 NA
ENDBRANCH  65  68
ENDBRANCH  63  64
ENDBRANCH  62  63
ENDBRANCH   1  62
TORSDOF 10
ENDMDL
MODEL 3
REMARK VINA RESULT:     -11.4      2.299      6.672
REMARK SMILES O=C(NCCCNC(=O)[C@H]1C[C@@H]2N=CN=C2C[NH2+]1)c1ccc(-c2c3nc(c(-c4c(F)cccc4F)c4ccc([nH]4)c(-c4c(F)cccc4F)c4nc(c(-c5c(F)cccc5F)c5ccc2[nH]5)C=C4)C=C3)cc1
REMARK SMILES IDX 4 1 3 2 1 3 2 4 19 6 20 7 72 8 21 9 71 10 22 11 23 12 24 13
REMARK SMILES IDX 65 14 25 15 70 16 64 17 66 18 26 19 69 20 63 21 62 22 27 24
REMARK SMILES IDX 53 25 36 26 52 27 37 28 40 29 51 30 67 31 38 32 39 33 50 35
REMARK SMILES IDX 68 36 41 37 28 38 29 39 34 40 30 41 31 42 33 43 35 44 32 45
REMARK SMILES IDX 54 46 55 47 60 48 56 49 57 50 59 51 61 52 58 53 42 54 43 55
REMARK SMILES IDX 48 56 44 57 45 58 47 59 49 60 46 61 5 62 6 63 7 64 8 65 9 67
REMARK SMILES IDX 10 68 11 69 18 70 12 71 17 72 13 75 16 76 14 77 15 78
REMARK H PARENT 3 5 66 23 40 34 7 66 18 73 18 74
REMARK Flexibility Score: inf
ROOT
ATOM      1  C   UNL A   1      34.949  34.284  28.896  1.00  0.00     0.118 C 
ENDROOT
BRANCH   1   2
ATOM      2  N   UNL A   1      34.238  33.184  28.275  1.00  0.00    -0.352 N 
ATOM      3  O   UNL A   1      33.636  31.205  27.494  1.00  0.00    -0.269 OA
ATOM      4  C   UNL A   1      34.513  31.865  28.064  1.00  0.00     0.251 C 
ATOM      5  H   UNL A   1      33.358  33.450  27.925  1.00  0.00     0.163 HD
BRANCH   4   6
ATOM      6  C   UNL A   1      35.794  31.195  28.406  1.00  0.00     0.039 A 
ATOM      7  C   UNL A   1      36.028  29.818  28.365  1.00  0.00     0.014 A 
ATOM      8  C   UNL A   1      36.853  32.050  28.759  1.00  0.00     0.014 A 
ATOM      9  C   UNL A   1      37.269  29.305  28.743  1.00  0.00     0.010 A 
ATOM     10  C   UNL A   1      38.100  31.547  29.106  1.00  0.00     0.010 A 
ATOM     11  C   UNL A   1      38.302  30.169  29.122  1.00  0.00    -0.014 A 
BRANCH  11  12
ATOM     12  C   UNL A   1      39.647  29.617  29.309  1.00  0.00     0.031 A 
ATOM     13  C   UNL A   1      40.052  29.453  30.741  1.00  0.00     0.074 A 
ATOM     14  C   UNL A   1      40.388  29.094  28.310  1.00  0.00     0.049 A 
ATOM     15  N   UNL A   1      41.095  29.925  31.346  1.00  0.00    -0.248 NA
ATOM     16  C   UNL A   1      39.118  28.742  31.636  1.00  0.00     0.031 C 
ATOM     17  C   UNL A   1      40.000  28.892  26.912  1.00  0.00     0.029 A 
ATOM     18  N   UNL A   1      41.628  28.528  28.363  1.00  0.00    -0.354 N 
ATOM     19  C   UNL A   1      41.043  29.428  32.649  1.00  0.00     0.074 A 
ATOM     20  C   UNL A   1      39.749  28.821  32.807  1.00  0.00     0.031 C 
ATOM     21  C   UNL A   1      40.883  28.058  26.317  1.00  0.00     0.029 A 
ATOM     22  C   UNL A   1      41.964  27.771  27.245  1.00  0.00     0.049 A 
ATOM     23  H   UNL A   1      42.236  28.643  29.129  1.00  0.00     0.167 HD
ATOM     24  C   UNL A   1      42.146  29.369  33.445  1.00  0.00     0.037 A 
ATOM     25  C   UNL A   1      43.019  26.925  27.114  1.00  0.00     0.037 A 
ATOM     26  C   UNL A   1      43.177  30.261  32.994  1.00  0.00     0.049 A 
ATOM     27  C   UNL A   1      44.000  27.259  28.173  1.00  0.00     0.074 A 
ATOM     28  C   UNL A   1      43.269  31.629  32.818  1.00  0.00     0.029 A 
ATOM     29  N   UNL A   1      44.239  29.731  32.309  1.00  0.00    -0.354 N 
ATOM     30  N   UNL A   1      44.699  28.356  28.202  1.00  0.00    -0.248 NA
ATOM     31  C   UNL A   1      43.886  26.553  29.440  1.00  0.00     0.031 C 
ATOM     32  C   UNL A   1      44.053  31.793  31.639  1.00  0.00     0.029 A 
ATOM     33  C   UNL A   1      44.437  30.523  31.209  1.00  0.00     0.049 A 
ATOM     34  H   UNL A   1      44.760  28.934  32.560  1.00  0.00     0.167 HD
ATOM     35  C   UNL A   1      44.736  28.711  29.542  1.00  0.00     0.074 A 
ATOM     36  C   UNL A   1      44.297  27.520  30.264  1.00  0.00     0.031 C 
ATOM     37  C   UNL A   1      44.847  30.017  29.922  1.00  0.00     0.037 A 
BRANCH  24  38
ATOM     38  C   UNL A   1      42.417  28.251  34.422  1.00  0.00     0.057 A 
ATOM     39  C   UNL A   1      42.787  26.980  33.946  1.00  0.00     0.134 A 
ATOM     40  C   UNL A   1      42.042  28.294  35.781  1.00  0.00     0.134 A 
ATOM     41  F   UNL A   1      43.140  26.802  32.664  1.00  0.00    -0.206 F 
ATOM     42  C   UNL A   1      42.728  25.831  34.746  1.00  0.00     0.040 A 
ATOM     43  C   UNL A   1      42.028  27.163  36.601  1.00  0.00     0.040 A 
ATOM     44  F   UNL A   1      41.572  29.407  36.358  1.00  0.00    -0.206 F 
ATOM     45  C   UNL A   1      42.342  25.920  36.077  1.00  0.00     0.006 A 
ENDBRANCH  24  38
BRANCH  25  46
ATOM     46  C   UNL A   1      43.113  25.659  26.347  1.00  0.00     0.057 A 
ATOM     47  C   UNL A   1      44.111  25.463  25.381  1.00  0.00     0.134 A 
ATOM     48  C   UNL A   1      42.408  24.510  26.745  1.00  0.00     0.134 A 
ATOM     49  F   UNL A   1      44.870  26.488  24.967  1.00  0.00    -0.206 F 
ATOM     50  C   UNL A   1      44.407  24.196  24.860  1.00  0.00     0.040 A 
ATOM     51  C   UNL A   1      42.689  23.241  26.229  1.00  0.00     0.040 A 
ATOM     52  F   UNL A   1      41.487  24.567  27.717  1.00  0.00    -0.206 F 
ATOM     53  C   UNL A   1      43.702  23.077  25.292  1.00  0.00     0.006 A 
ENDBRANCH  25  46
BRANCH  37  54
ATOM     54  C   UNL A   1      45.176  31.034  28.863  1.00  0.00     0.057 A 
ATOM     55  C   UNL A   1      46.480  31.349  28.450  1.00  0.00     0.134 A 
ATOM     56  C   UNL A   1      44.128  31.607  28.136  1.00  0.00     0.134 A 
ATOM     57  F   UNL A   1      47.548  30.773  29.017  1.00  0.00    -0.206 F 
ATOM     58  C   UNL A   1      46.727  32.227  27.390  1.00  0.00     0.040 A 
ATOM     59  C   UNL A   1      44.361  32.459  27.053  1.00  0.00     0.040 A 
ATOM     60  F   UNL A   1      42.853  31.310  28.436  1.00  0.00    -0.206 F 
ATOM     61  C   UNL A   1      45.664  32.780  26.684  1.00  0.00     0.006 A 
ENDBRANCH  37  54
ENDBRANCH  11  12
ENDBRANCH   4   6
ENDBRANCH   1   2
BRANCH   1  62
ATOM     62  C   UNL A   1      34.325  35.656  28.671  1.00  0.00     0.042 C 
BRANCH  62  63
ATOM     63  C   UNL A   1      32.888  35.782  29.172  1.00  0.00     0.118 C 
BRANCH  63  64
ATOM     64  N   UNL A   1      32.748  36.752  30.235  1.00  0.00    -0.351 N 
ATOM     65  C   UNL A   1      33.188  36.796  31.515  1.00  0.00     0.278 C 
ATOM     66  H   UNL A   1      32.224  37.543  29.975  1.00  0.00     0.163 HD
ATOM     67  O   UNL A   1      32.910  37.841  32.120  1.00  0.00    -0.268 OA
BRANCH  65  68
ATOM     68  C   UNL A   1      33.977  35.670  32.242  1.00  0.00     0.275 C 
ATOM     69  C   UNL A   1      34.718  35.926  33.564  1.00  0.00     0.109 C 
ATOM     70  N   UNL A   1      33.099  34.460  32.354  1.00  0.00    -0.331 N 
ATOM     71  C   UNL A   1      35.624  34.756  33.933  1.00  0.00     0.164 C 
ATOM     72  C   UNL A   1      33.657  33.349  33.144  1.00  0.00     0.316 C 
ATOM     73  H   UNL A   1      32.915  34.117  31.411  1.00  0.00     0.347 HD
ATOM     74  H   UNL A   1      32.260  34.765  32.849  1.00  0.00     0.347 HD
ATOM     75  N   UNL A   1      36.987  34.878  33.377  1.00  0.00    -0.264 NA
ATOM     76  C   UNL A   1      35.132  33.555  33.210  1.00  0.00     0.098 C 
ATOM     77  C   UNL A   1      37.132  33.811  32.646  1.00  0.00     0.216 C 
ATOM     78  N   UNL A   1      36.049  32.976  32.511  1.00  0.00    -0.238 NA
ENDBRANCH  65  68
ENDBRANCH  63  64
ENDBRANCH  62  63
ENDBRANCH   1  62
TORSDOF 10
ENDMDL
