MODEL 1
REMARK VINA RESULT:     -11.9      0.000      0.000
REMARK SMILES [NH3+][C@H](Cc1cnc2[nH]cccc1-2)C(=O)NCCCNC(=O)c1ccc(-c2c3nc(c(-c4c(F)cccc4F)c4ccc([nH]4)c(-c4c(F)cccc4F)c4nc(c(-c5c(F)cccc5F)c5ccc2[nH]5)C=C4)C=C3)cc1
REMARK SMILES IDX 17 1 16 2 15 3 13 4 14 5 2 7 1 8 3 12 4 13 5 14 12 15 6 16
REMARK SMILES IDX 7 17 11 18 8 19 10 20 9 21 18 23 19 24 20 25 21 27 22 28
REMARK SMILES IDX 23 29 75 30 24 31 74 32 25 33 26 34 27 35 68 36 28 37 73 38
REMARK SMILES IDX 67 39 69 40 29 41 72 42 66 43 65 44 30 46 56 47 39 48 55 49
REMARK SMILES IDX 40 50 43 51 54 52 70 53 41 54 42 55 53 57 71 58 44 59 31 60
REMARK SMILES IDX 32 61 37 62 33 63 34 64 36 65 38 66 35 67 57 68 58 69 63 70
REMARK SMILES IDX 59 71 60 72 62 73 64 74 61 75 45 76 46 77 51 78 47 79 48 80
REMARK SMILES IDX 50 81 52 82 49 83
REMARK H PARENT 15 6 1 9 1 10 1 11 8 22 19 26 69 45 43 56
REMARK Flexibility Score: inf
ROOT
ATOM      1  C   UNL A   1      34.507  34.927  29.274  1.00  0.00     0.042 C 
ENDROOT
BRANCH   1   2
ATOM      2  C   UNL A   1      33.220  35.743  29.129  1.00  0.00     0.118 C 
BRANCH   2   3
ATOM      3  N   UNL A   1      33.144  36.821  30.096  1.00  0.00    -0.351 N 
ATOM      4  C   UNL A   1      32.980  36.813  31.448  1.00  0.00     0.278 C 
ATOM      5  O   UNL A   1      32.913  37.913  32.008  1.00  0.00    -0.268 OA
ATOM      6  H   UNL A   1      33.226  37.720  29.705  1.00  0.00     0.163 HD
BRANCH   4   7
ATOM      7  C   UNL A   1      32.867  35.504  32.266  1.00  0.00     0.275 C 
BRANCH   7   8
ATOM      8  N   UNL A   1      31.523  35.404  32.874  1.00  0.00    -0.347 N 
ATOM      9  H   UNL A   1      31.118  36.336  32.957  1.00  0.00     0.345 HD
ATOM     10  H   UNL A   1      31.600  34.983  33.801  1.00  0.00     0.345 HD
ATOM     11  H   UNL A   1      30.926  34.824  32.286  1.00  0.00     0.345 HD
ENDBRANCH   7   8
BRANCH   7  12
ATOM     12  C   UNL A   1      34.107  35.259  33.167  1.00  0.00     0.113 C 
BRANCH  12  13
ATOM     13  C   UNL A   1      34.798  33.943  33.016  1.00  0.00    -0.012 A 
ATOM     14  C   UNL A   1      34.613  32.977  32.093  1.00  0.00     0.118 A 
ATOM     15  C   UNL A   1      35.814  33.414  33.872  1.00  0.00     0.022 A 
ATOM     16  N   UNL A   1      35.466  31.887  32.176  1.00  0.00    -0.238 NA
ATOM     17  C   UNL A   1      36.204  32.122  33.229  1.00  0.00     0.137 A 
ATOM     18  C   UNL A   1      36.425  33.762  35.012  1.00  0.00     0.014 A 
ATOM     19  N   UNL A   1      37.211  31.372  33.767  1.00  0.00    -0.346 N 
ATOM     20  C   UNL A   1      37.463  32.896  35.576  1.00  0.00     0.018 A 
ATOM     21  C   UNL A   1      37.818  31.763  34.938  1.00  0.00     0.084 A 
ATOM     22  H   UNL A   1      37.503  30.546  33.315  1.00  0.00     0.167 HD
ENDBRANCH  12  13
ENDBRANCH   7  12
ENDBRANCH   4   7
ENDBRANCH   2   3
ENDBRANCH   1   2
BRANCH   1  23
ATOM     23  C   UNL A   1      34.934  34.214  27.994  1.00  0.00     0.118 C 
BRANCH  23  24
ATOM     24  N   UNL A   1      34.280  32.936  27.811  1.00  0.00    -0.352 N 
ATOM     25  C   UNL A   1      34.619  31.634  28.023  1.00  0.00     0.251 C 
ATOM     26  H   UNL A   1      33.371  33.032  27.446  1.00  0.00     0.163 HD
ATOM     27  O   UNL A   1      33.735  30.807  27.763  1.00  0.00    -0.269 OA
BRANCH  25  28
ATOM     28  C   UNL A   1      35.944  31.136  28.476  1.00  0.00     0.039 A 
ATOM     29  C   UNL A   1      37.027  31.914  28.893  1.00  0.00     0.014 A 
ATOM     30  C   UNL A   1      36.105  29.737  28.423  1.00  0.00     0.014 A 
ATOM     31  C   UNL A   1      38.262  31.320  29.154  1.00  0.00     0.010 A 
ATOM     32  C   UNL A   1      37.325  29.141  28.698  1.00  0.00     0.010 A 
ATOM     33  C   UNL A   1      38.417  29.940  29.010  1.00  0.00    -0.014 A 
BRANCH  33  34
ATOM     34  C   UNL A   1      39.723  29.339  29.265  1.00  0.00     0.031 A 
ATOM     35  C   UNL A   1      40.085  29.180  30.702  1.00  0.00     0.074 A 
ATOM     36  C   UNL A   1      40.478  28.822  28.274  1.00  0.00     0.049 A 
ATOM     37  N   UNL A   1      41.111  29.665  31.322  1.00  0.00    -0.248 NA
ATOM     38  C   UNL A   1      39.137  28.478  31.584  1.00  0.00     0.031 C 
ATOM     39  C   UNL A   1      40.140  28.689  26.854  1.00  0.00     0.029 A 
ATOM     40  N   UNL A   1      41.690  28.205  28.353  1.00  0.00    -0.354 N 
ATOM     41  C   UNL A   1      41.037  29.194  32.634  1.00  0.00     0.074 A 
ATOM     42  C   UNL A   1      39.741  28.583  32.769  1.00  0.00     0.031 C 
ATOM     43  C   UNL A   1      41.008  27.835  26.266  1.00  0.00     0.029 A 
ATOM     44  C   UNL A   1      42.026  27.459  27.230  1.00  0.00     0.049 A 
ATOM     45  H   UNL A   1      42.277  28.280  29.140  1.00  0.00     0.167 HD
ATOM     46  C   UNL A   1      42.130  29.174  33.447  1.00  0.00     0.037 A 
ATOM     47  C   UNL A   1      43.033  26.554  27.128  1.00  0.00     0.037 A 
ATOM     48  C   UNL A   1      43.168  30.038  32.948  1.00  0.00     0.049 A 
ATOM     49  C   UNL A   1      44.001  26.839  28.217  1.00  0.00     0.074 A 
ATOM     50  C   UNL A   1      43.270  31.394  32.701  1.00  0.00     0.029 A 
ATOM     51  N   UNL A   1      44.226  29.461  32.290  1.00  0.00    -0.354 N 
ATOM     52  N   UNL A   1      44.757  27.902  28.246  1.00  0.00    -0.248 NA
ATOM     53  C   UNL A   1      43.785  26.194  29.505  1.00  0.00     0.031 C 
ATOM     54  C   UNL A   1      44.058  31.491  31.518  1.00  0.00     0.029 A 
ATOM     55  C   UNL A   1      44.440  30.200  31.156  1.00  0.00     0.049 A 
ATOM     56  H   UNL A   1      44.733  28.668  32.578  1.00  0.00     0.167 HD
ATOM     57  C   UNL A   1      44.737  28.312  29.572  1.00  0.00     0.074 A 
ATOM     58  C   UNL A   1      44.196  27.174  30.315  1.00  0.00     0.031 C 
ATOM     59  C   UNL A   1      44.877  29.628  29.906  1.00  0.00     0.037 A 
BRANCH  46  60
ATOM     60  C   UNL A   1      42.422  28.113  34.483  1.00  0.00     0.057 A 
ATOM     61  C   UNL A   1      42.021  28.196  35.831  1.00  0.00     0.134 A 
ATOM     62  C   UNL A   1      42.812  26.829  34.055  1.00  0.00     0.134 A 
ATOM     63  F   UNL A   1      41.588  29.334  36.384  1.00  0.00    -0.206 F 
ATOM     64  C   UNL A   1      41.942  27.078  36.666  1.00  0.00     0.040 A 
ATOM     65  C   UNL A   1      42.691  25.696  34.868  1.00  0.00     0.040 A 
ATOM     66  F   UNL A   1      43.233  26.619  32.798  1.00  0.00    -0.206 F 
ATOM     67  C   UNL A   1      42.236  25.816  36.174  1.00  0.00     0.006 A 
ENDBRANCH  46  60
BRANCH  47  68
ATOM     68  C   UNL A   1      43.068  25.309  26.323  1.00  0.00     0.057 A 
ATOM     69  C   UNL A   1      42.352  24.160  26.711  1.00  0.00     0.134 A 
ATOM     70  C   UNL A   1      43.996  25.125  25.287  1.00  0.00     0.134 A 
ATOM     71  F   UNL A   1      41.502  24.188  27.748  1.00  0.00    -0.206 F 
ATOM     72  C   UNL A   1      42.542  22.912  26.111  1.00  0.00     0.040 A 
ATOM     73  C   UNL A   1      44.204  23.875  24.683  1.00  0.00     0.040 A 
ATOM     74  F   UNL A   1      44.766  26.141  24.874  1.00  0.00    -0.206 F 
ATOM     75  C   UNL A   1      43.480  22.763  25.099  1.00  0.00     0.006 A 
ENDBRANCH  47  68
BRANCH  59  76
ATOM     76  C   UNL A   1      45.260  30.593  28.819  1.00  0.00     0.057 A 
ATOM     77  C   UNL A   1      44.254  31.194  28.057  1.00  0.00     0.134 A 
ATOM     78  C   UNL A   1      46.584  30.819  28.410  1.00  0.00     0.134 A 
ATOM     79  F   UNL A   1      42.962  30.969  28.344  1.00  0.00    -0.206 F 
ATOM     80  C   UNL A   1      44.548  31.998  26.953  1.00  0.00     0.040 A 
ATOM     81  C   UNL A   1      46.894  31.648  27.329  1.00  0.00     0.040 A 
ATOM     82  F   UNL A   1      47.608  30.196  29.003  1.00  0.00    -0.206 F 
ATOM     83  C   UNL A   1      45.872  32.238  26.593  1.00  0.00     0.006 A 
ENDBRANCH  59  76
ENDBRANCH  33  34
ENDBRANCH  25  28
ENDBRANCH  23  24
ENDBRANCH   1  23
TORSDOF 13
ENDMDL
MODEL 2
REMARK VINA RESULT:     -11.7      3.736     11.400
REMARK SMILES [NH3+][C@H](Cc1cnc2[nH]cccc1-2)C(=O)NCCCNC(=O)c1ccc(-c2c3nc(c(-c4c(F)cccc4F)c4ccc([nH]4)c(-c4c(F)cccc4F)c4nc(c(-c5c(F)cccc5F)c5ccc2[nH]5)C=C4)C=C3)cc1
REMARK SMILES IDX 17 1 16 2 15 3 13 4 14 5 2 7 1 8 3 12 4 13 5 14 12 15 6 16
REMARK SMILES IDX 7 17 11 18 8 19 10 20 9 21 18 23 19 24 20 25 21 27 22 28
REMARK SMILES IDX 23 29 75 30 24 31 74 32 25 33 26 34 27 35 68 36 28 37 73 38
REMARK SMILES IDX 67 39 69 40 29 41 72 42 66 43 65 44 30 46 56 47 39 48 55 49
REMARK SMILES IDX 40 50 43 51 54 52 70 53 41 54 42 55 53 57 71 58 44 59 31 60
REMARK SMILES IDX 32 61 37 62 33 63 34 64 36 65 38 66 35 67 57 68 58 69 63 70
REMARK SMILES IDX 59 71 60 72 62 73 64 74 61 75 45 76 46 77 51 78 47 79 48 80
REMARK SMILES IDX 50 81 52 82 49 83
REMARK H PARENT 15 6 1 9 1 10 1 11 8 22 19 26 69 45 43 56
REMARK Flexibility Score: inf
ROOT
ATOM      1  C   UNL A   1      42.302  19.256  27.345  1.00  0.00     0.042 C 
ENDROOT
BRANCH   1   2
ATOM      2  C   UNL A   1      42.776  18.485  26.111  1.00  0.00     0.118 C 
BRANCH   2   3
ATOM      3  N   UNL A   1      44.218  18.340  26.077  1.00  0.00    -0.351 N 
ATOM      4  C   UNL A   1      45.177  18.999  25.369  1.00  0.00     0.278 C 
ATOM      5  O   UNL A   1      46.343  18.620  25.524  1.00  0.00    -0.268 OA
ATOM      6  H   UNL A   1      44.567  17.640  26.673  1.00  0.00     0.163 HD
BRANCH   4   7
ATOM      7  C   UNL A   1      44.847  20.160  24.400  1.00  0.00     0.275 C 
BRANCH   7   8
ATOM      8  N   UNL A   1      44.801  19.659  23.010  1.00  0.00    -0.347 N 
ATOM      9  H   UNL A   1      44.549  20.423  22.383  1.00  0.00     0.345 HD
ATOM     10  H   UNL A   1      44.105  18.917  22.939  1.00  0.00     0.345 HD
ATOM     11  H   UNL A   1      45.716  19.294  22.750  1.00  0.00     0.345 HD
ENDBRANCH   7   8
BRANCH   7  12
ATOM     12  C   UNL A   1      45.679  21.436  24.700  1.00  0.00     0.113 C 
BRANCH  12  13
ATOM     13  C   UNL A   1      44.930  22.726  24.766  1.00  0.00    -0.012 A 
ATOM     14  C   UNL A   1      43.601  22.951  24.715  1.00  0.00     0.118 A 
ATOM     15  C   UNL A   1      45.498  24.034  24.874  1.00  0.00     0.022 A 
ATOM     16  N   UNL A   1      43.202  24.270  24.875  1.00  0.00    -0.238 NA
ATOM     17  C   UNL A   1      44.317  24.944  24.979  1.00  0.00     0.137 A 
ATOM     18  C   UNL A   1      46.720  24.582  24.884  1.00  0.00     0.014 A 
ATOM     19  N   UNL A   1      44.505  26.285  25.155  1.00  0.00    -0.346 N 
ATOM     20  C   UNL A   1      46.867  26.033  25.023  1.00  0.00     0.018 A 
ATOM     21  C   UNL A   1      45.776  26.812  25.163  1.00  0.00     0.084 A 
ATOM     22  H   UNL A   1      43.728  26.878  25.275  1.00  0.00     0.167 HD
ENDBRANCH  12  13
ENDBRANCH   7  12
ENDBRANCH   4   7
ENDBRANCH   2   3
ENDBRANCH   1   2
BRANCH   1  23
ATOM     23  C   UNL A   1      42.102  20.750  27.101  1.00  0.00     0.118 C 
BRANCH  23  24
ATOM     24  N   UNL A   1      40.758  21.080  26.679  1.00  0.00    -0.352 N 
ATOM     25  C   UNL A   1      39.998  22.211  26.658  1.00  0.00     0.251 C 
ATOM     26  H   UNL A   1      40.277  20.300  26.320  1.00  0.00     0.163 HD
ATOM     27  O   UNL A   1      38.869  22.082  26.168  1.00  0.00    -0.269 OA
BRANCH  25  28
ATOM     28  C   UNL A   1      40.384  23.537  27.209  1.00  0.00     0.039 A 
ATOM     29  C   UNL A   1      41.501  23.815  28.001  1.00  0.00     0.014 A 
ATOM     30  C   UNL A   1      39.486  24.585  26.924  1.00  0.00     0.014 A 
ATOM     31  C   UNL A   1      41.663  25.077  28.571  1.00  0.00     0.010 A 
ATOM     32  C   UNL A   1      39.652  25.845  27.474  1.00  0.00     0.010 A 
ATOM     33  C   UNL A   1      40.712  26.074  28.342  1.00  0.00    -0.014 A 
BRANCH  33  34
ATOM     34  C   UNL A   1      40.887  27.382  28.966  1.00  0.00     0.031 A 
ATOM     35  C   UNL A   1      41.965  28.231  28.383  1.00  0.00     0.074 A 
ATOM     36  C   UNL A   1      40.031  27.851  29.897  1.00  0.00     0.049 A 
ATOM     37  N   UNL A   1      42.996  28.730  28.984  1.00  0.00    -0.248 NA
ATOM     38  C   UNL A   1      41.950  28.474  26.932  1.00  0.00     0.031 C 
ATOM     39  C   UNL A   1      38.794  27.231  30.383  1.00  0.00     0.029 A 
ATOM     40  N   UNL A   1      40.038  29.050  30.542  1.00  0.00    -0.354 N 
ATOM     41  C   UNL A   1      43.676  29.491  28.032  1.00  0.00     0.074 A 
ATOM     42  C   UNL A   1      43.063  29.190  26.765  1.00  0.00     0.031 C 
ATOM     43  C   UNL A   1      38.066  28.151  31.055  1.00  0.00     0.029 A 
ATOM     44  C   UNL A   1      38.833  29.381  31.150  1.00  0.00     0.049 A 
ATOM     45  H   UNL A   1      40.830  29.635  30.573  1.00  0.00     0.167 HD
ATOM     46  C   UNL A   1      44.565  30.458  28.395  1.00  0.00     0.037 A 
ATOM     47  C   UNL A   1      38.476  30.596  31.638  1.00  0.00     0.037 A 
ATOM     48  C   UNL A   1      44.988  30.292  29.761  1.00  0.00     0.049 A 
ATOM     49  C   UNL A   1      39.722  31.370  31.863  1.00  0.00     0.074 A 
ATOM     50  C   UNL A   1      45.651  29.302  30.461  1.00  0.00     0.029 A 
ATOM     51  N   UNL A   1      44.426  31.106  30.713  1.00  0.00    -0.354 N 
ATOM     52  N   UNL A   1      40.588  31.082  32.795  1.00  0.00    -0.248 NA
ATOM     53  C   UNL A   1      40.242  32.161  30.756  1.00  0.00     0.031 C 
ATOM     54  C   UNL A   1      45.031  29.284  31.743  1.00  0.00     0.029 A 
ATOM     55  C   UNL A   1      44.079  30.303  31.767  1.00  0.00     0.049 A 
ATOM     56  H   UNL A   1      44.297  32.080  30.650  1.00  0.00     0.167 HD
ATOM     57  C   UNL A   1      41.826  31.255  32.192  1.00  0.00     0.074 A 
ATOM     58  C   UNL A   1      41.552  32.003  30.966  1.00  0.00     0.031 C 
ATOM     59  C   UNL A   1      42.911  30.524  32.584  1.00  0.00     0.037 A 
BRANCH  46  60
ATOM     60  C   UNL A   1      44.778  31.761  27.659  1.00  0.00     0.057 A 
ATOM     61  C   UNL A   1      44.066  32.946  27.932  1.00  0.00     0.134 A 
ATOM     62  C   UNL A   1      45.950  31.931  26.897  1.00  0.00     0.134 A 
ATOM     63  F   UNL A   1      42.952  32.961  28.673  1.00  0.00    -0.206 F 
ATOM     64  C   UNL A   1      44.522  34.208  27.542  1.00  0.00     0.040 A 
ATOM     65  C   UNL A   1      46.441  33.194  26.544  1.00  0.00     0.040 A 
ATOM     66  F   UNL A   1      46.709  30.879  26.553  1.00  0.00    -0.206 F 
ATOM     67  C   UNL A   1      45.735  34.340  26.884  1.00  0.00     0.006 A 
ENDBRANCH  46  60
BRANCH  47  68
ATOM     68  C   UNL A   1      37.127  31.213  31.664  1.00  0.00     0.057 A 
ATOM     69  C   UNL A   1      36.467  31.591  30.480  1.00  0.00     0.134 A 
ATOM     70  C   UNL A   1      36.550  31.678  32.856  1.00  0.00     0.134 A 
ATOM     71  F   UNL A   1      36.969  31.284  29.275  1.00  0.00    -0.206 F 
ATOM     72  C   UNL A   1      35.310  32.376  30.476  1.00  0.00     0.040 A 
ATOM     73  C   UNL A   1      35.396  32.475  32.866  1.00  0.00     0.040 A 
ATOM     74  F   UNL A   1      37.127  31.418  34.038  1.00  0.00    -0.206 F 
ATOM     75  C   UNL A   1      34.775  32.832  31.673  1.00  0.00     0.006 A 
ENDBRANCH  47  68
BRANCH  59  76
ATOM     76  C   UNL A   1      42.781  29.679  33.821  1.00  0.00     0.057 A 
ATOM     77  C   UNL A   1      42.260  28.387  33.710  1.00  0.00     0.134 A 
ATOM     78  C   UNL A   1      43.007  30.161  35.120  1.00  0.00     0.134 A 
ATOM     79  F   UNL A   1      41.952  27.882  32.505  1.00  0.00    -0.206 F 
ATOM     80  C   UNL A   1      41.995  27.601  34.835  1.00  0.00     0.040 A 
ATOM     81  C   UNL A   1      42.778  29.375  36.251  1.00  0.00     0.040 A 
ATOM     82  F   UNL A   1      43.393  31.424  35.333  1.00  0.00    -0.206 F 
ATOM     83  C   UNL A   1      42.267  28.089  36.111  1.00  0.00     0.006 A 
ENDBRANCH  59  76
ENDBRANCH  33  34
ENDBRANCH  25  28
ENDBRANCH  23  24
ENDBRANCH   1  23
TORSDOF 13
ENDMDL
MODEL 3
REMARK VINA RESULT:     -11.5      0.638      1.798
REMARK SMILES [NH3+][C@H](Cc1cnc2[nH]cccc1-2)C(=O)NCCCNC(=O)c1ccc(-c2c3nc(c(-c4c(F)cccc4F)c4ccc([nH]4)c(-c4c(F)cccc4F)c4nc(c(-c5c(F)cccc5F)c5ccc2[nH]5)C=C4)C=C3)cc1
REMARK SMILES IDX 17 1 16 2 15 3 13 4 14 5 2 7 1 8 3 12 4 13 5 14 12 15 6 16
REMARK SMILES IDX 7 17 11 18 8 19 10 20 9 21 18 23 19 24 20 25 21 27 22 28
REMARK SMILES IDX 23 29 75 30 24 31 74 32 25 33 26 34 27 35 68 36 28 37 73 38
REMARK SMILES IDX 67 39 69 40 29 41 72 42 66 43 65 44 30 46 56 47 39 48 55 49
REMARK SMILES IDX 40 50 43 51 54 52 70 53 41 54 42 55 53 57 71 58 44 59 31 60
REMARK SMILES IDX 32 61 37 62 33 63 34 64 36 65 38 66 35 67 57 68 58 69 63 70
REMARK SMILES IDX 59 71 60 72 62 73 64 74 61 75 45 76 46 77 51 78 47 79 48 80
REMARK SMILES IDX 50 81 52 82 49 83
REMARK H PARENT 15 6 1 9 1 10 1 11 8 22 19 26 69 45 43 56
REMARK Flexibility Score: inf
ROOT
ATOM      1  C   UNL A   1      34.385  35.598  28.407  1.00  0.00     0.042 C 
ENDROOT
BRANCH   1   2
ATOM      2  C   UNL A   1      33.051  35.632  29.156  1.00  0.00     0.118 C 
BRANCH   2   3
ATOM      3  N   UNL A   1      32.967  36.754  30.072  1.00  0.00    -0.351 N 
ATOM      4  C   UNL A   1      33.076  36.826  31.427  1.00  0.00     0.278 C 
ATOM      5  O   UNL A   1      32.916  37.939  31.940  1.00  0.00    -0.268 OA
ATOM      6  H   UNL A   1      32.802  37.620  29.634  1.00  0.00     0.163 HD
BRANCH   4   7
ATOM      7  C   UNL A   1      33.371  35.587  32.306  1.00  0.00     0.275 C 
BRANCH   7   8
ATOM      8  N   UNL A   1      32.103  34.978  32.761  1.00  0.00    -0.347 N 
ATOM      9  H   UNL A   1      32.061  34.008  32.447  1.00  0.00     0.345 HD
ATOM     10  H   UNL A   1      31.317  35.496  32.369  1.00  0.00     0.345 HD
ATOM     11  H   UNL A   1      32.058  35.008  33.779  1.00  0.00     0.345 HD
ENDBRANCH   7   8
BRANCH   7  12
ATOM     12  C   UNL A   1      34.481  35.857  33.357  1.00  0.00     0.113 C 
BRANCH  12  13
ATOM     13  C   UNL A   1      35.282  34.679  33.806  1.00  0.00    -0.012 A 
ATOM     14  C   UNL A   1      35.963  34.492  34.956  1.00  0.00     0.118 A 
ATOM     15  C   UNL A   1      35.518  33.479  33.066  1.00  0.00     0.022 A 
ATOM     16  N   UNL A   1      36.557  33.249  35.113  1.00  0.00    -0.238 NA
ATOM     17  C   UNL A   1      36.303  32.615  33.999  1.00  0.00     0.137 A 
ATOM     18  C   UNL A   1      35.242  33.002  31.844  1.00  0.00     0.014 A 
ATOM     19  N   UNL A   1      36.653  31.350  33.622  1.00  0.00    -0.346 N 
ATOM     20  C   UNL A   1      35.686  31.658  31.470  1.00  0.00     0.018 A 
ATOM     21  C   UNL A   1      36.350  30.893  32.360  1.00  0.00     0.084 A 
ATOM     22  H   UNL A   1      37.126  30.762  34.256  1.00  0.00     0.167 HD
ENDBRANCH  12  13
ENDBRANCH   7  12
ENDBRANCH   4   7
ENDBRANCH   2   3
ENDBRANCH   1   2
BRANCH   1  23
ATOM     23  C   UNL A   1      35.119  34.264  28.511  1.00  0.00     0.118 C 
BRANCH  23  24
ATOM     24  N   UNL A   1      34.319  33.140  28.073  1.00  0.00    -0.352 N 
ATOM     25  C   UNL A   1      34.536  31.808  27.891  1.00  0.00     0.251 C 
ATOM     26  H   UNL A   1      33.396  33.403  27.854  1.00  0.00     0.163 HD
ATOM     27  O   UNL A   1      33.549  31.156  27.525  1.00  0.00    -0.269 OA
BRANCH  25  28
ATOM     28  C   UNL A   1      35.836  31.103  28.039  1.00  0.00     0.039 A 
ATOM     29  C   UNL A   1      36.067  29.737  27.857  1.00  0.00     0.014 A 
ATOM     30  C   UNL A   1      36.911  31.915  28.450  1.00  0.00     0.014 A 
ATOM     31  C   UNL A   1      37.308  29.184  28.170  1.00  0.00     0.010 A 
ATOM     32  C   UNL A   1      38.152  31.373  28.747  1.00  0.00     0.010 A 
ATOM     33  C   UNL A   1      38.332  29.999  28.659  1.00  0.00    -0.014 A 
BRANCH  33  34
ATOM     34  C   UNL A   1      39.617  29.399  29.003  1.00  0.00     0.031 A 
ATOM     35  C   UNL A   1      39.861  29.199  30.460  1.00  0.00     0.074 A 
ATOM     36  C   UNL A   1      40.455  28.916  28.063  1.00  0.00     0.049 A 
ATOM     37  N   UNL A   1      40.830  29.672  31.175  1.00  0.00    -0.248 NA
ATOM     38  C   UNL A   1      38.851  28.466  31.240  1.00  0.00     0.031 C 
ATOM     39  C   UNL A   1      40.235  28.822  26.616  1.00  0.00     0.029 A 
ATOM     40  N   UNL A   1      41.661  28.304  28.222  1.00  0.00    -0.354 N 
ATOM     41  C   UNL A   1      40.653  29.162  32.463  1.00  0.00     0.074 A 
ATOM     42  C   UNL A   1      39.355  28.539  32.473  1.00  0.00     0.031 C 
ATOM     43  C   UNL A   1      41.155  27.991  26.077  1.00  0.00     0.029 A 
ATOM     44  C   UNL A   1      42.095  27.593  27.110  1.00  0.00     0.049 A 
ATOM     45  H   UNL A   1      42.181  28.359  29.057  1.00  0.00     0.167 HD
ATOM     46  C   UNL A   1      41.676  29.125  33.362  1.00  0.00     0.037 A 
ATOM     47  C   UNL A   1      43.113  26.697  27.064  1.00  0.00     0.037 A 
ATOM     48  C   UNL A   1      42.744  30.009  32.974  1.00  0.00     0.049 A 
ATOM     49  C   UNL A   1      43.987  26.956  28.237  1.00  0.00     0.074 A 
ATOM     50  C   UNL A   1      42.855  31.372  32.776  1.00  0.00     0.029 A 
ATOM     51  N   UNL A   1      43.857  29.458  32.389  1.00  0.00    -0.354 N 
ATOM     52  N   UNL A   1      44.729  28.022  28.359  1.00  0.00    -0.248 NA
ATOM     53  C   UNL A   1      43.672  26.272  29.484  1.00  0.00     0.031 C 
ATOM     54  C   UNL A   1      43.736  31.509  31.665  1.00  0.00     0.029 A 
ATOM     55  C   UNL A   1      44.157  30.231  31.298  1.00  0.00     0.049 A 
ATOM     56  H   UNL A   1      44.345  28.660  32.694  1.00  0.00     0.167 HD
ATOM     57  C   UNL A   1      44.598  28.393  29.689  1.00  0.00     0.074 A 
ATOM     58  C   UNL A   1      44.007  27.231  30.353  1.00  0.00     0.031 C 
ATOM     59  C   UNL A   1      44.699  29.700  30.072  1.00  0.00     0.037 A 
BRANCH  46  60
ATOM     60  C   UNL A   1      41.891  28.035  34.387  1.00  0.00     0.057 A 
ATOM     61  C   UNL A   1      42.495  26.795  34.104  1.00  0.00     0.134 A 
ATOM     62  C   UNL A   1      41.805  28.358  35.756  1.00  0.00     0.134 A 
ATOM     63  F   UNL A   1      42.687  26.356  32.855  1.00  0.00    -0.206 F 
ATOM     64  C   UNL A   1      43.039  25.974  35.097  1.00  0.00     0.040 A 
ATOM     65  C   UNL A   1      42.388  27.568  36.753  1.00  0.00     0.040 A 
ATOM     66  F   UNL A   1      41.234  29.504  36.160  1.00  0.00    -0.206 F 
ATOM     67  C   UNL A   1      43.025  26.379  36.422  1.00  0.00     0.006 A 
ENDBRANCH  46  60
BRANCH  47  68
ATOM     68  C   UNL A   1      43.224  25.477  26.229  1.00  0.00     0.057 A 
ATOM     69  C   UNL A   1      42.496  24.311  26.529  1.00  0.00     0.134 A 
ATOM     70  C   UNL A   1      44.230  25.333  25.262  1.00  0.00     0.134 A 
ATOM     71  F   UNL A   1      41.569  24.299  27.498  1.00  0.00    -0.206 F 
ATOM     72  C   UNL A   1      42.745  23.082  25.910  1.00  0.00     0.040 A 
ATOM     73  C   UNL A   1      44.499  24.103  24.640  1.00  0.00     0.040 A 
ATOM     74  F   UNL A   1      45.017  26.368  24.938  1.00  0.00    -0.206 F 
ATOM     75  C   UNL A   1      43.759  22.972  24.968  1.00  0.00     0.006 A 
ENDBRANCH  47  68
BRANCH  59  76
ATOM     76  C   UNL A   1      45.161  30.699  29.048  1.00  0.00     0.057 A 
ATOM     77  C   UNL A   1      46.489  31.133  29.074  1.00  0.00     0.134 A 
ATOM     78  C   UNL A   1      44.300  31.349  28.150  1.00  0.00     0.134 A 
ATOM     79  F   UNL A   1      47.356  30.609  29.954  1.00  0.00    -0.206 F 
ATOM     80  C   UNL A   1      46.946  32.152  28.233  1.00  0.00     0.040 A 
ATOM     81  C   UNL A   1      44.751  32.345  27.281  1.00  0.00     0.040 A 
ATOM     82  F   UNL A   1      42.989  31.084  28.134  1.00  0.00    -0.206 F 
ATOM     83  C   UNL A   1      46.079  32.752  27.323  1.00  0.00     0.006 A 
ENDBRANCH  59  76
ENDBRANCH  33  34
ENDBRANCH  25  28
ENDBRANCH  23  24
ENDBRANCH   1  23
TORSDOF 13
ENDMDL
