MODEL 1
REMARK VINA RESULT:     -10.5      0.000      0.000
REMARK SMILES C[C@H]([NH2+]Cc1cc(C(=O)NCCCNC(=O)c2ccc(-c3c4nc(c(-c5c(F)cccc5F)c5ccc([nH]5)c(-c5c(F)cccc5F)c5nc(c(-c6c(F)cccc6F)c6ccc3[nH]6)C=C5)C=C4)cc2)cs1)c1ccsc1
REMARK SMILES IDX 11 1 10 2 8 3 9 4 7 6 5 7 6 8 72 9 71 10 4 11 3 12 2 15 1 16
REMARK SMILES IDX 73 17 74 18 77 19 75 20 76 21 12 22 13 23 14 24 15 25 16 27
REMARK SMILES IDX 17 28 18 29 70 30 19 31 69 32 20 33 21 34 22 35 63 36 23 37
REMARK SMILES IDX 68 38 62 39 64 40 24 41 67 42 61 43 60 44 25 46 51 47 34 48
REMARK SMILES IDX 50 49 35 50 38 51 49 52 65 53 36 54 37 55 48 57 66 58 39 59
REMARK SMILES IDX 26 60 27 61 32 62 28 63 29 64 31 65 33 66 30 67 52 68 53 69
REMARK SMILES IDX 58 70 54 71 55 72 57 73 59 74 56 75 40 76 41 77 46 78 42 79
REMARK SMILES IDX 43 80 45 81 47 82 44 83
REMARK H PARENT 10 5 3 13 3 14 14 26 64 45 38 56
REMARK Flexibility Score: inf
ROOT
ATOM      1  C   UNL A   1      36.369  20.242  24.967  1.00  0.00     0.118 C 
ENDROOT
BRANCH   1   2
ATOM      2  N   UNL A   1      35.324  19.242  24.879  1.00  0.00    -0.352 N 
ATOM      3  C   UNL A   1      33.957  19.360  24.821  1.00  0.00     0.252 C 
ATOM      4  O   UNL A   1      33.316  18.325  24.638  1.00  0.00    -0.269 OA
ATOM      5  H   UNL A   1      35.651  18.315  24.856  1.00  0.00     0.163 HD
BRANCH   3   6
ATOM      6  C   UNL A   1      33.295  20.663  24.916  1.00  0.00     0.051 A 
ATOM      7  C   UNL A   1      32.569  22.765  25.708  1.00  0.00     0.059 A 
ATOM      8  C   UNL A   1      33.183  21.567  26.024  1.00  0.00     0.035 A 
ATOM      9  S   UNL A   1      31.978  22.746  24.105  1.00  0.00    -0.142 S 
ATOM     10  C   UNL A   1      32.606  21.182  23.831  1.00  0.00     0.079 A 
BRANCH   7  11
ATOM     11  C   UNL A   1      32.424  23.996  26.556  1.00  0.00     0.308 C 
BRANCH  11  12
ATOM     12  N   UNL A   1      32.181  25.171  25.722  1.00  0.00    -0.336 N 
ATOM     13  H   UNL A   1      31.863  24.857  24.805  1.00  0.00     0.347 HD
ATOM     14  H   UNL A   1      31.481  25.740  26.199  1.00  0.00     0.347 HD
BRANCH  12  15
ATOM     15  C   UNL A   1      33.370  26.007  25.542  1.00  0.00     0.211 C 
ATOM     16  C   UNL A   1      33.814  26.132  24.081  1.00  0.00     0.081 C 
BRANCH  15  17
ATOM     17  C   UNL A   1      33.042  27.344  26.178  1.00  0.00     0.020 A 
ATOM     18  C   UNL A   1      31.754  27.666  26.734  1.00  0.00     0.021 A 
ATOM     19  C   UNL A   1      33.899  28.426  26.303  1.00  0.00     0.074 A 
ATOM     20  C   UNL A   1      31.696  28.939  27.255  1.00  0.00     0.065 A 
ATOM     21  S   UNL A   1      33.179  29.766  27.083  1.00  0.00    -0.152 S 
ENDBRANCH  15  17
ENDBRANCH  12  15
ENDBRANCH  11  12
ENDBRANCH   7  11
ENDBRANCH   3   6
ENDBRANCH   1   2
BRANCH   1  22
ATOM     22  C   UNL A   1      37.752  19.627  24.749  1.00  0.00     0.042 C 
BRANCH  22  23
ATOM     23  C   UNL A   1      38.803  20.147  25.728  1.00  0.00     0.118 C 
BRANCH  23  24
ATOM     24  N   UNL A   1      39.964  19.273  25.797  1.00  0.00    -0.352 N 
ATOM     25  C   UNL A   1      41.277  19.558  26.070  1.00  0.00     0.251 C 
ATOM     26  H   UNL A   1      39.777  18.323  25.619  1.00  0.00     0.163 HD
ATOM     27  O   UNL A   1      42.133  18.702  25.866  1.00  0.00    -0.269 OA
BRANCH  25  28
ATOM     28  C   UNL A   1      41.677  20.880  26.603  1.00  0.00     0.039 A 
ATOM     29  C   UNL A   1      42.070  21.871  25.699  1.00  0.00     0.014 A 
ATOM     30  C   UNL A   1      41.731  21.128  27.977  1.00  0.00     0.014 A 
ATOM     31  C   UNL A   1      42.482  23.120  26.168  1.00  0.00     0.010 A 
ATOM     32  C   UNL A   1      42.078  22.396  28.442  1.00  0.00     0.010 A 
ATOM     33  C   UNL A   1      42.469  23.400  27.544  1.00  0.00    -0.014 A 
BRANCH  33  34
ATOM     34  C   UNL A   1      42.878  24.731  28.057  1.00  0.00     0.031 A 
ATOM     35  C   UNL A   1      41.842  25.787  28.332  1.00  0.00     0.074 A 
ATOM     36  C   UNL A   1      44.185  25.005  28.228  1.00  0.00     0.049 A 
ATOM     37  N   UNL A   1      42.007  27.026  28.724  1.00  0.00    -0.248 NA
ATOM     38  C   UNL A   1      40.437  25.408  28.116  1.00  0.00     0.031 C 
ATOM     39  C   UNL A   1      45.287  24.080  27.953  1.00  0.00     0.029 A 
ATOM     40  N   UNL A   1      44.809  26.146  28.663  1.00  0.00    -0.354 N 
ATOM     41  C   UNL A   1      40.733  27.575  28.789  1.00  0.00     0.074 A 
ATOM     42  C   UNL A   1      39.810  26.552  28.346  1.00  0.00     0.031 C 
ATOM     43  C   UNL A   1      46.449  24.685  28.244  1.00  0.00     0.029 A 
ATOM     44  C   UNL A   1      46.179  26.047  28.693  1.00  0.00     0.049 A 
ATOM     45  H   UNL A   1      44.322  26.959  28.930  1.00  0.00     0.167 HD
ATOM     46  C   UNL A   1      40.362  28.810  29.202  1.00  0.00     0.037 A 
ATOM     47  C   UNL A   1      47.111  26.955  29.036  1.00  0.00     0.037 A 
ATOM     48  C   UNL A   1      41.281  29.820  29.660  1.00  0.00     0.049 A 
ATOM     49  C   UNL A   1      46.674  28.318  29.495  1.00  0.00     0.074 A 
ATOM     50  C   UNL A   1      41.003  31.090  30.135  1.00  0.00     0.029 A 
ATOM     51  N   UNL A   1      42.659  29.670  29.704  1.00  0.00    -0.354 N 
ATOM     52  N   UNL A   1      45.462  28.805  29.603  1.00  0.00    -0.248 NA
ATOM     53  C   UNL A   1      47.735  29.254  29.892  1.00  0.00     0.031 C 
ATOM     54  C   UNL A   1      42.215  31.720  30.435  1.00  0.00     0.029 A 
ATOM     55  C   UNL A   1      43.245  30.827  30.189  1.00  0.00     0.049 A 
ATOM     56  H   UNL A   1      43.148  28.860  29.431  1.00  0.00     0.167 HD
ATOM     57  C   UNL A   1      45.611  30.091  30.105  1.00  0.00     0.074 A 
ATOM     58  C   UNL A   1      47.032  30.302  30.295  1.00  0.00     0.031 C 
ATOM     59  C   UNL A   1      44.660  31.015  30.383  1.00  0.00     0.037 A 
BRANCH  46  60
ATOM     60  C   UNL A   1      38.896  29.133  29.184  1.00  0.00     0.057 A 
ATOM     61  C   UNL A   1      38.111  29.056  30.342  1.00  0.00     0.134 A 
ATOM     62  C   UNL A   1      38.266  29.552  28.005  1.00  0.00     0.134 A 
ATOM     63  F   UNL A   1      38.650  28.649  31.502  1.00  0.00    -0.206 F 
ATOM     64  C   UNL A   1      36.748  29.356  30.324  1.00  0.00     0.040 A 
ATOM     65  C   UNL A   1      36.909  29.881  27.980  1.00  0.00     0.040 A 
ATOM     66  F   UNL A   1      38.959  29.656  26.861  1.00  0.00    -0.206 F 
ATOM     67  C   UNL A   1      36.145  29.777  29.140  1.00  0.00     0.006 A 
ENDBRANCH  46  60
BRANCH  47  68
ATOM     68  C   UNL A   1      48.552  26.599  28.984  1.00  0.00     0.057 A 
ATOM     69  C   UNL A   1      49.305  26.807  27.823  1.00  0.00     0.134 A 
ATOM     70  C   UNL A   1      49.205  26.035  30.085  1.00  0.00     0.134 A 
ATOM     71  F   UNL A   1      48.730  27.328  26.729  1.00  0.00    -0.206 F 
ATOM     72  C   UNL A   1      50.650  26.445  27.750  1.00  0.00     0.040 A 
ATOM     73  C   UNL A   1      50.556  25.691  30.035  1.00  0.00     0.040 A 
ATOM     74  F   UNL A   1      48.541  25.819  31.230  1.00  0.00    -0.206 F 
ATOM     75  C   UNL A   1      51.282  25.888  28.861  1.00  0.00     0.006 A 
ENDBRANCH  47  68
BRANCH  59  76
ATOM     76  C   UNL A   1      45.123  32.319  30.962  1.00  0.00     0.057 A 
ATOM     77  C   UNL A   1      45.263  32.509  32.341  1.00  0.00     0.134 A 
ATOM     78  C   UNL A   1      45.455  33.390  30.122  1.00  0.00     0.134 A 
ATOM     79  F   UNL A   1      44.947  31.528  33.199  1.00  0.00    -0.206 F 
ATOM     80  C   UNL A   1      45.695  33.728  32.868  1.00  0.00     0.040 A 
ATOM     81  C   UNL A   1      45.913  34.604  30.635  1.00  0.00     0.040 A 
ATOM     82  F   UNL A   1      45.351  33.271  28.790  1.00  0.00    -0.206 F 
ATOM     83  C   UNL A   1      46.026  34.777  32.013  1.00  0.00     0.006 A 
ENDBRANCH  59  76
ENDBRANCH  33  34
ENDBRANCH  25  28
ENDBRANCH  23  24
ENDBRANCH  22  23
ENDBRANCH   1  22
TORSDOF 14
ENDMDL
MODEL 2
REMARK VINA RESULT:     -10.5      4.742      9.139
REMARK SMILES C[C@H]([NH2+]Cc1cc(C(=O)NCCCNC(=O)c2ccc(-c3c4nc(c(-c5c(F)cccc5F)c5ccc([nH]5)c(-c5c(F)cccc5F)c5nc(c(-c6c(F)cccc6F)c6ccc3[nH]6)C=C5)C=C4)cc2)cs1)c1ccsc1
REMARK SMILES IDX 11 1 10 2 8 3 9 4 7 6 5 7 6 8 72 9 71 10 4 11 3 12 2 15 1 16
REMARK SMILES IDX 73 17 74 18 77 19 75 20 76 21 12 22 13 23 14 24 15 25 16 27
REMARK SMILES IDX 17 28 18 29 70 30 19 31 69 32 20 33 21 34 22 35 63 36 23 37
REMARK SMILES IDX 68 38 62 39 64 40 24 41 67 42 61 43 60 44 25 46 51 47 34 48
REMARK SMILES IDX 50 49 35 50 38 51 49 52 65 53 36 54 37 55 48 57 66 58 39 59
REMARK SMILES IDX 26 60 27 61 32 62 28 63 29 64 31 65 33 66 30 67 52 68 53 69
REMARK SMILES IDX 58 70 54 71 55 72 57 73 59 74 56 75 40 76 41 77 46 78 42 79
REMARK SMILES IDX 43 80 45 81 47 82 44 83
REMARK H PARENT 10 5 3 13 3 14 14 26 64 45 38 56
REMARK Flexibility Score: inf
ROOT
ATOM      1  C   UNL A   1      31.564  30.780  26.527  1.00  0.00     0.118 C 
ENDROOT
BRANCH   1   2
ATOM      2  N   UNL A   1      32.761  30.284  27.175  1.00  0.00    -0.352 N 
ATOM      3  C   UNL A   1      33.390  29.065  27.110  1.00  0.00     0.252 C 
ATOM      4  O   UNL A   1      34.470  28.963  27.694  1.00  0.00    -0.269 OA
ATOM      5  H   UNL A   1      33.202  30.936  27.765  1.00  0.00     0.163 HD
BRANCH   3   6
ATOM      6  C   UNL A   1      32.832  27.954  26.336  1.00  0.00     0.051 A 
ATOM      7  C   UNL A   1      31.358  26.309  25.503  1.00  0.00     0.059 A 
ATOM      8  C   UNL A   1      31.602  27.235  26.500  1.00  0.00     0.035 A 
ATOM      9  S   UNL A   1      32.691  26.186  24.442  1.00  0.00    -0.142 S 
ATOM     10  C   UNL A   1      33.541  27.410  25.275  1.00  0.00     0.079 A 
BRANCH   7  11
ATOM     11  C   UNL A   1      30.116  25.500  25.260  1.00  0.00     0.308 C 
BRANCH  11  12
ATOM     12  N   UNL A   1      30.413  24.070  25.318  1.00  0.00    -0.336 N 
ATOM     13  H   UNL A   1      29.616  23.558  24.940  1.00  0.00     0.347 HD
ATOM     14  H   UNL A   1      31.262  23.915  24.774  1.00  0.00     0.347 HD
BRANCH  12  15
ATOM     15  C   UNL A   1      30.674  23.588  26.676  1.00  0.00     0.211 C 
ATOM     16  C   UNL A   1      29.529  22.756  27.261  1.00  0.00     0.081 C 
BRANCH  15  17
ATOM     17  C   UNL A   1      31.984  22.827  26.605  1.00  0.00     0.020 A 
ATOM     18  C   UNL A   1      32.788  22.518  27.758  1.00  0.00     0.021 A 
ATOM     19  C   UNL A   1      32.592  22.345  25.457  1.00  0.00     0.074 A 
ATOM     20  C   UNL A   1      33.933  21.820  27.444  1.00  0.00     0.065 A 
ATOM     21  S   UNL A   1      34.063  21.530  25.767  1.00  0.00    -0.152 S 
ENDBRANCH  15  17
ENDBRANCH  12  15
ENDBRANCH  11  12
ENDBRANCH   7  11
ENDBRANCH   3   6
ENDBRANCH   1   2
BRANCH   1  22
ATOM     22  C   UNL A   1      31.382  32.280  26.759  1.00  0.00     0.042 C 
BRANCH  22  23
ATOM     23  C   UNL A   1      32.704  33.026  26.935  1.00  0.00     0.118 C 
BRANCH  23  24
ATOM     24  N   UNL A   1      32.544  34.241  27.723  1.00  0.00    -0.352 N 
ATOM     25  C   UNL A   1      33.175  34.645  28.870  1.00  0.00     0.251 C 
ATOM     26  H   UNL A   1      31.874  34.873  27.374  1.00  0.00     0.163 HD
ATOM     27  O   UNL A   1      32.736  35.611  29.489  1.00  0.00    -0.269 OA
BRANCH  25  28
ATOM     28  C   UNL A   1      34.372  33.937  29.374  1.00  0.00     0.039 A 
ATOM     29  C   UNL A   1      34.199  32.936  30.335  1.00  0.00     0.014 A 
ATOM     30  C   UNL A   1      35.659  34.292  28.963  1.00  0.00     0.014 A 
ATOM     31  C   UNL A   1      35.308  32.267  30.855  1.00  0.00     0.010 A 
ATOM     32  C   UNL A   1      36.762  33.579  29.432  1.00  0.00     0.010 A 
ATOM     33  C   UNL A   1      36.599  32.569  30.391  1.00  0.00    -0.014 A 
BRANCH  33  34
ATOM     34  C   UNL A   1      37.787  31.849  30.914  1.00  0.00     0.031 A 
ATOM     35  C   UNL A   1      38.363  32.214  32.255  1.00  0.00     0.074 A 
ATOM     36  C   UNL A   1      38.375  30.901  30.160  1.00  0.00     0.049 A 
ATOM     37  N   UNL A   1      39.429  31.743  32.853  1.00  0.00    -0.248 NA
ATOM     38  C   UNL A   1      37.663  33.262  33.013  1.00  0.00     0.031 C 
ATOM     39  C   UNL A   1      37.938  30.489  28.825  1.00  0.00     0.029 A 
ATOM     40  N   UNL A   1      39.476  30.120  30.405  1.00  0.00    -0.354 N 
ATOM     41  C   UNL A   1      39.533  32.445  34.047  1.00  0.00     0.074 A 
ATOM     42  C   UNL A   1      38.454  33.409  34.065  1.00  0.00     0.031 C 
ATOM     43  C   UNL A   1      38.750  29.518  28.378  1.00  0.00     0.029 A 
ATOM     44  C   UNL A   1      39.783  29.263  29.376  1.00  0.00     0.049 A 
ATOM     45  H   UNL A   1      39.996  30.167  31.240  1.00  0.00     0.167 HD
ATOM     46  C   UNL A   1      40.430  32.286  35.049  1.00  0.00     0.037 A 
ATOM     47  C   UNL A   1      40.789  28.377  29.251  1.00  0.00     0.037 A 
ATOM     48  C   UNL A   1      41.492  31.312  35.037  1.00  0.00     0.049 A 
ATOM     49  C   UNL A   1      41.769  28.215  30.378  1.00  0.00     0.074 A 
ATOM     50  C   UNL A   1      42.431  31.046  36.018  1.00  0.00     0.029 A 
ATOM     51  N   UNL A   1      41.751  30.442  33.989  1.00  0.00    -0.354 N 
ATOM     52  N   UNL A   1      41.823  28.849  31.525  1.00  0.00    -0.248 NA
ATOM     53  C   UNL A   1      42.823  27.207  30.198  1.00  0.00     0.031 C 
ATOM     54  C   UNL A   1      43.278  30.036  35.551  1.00  0.00     0.029 A 
ATOM     55  C   UNL A   1      42.841  29.643  34.296  1.00  0.00     0.049 A 
ATOM     56  H   UNL A   1      41.236  30.397  33.151  1.00  0.00     0.167 HD
ATOM     57  C   UNL A   1      42.895  28.298  32.214  1.00  0.00     0.074 A 
ATOM     58  C   UNL A   1      43.455  27.268  31.362  1.00  0.00     0.031 C 
ATOM     59  C   UNL A   1      43.375  28.615  33.441  1.00  0.00     0.037 A 
BRANCH  46  60
ATOM     60  C   UNL A   1      40.295  33.181  36.247  1.00  0.00     0.057 A 
ATOM     61  C   UNL A   1      41.045  34.357  36.374  1.00  0.00     0.134 A 
ATOM     62  C   UNL A   1      39.387  32.880  37.270  1.00  0.00     0.134 A 
ATOM     63  F   UNL A   1      41.942  34.697  35.436  1.00  0.00    -0.206 F 
ATOM     64  C   UNL A   1      40.918  35.189  37.488  1.00  0.00     0.040 A 
ATOM     65  C   UNL A   1      39.231  33.718  38.376  1.00  0.00     0.040 A 
ATOM     66  F   UNL A   1      38.632  31.774  37.209  1.00  0.00    -0.206 F 
ATOM     67  C   UNL A   1      40.003  34.872  38.491  1.00  0.00     0.006 A 
ENDBRANCH  46  60
BRANCH  47  68
ATOM     68  C   UNL A   1      40.906  27.554  28.021  1.00  0.00     0.057 A 
ATOM     69  C   UNL A   1      40.281  26.305  27.926  1.00  0.00     0.134 A 
ATOM     70  C   UNL A   1      41.649  27.989  26.918  1.00  0.00     0.134 A 
ATOM     71  F   UNL A   1      39.569  25.826  28.957  1.00  0.00    -0.206 F 
ATOM     72  C   UNL A   1      40.412  25.507  26.789  1.00  0.00     0.040 A 
ATOM     73  C   UNL A   1      41.767  27.214  25.765  1.00  0.00     0.040 A 
ATOM     74  F   UNL A   1      42.264  29.181  26.944  1.00  0.00    -0.206 F 
ATOM     75  C   UNL A   1      41.154  25.964  25.701  1.00  0.00     0.006 A 
ENDBRANCH  47  68
BRANCH  59  76
ATOM     76  C   UNL A   1      44.536  27.812  33.949  1.00  0.00     0.057 A 
ATOM     77  C   UNL A   1      45.860  28.227  33.767  1.00  0.00     0.134 A 
ATOM     78  C   UNL A   1      44.321  26.619  34.652  1.00  0.00     0.134 A 
ATOM     79  F   UNL A   1      46.134  29.352  33.090  1.00  0.00    -0.206 F 
ATOM     80  C   UNL A   1      46.932  27.471  34.244  1.00  0.00     0.040 A 
ATOM     81  C   UNL A   1      45.382  25.869  35.157  1.00  0.00     0.040 A 
ATOM     82  F   UNL A   1      43.075  26.170  34.869  1.00  0.00    -0.206 F 
ATOM     83  C   UNL A   1      46.693  26.290  34.946  1.00  0.00     0.006 A 
ENDBRANCH  59  76
ENDBRANCH  33  34
ENDBRANCH  25  28
ENDBRANCH  23  24
ENDBRANCH  22  23
ENDBRANCH   1  22
TORSDOF 14
ENDMDL
MODEL 3
REMARK VINA RESULT:     -10.5      6.129     10.791
REMARK SMILES C[C@H]([NH2+]Cc1cc(C(=O)NCCCNC(=O)c2ccc(-c3c4nc(c(-c5c(F)cccc5F)c5ccc([nH]5)c(-c5c(F)cccc5F)c5nc(c(-c6c(F)cccc6F)c6ccc3[nH]6)C=C5)C=C4)cc2)cs1)c1ccsc1
REMARK SMILES IDX 11 1 10 2 8 3 9 4 7 6 5 7 6 8 72 9 71 10 4 11 3 12 2 15 1 16
REMARK SMILES IDX 73 17 74 18 77 19 75 20 76 21 12 22 13 23 14 24 15 25 16 27
REMARK SMILES IDX 17 28 18 29 70 30 19 31 69 32 20 33 21 34 22 35 63 36 23 37
REMARK SMILES IDX 68 38 62 39 64 40 24 41 67 42 61 43 60 44 25 46 51 47 34 48
REMARK SMILES IDX 50 49 35 50 38 51 49 52 65 53 36 54 37 55 48 57 66 58 39 59
REMARK SMILES IDX 26 60 27 61 32 62 28 63 29 64 31 65 33 66 30 67 52 68 53 69
REMARK SMILES IDX 58 70 54 71 55 72 57 73 59 74 56 75 40 76 41 77 46 78 42 79
REMARK SMILES IDX 43 80 45 81 47 82 44 83
REMARK H PARENT 10 5 3 13 3 14 14 26 64 45 38 56
REMARK Flexibility Score: inf
ROOT
ATOM      1  C   UNL A   1      34.080  34.841  27.882  1.00  0.00     0.118 C 
ENDROOT
BRANCH   1   2
ATOM      2  N   UNL A   1      35.426  34.445  28.246  1.00  0.00    -0.352 N 
ATOM      3  C   UNL A   1      36.040  33.217  28.258  1.00  0.00     0.252 C 
ATOM      4  O   UNL A   1      37.245  33.198  28.514  1.00  0.00    -0.269 OA
ATOM      5  H   UNL A   1      36.003  35.188  28.534  1.00  0.00     0.163 HD
BRANCH   3   6
ATOM      6  C   UNL A   1      35.309  31.992  27.927  1.00  0.00     0.051 A 
ATOM      7  C   UNL A   1      33.589  30.491  27.326  1.00  0.00     0.059 A 
ATOM      8  C   UNL A   1      33.905  31.772  27.737  1.00  0.00     0.035 A 
ATOM      9  S   UNL A   1      34.975  29.492  27.319  1.00  0.00    -0.142 S 
ATOM     10  C   UNL A   1      35.982  30.787  27.790  1.00  0.00     0.079 A 
BRANCH   7  11
ATOM     11  C   UNL A   1      32.261  29.951  26.879  1.00  0.00     0.308 C 
BRANCH  11  12
ATOM     12  N   UNL A   1      32.443  28.828  25.960  1.00  0.00    -0.336 N 
ATOM     13  H   UNL A   1      33.347  28.396  26.153  1.00  0.00     0.347 HD
ATOM     14  H   UNL A   1      31.667  28.184  26.113  1.00  0.00     0.347 HD
BRANCH  12  15
ATOM     15  C   UNL A   1      32.408  29.223  24.551  1.00  0.00     0.211 C 
ATOM     16  C   UNL A   1      33.572  28.663  23.729  1.00  0.00     0.081 C 
BRANCH  15  17
ATOM     17  C   UNL A   1      31.052  28.790  24.029  1.00  0.00     0.020 A 
ATOM     18  C   UNL A   1      30.598  27.424  24.029  1.00  0.00     0.021 A 
ATOM     19  C   UNL A   1      30.083  29.614  23.478  1.00  0.00     0.074 A 
ATOM     20  C   UNL A   1      29.333  27.277  23.505  1.00  0.00     0.065 A 
ATOM     21  S   UNL A   1      28.674  28.769  23.003  1.00  0.00    -0.152 S 
ENDBRANCH  15  17
ENDBRANCH  12  15
ENDBRANCH  11  12
ENDBRANCH   7  11
ENDBRANCH   3   6
ENDBRANCH   1   2
BRANCH   1  22
ATOM     22  C   UNL A   1      33.182  34.967  29.113  1.00  0.00     0.042 C 
BRANCH  22  23
ATOM     23  C   UNL A   1      33.306  36.319  29.813  1.00  0.00     0.118 C 
BRANCH  23  24
ATOM     24  N   UNL A   1      32.469  36.396  31.001  1.00  0.00    -0.352 N 
ATOM     25  C   UNL A   1      32.571  35.746  32.203  1.00  0.00     0.251 C 
ATOM     26  H   UNL A   1      31.707  37.016  30.930  1.00  0.00     0.163 HD
ATOM     27  O   UNL A   1      31.633  35.797  32.996  1.00  0.00    -0.269 OA
BRANCH  25  28
ATOM     28  C   UNL A   1      33.787  34.982  32.559  1.00  0.00     0.039 A 
ATOM     29  C   UNL A   1      35.031  35.607  32.420  1.00  0.00     0.014 A 
ATOM     30  C   UNL A   1      33.720  33.646  32.961  1.00  0.00     0.014 A 
ATOM     31  C   UNL A   1      36.201  34.906  32.718  1.00  0.00     0.010 A 
ATOM     32  C   UNL A   1      34.884  32.968  33.324  1.00  0.00     0.010 A 
ATOM     33  C   UNL A   1      36.135  33.586  33.194  1.00  0.00    -0.014 A 
BRANCH  33  34
ATOM     34  C   UNL A   1      37.369  32.837  33.541  1.00  0.00     0.031 A 
ATOM     35  C   UNL A   1      38.111  33.149  34.812  1.00  0.00     0.074 A 
ATOM     36  C   UNL A   1      37.847  31.912  32.688  1.00  0.00     0.049 A 
ATOM     37  N   UNL A   1      39.236  32.648  35.258  1.00  0.00    -0.248 NA
ATOM     38  C   UNL A   1      37.523  34.176  35.687  1.00  0.00     0.031 C 
ATOM     39  C   UNL A   1      37.243  31.552  31.404  1.00  0.00     0.029 A 
ATOM     40  N   UNL A   1      38.959  31.113  32.769  1.00  0.00    -0.354 N 
ATOM     41  C   UNL A   1      39.495  33.305  36.454  1.00  0.00     0.074 A 
ATOM     42  C   UNL A   1      38.439  34.278  36.638  1.00  0.00     0.031 C 
ATOM     43  C   UNL A   1      37.982  30.591  30.827  1.00  0.00     0.029 A 
ATOM     44  C   UNL A   1      39.126  30.290  31.681  1.00  0.00     0.049 A 
ATOM     45  H   UNL A   1      39.578  31.125  33.534  1.00  0.00     0.167 HD
ATOM     46  C   UNL A   1      40.507  33.102  37.331  1.00  0.00     0.037 A 
ATOM     47  C   UNL A   1      40.097  29.401  31.401  1.00  0.00     0.037 A 
ATOM     48  C   UNL A   1      41.546  32.121  37.155  1.00  0.00     0.049 A 
ATOM     49  C   UNL A   1      41.206  29.190  32.393  1.00  0.00     0.074 A 
ATOM     50  C   UNL A   1      42.595  31.811  38.002  1.00  0.00     0.029 A 
ATOM     51  N   UNL A   1      41.662  31.286  36.052  1.00  0.00    -0.354 N 
ATOM     52  N   UNL A   1      41.409  29.782  33.545  1.00  0.00    -0.248 NA
ATOM     53  C   UNL A   1      42.216  28.180  32.049  1.00  0.00     0.031 C 
ATOM     54  C   UNL A   1      43.365  30.811  37.399  1.00  0.00     0.029 A 
ATOM     55  C   UNL A   1      42.771  30.467  36.195  1.00  0.00     0.049 A 
ATOM     56  H   UNL A   1      41.048  31.276  35.284  1.00  0.00     0.167 HD
ATOM     57  C   UNL A   1      42.551  29.197  34.077  1.00  0.00     0.074 A 
ATOM     58  C   UNL A   1      42.988  28.194  33.127  1.00  0.00     0.031 C 
ATOM     59  C   UNL A   1      43.183  29.466  35.246  1.00  0.00     0.037 A 
BRANCH  46  60
ATOM     60  C   UNL A   1      40.532  33.955  38.566  1.00  0.00     0.057 A 
ATOM     61  C   UNL A   1      41.242  35.162  38.612  1.00  0.00     0.134 A 
ATOM     62  C   UNL A   1      39.818  33.582  39.712  1.00  0.00     0.134 A 
ATOM     63  F   UNL A   1      41.957  35.571  37.553  1.00  0.00    -0.206 F 
ATOM     64  C   UNL A   1      41.264  35.954  39.761  1.00  0.00     0.040 A 
ATOM     65  C   UNL A   1      39.811  34.380  40.858  1.00  0.00     0.040 A 
ATOM     66  F   UNL A   1      39.111  32.443  39.734  1.00  0.00    -0.206 F 
ATOM     67  C   UNL A   1      40.541  35.565  40.888  1.00  0.00     0.006 A 
ENDBRANCH  46  60
BRANCH  47  68
ATOM     68  C   UNL A   1      40.050  28.622  30.139  1.00  0.00     0.057 A 
ATOM     69  C   UNL A   1      40.727  29.061  28.995  1.00  0.00     0.134 A 
ATOM     70  C   UNL A   1      39.324  27.430  30.041  1.00  0.00     0.134 A 
ATOM     71  F   UNL A   1      41.427  30.205  29.021  1.00  0.00    -0.206 F 
ATOM     72  C   UNL A   1      40.664  28.356  27.792  1.00  0.00     0.040 A 
ATOM     73  C   UNL A   1      39.272  26.702  28.853  1.00  0.00     0.040 A 
ATOM     74  F   UNL A   1      38.661  26.952  31.104  1.00  0.00    -0.206 F 
ATOM     75  C   UNL A   1      39.937  27.168  27.721  1.00  0.00     0.006 A 
ENDBRANCH  47  68
BRANCH  59  76
ATOM     76  C   UNL A   1      44.386  28.635  35.579  1.00  0.00     0.057 A 
ATOM     77  C   UNL A   1      44.285  27.446  36.310  1.00  0.00     0.134 A 
ATOM     78  C   UNL A   1      45.659  29.019  35.138  1.00  0.00     0.134 A 
ATOM     79  F   UNL A   1      43.097  27.030  36.773  1.00  0.00    -0.206 F 
ATOM     80  C   UNL A   1      45.412  26.680  36.614  1.00  0.00     0.040 A 
ATOM     81  C   UNL A   1      46.789  28.249  35.413  1.00  0.00     0.040 A 
ATOM     82  F   UNL A   1      45.823  30.144  34.425  1.00  0.00    -0.206 F 
ATOM     83  C   UNL A   1      46.668  27.079  36.160  1.00  0.00     0.006 A 
ENDBRANCH  59  76
ENDBRANCH  33  34
ENDBRANCH  25  28
ENDBRANCH  23  24
ENDBRANCH  22  23
ENDBRANCH   1  22
TORSDOF 14
ENDMDL
