MODEL 1
REMARK VINA RESULT:     -12.4      0.000      0.000
REMARK SMILES CCOc1ccc(-c2csc3ncn([C@H](C)C(=O)NCCCNC(=O)c4ccc(-c5c6nc(c(-c7c(F)cccc7F)c7ccc([nH]7)c(-c7c(F)cccc7F)c7nc(c(-c8c(F)cccc8F)c8ccc5[nH]8)C=C7)C=C6)cc4)c(=O)c23)cc1
REMARK SMILES IDX 20 1 19 2 17 3 18 4 15 6 16 7 14 8 8 9 9 10 82 11 10 12
REMARK SMILES IDX 11 13 80 14 12 15 81 16 13 17 7 18 4 19 5 20 84 21 6 22
REMARK SMILES IDX 83 23 3 24 2 25 1 26 21 27 22 28 23 29 24 30 25 32 26 33
REMARK SMILES IDX 27 34 79 35 28 36 78 37 29 38 30 39 31 40 72 41 32 42 77 43
REMARK SMILES IDX 71 44 73 45 33 46 76 47 70 48 69 49 34 51 60 52 43 53 59 54
REMARK SMILES IDX 44 55 47 56 58 57 74 58 45 59 46 60 57 62 75 63 48 64 35 65
REMARK SMILES IDX 36 66 41 67 37 68 38 69 40 70 42 71 39 72 61 73 62 74 67 75
REMARK SMILES IDX 63 76 64 77 66 78 68 79 65 80 49 81 50 82 55 83 51 84 52 85
REMARK SMILES IDX 54 86 56 87 53 88
REMARK H PARENT 19 5 23 31 73 50 47 61
REMARK Flexibility Score: inf
ROOT
ATOM      1  C   UNL A   1      36.652  20.789  25.330  1.00  0.00     0.117 C 
ENDROOT
BRANCH   1   2
ATOM      2  N   UNL A   1      37.015  22.065  25.931  1.00  0.00    -0.354 N 
ATOM      3  C   UNL A   1      36.798  23.351  25.529  1.00  0.00     0.242 C 
ATOM      4  O   UNL A   1      37.444  24.232  26.107  1.00  0.00    -0.273 OA
ATOM      5  H   UNL A   1      37.506  21.985  26.780  1.00  0.00     0.163 HD
BRANCH   3   6
ATOM      6  C   UNL A   1      35.941  23.698  24.287  1.00  0.00     0.177 C 
ATOM      7  C   UNL A   1      36.512  22.894  23.118  1.00  0.00     0.042 C 
BRANCH   6   8
ATOM      8  N   UNL A   1      34.505  23.534  24.566  1.00  0.00    -0.286 N 
ATOM      9  C   UNL A   1      31.516  25.468  25.856  1.00  0.00     0.007 A 
ATOM     10  C   UNL A   1      30.358  24.829  26.264  1.00  0.00     0.076 A 
ATOM     11  C   UNL A   1      32.449  24.523  25.303  1.00  0.00     0.085 A 
ATOM     12  S   UNL A   1      30.410  23.139  26.014  1.00  0.00    -0.123 S 
ATOM     13  C   UNL A   1      31.977  23.229  25.351  1.00  0.00     0.131 A 
ATOM     14  C   UNL A   1      33.789  24.716  24.783  1.00  0.00     0.263 A 
ATOM     15  N   UNL A   1      32.634  22.111  24.956  1.00  0.00    -0.227 NA
ATOM     16  O   UNL A   1      34.275  25.829  24.577  1.00  0.00    -0.268 OA
ATOM     17  C   UNL A   1      33.859  22.313  24.590  1.00  0.00     0.204 A 
BRANCH   9  18
ATOM     18  C   UNL A   1      31.674  26.906  26.061  1.00  0.00    -0.016 A 
ATOM     19  C   UNL A   1      31.966  29.677  26.422  1.00  0.00     0.119 A 
ATOM     20  C   UNL A   1      32.279  28.801  27.459  1.00  0.00     0.047 A 
ATOM     21  C   UNL A   1      31.543  29.173  25.196  1.00  0.00     0.047 A 
ATOM     22  C   UNL A   1      32.137  27.421  27.278  1.00  0.00     0.012 A 
ATOM     23  C   UNL A   1      31.376  27.798  25.022  1.00  0.00     0.012 A 
BRANCH  19  24
ATOM     24  O   UNL A   1      32.224  31.006  26.602  1.00  0.00    -0.494 OA
BRANCH  24  25
ATOM     25  C   UNL A   1      33.429  31.276  27.330  1.00  0.00     0.226 C 
ATOM     26  C   UNL A   1      33.444  32.678  27.921  1.00  0.00     0.049 C 
ENDBRANCH  24  25
ENDBRANCH  19  24
ENDBRANCH   9  18
ENDBRANCH   6   8
ENDBRANCH   3   6
ENDBRANCH   1   2
BRANCH   1  27
ATOM     27  C   UNL A   1      37.868  19.961  24.919  1.00  0.00     0.042 C 
BRANCH  27  28
ATOM     28  C   UNL A   1      39.091  20.325  25.731  1.00  0.00     0.118 C 
BRANCH  28  29
ATOM     29  N   UNL A   1      40.092  19.248  25.796  1.00  0.00    -0.352 N 
ATOM     30  C   UNL A   1      41.465  19.376  25.965  1.00  0.00     0.251 C 
ATOM     31  H   UNL A   1      39.749  18.329  25.711  1.00  0.00     0.163 HD
ATOM     32  O   UNL A   1      42.234  18.462  25.705  1.00  0.00    -0.269 OA
BRANCH  30  33
ATOM     33  C   UNL A   1      41.962  20.655  26.492  1.00  0.00     0.039 A 
ATOM     34  C   UNL A   1      42.425  21.700  25.687  1.00  0.00     0.014 A 
ATOM     35  C   UNL A   1      41.822  20.817  27.859  1.00  0.00     0.014 A 
ATOM     36  C   UNL A   1      42.674  22.931  26.291  1.00  0.00     0.010 A 
ATOM     37  C   UNL A   1      41.729  22.078  28.353  1.00  0.00     0.010 A 
ATOM     38  C   UNL A   1      42.307  23.107  27.634  1.00  0.00    -0.014 A 
BRANCH  38  39
ATOM     39  C   UNL A   1      42.434  24.366  28.350  1.00  0.00     0.031 A 
ATOM     40  C   UNL A   1      41.304  25.300  28.143  1.00  0.00     0.074 A 
ATOM     41  C   UNL A   1      43.364  24.525  29.324  1.00  0.00     0.049 A 
ATOM     42  N   UNL A   1      41.324  26.433  27.527  1.00  0.00    -0.248 NA
ATOM     43  C   UNL A   1      39.951  24.854  28.525  1.00  0.00     0.031 C 
ATOM     44  C   UNL A   1      44.342  23.548  29.838  1.00  0.00     0.029 A 
ATOM     45  N   UNL A   1      43.557  25.581  30.156  1.00  0.00    -0.354 N 
ATOM     46  C   UNL A   1      40.043  26.955  27.659  1.00  0.00     0.074 A 
ATOM     47  C   UNL A   1      39.203  25.864  28.078  1.00  0.00     0.031 C 
ATOM     48  C   UNL A   1      44.831  23.963  31.026  1.00  0.00     0.029 A 
ATOM     49  C   UNL A   1      44.361  25.311  31.263  1.00  0.00     0.049 A 
ATOM     50  H   UNL A   1      43.160  26.468  29.990  1.00  0.00     0.167 HD
ATOM     51  C   UNL A   1      39.843  28.302  27.696  1.00  0.00     0.037 A 
ATOM     52  C   UNL A   1      44.599  26.146  32.305  1.00  0.00     0.037 A 
ATOM     53  C   UNL A   1      41.006  29.011  27.220  1.00  0.00     0.049 A 
ATOM     54  C   UNL A   1      44.264  27.516  31.842  1.00  0.00     0.074 A 
ATOM     55  C   UNL A   1      41.722  29.025  26.039  1.00  0.00     0.029 A 
ATOM     56  N   UNL A   1      41.840  29.560  28.165  1.00  0.00    -0.354 N 
ATOM     57  N   UNL A   1      44.932  28.141  30.911  1.00  0.00    -0.248 NA
ATOM     58  C   UNL A   1      42.898  27.971  32.045  1.00  0.00     0.031 C 
ATOM     59  C   UNL A   1      43.089  29.106  26.439  1.00  0.00     0.029 A 
ATOM     60  C   UNL A   1      43.127  29.222  27.829  1.00  0.00     0.049 A 
ATOM     61  H   UNL A   1      41.565  30.099  28.941  1.00  0.00     0.167 HD
ATOM     62  C   UNL A   1      43.961  28.749  30.128  1.00  0.00     0.074 A 
ATOM     63  C   UNL A   1      42.730  28.662  30.915  1.00  0.00     0.031 C 
ATOM     64  C   UNL A   1      44.173  28.989  28.799  1.00  0.00     0.037 A 
BRANCH  51  65
ATOM     65  C   UNL A   1      38.789  28.977  28.536  1.00  0.00     0.057 A 
ATOM     66  C   UNL A   1      38.711  28.670  29.905  1.00  0.00     0.134 A 
ATOM     67  C   UNL A   1      37.672  29.663  28.012  1.00  0.00     0.134 A 
ATOM     68  F   UNL A   1      39.706  28.008  30.518  1.00  0.00    -0.206 F 
ATOM     69  C   UNL A   1      37.577  28.951  30.674  1.00  0.00     0.040 A 
ATOM     70  C   UNL A   1      36.557  29.996  28.783  1.00  0.00     0.040 A 
ATOM     71  F   UNL A   1      37.551  29.956  26.713  1.00  0.00    -0.206 F 
ATOM     72  C   UNL A   1      36.489  29.609  30.111  1.00  0.00     0.006 A 
ENDBRANCH  51  65
BRANCH  52  73
ATOM     73  C   UNL A   1      44.742  25.801  33.740  1.00  0.00     0.057 A 
ATOM     74  C   UNL A   1      43.624  25.511  34.535  1.00  0.00     0.134 A 
ATOM     75  C   UNL A   1      45.992  25.467  34.290  1.00  0.00     0.134 A 
ATOM     76  F   UNL A   1      42.386  25.752  34.079  1.00  0.00    -0.206 F 
ATOM     77  C   UNL A   1      43.740  24.902  35.793  1.00  0.00     0.040 A 
ATOM     78  C   UNL A   1      46.123  24.862  35.545  1.00  0.00     0.040 A 
ATOM     79  F   UNL A   1      47.122  25.632  33.589  1.00  0.00    -0.206 F 
ATOM     80  C   UNL A   1      44.993  24.564  36.297  1.00  0.00     0.006 A 
ENDBRANCH  52  73
BRANCH  64  81
ATOM     81  C   UNL A   1      45.565  28.779  28.259  1.00  0.00     0.057 A 
ATOM     82  C   UNL A   1      46.617  29.700  28.399  1.00  0.00     0.134 A 
ATOM     83  C   UNL A   1      45.893  27.535  27.714  1.00  0.00     0.134 A 
ATOM     84  F   UNL A   1      46.430  30.880  28.998  1.00  0.00    -0.206 F 
ATOM     85  C   UNL A   1      47.920  29.410  27.978  1.00  0.00     0.040 A 
ATOM     86  C   UNL A   1      47.195  27.221  27.317  1.00  0.00     0.040 A 
ATOM     87  F   UNL A   1      44.956  26.581  27.602  1.00  0.00    -0.206 F 
ATOM     88  C   UNL A   1      48.213  28.163  27.439  1.00  0.00     0.006 A 
ENDBRANCH  64  81
ENDBRANCH  38  39
ENDBRANCH  30  33
ENDBRANCH  28  29
ENDBRANCH  27  28
ENDBRANCH   1  27
TORSDOF 14
ENDMDL
MODEL 2
REMARK VINA RESULT:     -12.1      3.603      9.062
REMARK SMILES CCOc1ccc(-c2csc3ncn([C@H](C)C(=O)NCCCNC(=O)c4ccc(-c5c6nc(c(-c7c(F)cccc7F)c7ccc([nH]7)c(-c7c(F)cccc7F)c7nc(c(-c8c(F)cccc8F)c8ccc5[nH]8)C=C7)C=C6)cc4)c(=O)c23)cc1
REMARK SMILES IDX 20 1 19 2 17 3 18 4 15 6 16 7 14 8 8 9 9 10 82 11 10 12
REMARK SMILES IDX 11 13 80 14 12 15 81 16 13 17 7 18 4 19 5 20 84 21 6 22
REMARK SMILES IDX 83 23 3 24 2 25 1 26 21 27 22 28 23 29 24 30 25 32 26 33
REMARK SMILES IDX 27 34 79 35 28 36 78 37 29 38 30 39 31 40 72 41 32 42 77 43
REMARK SMILES IDX 71 44 73 45 33 46 76 47 70 48 69 49 34 51 60 52 43 53 59 54
REMARK SMILES IDX 44 55 47 56 58 57 74 58 45 59 46 60 57 62 75 63 48 64 35 65
REMARK SMILES IDX 36 66 41 67 37 68 38 69 40 70 42 71 39 72 61 73 62 74 67 75
REMARK SMILES IDX 63 76 64 77 66 78 68 79 65 80 49 81 50 82 55 83 51 84 52 85
REMARK SMILES IDX 54 86 56 87 53 88
REMARK H PARENT 19 5 23 31 73 50 47 61
REMARK Flexibility Score: inf
ROOT
ATOM      1  C   UNL A   1      31.691  30.560  26.432  1.00  0.00     0.117 C 
ENDROOT
BRANCH   1   2
ATOM      2  N   UNL A   1      31.402  30.108  25.079  1.00  0.00    -0.354 N 
ATOM      3  C   UNL A   1      31.951  29.116  24.317  1.00  0.00     0.242 C 
ATOM      4  O   UNL A   1      31.682  29.127  23.111  1.00  0.00    -0.273 OA
ATOM      5  H   UNL A   1      30.681  30.607  24.633  1.00  0.00     0.163 HD
BRANCH   3   6
ATOM      6  C   UNL A   1      33.012  28.136  24.873  1.00  0.00     0.177 C 
ATOM      7  C   UNL A   1      33.944  28.954  25.767  1.00  0.00     0.042 C 
BRANCH   6   8
ATOM      8  N   UNL A   1      32.381  26.953  25.480  1.00  0.00    -0.286 N 
ATOM      9  C   UNL A   1      33.024  23.278  26.126  1.00  0.00     0.007 A 
ATOM     10  C   UNL A   1      32.003  22.412  26.476  1.00  0.00     0.076 A 
ATOM     11  C   UNL A   1      32.540  24.630  26.053  1.00  0.00     0.085 A 
ATOM     12  S   UNL A   1      30.502  23.204  26.679  1.00  0.00    -0.123 S 
ATOM     13  C   UNL A   1      31.188  24.719  26.310  1.00  0.00     0.131 A 
ATOM     14  C   UNL A   1      33.224  25.858  25.697  1.00  0.00     0.263 A 
ATOM     15  N   UNL A   1      30.428  25.840  26.270  1.00  0.00    -0.227 NA
ATOM     16  O   UNL A   1      34.447  25.930  25.565  1.00  0.00    -0.268 OA
ATOM     17  C   UNL A   1      31.053  26.895  25.855  1.00  0.00     0.204 A 
BRANCH   9  18
ATOM     18  C   UNL A   1      34.362  22.761  25.843  1.00  0.00    -0.016 A 
ATOM     19  C   UNL A   1      36.919  21.745  25.276  1.00  0.00     0.119 A 
ATOM     20  C   UNL A   1      36.771  22.807  26.166  1.00  0.00     0.047 A 
ATOM     21  C   UNL A   1      35.793  21.167  24.697  1.00  0.00     0.047 A 
ATOM     22  C   UNL A   1      35.497  23.311  26.451  1.00  0.00     0.012 A 
ATOM     23  C   UNL A   1      34.524  21.685  24.960  1.00  0.00     0.012 A 
BRANCH  19  24
ATOM     24  O   UNL A   1      38.166  21.212  25.112  1.00  0.00    -0.494 OA
BRANCH  24  25
ATOM     25  C   UNL A   1      39.148  21.729  26.019  1.00  0.00     0.226 C 
ATOM     26  C   UNL A   1      40.276  20.739  26.270  1.00  0.00     0.049 C 
ENDBRANCH  24  25
ENDBRANCH  19  24
ENDBRANCH   9  18
ENDBRANCH   6   8
ENDBRANCH   3   6
ENDBRANCH   1   2
BRANCH   1  27
ATOM     27  C   UNL A   1      31.496  32.065  26.608  1.00  0.00     0.042 C 
BRANCH  27  28
ATOM     28  C   UNL A   1      32.660  32.696  27.341  1.00  0.00     0.118 C 
BRANCH  28  29
ATOM     29  N   UNL A   1      32.396  34.075  27.780  1.00  0.00    -0.352 N 
ATOM     30  C   UNL A   1      33.020  34.771  28.808  1.00  0.00     0.251 C 
ATOM     31  H   UNL A   1      31.697  34.562  27.288  1.00  0.00     0.163 HD
ATOM     32  O   UNL A   1      32.533  35.784  29.289  1.00  0.00    -0.269 OA
BRANCH  30  33
ATOM     33  C   UNL A   1      34.309  34.252  29.287  1.00  0.00     0.039 A 
ATOM     34  C   UNL A   1      34.452  33.458  30.427  1.00  0.00     0.014 A 
ATOM     35  C   UNL A   1      35.385  34.496  28.449  1.00  0.00     0.014 A 
ATOM     36  C   UNL A   1      35.690  32.861  30.659  1.00  0.00     0.010 A 
ATOM     37  C   UNL A   1      36.443  33.648  28.495  1.00  0.00     0.010 A 
ATOM     38  C   UNL A   1      36.679  32.958  29.669  1.00  0.00    -0.014 A 
BRANCH  38  39
ATOM     39  C   UNL A   1      37.976  32.308  29.753  1.00  0.00     0.031 A 
ATOM     40  C   UNL A   1      38.003  30.931  29.209  1.00  0.00     0.074 A 
ATOM     41  C   UNL A   1      39.095  33.015  30.044  1.00  0.00     0.049 A 
ATOM     42  N   UNL A   1      38.170  29.831  29.862  1.00  0.00    -0.248 NA
ATOM     43  C   UNL A   1      37.641  30.732  27.794  1.00  0.00     0.031 C 
ATOM     44  C   UNL A   1      39.235  34.462  30.294  1.00  0.00     0.029 A 
ATOM     45  N   UNL A   1      40.388  32.599  30.064  1.00  0.00    -0.354 N 
ATOM     46  C   UNL A   1      38.181  28.823  28.905  1.00  0.00     0.074 A 
ATOM     47  C   UNL A   1      37.640  29.401  27.703  1.00  0.00     0.031 C 
ATOM     48  C   UNL A   1      40.532  34.827  30.189  1.00  0.00     0.029 A 
ATOM     49  C   UNL A   1      41.331  33.626  30.064  1.00  0.00     0.049 A 
ATOM     50  H   UNL A   1      40.640  31.646  30.078  1.00  0.00     0.167 HD
ATOM     51  C   UNL A   1      38.906  27.687  29.102  1.00  0.00     0.037 A 
ATOM     52  C   UNL A   1      42.675  33.483  29.950  1.00  0.00     0.037 A 
ATOM     53  C   UNL A   1      39.287  27.549  30.487  1.00  0.00     0.049 A 
ATOM     54  C   UNL A   1      42.987  32.075  30.304  1.00  0.00     0.074 A 
ATOM     55  C   UNL A   1      38.599  27.465  31.682  1.00  0.00     0.029 A 
ATOM     56  N   UNL A   1      40.574  27.895  30.825  1.00  0.00    -0.354 N 
ATOM     57  N   UNL A   1      42.821  31.583  31.502  1.00  0.00    -0.248 NA
ATOM     58  C   UNL A   1      42.990  31.103  29.222  1.00  0.00     0.031 C 
ATOM     59  C   UNL A   1      39.363  28.243  32.602  1.00  0.00     0.029 A 
ATOM     60  C   UNL A   1      40.511  28.687  31.943  1.00  0.00     0.049 A 
ATOM     61  H   UNL A   1      41.393  27.622  30.351  1.00  0.00     0.167 HD
ATOM     62  C   UNL A   1      42.268  30.327  31.293  1.00  0.00     0.074 A 
ATOM     63  C   UNL A   1      42.456  30.062  29.866  1.00  0.00     0.031 C 
ATOM     64  C   UNL A   1      41.441  29.757  32.221  1.00  0.00     0.037 A 
BRANCH  51  65
ATOM     65  C   UNL A   1      39.617  26.937  28.003  1.00  0.00     0.057 A 
ATOM     66  C   UNL A   1      39.580  25.532  28.005  1.00  0.00     0.134 A 
ATOM     67  C   UNL A   1      40.577  27.510  27.141  1.00  0.00     0.134 A 
ATOM     68  F   UNL A   1      38.718  24.870  28.793  1.00  0.00    -0.206 F 
ATOM     69  C   UNL A   1      40.481  24.757  27.268  1.00  0.00     0.040 A 
ATOM     70  C   UNL A   1      41.446  26.746  26.361  1.00  0.00     0.040 A 
ATOM     71  F   UNL A   1      40.798  28.828  27.082  1.00  0.00    -0.206 F 
ATOM     72  C   UNL A   1      41.426  25.364  26.448  1.00  0.00     0.006 A 
ENDBRANCH  51  65
BRANCH  52  73
ATOM     73  C   UNL A   1      43.630  34.355  29.226  1.00  0.00     0.057 A 
ATOM     74  C   UNL A   1      43.871  34.190  27.854  1.00  0.00     0.134 A 
ATOM     75  C   UNL A   1      44.109  35.548  29.796  1.00  0.00     0.134 A 
ATOM     76  F   UNL A   1      43.415  33.105  27.210  1.00  0.00    -0.206 F 
ATOM     77  C   UNL A   1      44.528  35.165  27.088  1.00  0.00     0.040 A 
ATOM     78  C   UNL A   1      44.767  36.528  29.045  1.00  0.00     0.040 A 
ATOM     79  F   UNL A   1      43.870  35.844  31.081  1.00  0.00    -0.206 F 
ATOM     80  C   UNL A   1      44.968  36.344  27.682  1.00  0.00     0.006 A 
ENDBRANCH  52  73
BRANCH  64  81
ATOM     81  C   UNL A   1      41.325  30.427  33.566  1.00  0.00     0.057 A 
ATOM     82  C   UNL A   1      40.333  31.363  33.903  1.00  0.00     0.134 A 
ATOM     83  C   UNL A   1      42.152  29.994  34.606  1.00  0.00     0.134 A 
ATOM     84  F   UNL A   1      39.430  31.768  33.005  1.00  0.00    -0.206 F 
ATOM     85  C   UNL A   1      40.200  31.873  35.199  1.00  0.00     0.040 A 
ATOM     86  C   UNL A   1      42.011  30.471  35.912  1.00  0.00     0.040 A 
ATOM     87  F   UNL A   1      43.085  29.056  34.378  1.00  0.00    -0.206 F 
ATOM     88  C   UNL A   1      41.039  31.422  36.210  1.00  0.00     0.006 A 
ENDBRANCH  64  81
ENDBRANCH  38  39
ENDBRANCH  30  33
ENDBRANCH  28  29
ENDBRANCH  27  28
ENDBRANCH   1  27
TORSDOF 14
ENDMDL
MODEL 3
REMARK VINA RESULT:     -12.0      1.130      2.166
REMARK SMILES CCOc1ccc(-c2csc3ncn([C@H](C)C(=O)NCCCNC(=O)c4ccc(-c5c6nc(c(-c7c(F)cccc7F)c7ccc([nH]7)c(-c7c(F)cccc7F)c7nc(c(-c8c(F)cccc8F)c8ccc5[nH]8)C=C7)C=C6)cc4)c(=O)c23)cc1
REMARK SMILES IDX 20 1 19 2 17 3 18 4 15 6 16 7 14 8 8 9 9 10 82 11 10 12
REMARK SMILES IDX 11 13 80 14 12 15 81 16 13 17 7 18 4 19 5 20 84 21 6 22
REMARK SMILES IDX 83 23 3 24 2 25 1 26 21 27 22 28 23 29 24 30 25 32 26 33
REMARK SMILES IDX 27 34 79 35 28 36 78 37 29 38 30 39 31 40 72 41 32 42 77 43
REMARK SMILES IDX 71 44 73 45 33 46 76 47 70 48 69 49 34 51 60 52 43 53 59 54
REMARK SMILES IDX 44 55 47 56 58 57 74 58 45 59 46 60 57 62 75 63 48 64 35 65
REMARK SMILES IDX 36 66 41 67 37 68 38 69 40 70 42 71 39 72 61 73 62 74 67 75
REMARK SMILES IDX 63 76 64 77 66 78 68 79 65 80 49 81 50 82 55 83 51 84 52 85
REMARK SMILES IDX 54 86 56 87 53 88
REMARK H PARENT 19 5 23 31 73 50 47 61
REMARK Flexibility Score: inf
ROOT
ATOM      1  C   UNL A   1      36.736  20.748  25.074  1.00  0.00     0.117 C 
ENDROOT
BRANCH   1   2
ATOM      2  N   UNL A   1      37.041  21.984  25.780  1.00  0.00    -0.354 N 
ATOM      3  C   UNL A   1      36.623  23.269  25.581  1.00  0.00     0.242 C 
ATOM      4  O   UNL A   1      37.246  24.155  26.174  1.00  0.00    -0.273 OA
ATOM      5  H   UNL A   1      37.660  21.874  26.537  1.00  0.00     0.163 HD
BRANCH   3   6
ATOM      6  C   UNL A   1      35.554  23.638  24.524  1.00  0.00     0.177 C 
ATOM      7  C   UNL A   1      35.961  22.943  23.223  1.00  0.00     0.042 C 
BRANCH   6   8
ATOM      8  N   UNL A   1      34.195  23.371  25.021  1.00  0.00    -0.286 N 
ATOM      9  C   UNL A   1      30.828  25.054  25.435  1.00  0.00     0.007 A 
ATOM     10  C   UNL A   1      29.849  24.527  26.259  1.00  0.00     0.076 A 
ATOM     11  C   UNL A   1      31.959  24.169  25.362  1.00  0.00     0.085 A 
ATOM     12  S   UNL A   1      30.296  23.027  26.946  1.00  0.00    -0.123 S 
ATOM     13  C   UNL A   1      31.803  23.049  26.152  1.00  0.00     0.131 A 
ATOM     14  C   UNL A   1      33.220  24.308  24.659  1.00  0.00     0.263 A 
ATOM     15  N   UNL A   1      32.706  22.056  26.337  1.00  0.00    -0.227 NA
ATOM     16  O   UNL A   1      33.433  25.195  23.832  1.00  0.00    -0.268 OA
ATOM     17  C   UNL A   1      33.853  22.264  25.773  1.00  0.00     0.204 A 
BRANCH   9  18
ATOM     18  C   UNL A   1      30.643  26.366  24.819  1.00  0.00    -0.016 A 
ATOM     19  C   UNL A   1      30.266  28.874  23.611  1.00  0.00     0.119 A 
ATOM     20  C   UNL A   1      31.121  28.747  24.703  1.00  0.00     0.047 A 
ATOM     21  C   UNL A   1      29.626  27.749  23.099  1.00  0.00     0.047 A 
ATOM     22  C   UNL A   1      31.312  27.497  25.303  1.00  0.00     0.012 A 
ATOM     23  C   UNL A   1      29.796  26.506  23.712  1.00  0.00     0.012 A 
BRANCH  19  24
ATOM     24  O   UNL A   1      30.193  30.087  22.988  1.00  0.00    -0.494 OA
BRANCH  24  25
ATOM     25  C   UNL A   1      28.895  30.402  22.467  1.00  0.00     0.226 C 
ATOM     26  C   UNL A   1      28.005  31.070  23.504  1.00  0.00     0.049 C 
ENDBRANCH  24  25
ENDBRANCH  19  24
ENDBRANCH   9  18
ENDBRANCH   6   8
ENDBRANCH   3   6
ENDBRANCH   1   2
BRANCH   1  27
ATOM     27  C   UNL A   1      37.980  19.912  24.779  1.00  0.00     0.042 C 
BRANCH  27  28
ATOM     28  C   UNL A   1      39.127  20.277  25.696  1.00  0.00     0.118 C 
BRANCH  28  29
ATOM     29  N   UNL A   1      40.151  19.225  25.801  1.00  0.00    -0.352 N 
ATOM     30  C   UNL A   1      41.515  19.387  26.000  1.00  0.00     0.251 C 
ATOM     31  H   UNL A   1      39.830  18.297  25.721  1.00  0.00     0.163 HD
ATOM     32  O   UNL A   1      42.312  18.488  25.772  1.00  0.00    -0.269 OA
BRANCH  30  33
ATOM     33  C   UNL A   1      41.970  20.685  26.520  1.00  0.00     0.039 A 
ATOM     34  C   UNL A   1      42.427  21.729  25.712  1.00  0.00     0.014 A 
ATOM     35  C   UNL A   1      41.795  20.862  27.882  1.00  0.00     0.014 A 
ATOM     36  C   UNL A   1      42.633  22.974  26.304  1.00  0.00     0.010 A 
ATOM     37  C   UNL A   1      41.661  22.126  28.356  1.00  0.00     0.010 A 
ATOM     38  C   UNL A   1      42.231  23.159  27.636  1.00  0.00    -0.014 A 
BRANCH  38  39
ATOM     39  C   UNL A   1      42.312  24.430  28.337  1.00  0.00     0.031 A 
ATOM     40  C   UNL A   1      41.096  25.267  28.220  1.00  0.00     0.074 A 
ATOM     41  C   UNL A   1      43.301  24.673  29.232  1.00  0.00     0.049 A 
ATOM     42  N   UNL A   1      40.975  26.393  27.602  1.00  0.00    -0.248 NA
ATOM     43  C   UNL A   1      39.820  24.717  28.710  1.00  0.00     0.031 C 
ATOM     44  C   UNL A   1      44.393  23.782  29.667  1.00  0.00     0.029 A 
ATOM     45  N   UNL A   1      43.473  25.748  30.044  1.00  0.00    -0.354 N 
ATOM     46  C   UNL A   1      39.670  26.811  27.836  1.00  0.00     0.074 A 
ATOM     47  C   UNL A   1      38.958  25.659  28.324  1.00  0.00     0.031 C 
ATOM     48  C   UNL A   1      44.940  24.246  30.812  1.00  0.00     0.029 A 
ATOM     49  C   UNL A   1      44.382  25.553  31.083  1.00  0.00     0.049 A 
ATOM     50  H   UNL A   1      42.993  26.598  29.910  1.00  0.00     0.167 HD
ATOM     51  C   UNL A   1      39.364  28.137  27.887  1.00  0.00     0.037 A 
ATOM     52  C   UNL A   1      44.634  26.413  32.101  1.00  0.00     0.037 A 
ATOM     53  C   UNL A   1      40.423  28.935  27.317  1.00  0.00     0.049 A 
ATOM     54  C   UNL A   1      44.153  27.748  31.664  1.00  0.00     0.074 A 
ATOM     55  C   UNL A   1      41.039  28.997  26.083  1.00  0.00     0.029 A 
ATOM     56  N   UNL A   1      41.283  29.557  28.191  1.00  0.00    -0.354 N 
ATOM     57  N   UNL A   1      44.691  28.417  30.681  1.00  0.00    -0.248 NA
ATOM     58  C   UNL A   1      42.775  28.092  31.976  1.00  0.00     0.031 C 
ATOM     59  C   UNL A   1      42.422  29.192  26.371  1.00  0.00     0.029 A 
ATOM     60  C   UNL A   1      42.562  29.322  27.753  1.00  0.00     0.049 A 
ATOM     61  H   UNL A   1      41.027  30.079  28.986  1.00  0.00     0.167 HD
ATOM     62  C   UNL A   1      43.613  28.938  29.978  1.00  0.00     0.074 A 
ATOM     63  C   UNL A   1      42.461  28.757  30.861  1.00  0.00     0.031 C 
ATOM     64  C   UNL A   1      43.698  29.183  28.636  1.00  0.00     0.037 A 
BRANCH  51  65
ATOM     65  C   UNL A   1      38.329  28.732  28.808  1.00  0.00     0.057 A 
ATOM     66  C   UNL A   1      37.444  29.700  28.302  1.00  0.00     0.134 A 
ATOM     67  C   UNL A   1      38.362  28.628  30.215  1.00  0.00     0.134 A 
ATOM     68  F   UNL A   1      37.331  29.902  26.980  1.00  0.00    -0.206 F 
ATOM     69  C   UNL A   1      36.712  30.554  29.133  1.00  0.00     0.040 A 
ATOM     70  C   UNL A   1      37.596  29.440  31.053  1.00  0.00     0.040 A 
ATOM     71  F   UNL A   1      39.209  27.816  30.859  1.00  0.00    -0.206 F 
ATOM     72  C   UNL A   1      36.793  30.432  30.515  1.00  0.00     0.006 A 
ENDBRANCH  51  65
BRANCH  52  73
ATOM     73  C   UNL A   1      44.920  26.093  33.521  1.00  0.00     0.057 A 
ATOM     74  C   UNL A   1      46.192  26.301  34.073  1.00  0.00     0.134 A 
ATOM     75  C   UNL A   1      43.882  25.850  34.438  1.00  0.00     0.134 A 
ATOM     76  F   UNL A   1      47.237  26.584  33.283  1.00  0.00    -0.206 F 
ATOM     77  C   UNL A   1      46.416  26.292  35.458  1.00  0.00     0.040 A 
ATOM     78  C   UNL A   1      44.092  25.835  35.822  1.00  0.00     0.040 A 
ATOM     79  F   UNL A   1      42.614  25.711  34.026  1.00  0.00    -0.206 F 
ATOM     80  C   UNL A   1      45.360  26.070  36.338  1.00  0.00     0.006 A 
ENDBRANCH  52  73
BRANCH  64  81
ATOM     81  C   UNL A   1      45.054  29.083  27.986  1.00  0.00     0.057 A 
ATOM     82  C   UNL A   1      45.558  27.922  27.376  1.00  0.00     0.134 A 
ATOM     83  C   UNL A   1      45.816  30.245  27.837  1.00  0.00     0.134 A 
ATOM     84  F   UNL A   1      44.860  26.781  27.376  1.00  0.00    -0.206 F 
ATOM     85  C   UNL A   1      46.777  27.910  26.689  1.00  0.00     0.040 A 
ATOM     86  C   UNL A   1      47.020  30.256  27.128  1.00  0.00     0.040 A 
ATOM     87  F   UNL A   1      45.373  31.408  28.340  1.00  0.00    -0.206 F 
ATOM     88  C   UNL A   1      47.509  29.083  26.559  1.00  0.00     0.006 A 
ENDBRANCH  64  81
ENDBRANCH  38  39
ENDBRANCH  30  33
ENDBRANCH  28  29
ENDBRANCH  27  28
ENDBRANCH   1  27
TORSDOF 14
ENDMDL
