MODEL 1
REMARK VINA RESULT:     -12.0      0.000      0.000
REMARK SMILES COc1cccc(-c2ccc(=O)n(CC(=O)N[C@@H](C(=O)NCCCNC(=O)c3ccc(-c4c5nc(c(-c6c(F)cccc6F)c6ccc([nH]6)c(-c6c(F)cccc6F)c6nc(c(-c7c(F)cccc7F)c7ccc4[nH]7)C=C6)C=C5)cc3)C(C)C)n2)c1
REMARK SMILES IDX 19 1 20 2 21 3 18 5 17 6 15 7 16 8 14 10 13 11 8 12 9 13
REMARK SMILES IDX 85 14 10 15 11 16 12 17 7 18 3 19 4 20 86 21 5 22 6 23 2 24
REMARK SMILES IDX 1 25 82 26 83 27 84 28 22 29 23 30 24 31 25 32 26 33 27 35
REMARK SMILES IDX 28 36 29 37 81 38 30 39 80 40 31 41 32 42 33 43 74 44 34 45
REMARK SMILES IDX 79 46 73 47 75 48 35 49 78 50 72 51 71 52 36 54 62 55 45 56
REMARK SMILES IDX 61 57 46 58 49 59 60 60 76 61 47 62 48 63 59 65 77 66 50 67
REMARK SMILES IDX 37 68 38 69 43 70 39 71 40 72 42 73 44 74 41 75 63 76 64 77
REMARK SMILES IDX 69 78 65 79 66 80 68 81 70 82 67 83 51 84 52 85 57 86 53 87
REMARK SMILES IDX 54 88 56 89 58 90 55 91
REMARK H PARENT 21 4 17 9 25 34 75 53 49 64
REMARK Flexibility Score: inf
ROOT
ATOM      1  C   UNL A   1      33.822  20.200  24.965  1.00  0.00     0.242 C 
ATOM      2  O   UNL A   1      33.030  19.265  24.840  1.00  0.00    -0.273 OA
ATOM      3  N   UNL A   1      35.132  19.867  25.188  1.00  0.00    -0.354 N 
ATOM      4  H   UNL A   1      35.314  18.916  25.374  1.00  0.00     0.163 HD
ENDROOT
BRANCH   1   5
ATOM      5  C   UNL A   1      33.405  21.701  24.810  1.00  0.00     0.173 C 
BRANCH   5   6
ATOM      6  N   UNL A   1      32.115  21.887  25.491  1.00  0.00    -0.342 N 
ATOM      7  C   UNL A   1      31.670  22.860  26.341  1.00  0.00     0.242 C 
ATOM      8  O   UNL A   1      30.520  22.725  26.771  1.00  0.00    -0.273 OA
ATOM      9  H   UNL A   1      31.454  21.183  25.301  1.00  0.00     0.164 HD
BRANCH   7  10
ATOM     10  C   UNL A   1      32.504  24.103  26.697  1.00  0.00     0.248 C 
BRANCH  10  11
ATOM     11  N   UNL A   1      32.601  25.106  25.639  1.00  0.00    -0.220 N 
ATOM     12  C   UNL A   1      31.464  26.494  24.223  1.00  0.00     0.091 A 
ATOM     13  C   UNL A   1      32.688  26.909  23.518  1.00  0.00     0.036 A 
ATOM     14  N   UNL A   1      31.412  25.652  25.202  1.00  0.00    -0.169 NA
ATOM     15  C   UNL A   1      33.834  26.434  24.008  1.00  0.00     0.075 A 
ATOM     16  C   UNL A   1      33.847  25.505  25.165  1.00  0.00     0.267 A 
ATOM     17  O   UNL A   1      34.925  25.097  25.585  1.00  0.00    -0.268 OA
BRANCH  12  18
ATOM     18  C   UNL A   1      30.223  27.137  23.774  1.00  0.00     0.006 A 
ATOM     19  C   UNL A   1      29.190  29.052  22.747  1.00  0.00     0.119 A 
ATOM     20  C   UNL A   1      27.938  28.477  22.984  1.00  0.00     0.046 A 
ATOM     21  C   UNL A   1      30.338  28.389  23.166  1.00  0.00     0.056 A 
ATOM     22  C   UNL A   1      27.830  27.226  23.600  1.00  0.00     0.005 A 
ATOM     23  C   UNL A   1      28.980  26.544  23.999  1.00  0.00     0.011 A 
BRANCH  19  24
ATOM     24  O   UNL A   1      29.183  30.279  22.142  1.00  0.00    -0.497 OA
ATOM     25  C   UNL A   1      28.073  30.515  21.279  1.00  0.00     0.278 C 
ENDBRANCH  19  24
ENDBRANCH  12  18
ENDBRANCH  10  11
ENDBRANCH   7  10
ENDBRANCH   5   6
BRANCH   5  26
ATOM     26  C   UNL A   1      33.342  22.088  23.309  1.00  0.00     0.015 C 
ATOM     27  C   UNL A   1      32.088  22.879  22.927  1.00  0.00     0.010 C 
ATOM     28  C   UNL A   1      34.580  22.912  22.920  1.00  0.00     0.010 C 
ENDBRANCH   5  26
ENDBRANCH   1   5
BRANCH   3  29
ATOM     29  C   UNL A   1      36.270  20.747  25.182  1.00  0.00     0.117 C 
BRANCH  29  30
ATOM     30  C   UNL A   1      37.570  20.059  24.811  1.00  0.00     0.042 C 
BRANCH  30  31
ATOM     31  C   UNL A   1      38.722  20.499  25.695  1.00  0.00     0.118 C 
BRANCH  31  32
ATOM     32  N   UNL A   1      39.772  19.485  25.793  1.00  0.00    -0.352 N 
ATOM     33  C   UNL A   1      41.103  19.621  26.112  1.00  0.00     0.251 C 
ATOM     34  H   UNL A   1      39.480  18.564  25.601  1.00  0.00     0.163 HD
ATOM     35  O   UNL A   1      41.864  18.675  25.958  1.00  0.00    -0.269 OA
BRANCH  33  36
ATOM     36  C   UNL A   1      41.603  20.919  26.615  1.00  0.00     0.039 A 
ATOM     37  C   UNL A   1      42.103  21.859  25.712  1.00  0.00     0.014 A 
ATOM     38  C   UNL A   1      41.545  21.215  27.978  1.00  0.00     0.014 A 
ATOM     39  C   UNL A   1      42.460  23.131  26.169  1.00  0.00     0.010 A 
ATOM     40  C   UNL A   1      41.792  22.510  28.410  1.00  0.00     0.010 A 
ATOM     41  C   UNL A   1      42.259  23.481  27.513  1.00  0.00    -0.014 A 
BRANCH  41  42
ATOM     42  C   UNL A   1      42.543  24.844  28.029  1.00  0.00     0.031 A 
ATOM     43  C   UNL A   1      43.936  25.189  28.485  1.00  0.00     0.074 A 
ATOM     44  C   UNL A   1      41.540  25.730  28.182  1.00  0.00     0.049 A 
ATOM     45  N   UNL A   1      44.363  26.252  29.117  1.00  0.00    -0.248 NA
ATOM     46  C   UNL A   1      44.980  24.180  28.235  1.00  0.00     0.031 C 
ATOM     47  C   UNL A   1      40.139  25.502  27.825  1.00  0.00     0.029 A 
ATOM     48  N   UNL A   1      41.546  27.003  28.698  1.00  0.00    -0.354 N 
ATOM     49  C   UNL A   1      45.711  26.027  29.362  1.00  0.00     0.074 A 
ATOM     50  C   UNL A   1      46.018  24.702  28.870  1.00  0.00     0.031 C 
ATOM     51  C   UNL A   1      39.427  26.606  28.106  1.00  0.00     0.029 A 
ATOM     52  C   UNL A   1      40.309  27.601  28.704  1.00  0.00     0.049 A 
ATOM     53  H   UNL A   1      42.360  27.445  29.031  1.00  0.00     0.167 HD
ATOM     54  C   UNL A   1      46.621  26.859  29.919  1.00  0.00     0.037 A 
ATOM     55  C   UNL A   1      39.930  28.811  29.155  1.00  0.00     0.037 A 
ATOM     56  C   UNL A   1      46.323  28.192  30.367  1.00  0.00     0.049 A 
ATOM     57  C   UNL A   1      40.961  29.719  29.768  1.00  0.00     0.074 A 
ATOM     58  C   UNL A   1      47.182  29.136  30.903  1.00  0.00     0.029 A 
ATOM     59  N   UNL A   1      45.065  28.775  30.319  1.00  0.00    -0.354 N 
ATOM     60  N   UNL A   1      42.242  29.511  29.953  1.00  0.00    -0.248 NA
ATOM     61  C   UNL A   1      40.493  31.033  30.233  1.00  0.00     0.031 C 
ATOM     62  C   UNL A   1      46.438  30.281  31.204  1.00  0.00     0.029 A 
ATOM     63  C   UNL A   1      45.124  30.064  30.820  1.00  0.00     0.049 A 
ATOM     64  H   UNL A   1      44.251  28.336  29.980  1.00  0.00     0.167 HD
ATOM     65  C   UNL A   1      42.740  30.678  30.519  1.00  0.00     0.074 A 
ATOM     66  C   UNL A   1      41.624  31.593  30.641  1.00  0.00     0.031 C 
ATOM     67  C   UNL A   1      44.006  30.967  30.904  1.00  0.00     0.037 A 
BRANCH  54  68
ATOM     68  C   UNL A   1      48.028  26.355  30.051  1.00  0.00     0.057 A 
ATOM     69  C   UNL A   1      48.490  25.765  31.237  1.00  0.00     0.134 A 
ATOM     70  C   UNL A   1      48.926  26.438  28.981  1.00  0.00     0.134 A 
ATOM     71  F   UNL A   1      47.684  25.669  32.306  1.00  0.00    -0.206 F 
ATOM     72  C   UNL A   1      49.800  25.301  31.361  1.00  0.00     0.040 A 
ATOM     73  C   UNL A   1      50.231  25.951  29.083  1.00  0.00     0.040 A 
ATOM     74  F   UNL A   1      48.551  26.988  27.816  1.00  0.00    -0.206 F 
ATOM     75  C   UNL A   1      50.673  25.387  30.279  1.00  0.00     0.006 A 
ENDBRANCH  54  68
BRANCH  55  76
ATOM     76  C   UNL A   1      38.520  29.256  29.021  1.00  0.00     0.057 A 
ATOM     77  C   UNL A   1      37.638  29.182  30.107  1.00  0.00     0.134 A 
ATOM     78  C   UNL A   1      38.011  29.737  27.809  1.00  0.00     0.134 A 
ATOM     79  F   UNL A   1      38.063  28.711  31.288  1.00  0.00    -0.206 F 
ATOM     80  C   UNL A   1      36.297  29.547  29.987  1.00  0.00     0.040 A 
ATOM     81  C   UNL A   1      36.677  30.130  27.683  1.00  0.00     0.040 A 
ATOM     82  F   UNL A   1      38.804  29.838  26.733  1.00  0.00    -0.206 F 
ATOM     83  C   UNL A   1      35.813  30.027  28.772  1.00  0.00     0.006 A 
ENDBRANCH  55  76
BRANCH  67  84
ATOM     84  C   UNL A   1      44.265  32.345  31.436  1.00  0.00     0.057 A 
ATOM     85  C   UNL A   1      44.168  32.642  32.800  1.00  0.00     0.134 A 
ATOM     86  C   UNL A   1      44.664  33.373  30.573  1.00  0.00     0.134 A 
ATOM     87  F   UNL A   1      43.779  31.703  33.676  1.00  0.00    -0.206 F 
ATOM     88  C   UNL A   1      44.439  33.922  33.286  1.00  0.00     0.040 A 
ATOM     89  C   UNL A   1      44.964  34.649  31.050  1.00  0.00     0.040 A 
ATOM     90  F   UNL A   1      44.785  33.149  29.255  1.00  0.00    -0.206 F 
ATOM     91  C   UNL A   1      44.847  34.928  32.410  1.00  0.00     0.006 A 
ENDBRANCH  67  84
ENDBRANCH  41  42
ENDBRANCH  33  36
ENDBRANCH  31  32
ENDBRANCH  30  31
ENDBRANCH  29  30
ENDBRANCH   3  29
TORSDOF 16
ENDMDL
MODEL 2
REMARK VINA RESULT:     -11.9      3.283      9.149
REMARK SMILES COc1cccc(-c2ccc(=O)n(CC(=O)N[C@@H](C(=O)NCCCNC(=O)c3ccc(-c4c5nc(c(-c6c(F)cccc6F)c6ccc([nH]6)c(-c6c(F)cccc6F)c6nc(c(-c7c(F)cccc7F)c7ccc4[nH]7)C=C6)C=C5)cc3)C(C)C)n2)c1
REMARK SMILES IDX 19 1 20 2 21 3 18 5 17 6 15 7 16 8 14 10 13 11 8 12 9 13
REMARK SMILES IDX 85 14 10 15 11 16 12 17 7 18 3 19 4 20 86 21 5 22 6 23 2 24
REMARK SMILES IDX 1 25 82 26 83 27 84 28 22 29 23 30 24 31 25 32 26 33 27 35
REMARK SMILES IDX 28 36 29 37 81 38 30 39 80 40 31 41 32 42 33 43 74 44 34 45
REMARK SMILES IDX 79 46 73 47 75 48 35 49 78 50 72 51 71 52 36 54 62 55 45 56
REMARK SMILES IDX 61 57 46 58 49 59 60 60 76 61 47 62 48 63 59 65 77 66 50 67
REMARK SMILES IDX 37 68 38 69 43 70 39 71 40 72 42 73 44 74 41 75 63 76 64 77
REMARK SMILES IDX 69 78 65 79 66 80 68 81 70 82 67 83 51 84 52 85 57 86 53 87
REMARK SMILES IDX 54 88 56 89 58 90 55 91
REMARK H PARENT 21 4 17 9 25 34 75 53 49 64
REMARK Flexibility Score: inf
ROOT
ATOM      1  C   UNL A   1      30.306  29.774  23.814  1.00  0.00     0.242 C 
ATOM      2  O   UNL A   1      29.446  30.025  22.968  1.00  0.00    -0.273 OA
ATOM      3  N   UNL A   1      30.646  30.793  24.663  1.00  0.00    -0.354 N 
ATOM      4  H   UNL A   1      30.284  31.683  24.443  1.00  0.00     0.163 HD
ENDROOT
BRANCH   1   5
ATOM      5  C   UNL A   1      30.948  28.356  23.987  1.00  0.00     0.173 C 
BRANCH   5   6
ATOM      6  N   UNL A   1      32.349  28.435  23.547  1.00  0.00    -0.342 N 
ATOM      7  C   UNL A   1      33.523  28.262  24.224  1.00  0.00     0.242 C 
ATOM      8  O   UNL A   1      34.559  28.417  23.570  1.00  0.00    -0.273 OA
ATOM      9  H   UNL A   1      32.461  28.653  22.594  1.00  0.00     0.164 HD
BRANCH   7  10
ATOM     10  C   UNL A   1      33.580  27.822  25.697  1.00  0.00     0.248 C 
BRANCH  10  11
ATOM     11  N   UNL A   1      33.281  26.411  25.933  1.00  0.00    -0.220 N 
ATOM     12  C   UNL A   1      34.018  24.255  25.754  1.00  0.00     0.091 A 
ATOM     13  C   UNL A   1      32.733  23.694  26.207  1.00  0.00     0.036 A 
ATOM     14  N   UNL A   1      34.279  25.514  25.616  1.00  0.00    -0.169 NA
ATOM     15  C   UNL A   1      31.811  24.579  26.587  1.00  0.00     0.075 A 
ATOM     16  C   UNL A   1      32.068  26.039  26.503  1.00  0.00     0.267 A 
ATOM     17  O   UNL A   1      31.191  26.816  26.868  1.00  0.00    -0.268 OA
BRANCH  12  18
ATOM     18  C   UNL A   1      35.077  23.276  25.482  1.00  0.00     0.006 A 
ATOM     19  C   UNL A   1      35.646  20.994  24.976  1.00  0.00     0.119 A 
ATOM     20  C   UNL A   1      36.999  21.336  25.056  1.00  0.00     0.046 A 
ATOM     21  C   UNL A   1      34.680  21.964  25.215  1.00  0.00     0.056 A 
ATOM     22  C   UNL A   1      37.390  22.651  25.331  1.00  0.00     0.005 A 
ATOM     23  C   UNL A   1      36.424  23.634  25.545  1.00  0.00     0.011 A 
BRANCH  19  24
ATOM     24  O   UNL A   1      35.373  19.681  24.705  1.00  0.00    -0.497 OA
ATOM     25  C   UNL A   1      33.997  19.322  24.809  1.00  0.00     0.278 C 
ENDBRANCH  19  24
ENDBRANCH  12  18
ENDBRANCH  10  11
ENDBRANCH   7  10
ENDBRANCH   5   6
BRANCH   5  26
ATOM     26  C   UNL A   1      30.137  27.300  23.189  1.00  0.00     0.015 C 
ATOM     27  C   UNL A   1      30.991  26.159  22.631  1.00  0.00     0.010 C 
ATOM     28  C   UNL A   1      29.032  26.701  24.073  1.00  0.00     0.010 C 
ENDBRANCH   5  26
ENDBRANCH   1   5
BRANCH   3  29
ATOM     29  C   UNL A   1      31.470  30.712  25.840  1.00  0.00     0.117 C 
BRANCH  29  30
ATOM     30  C   UNL A   1      31.269  31.864  26.805  1.00  0.00     0.042 C 
BRANCH  30  31
ATOM     31  C   UNL A   1      32.580  32.525  27.187  1.00  0.00     0.118 C 
BRANCH  31  32
ATOM     32  N   UNL A   1      32.411  33.929  27.563  1.00  0.00    -0.352 N 
ATOM     33  C   UNL A   1      33.103  34.687  28.479  1.00  0.00     0.251 C 
ATOM     34  H   UNL A   1      31.691  34.403  27.088  1.00  0.00     0.163 HD
ATOM     35  O   UNL A   1      32.688  35.796  28.786  1.00  0.00    -0.269 OA
BRANCH  33  36
ATOM     36  C   UNL A   1      34.330  34.141  29.098  1.00  0.00     0.039 A 
ATOM     37  C   UNL A   1      34.230  33.372  30.260  1.00  0.00     0.014 A 
ATOM     38  C   UNL A   1      35.575  34.362  28.509  1.00  0.00     0.014 A 
ATOM     39  C   UNL A   1      35.371  32.753  30.777  1.00  0.00     0.010 A 
ATOM     40  C   UNL A   1      36.683  33.656  28.956  1.00  0.00     0.010 A 
ATOM     41  C   UNL A   1      36.596  32.850  30.099  1.00  0.00    -0.014 A 
BRANCH  41  42
ATOM     42  C   UNL A   1      37.816  32.142  30.560  1.00  0.00     0.031 A 
ATOM     43  C   UNL A   1      38.654  32.745  31.657  1.00  0.00     0.074 A 
ATOM     44  C   UNL A   1      38.224  31.021  29.933  1.00  0.00     0.049 A 
ATOM     45  N   UNL A   1      39.833  32.385  32.093  1.00  0.00    -0.248 NA
ATOM     46  C   UNL A   1      38.107  33.941  32.321  1.00  0.00     0.031 C 
ATOM     47  C   UNL A   1      37.530  30.363  28.825  1.00  0.00     0.029 A 
ATOM     48  N   UNL A   1      39.340  30.245  30.131  1.00  0.00    -0.354 N 
ATOM     49  C   UNL A   1      40.179  33.323  33.057  1.00  0.00     0.074 A 
ATOM     50  C   UNL A   1      39.117  34.303  33.098  1.00  0.00     0.031 C 
ATOM     51  C   UNL A   1      38.219  29.269  28.460  1.00  0.00     0.029 A 
ATOM     52  C   UNL A   1      39.425  29.174  29.274  1.00  0.00     0.049 A 
ATOM     53  H   UNL A   1      40.015  30.439  30.821  1.00  0.00     0.167 HD
ATOM     54  C   UNL A   1      41.268  33.351  33.860  1.00  0.00     0.037 A 
ATOM     55  C   UNL A   1      40.377  28.230  29.154  1.00  0.00     0.037 A 
ATOM     56  C   UNL A   1      42.301  32.351  33.849  1.00  0.00     0.049 A 
ATOM     57  C   UNL A   1      41.577  28.281  30.060  1.00  0.00     0.074 A 
ATOM     58  C   UNL A   1      43.423  32.259  34.653  1.00  0.00     0.029 A 
ATOM     59  N   UNL A   1      42.329  31.260  32.993  1.00  0.00    -0.354 N 
ATOM     60  N   UNL A   1      41.870  29.149  30.998  1.00  0.00    -0.248 NA
ATOM     61  C   UNL A   1      42.579  27.219  29.891  1.00  0.00     0.031 C 
ATOM     62  C   UNL A   1      44.145  31.126  34.265  1.00  0.00     0.029 A 
ATOM     63  C   UNL A   1      43.452  30.491  33.247  1.00  0.00     0.049 A 
ATOM     64  H   UNL A   1      41.651  31.062  32.306  1.00  0.00     0.167 HD
ATOM     65  C   UNL A   1      43.067  28.718  31.555  1.00  0.00     0.074 A 
ATOM     66  C   UNL A   1      43.443  27.508  30.856  1.00  0.00     0.031 C 
ATOM     67  C   UNL A   1      43.790  29.274  32.557  1.00  0.00     0.037 A 
BRANCH  54  68
ATOM     68  C   UNL A   1      41.381  34.489  34.832  1.00  0.00     0.057 A 
ATOM     69  C   UNL A   1      42.033  35.684  34.493  1.00  0.00     0.134 A 
ATOM     70  C   UNL A   1      40.817  34.403  36.109  1.00  0.00     0.134 A 
ATOM     71  F   UNL A   1      42.609  35.824  33.289  1.00  0.00    -0.206 F 
ATOM     72  C   UNL A   1      42.142  36.739  35.399  1.00  0.00     0.040 A 
ATOM     73  C   UNL A   1      40.894  35.464  37.015  1.00  0.00     0.040 A 
ATOM     74  F   UNL A   1      40.176  33.290  36.499  1.00  0.00    -0.206 F 
ATOM     75  C   UNL A   1      41.565  36.634  36.662  1.00  0.00     0.006 A 
ENDBRANCH  54  68
BRANCH  55  76
ATOM     76  C   UNL A   1      40.229  27.136  28.161  1.00  0.00     0.057 A 
ATOM     77  C   UNL A   1      39.515  25.973  28.477  1.00  0.00     0.134 A 
ATOM     78  C   UNL A   1      40.812  27.209  26.891  1.00  0.00     0.134 A 
ATOM     79  F   UNL A   1      38.951  25.837  29.686  1.00  0.00    -0.206 F 
ATOM     80  C   UNL A   1      39.408  24.913  27.577  1.00  0.00     0.040 A 
ATOM     81  C   UNL A   1      40.690  26.166  25.970  1.00  0.00     0.040 A 
ATOM     82  F   UNL A   1      41.503  28.298  26.524  1.00  0.00    -0.206 F 
ATOM     83  C   UNL A   1      39.993  25.009  26.316  1.00  0.00     0.006 A 
ENDBRANCH  55  76
BRANCH  67  84
ATOM     84  C   UNL A   1      45.027  28.548  32.996  1.00  0.00     0.057 A 
ATOM     85  C   UNL A   1      46.287  28.842  32.460  1.00  0.00     0.134 A 
ATOM     86  C   UNL A   1      44.958  27.577  34.002  1.00  0.00     0.134 A 
ATOM     87  F   UNL A   1      46.417  29.754  31.485  1.00  0.00    -0.206 F 
ATOM     88  C   UNL A   1      47.434  28.178  32.898  1.00  0.00     0.040 A 
ATOM     89  C   UNL A   1      46.101  26.926  34.466  1.00  0.00     0.040 A 
ATOM     90  F   UNL A   1      43.781  27.257  34.561  1.00  0.00    -0.206 F 
ATOM     91  C   UNL A   1      47.344  27.223  33.910  1.00  0.00     0.006 A 
ENDBRANCH  67  84
ENDBRANCH  41  42
ENDBRANCH  33  36
ENDBRANCH  31  32
ENDBRANCH  30  31
ENDBRANCH  29  30
ENDBRANCH   3  29
TORSDOF 16
ENDMDL
MODEL 3
REMARK VINA RESULT:     -11.9      3.219      8.998
REMARK SMILES COc1cccc(-c2ccc(=O)n(CC(=O)N[C@@H](C(=O)NCCCNC(=O)c3ccc(-c4c5nc(c(-c6c(F)cccc6F)c6ccc([nH]6)c(-c6c(F)cccc6F)c6nc(c(-c7c(F)cccc7F)c7ccc4[nH]7)C=C6)C=C5)cc3)C(C)C)n2)c1
REMARK SMILES IDX 19 1 20 2 21 3 18 5 17 6 15 7 16 8 14 10 13 11 8 12 9 13
REMARK SMILES IDX 85 14 10 15 11 16 12 17 7 18 3 19 4 20 86 21 5 22 6 23 2 24
REMARK SMILES IDX 1 25 82 26 83 27 84 28 22 29 23 30 24 31 25 32 26 33 27 35
REMARK SMILES IDX 28 36 29 37 81 38 30 39 80 40 31 41 32 42 33 43 74 44 34 45
REMARK SMILES IDX 79 46 73 47 75 48 35 49 78 50 72 51 71 52 36 54 62 55 45 56
REMARK SMILES IDX 61 57 46 58 49 59 60 60 76 61 47 62 48 63 59 65 77 66 50 67
REMARK SMILES IDX 37 68 38 69 43 70 39 71 40 72 42 73 44 74 41 75 63 76 64 77
REMARK SMILES IDX 69 78 65 79 66 80 68 81 70 82 67 83 51 84 52 85 57 86 53 87
REMARK SMILES IDX 54 88 56 89 58 90 55 91
REMARK H PARENT 21 4 17 9 25 34 75 53 49 64
REMARK Flexibility Score: inf
ROOT
ATOM      1  C   UNL A   1      32.962  28.931  23.825  1.00  0.00     0.242 C 
ATOM      2  O   UNL A   1      33.586  29.264  22.815  1.00  0.00    -0.273 OA
ATOM      3  N   UNL A   1      32.930  29.838  24.851  1.00  0.00    -0.354 N 
ATOM      4  H   UNL A   1      33.522  30.620  24.760  1.00  0.00     0.163 HD
ENDROOT
BRANCH   1   5
ATOM      5  C   UNL A   1      32.175  27.582  23.939  1.00  0.00     0.173 C 
BRANCH   5   6
ATOM      6  N   UNL A   1      32.700  26.662  22.919  1.00  0.00    -0.342 N 
ATOM      7  C   UNL A   1      33.471  25.539  23.022  1.00  0.00     0.242 C 
ATOM      8  O   UNL A   1      33.771  24.983  21.961  1.00  0.00    -0.273 OA
ATOM      9  H   UNL A   1      32.453  26.899  21.996  1.00  0.00     0.164 HD
BRANCH   7  10
ATOM     10  C   UNL A   1      33.890  24.935  24.374  1.00  0.00     0.248 C 
BRANCH  10  11
ATOM     11  N   UNL A   1      32.964  23.947  24.923  1.00  0.00    -0.220 N 
ATOM     12  C   UNL A   1      32.223  21.786  24.848  1.00  0.00     0.091 A 
ATOM     13  C   UNL A   1      31.133  22.042  25.804  1.00  0.00     0.036 A 
ATOM     14  N   UNL A   1      33.073  22.665  24.426  1.00  0.00    -0.169 NA
ATOM     15  C   UNL A   1      31.096  23.265  26.334  1.00  0.00     0.075 A 
ATOM     16  C   UNL A   1      32.076  24.305  25.932  1.00  0.00     0.267 A 
ATOM     17  O   UNL A   1      32.006  25.415  26.450  1.00  0.00    -0.268 OA
BRANCH  12  18
ATOM     18  C   UNL A   1      32.348  20.399  24.384  1.00  0.00     0.006 A 
ATOM     19  C   UNL A   1      32.808  18.106  24.951  1.00  0.00     0.119 A 
ATOM     20  C   UNL A   1      32.705  17.773  23.597  1.00  0.00     0.046 A 
ATOM     21  C   UNL A   1      32.652  19.431  25.343  1.00  0.00     0.056 A 
ATOM     22  C   UNL A   1      32.408  18.749  22.640  1.00  0.00     0.005 A 
ATOM     23  C   UNL A   1      32.225  20.076  23.032  1.00  0.00     0.011 A 
BRANCH  19  24
ATOM     24  O   UNL A   1      33.106  17.078  25.802  1.00  0.00    -0.497 OA
ATOM     25  C   UNL A   1      32.777  15.780  25.311  1.00  0.00     0.278 C 
ENDBRANCH  19  24
ENDBRANCH  12  18
ENDBRANCH  10  11
ENDBRANCH   7  10
ENDBRANCH   5   6
BRANCH   5  26
ATOM     26  C   UNL A   1      30.652  27.836  23.778  1.00  0.00     0.015 C 
ATOM     27  C   UNL A   1      30.282  28.582  22.494  1.00  0.00     0.010 C 
ATOM     28  C   UNL A   1      29.886  26.504  23.811  1.00  0.00     0.010 C 
ENDBRANCH   5  26
ENDBRANCH   1   5
BRANCH   3  29
ATOM     29  C   UNL A   1      32.128  29.778  26.045  1.00  0.00     0.117 C 
BRANCH  29  30
ATOM     30  C   UNL A   1      31.714  31.139  26.569  1.00  0.00     0.042 C 
BRANCH  30  31
ATOM     31  C   UNL A   1      32.869  31.875  27.224  1.00  0.00     0.118 C 
BRANCH  31  32
ATOM     32  N   UNL A   1      32.530  33.256  27.567  1.00  0.00    -0.352 N 
ATOM     33  C   UNL A   1      33.144  34.124  28.440  1.00  0.00     0.251 C 
ATOM     34  H   UNL A   1      31.741  33.619  27.103  1.00  0.00     0.163 HD
ATOM     35  O   UNL A   1      32.598  35.180  28.731  1.00  0.00    -0.269 OA
BRANCH  33  36
ATOM     36  C   UNL A   1      34.448  33.760  29.034  1.00  0.00     0.039 A 
ATOM     37  C   UNL A   1      34.481  33.012  30.214  1.00  0.00     0.014 A 
ATOM     38  C   UNL A   1      35.637  34.129  28.404  1.00  0.00     0.014 A 
ATOM     39  C   UNL A   1      35.707  32.561  30.709  1.00  0.00     0.010 A 
ATOM     40  C   UNL A   1      36.840  33.586  28.833  1.00  0.00     0.010 A 
ATOM     41  C   UNL A   1      36.890  32.802  29.994  1.00  0.00    -0.014 A 
BRANCH  41  42
ATOM     42  C   UNL A   1      38.206  32.272  30.434  1.00  0.00     0.031 A 
ATOM     43  C   UNL A   1      38.723  30.988  29.844  1.00  0.00     0.074 A 
ATOM     44  C   UNL A   1      38.882  32.884  31.426  1.00  0.00     0.049 A 
ATOM     45  N   UNL A   1      39.755  30.267  30.200  1.00  0.00    -0.248 NA
ATOM     46  C   UNL A   1      37.946  30.414  28.731  1.00  0.00     0.031 C 
ATOM     47  C   UNL A   1      38.465  34.107  32.114  1.00  0.00     0.029 A 
ATOM     48  N   UNL A   1      40.062  32.545  32.041  1.00  0.00    -0.354 N 
ATOM     49  C   UNL A   1      39.733  29.148  29.378  1.00  0.00     0.074 A 
ATOM     50  C   UNL A   1      38.553  29.251  28.549  1.00  0.00     0.031 C 
ATOM     51  C   UNL A   1      39.387  34.431  33.035  1.00  0.00     0.029 A 
ATOM     52  C   UNL A   1      40.435  33.416  33.036  1.00  0.00     0.049 A 
ATOM     53  H   UNL A   1      40.590  31.753  31.792  1.00  0.00     0.167 HD
ATOM     54  C   UNL A   1      40.632  28.139  29.296  1.00  0.00     0.037 A 
ATOM     55  C   UNL A   1      41.497  33.389  33.863  1.00  0.00     0.037 A 
ATOM     56  C   UNL A   1      41.827  28.061  30.091  1.00  0.00     0.049 A 
ATOM     57  C   UNL A   1      42.483  32.258  33.751  1.00  0.00     0.074 A 
ATOM     58  C   UNL A   1      42.828  27.107  30.054  1.00  0.00     0.029 A 
ATOM     59  N   UNL A   1      42.189  28.986  31.060  1.00  0.00    -0.354 N 
ATOM     60  N   UNL A   1      42.474  31.230  32.939  1.00  0.00    -0.248 NA
ATOM     61  C   UNL A   1      43.628  32.286  34.672  1.00  0.00     0.031 C 
ATOM     62  C   UNL A   1      43.783  27.439  31.021  1.00  0.00     0.029 A 
ATOM     63  C   UNL A   1      43.395  28.621  31.631  1.00  0.00     0.049 A 
ATOM     64  H   UNL A   1      41.664  29.782  31.305  1.00  0.00     0.167 HD
ATOM     65  C   UNL A   1      43.627  30.510  33.222  1.00  0.00     0.074 A 
ATOM     66  C   UNL A   1      44.316  31.223  34.277  1.00  0.00     0.031 C 
ATOM     67  C   UNL A   1      44.077  29.362  32.660  1.00  0.00     0.037 A 
BRANCH  54  68
ATOM     68  C   UNL A   1      40.362  27.053  28.297  1.00  0.00     0.057 A 
ATOM     69  C   UNL A   1      40.955  27.059  27.026  1.00  0.00     0.134 A 
ATOM     70  C   UNL A   1      39.523  25.978  28.611  1.00  0.00     0.134 A 
ATOM     71  F   UNL A   1      41.757  28.069  26.656  1.00  0.00    -0.206 F 
ATOM     72  C   UNL A   1      40.700  26.051  26.095  1.00  0.00     0.040 A 
ATOM     73  C   UNL A   1      39.283  24.948  27.699  1.00  0.00     0.040 A 
ATOM     74  F   UNL A   1      38.926  25.906  29.810  1.00  0.00    -0.206 F 
ATOM     75  C   UNL A   1      39.867  24.987  26.434  1.00  0.00     0.006 A 
ENDBRANCH  54  68
BRANCH  55  76
ATOM     76  C   UNL A   1      41.708  34.477  34.851  1.00  0.00     0.057 A 
ATOM     77  C   UNL A   1      42.452  35.615  34.515  1.00  0.00     0.134 A 
ATOM     78  C   UNL A   1      41.199  34.400  36.153  1.00  0.00     0.134 A 
ATOM     79  F   UNL A   1      42.981  35.736  33.290  1.00  0.00    -0.206 F 
ATOM     80  C   UNL A   1      42.704  36.625  35.445  1.00  0.00     0.040 A 
ATOM     81  C   UNL A   1      41.422  35.416  37.085  1.00  0.00     0.040 A 
ATOM     82  F   UNL A   1      40.473  33.340  36.535  1.00  0.00    -0.206 F 
ATOM     83  C   UNL A   1      42.185  36.529  36.734  1.00  0.00     0.006 A 
ENDBRANCH  55  76
BRANCH  67  84
ATOM     84  C   UNL A   1      45.401  28.838  33.132  1.00  0.00     0.057 A 
ATOM     85  C   UNL A   1      46.606  29.234  32.540  1.00  0.00     0.134 A 
ATOM     86  C   UNL A   1      45.467  27.964  34.224  1.00  0.00     0.134 A 
ATOM     87  F   UNL A   1      46.607  30.060  31.484  1.00  0.00    -0.206 F 
ATOM     88  C   UNL A   1      47.833  28.760  33.007  1.00  0.00     0.040 A 
ATOM     89  C   UNL A   1      46.689  27.505  34.715  1.00  0.00     0.040 A 
ATOM     90  F   UNL A   1      44.347  27.555  34.839  1.00  0.00    -0.206 F 
ATOM     91  C   UNL A   1      47.877  27.900  34.104  1.00  0.00     0.006 A 
ENDBRANCH  67  84
ENDBRANCH  41  42
ENDBRANCH  33  36
ENDBRANCH  31  32
ENDBRANCH  30  31
ENDBRANCH  29  30
ENDBRANCH   3  29
TORSDOF 16
ENDMDL
