MODEL 1
REMARK VINA RESULT:     -12.2      0.000      0.000
REMARK SMILES C[C@@H](C(=O)NCCCNC(=O)c1ccc(-c2c3nc(c(-c4c(F)cccc4F)c4ccc([nH]4)c(-c4c(F)cccc4F)c4nc(c(-c5c(F)cccc5F)c5ccc2[nH]5)C=C4)C=C3)cc1)c1cc(/C=C/S(C)(=O)=O)cc(C(=O)c2ccccc2)c1
REMARK SMILES IDX 6 1 5 2 3 3 4 4 2 6 1 7 66 8 67 9 85 10 68 11 76 12 75 13
REMARK SMILES IDX 69 14 70 15 71 16 72 17 73 18 74 19 77 20 78 21 79 22 80 23
REMARK SMILES IDX 84 24 81 25 83 26 82 27 7 28 8 29 9 30 10 31 11 33 12 34
REMARK SMILES IDX 13 35 65 36 14 37 64 38 15 39 16 40 17 41 58 42 18 43 63 44
REMARK SMILES IDX 57 45 59 46 19 47 62 48 56 49 55 50 20 52 46 53 29 54 45 55
REMARK SMILES IDX 30 56 33 57 44 58 60 59 31 60 32 61 43 63 61 64 34 65 21 66
REMARK SMILES IDX 22 67 27 68 23 69 24 70 26 71 28 72 25 73 47 74 48 75 53 76
REMARK SMILES IDX 49 77 50 78 52 79 54 80 51 81 35 82 36 83 41 84 37 85 38 86
REMARK SMILES IDX 40 87 42 88 39 89
REMARK H PARENT 5 5 9 32 59 51 33 62
REMARK Flexibility Score: inf
ROOT
ATOM      1  C   UNL A   1      32.113  26.547  25.146  1.00  0.00     0.117 C 
ENDROOT
BRANCH   1   2
ATOM      2  N   UNL A   1      32.344  25.688  26.290  1.00  0.00    -0.356 N 
ATOM      3  C   UNL A   1      31.941  24.400  26.489  1.00  0.00     0.227 C 
ATOM      4  O   UNL A   1      31.784  24.059  27.662  1.00  0.00    -0.274 OA
ATOM      5  H   UNL A   1      32.863  26.090  27.025  1.00  0.00     0.163 HD
BRANCH   3   6
ATOM      6  C   UNL A   1      31.683  23.484  25.278  1.00  0.00     0.105 C 
ATOM      7  C   UNL A   1      30.489  22.581  25.637  1.00  0.00     0.023 C 
BRANCH   6   8
ATOM      8  C   UNL A   1      32.867  22.612  24.833  1.00  0.00    -0.035 A 
ATOM      9  C   UNL A   1      32.736  21.213  24.852  1.00  0.00     0.012 A 
ATOM     10  C   UNL A   1      34.106  23.132  24.455  1.00  0.00     0.016 A 
ATOM     11  C   UNL A   1      33.831  20.349  24.695  1.00  0.00    -0.024 A 
ATOM     12  C   UNL A   1      35.231  22.307  24.328  1.00  0.00     0.023 A 
ATOM     13  C   UNL A   1      35.087  20.918  24.448  1.00  0.00     0.020 A 
BRANCH  11  14
ATOM     14  C   UNL A   1      33.707  18.885  24.857  1.00  0.00     0.020 C 
ATOM     15  C   UNL A   1      34.642  17.994  24.488  1.00  0.00     0.106 C 
BRANCH  15  16
ATOM     16  S   UNL A   1      34.365  16.289  24.645  1.00  0.00     0.168 S 
ATOM     17  C   UNL A   1      32.845  16.274  25.570  1.00  0.00     0.163 C 
ATOM     18  O   UNL A   1      34.067  15.758  23.330  1.00  0.00    -0.225 OA
ATOM     19  O   UNL A   1      35.383  15.681  25.481  1.00  0.00    -0.225 OA
ENDBRANCH  15  16
ENDBRANCH  11  14
BRANCH  12  20
ATOM     20  C   UNL A   1      36.588  22.889  24.095  1.00  0.00     0.193 C 
ATOM     21  O   UNL A   1      36.871  23.370  23.001  1.00  0.00    -0.289 OA
BRANCH  20  22
ATOM     22  C   UNL A   1      37.606  22.921  25.177  1.00  0.00     0.022 A 
ATOM     23  C   UNL A   1      38.374  21.774  25.403  1.00  0.00     0.012 A 
ATOM     24  C   UNL A   1      37.830  24.074  25.940  1.00  0.00     0.012 A 
ATOM     25  C   UNL A   1      39.401  21.801  26.349  1.00  0.00     0.001 A 
ATOM     26  C   UNL A   1      38.862  24.098  26.879  1.00  0.00     0.001 A 
ATOM     27  C   UNL A   1      39.651  22.966  27.078  1.00  0.00     0.000 A 
ENDBRANCH  20  22
ENDBRANCH  12  20
ENDBRANCH   6   8
ENDBRANCH   3   6
ENDBRANCH   1   2
BRANCH   1  28
ATOM     28  C   UNL A   1      31.674  27.944  25.595  1.00  0.00     0.042 C 
BRANCH  28  29
ATOM     29  C   UNL A   1      32.785  28.988  25.575  1.00  0.00     0.118 C 
BRANCH  29  30
ATOM     30  N   UNL A   1      32.310  30.310  25.942  1.00  0.00    -0.352 N 
ATOM     31  C   UNL A   1      32.794  31.188  26.878  1.00  0.00     0.251 C 
ATOM     32  H   UNL A   1      31.521  30.624  25.443  1.00  0.00     0.163 HD
ATOM     33  O   UNL A   1      32.123  32.167  27.193  1.00  0.00    -0.269 OA
BRANCH  31  34
ATOM     34  C   UNL A   1      34.103  30.952  27.521  1.00  0.00     0.039 A 
ATOM     35  C   UNL A   1      34.969  32.036  27.696  1.00  0.00     0.014 A 
ATOM     36  C   UNL A   1      34.496  29.673  27.925  1.00  0.00     0.014 A 
ATOM     37  C   UNL A   1      36.200  31.846  28.325  1.00  0.00     0.010 A 
ATOM     38  C   UNL A   1      35.688  29.499  28.624  1.00  0.00     0.010 A 
ATOM     39  C   UNL A   1      36.556  30.583  28.827  1.00  0.00    -0.014 A 
BRANCH  39  40
ATOM     40  C   UNL A   1      37.826  30.386  29.572  1.00  0.00     0.031 A 
ATOM     41  C   UNL A   1      38.942  29.576  28.974  1.00  0.00     0.074 A 
ATOM     42  C   UNL A   1      37.950  30.891  30.815  1.00  0.00     0.049 A 
ATOM     43  N   UNL A   1      40.098  29.250  29.497  1.00  0.00    -0.248 NA
ATOM     44  C   UNL A   1      38.725  29.042  27.620  1.00  0.00     0.031 C 
ATOM     45  C   UNL A   1      36.923  31.654  31.525  1.00  0.00     0.029 A 
ATOM     46  N   UNL A   1      38.993  30.829  31.707  1.00  0.00    -0.354 N 
ATOM     47  C   UNL A   1      40.737  28.465  28.545  1.00  0.00     0.074 A 
ATOM     48  C   UNL A   1      39.822  28.321  27.434  1.00  0.00     0.031 C 
ATOM     49  C   UNL A   1      37.392  32.008  32.731  1.00  0.00     0.029 A 
ATOM     50  C   UNL A   1      38.735  31.461  32.899  1.00  0.00     0.049 A 
ATOM     51  H   UNL A   1      39.844  30.375  31.511  1.00  0.00     0.167 HD
ATOM     52  C   UNL A   1      41.982  27.932  28.583  1.00  0.00     0.037 A 
ATOM     53  C   UNL A   1      39.489  31.577  34.010  1.00  0.00     0.037 A 
ATOM     54  C   UNL A   1      42.897  28.094  29.684  1.00  0.00     0.049 A 
ATOM     55  C   UNL A   1      40.862  30.966  34.032  1.00  0.00     0.074 A 
ATOM     56  C   UNL A   1      44.202  27.643  29.791  1.00  0.00     0.029 A 
ATOM     57  N   UNL A   1      42.604  28.751  30.869  1.00  0.00    -0.354 N 
ATOM     58  N   UNL A   1      41.480  30.285  33.097  1.00  0.00    -0.248 NA
ATOM     59  C   UNL A   1      41.648  31.146  35.261  1.00  0.00     0.031 C 
ATOM     60  C   UNL A   1      44.677  27.976  31.063  1.00  0.00     0.029 A 
ATOM     61  C   UNL A   1      43.692  28.692  31.724  1.00  0.00     0.049 A 
ATOM     62  H   UNL A   1      41.748  29.194  31.073  1.00  0.00     0.167 HD
ATOM     63  C   UNL A   1      42.732  29.980  33.612  1.00  0.00     0.074 A 
ATOM     64  C   UNL A   1      42.793  30.564  34.936  1.00  0.00     0.031 C 
ATOM     65  C   UNL A   1      43.742  29.279  33.039  1.00  0.00     0.037 A 
BRANCH  52  66
ATOM     66  C   UNL A   1      42.430  27.118  27.404  1.00  0.00     0.057 A 
ATOM     67  C   UNL A   1      43.013  27.709  26.274  1.00  0.00     0.134 A 
ATOM     68  C   UNL A   1      42.325  25.721  27.418  1.00  0.00     0.134 A 
ATOM     69  F   UNL A   1      43.134  29.042  26.189  1.00  0.00    -0.206 F 
ATOM     70  C   UNL A   1      43.453  26.943  25.193  1.00  0.00     0.040 A 
ATOM     71  C   UNL A   1      42.790  24.942  26.356  1.00  0.00     0.040 A 
ATOM     72  F   UNL A   1      41.785  25.089  28.470  1.00  0.00    -0.206 F 
ATOM     73  C   UNL A   1      43.351  25.553  25.238  1.00  0.00     0.006 A 
ENDBRANCH  52  66
BRANCH  53  74
ATOM     74  C   UNL A   1      38.962  32.311  35.189  1.00  0.00     0.057 A 
ATOM     75  C   UNL A   1      39.137  33.693  35.321  1.00  0.00     0.134 A 
ATOM     76  C   UNL A   1      38.275  31.649  36.214  1.00  0.00     0.134 A 
ATOM     77  F   UNL A   1      39.802  34.381  34.381  1.00  0.00    -0.206 F 
ATOM     78  C   UNL A   1      38.666  34.388  36.436  1.00  0.00     0.040 A 
ATOM     79  C   UNL A   1      37.773  32.334  37.321  1.00  0.00     0.040 A 
ATOM     80  F   UNL A   1      38.064  30.326  36.143  1.00  0.00    -0.206 F 
ATOM     81  C   UNL A   1      37.977  33.707  37.438  1.00  0.00     0.006 A 
ENDBRANCH  53  74
BRANCH  65  82
ATOM     82  C   UNL A   1      45.015  29.136  33.824  1.00  0.00     0.057 A 
ATOM     83  C   UNL A   1      46.044  30.084  33.753  1.00  0.00     0.134 A 
ATOM     84  C   UNL A   1      45.195  28.052  34.694  1.00  0.00     0.134 A 
ATOM     85  F   UNL A   1      45.941  31.139  32.931  1.00  0.00    -0.206 F 
ATOM     86  C   UNL A   1      47.215  29.946  34.501  1.00  0.00     0.040 A 
ATOM     87  C   UNL A   1      46.346  27.920  35.470  1.00  0.00     0.040 A 
ATOM     88  F   UNL A   1      44.245  27.113  34.818  1.00  0.00    -0.206 F 
ATOM     89  C   UNL A   1      47.365  28.865  35.368  1.00  0.00     0.006 A 
ENDBRANCH  65  82
ENDBRANCH  39  40
ENDBRANCH  31  34
ENDBRANCH  29  30
ENDBRANCH  28  29
ENDBRANCH   1  28
TORSDOF 15
ENDMDL
MODEL 2
REMARK VINA RESULT:     -12.1      5.284     10.870
REMARK SMILES C[C@@H](C(=O)NCCCNC(=O)c1ccc(-c2c3nc(c(-c4c(F)cccc4F)c4ccc([nH]4)c(-c4c(F)cccc4F)c4nc(c(-c5c(F)cccc5F)c5ccc2[nH]5)C=C4)C=C3)cc1)c1cc(/C=C/S(C)(=O)=O)cc(C(=O)c2ccccc2)c1
REMARK SMILES IDX 6 1 5 2 3 3 4 4 2 6 1 7 66 8 67 9 85 10 68 11 76 12 75 13
REMARK SMILES IDX 69 14 70 15 71 16 72 17 73 18 74 19 77 20 78 21 79 22 80 23
REMARK SMILES IDX 84 24 81 25 83 26 82 27 7 28 8 29 9 30 10 31 11 33 12 34
REMARK SMILES IDX 13 35 65 36 14 37 64 38 15 39 16 40 17 41 58 42 18 43 63 44
REMARK SMILES IDX 57 45 59 46 19 47 62 48 56 49 55 50 20 52 46 53 29 54 45 55
REMARK SMILES IDX 30 56 33 57 44 58 60 59 31 60 32 61 43 63 61 64 34 65 21 66
REMARK SMILES IDX 22 67 27 68 23 69 24 70 26 71 28 72 25 73 47 74 48 75 53 76
REMARK SMILES IDX 49 77 50 78 52 79 54 80 51 81 35 82 36 83 41 84 37 85 38 86
REMARK SMILES IDX 40 87 42 88 39 89
REMARK H PARENT 5 5 9 32 59 51 33 62
REMARK Flexibility Score: inf
ROOT
ATOM      1  C   UNL A   1      33.296  34.604  29.456  1.00  0.00     0.117 C 
ENDROOT
BRANCH   1   2
ATOM      2  N   UNL A   1      33.568  35.088  30.794  1.00  0.00    -0.356 N 
ATOM      3  C   UNL A   1      34.347  34.531  31.766  1.00  0.00     0.227 C 
ATOM      4  O   UNL A   1      34.035  34.796  32.927  1.00  0.00    -0.274 OA
ATOM      5  H   UNL A   1      33.129  35.937  31.036  1.00  0.00     0.163 HD
BRANCH   3   6
ATOM      6  C   UNL A   1      35.514  33.606  31.372  1.00  0.00     0.105 C 
ATOM      7  C   UNL A   1      35.238  32.230  32.004  1.00  0.00     0.023 C 
BRANCH   6   8
ATOM      8  C   UNL A   1      36.916  34.084  31.782  1.00  0.00    -0.035 A 
ATOM      9  C   UNL A   1      37.939  34.119  30.818  1.00  0.00     0.012 A 
ATOM     10  C   UNL A   1      37.256  34.440  33.088  1.00  0.00     0.016 A 
ATOM     11  C   UNL A   1      39.288  34.308  31.156  1.00  0.00    -0.024 A 
ATOM     12  C   UNL A   1      38.594  34.597  33.472  1.00  0.00     0.023 A 
ATOM     13  C   UNL A   1      39.605  34.531  32.502  1.00  0.00     0.020 A 
BRANCH  11  14
ATOM     14  C   UNL A   1      40.371  34.203  30.155  1.00  0.00     0.020 C 
ATOM     15  C   UNL A   1      41.637  34.607  30.354  1.00  0.00     0.106 C 
BRANCH  15  16
ATOM     16  S   UNL A   1      42.815  34.517  29.085  1.00  0.00     0.168 S 
ATOM     17  C   UNL A   1      44.183  35.378  29.827  1.00  0.00     0.163 C 
ATOM     18  O   UNL A   1      43.215  33.132  28.939  1.00  0.00    -0.225 OA
ATOM     19  O   UNL A   1      42.389  35.294  27.936  1.00  0.00    -0.225 OA
ENDBRANCH  15  16
ENDBRANCH  11  14
BRANCH  12  20
ATOM     20  C   UNL A   1      38.962  34.806  34.905  1.00  0.00     0.193 C 
ATOM     21  O   UNL A   1      39.521  35.844  35.252  1.00  0.00    -0.289 OA
BRANCH  20  22
ATOM     22  C   UNL A   1      38.641  33.786  35.937  1.00  0.00     0.022 A 
ATOM     23  C   UNL A   1      38.480  34.206  37.261  1.00  0.00     0.012 A 
ATOM     24  C   UNL A   1      38.464  32.436  35.605  1.00  0.00     0.012 A 
ATOM     25  C   UNL A   1      38.087  33.288  38.238  1.00  0.00     0.001 A 
ATOM     26  C   UNL A   1      38.066  31.525  36.583  1.00  0.00     0.001 A 
ATOM     27  C   UNL A   1      37.870  31.952  37.896  1.00  0.00     0.000 A 
ENDBRANCH  20  22
ENDBRANCH  12  20
ENDBRANCH   6   8
ENDBRANCH   3   6
ENDBRANCH   1   2
BRANCH   1  28
ATOM     28  C   UNL A   1      34.462  34.922  28.516  1.00  0.00     0.042 C 
BRANCH  28  29
ATOM     29  C   UNL A   1      35.175  33.694  27.962  1.00  0.00     0.118 C 
BRANCH  29  30
ATOM     30  N   UNL A   1      34.278  32.565  27.786  1.00  0.00    -0.352 N 
ATOM     31  C   UNL A   1      34.527  31.221  27.897  1.00  0.00     0.251 C 
ATOM     32  H   UNL A   1      33.351  32.800  27.550  1.00  0.00     0.163 HD
ATOM     33  O   UNL A   1      33.692  30.415  27.497  1.00  0.00    -0.269 OA
BRANCH  31  34
ATOM     34  C   UNL A   1      35.798  30.739  28.477  1.00  0.00     0.039 A 
ATOM     35  C   UNL A   1      35.753  29.744  29.458  1.00  0.00     0.014 A 
ATOM     36  C   UNL A   1      37.027  31.276  28.084  1.00  0.00     0.014 A 
ATOM     37  C   UNL A   1      36.940  29.252  30.002  1.00  0.00     0.010 A 
ATOM     38  C   UNL A   1      38.213  30.729  28.568  1.00  0.00     0.010 A 
ATOM     39  C   UNL A   1      38.183  29.714  29.536  1.00  0.00    -0.014 A 
BRANCH  39  40
ATOM     40  C   UNL A   1      39.454  29.139  30.047  1.00  0.00     0.031 A 
ATOM     41  C   UNL A   1      40.109  29.709  31.274  1.00  0.00     0.074 A 
ATOM     42  C   UNL A   1      40.047  28.137  29.370  1.00  0.00     0.049 A 
ATOM     43  N   UNL A   1      41.245  29.376  31.834  1.00  0.00    -0.248 NA
ATOM     44  C   UNL A   1      39.410  30.814  31.949  1.00  0.00     0.031 C 
ATOM     45  C   UNL A   1      39.537  27.528  28.140  1.00  0.00     0.029 A 
ATOM     46  N   UNL A   1      41.216  27.459  29.614  1.00  0.00    -0.354 N 
ATOM     47  C   UNL A   1      41.402  30.235  32.914  1.00  0.00     0.074 A 
ATOM     48  C   UNL A   1      40.272  31.138  32.902  1.00  0.00     0.031 C 
ATOM     49  C   UNL A   1      40.374  26.555  27.750  1.00  0.00     0.029 A 
ATOM     50  C   UNL A   1      41.502  26.499  28.674  1.00  0.00     0.049 A 
ATOM     51  H   UNL A   1      41.795  27.645  30.389  1.00  0.00     0.167 HD
ATOM     52  C   UNL A   1      42.387  30.255  33.844  1.00  0.00     0.037 A 
ATOM     53  C   UNL A   1      42.561  25.674  28.561  1.00  0.00     0.037 A 
ATOM     54  C   UNL A   1      43.501  29.343  33.863  1.00  0.00     0.049 A 
ATOM     55  C   UNL A   1      43.646  25.723  29.600  1.00  0.00     0.074 A 
ATOM     56  C   UNL A   1      44.517  29.245  34.798  1.00  0.00     0.029 A 
ATOM     57  N   UNL A   1      43.749  28.375  32.901  1.00  0.00    -0.354 N 
ATOM     58  N   UNL A   1      43.746  26.495  30.654  1.00  0.00    -0.248 NA
ATOM     59  C   UNL A   1      44.763  24.783  29.437  1.00  0.00     0.031 C 
ATOM     60  C   UNL A   1      45.412  28.259  34.371  1.00  0.00     0.029 A 
ATOM     61  C   UNL A   1      44.919  27.697  33.204  1.00  0.00     0.049 A 
ATOM     62  H   UNL A   1      43.179  28.198  32.118  1.00  0.00     0.167 HD
ATOM     63  C   UNL A   1      44.919  26.116  31.294  1.00  0.00     0.074 A 
ATOM     64  C   UNL A   1      45.487  25.034  30.519  1.00  0.00     0.031 C 
ATOM     65  C   UNL A   1      45.473  26.619  32.426  1.00  0.00     0.037 A 
BRANCH  52  66
ATOM     66  C   UNL A   1      42.310  31.301  34.920  1.00  0.00     0.057 A 
ATOM     67  C   UNL A   1      42.615  32.646  34.669  1.00  0.00     0.134 A 
ATOM     68  C   UNL A   1      41.876  30.969  36.210  1.00  0.00     0.134 A 
ATOM     69  F   UNL A   1      43.047  33.031  33.460  1.00  0.00    -0.206 F 
ATOM     70  C   UNL A   1      42.513  33.617  35.668  1.00  0.00     0.040 A 
ATOM     71  C   UNL A   1      41.742  31.936  37.208  1.00  0.00     0.040 A 
ATOM     72  F   UNL A   1      41.560  29.702  36.517  1.00  0.00    -0.206 F 
ATOM     73  C   UNL A   1      42.066  33.263  36.939  1.00  0.00     0.006 A 
ENDBRANCH  52  66
BRANCH  53  74
ATOM     74  C   UNL A   1      42.638  24.721  27.423  1.00  0.00     0.057 A 
ATOM     75  C   UNL A   1      43.239  25.084  26.212  1.00  0.00     0.134 A 
ATOM     76  C   UNL A   1      42.110  23.427  27.517  1.00  0.00     0.134 A 
ATOM     77  F   UNL A   1      43.748  26.315  26.054  1.00  0.00    -0.206 F 
ATOM     78  C   UNL A   1      43.296  24.203  25.131  1.00  0.00     0.040 A 
ATOM     79  C   UNL A   1      42.184  22.527  26.454  1.00  0.00     0.040 A 
ATOM     80  F   UNL A   1      41.530  23.014  28.654  1.00  0.00    -0.206 F 
ATOM     81  C   UNL A   1      42.771  22.918  25.252  1.00  0.00     0.006 A 
ENDBRANCH  53  74
BRANCH  65  82
ATOM     82  C   UNL A   1      46.742  25.981  32.914  1.00  0.00     0.057 A 
ATOM     83  C   UNL A   1      48.006  26.449  32.530  1.00  0.00     0.134 A 
ATOM     84  C   UNL A   1      46.698  24.908  33.814  1.00  0.00     0.134 A 
ATOM     85  F   UNL A   1      48.120  27.466  31.662  1.00  0.00    -0.206 F 
ATOM     86  C   UNL A   1      49.178  25.857  33.005  1.00  0.00     0.040 A 
ATOM     87  C   UNL A   1      47.862  24.328  34.320  1.00  0.00     0.040 A 
ATOM     88  F   UNL A   1      45.522  24.416  34.231  1.00  0.00    -0.206 F 
ATOM     89  C   UNL A   1      49.107  24.798  33.908  1.00  0.00     0.006 A 
ENDBRANCH  65  82
ENDBRANCH  39  40
ENDBRANCH  31  34
ENDBRANCH  29  30
ENDBRANCH  28  29
ENDBRANCH   1  28
TORSDOF 15
ENDMDL
MODEL 3
REMARK VINA RESULT:     -12.0      3.719      8.549
REMARK SMILES C[C@@H](C(=O)NCCCNC(=O)c1ccc(-c2c3nc(c(-c4c(F)cccc4F)c4ccc([nH]4)c(-c4c(F)cccc4F)c4nc(c(-c5c(F)cccc5F)c5ccc2[nH]5)C=C4)C=C3)cc1)c1cc(/C=C/S(C)(=O)=O)cc(C(=O)c2ccccc2)c1
REMARK SMILES IDX 6 1 5 2 3 3 4 4 2 6 1 7 66 8 67 9 85 10 68 11 76 12 75 13
REMARK SMILES IDX 69 14 70 15 71 16 72 17 73 18 74 19 77 20 78 21 79 22 80 23
REMARK SMILES IDX 84 24 81 25 83 26 82 27 7 28 8 29 9 30 10 31 11 33 12 34
REMARK SMILES IDX 13 35 65 36 14 37 64 38 15 39 16 40 17 41 58 42 18 43 63 44
REMARK SMILES IDX 57 45 59 46 19 47 62 48 56 49 55 50 20 52 46 53 29 54 45 55
REMARK SMILES IDX 30 56 33 57 44 58 60 59 31 60 32 61 43 63 61 64 34 65 21 66
REMARK SMILES IDX 22 67 27 68 23 69 24 70 26 71 28 72 25 73 47 74 48 75 53 76
REMARK SMILES IDX 49 77 50 78 52 79 54 80 51 81 35 82 36 83 41 84 37 85 38 86
REMARK SMILES IDX 40 87 42 88 39 89
REMARK H PARENT 5 5 9 32 59 51 33 62
REMARK Flexibility Score: inf
ROOT
ATOM      1  C   UNL A   1      36.897  20.697  24.931  1.00  0.00     0.117 C 
ENDROOT
BRANCH   1   2
ATOM      2  N   UNL A   1      37.158  21.682  23.900  1.00  0.00    -0.356 N 
ATOM      3  C   UNL A   1      36.554  22.888  23.695  1.00  0.00     0.227 C 
ATOM      4  O   UNL A   1      36.546  23.297  22.534  1.00  0.00    -0.274 OA
ATOM      5  H   UNL A   1      37.868  21.447  23.259  1.00  0.00     0.163 HD
BRANCH   3   6
ATOM      6  C   UNL A   1      35.910  23.631  24.880  1.00  0.00     0.105 C 
ATOM      7  C   UNL A   1      36.905  23.566  26.053  1.00  0.00     0.023 C 
BRANCH   6   8
ATOM      8  C   UNL A   1      34.543  23.103  25.340  1.00  0.00    -0.035 A 
ATOM      9  C   UNL A   1      34.258  21.732  25.217  1.00  0.00     0.012 A 
ATOM     10  C   UNL A   1      33.526  23.924  25.832  1.00  0.00     0.016 A 
ATOM     11  C   UNL A   1      32.966  21.210  25.385  1.00  0.00    -0.024 A 
ATOM     12  C   UNL A   1      32.216  23.450  25.974  1.00  0.00     0.023 A 
ATOM     13  C   UNL A   1      31.942  22.093  25.750  1.00  0.00     0.020 A 
BRANCH  11  14
ATOM     14  C   UNL A   1      32.650  19.792  25.115  1.00  0.00     0.020 C 
ATOM     15  C   UNL A   1      33.539  18.879  24.688  1.00  0.00     0.106 C 
BRANCH  15  16
ATOM     16  S   UNL A   1      33.050  17.256  24.320  1.00  0.00     0.168 S 
ATOM     17  C   UNL A   1      34.478  16.340  24.854  1.00  0.00     0.163 C 
ATOM     18  O   UNL A   1      31.962  16.901  25.208  1.00  0.00    -0.225 OA
ATOM     19  O   UNL A   1      32.932  17.072  22.886  1.00  0.00    -0.225 OA
ENDBRANCH  15  16
ENDBRANCH  11  14
BRANCH  12  20
ATOM     20  C   UNL A   1      31.099  24.376  26.334  1.00  0.00     0.193 C 
ATOM     21  O   UNL A   1      30.274  24.045  27.181  1.00  0.00    -0.289 OA
BRANCH  20  22
ATOM     22  C   UNL A   1      30.977  25.715  25.699  1.00  0.00     0.022 A 
ATOM     23  C   UNL A   1      31.549  26.813  26.348  1.00  0.00     0.012 A 
ATOM     24  C   UNL A   1      30.340  25.886  24.463  1.00  0.00     0.012 A 
ATOM     25  C   UNL A   1      31.533  28.068  25.735  1.00  0.00     0.001 A 
ATOM     26  C   UNL A   1      30.332  27.140  23.852  1.00  0.00     0.001 A 
ATOM     27  C   UNL A   1      30.935  28.228  24.484  1.00  0.00     0.000 A 
ENDBRANCH  20  22
ENDBRANCH  12  20
ENDBRANCH   6   8
ENDBRANCH   3   6
ENDBRANCH   1   2
BRANCH   1  28
ATOM     28  C   UNL A   1      38.061  19.710  25.046  1.00  0.00     0.042 C 
BRANCH  28  29
ATOM     29  C   UNL A   1      39.236  20.218  25.874  1.00  0.00     0.118 C 
BRANCH  29  30
ATOM     30  N   UNL A   1      40.357  19.295  25.870  1.00  0.00    -0.352 N 
ATOM     31  C   UNL A   1      41.691  19.533  26.080  1.00  0.00     0.251 C 
ATOM     32  H   UNL A   1      40.124  18.355  25.690  1.00  0.00     0.163 HD
ATOM     33  O   UNL A   1      42.511  18.657  25.820  1.00  0.00    -0.269 OA
BRANCH  31  34
ATOM     34  C   UNL A   1      42.147  20.841  26.596  1.00  0.00     0.039 A 
ATOM     35  C   UNL A   1      42.599  21.800  25.685  1.00  0.00     0.014 A 
ATOM     36  C   UNL A   1      42.161  21.118  27.966  1.00  0.00     0.014 A 
ATOM     37  C   UNL A   1      43.009  23.053  26.143  1.00  0.00     0.010 A 
ATOM     38  C   UNL A   1      42.493  22.394  28.415  1.00  0.00     0.010 A 
ATOM     39  C   UNL A   1      42.927  23.374  27.509  1.00  0.00    -0.014 A 
BRANCH  39  40
ATOM     40  C   UNL A   1      43.281  24.731  27.999  1.00  0.00     0.031 A 
ATOM     41  C   UNL A   1      42.208  25.753  28.255  1.00  0.00     0.074 A 
ATOM     42  C   UNL A   1      44.578  25.061  28.157  1.00  0.00     0.049 A 
ATOM     43  N   UNL A   1      42.330  27.002  28.629  1.00  0.00    -0.248 NA
ATOM     44  C   UNL A   1      40.817  25.324  28.042  1.00  0.00     0.031 C 
ATOM     45  C   UNL A   1      45.714  24.176  27.897  1.00  0.00     0.029 A 
ATOM     46  N   UNL A   1      45.160  26.236  28.567  1.00  0.00    -0.354 N 
ATOM     47  C   UNL A   1      41.038  27.509  28.683  1.00  0.00     0.074 A 
ATOM     48  C   UNL A   1      40.151  26.450  28.254  1.00  0.00     0.031 C 
ATOM     49  C   UNL A   1      46.853  24.829  28.173  1.00  0.00     0.029 A 
ATOM     50  C   UNL A   1      46.533  26.191  28.587  1.00  0.00     0.049 A 
ATOM     51  H   UNL A   1      44.643  27.033  28.821  1.00  0.00     0.167 HD
ATOM     52  C   UNL A   1      40.626  28.739  29.075  1.00  0.00     0.037 A 
ATOM     53  C   UNL A   1      47.435  27.144  28.892  1.00  0.00     0.037 A 
ATOM     54  C   UNL A   1      41.511  29.785  29.519  1.00  0.00     0.049 A 
ATOM     55  C   UNL A   1      46.953  28.504  29.313  1.00  0.00     0.074 A 
ATOM     56  C   UNL A   1      41.185  31.044  29.993  1.00  0.00     0.029 A 
ATOM     57  N   UNL A   1      42.895  29.698  29.537  1.00  0.00    -0.354 N 
ATOM     58  N   UNL A   1      45.724  28.948  29.425  1.00  0.00    -0.248 NA
ATOM     59  C   UNL A   1      47.982  29.495  29.658  1.00  0.00     0.031 C 
ATOM     60  C   UNL A   1      42.372  31.739  30.242  1.00  0.00     0.029 A 
ATOM     61  C   UNL A   1      43.437  30.891  29.986  1.00  0.00     0.049 A 
ATOM     62  H   UNL A   1      43.414  28.905  29.270  1.00  0.00     0.167 HD
ATOM     63  C   UNL A   1      45.831  30.256  29.878  1.00  0.00     0.074 A 
ATOM     64  C   UNL A   1      47.245  30.529  30.036  1.00  0.00     0.031 C 
ATOM     65  C   UNL A   1      44.846  31.150  30.141  1.00  0.00     0.037 A 
BRANCH  52  66
ATOM     66  C   UNL A   1      39.152  29.026  29.039  1.00  0.00     0.057 A 
ATOM     67  C   UNL A   1      38.349  28.921  30.183  1.00  0.00     0.134 A 
ATOM     68  C   UNL A   1      38.537  29.463  27.859  1.00  0.00     0.134 A 
ATOM     69  F   UNL A   1      38.870  28.499  31.344  1.00  0.00    -0.206 F 
ATOM     70  C   UNL A   1      36.984  29.219  30.148  1.00  0.00     0.040 A 
ATOM     71  C   UNL A   1      37.181  29.792  27.819  1.00  0.00     0.040 A 
ATOM     72  F   UNL A   1      39.248  29.594  26.728  1.00  0.00    -0.206 F 
ATOM     73  C   UNL A   1      36.400  29.665  28.964  1.00  0.00     0.006 A 
ENDBRANCH  52  66
BRANCH  53  74
ATOM     74  C   UNL A   1      48.887  26.839  28.820  1.00  0.00     0.057 A 
ATOM     75  C   UNL A   1      49.591  26.388  29.942  1.00  0.00     0.134 A 
ATOM     76  C   UNL A   1      49.607  26.995  27.628  1.00  0.00     0.134 A 
ATOM     77  F   UNL A   1      48.961  26.236  31.116  1.00  0.00    -0.206 F 
ATOM     78  C   UNL A   1      50.960  26.121  29.889  1.00  0.00     0.040 A 
ATOM     79  C   UNL A   1      50.970  26.705  27.553  1.00  0.00     0.040 A 
ATOM     80  F   UNL A   1      48.989  27.414  26.514  1.00  0.00    -0.206 F 
ATOM     81  C   UNL A   1      51.652  26.275  28.689  1.00  0.00     0.006 A 
ENDBRANCH  53  74
BRANCH  65  82
ATOM     82  C   UNL A   1      45.258  32.498  30.662  1.00  0.00     0.057 A 
ATOM     83  C   UNL A   1      45.495  33.584  29.810  1.00  0.00     0.134 A 
ATOM     84  C   UNL A   1      45.380  32.720  32.040  1.00  0.00     0.134 A 
ATOM     85  F   UNL A   1      45.407  33.436  28.479  1.00  0.00    -0.206 F 
ATOM     86  C   UNL A   1      45.862  34.836  30.308  1.00  0.00     0.040 A 
ATOM     87  C   UNL A   1      45.716  33.974  32.552  1.00  0.00     0.040 A 
ATOM     88  F   UNL A   1      45.158  31.727  32.913  1.00  0.00    -0.206 F 
ATOM     89  C   UNL A   1      45.965  35.035  31.684  1.00  0.00     0.006 A 
ENDBRANCH  65  82
ENDBRANCH  39  40
ENDBRANCH  31  34
ENDBRANCH  29  30
ENDBRANCH  28  29
ENDBRANCH   1  28
TORSDOF 15
ENDMDL
