MODEL 1
REMARK VINA RESULT:     -10.7      0.000      0.000
REMARK SMILES CC(C)OCCS(=O)(=O)N[C@H]1COC[C@@H]1C(=O)NCCCNC(=O)c1ccc(-c2c3nc(c(-c4c(F)cccc4F)c4ccc([nH]4)c(-c4c(F)cccc4F)c4nc(c(-c5c(F)cccc5F)c5ccc2[nH]5)C=C4)C=C3)cc1
REMARK SMILES IDX 16 1 17 2 18 3 15 5 11 6 12 7 13 8 14 9 10 10 7 12 8 13 9 14
REMARK SMILES IDX 6 15 5 16 4 17 2 18 1 19 3 20 19 21 20 22 21 23 22 24 23 25
REMARK SMILES IDX 24 27 25 28 26 29 78 30 27 31 77 32 28 33 29 34 30 35 71 36
REMARK SMILES IDX 31 37 76 38 70 39 72 40 32 41 75 42 69 43 68 44 33 46 59 47
REMARK SMILES IDX 42 48 58 49 43 50 46 51 57 52 73 53 44 54 45 55 56 57 74 58
REMARK SMILES IDX 47 59 34 60 35 61 40 62 36 63 37 64 39 65 41 66 38 67 60 68
REMARK SMILES IDX 61 69 66 70 62 71 63 72 65 73 67 74 64 75 48 76 49 77 54 78
REMARK SMILES IDX 50 79 51 80 53 81 55 82 52 83
REMARK H PARENT 18 4 10 11 22 26 72 45 46 56
REMARK Flexibility Score: inf
ROOT
ATOM      1  C   UNL A   1      33.251  28.512  23.640  1.00  0.00     0.227 C 
ATOM      2  O   UNL A   1      34.125  28.873  22.844  1.00  0.00    -0.275 OA
ATOM      3  N   UNL A   1      32.622  29.481  24.370  1.00  0.00    -0.356 N 
ATOM      4  H   UNL A   1      32.811  30.416  24.125  1.00  0.00     0.163 HD
ENDROOT
BRANCH   1   5
ATOM      5  C   UNL A   1      32.853  27.000  23.707  1.00  0.00     0.124 C 
ATOM      6  C   UNL A   1      34.047  25.616  24.457  1.00  0.00     0.110 C 
ATOM      7  C   UNL A   1      34.331  24.215  23.027  1.00  0.00     0.181 C 
ATOM      8  O   UNL A   1      33.175  24.667  21.573  1.00  0.00    -0.379 OA
ATOM      9  C   UNL A   1      32.262  26.327  21.900  1.00  0.00     0.175 C 
BRANCH   6  10
ATOM     10  N   UNL A   1      33.637  25.147  25.811  1.00  0.00    -0.209 NA
ATOM     11  H   UNL A   1      34.363  24.495  26.109  1.00  0.00     0.141 HD
BRANCH  10  12
ATOM     12  S   UNL A   1      32.185  24.389  26.138  1.00  0.00     0.214 S 
ATOM     13  O   UNL A   1      31.620  23.852  24.926  1.00  0.00    -0.212 OA
ATOM     14  O   UNL A   1      31.448  25.370  26.906  1.00  0.00    -0.212 OA
BRANCH  12  15
ATOM     15  C   UNL A   1      32.640  23.107  27.258  1.00  0.00     0.182 C 
BRANCH  15  16
ATOM     16  C   UNL A   1      33.450  21.933  26.753  1.00  0.00     0.178 C 
BRANCH  16  17
ATOM     17  O   UNL A   1      34.273  21.885  25.600  1.00  0.00    -0.378 OA
BRANCH  17  18
ATOM     18  C   UNL A   1      35.772  22.042  25.400  1.00  0.00     0.112 C 
ATOM     19  C   UNL A   1      36.926  23.773  26.105  1.00  0.00     0.038 C 
ATOM     20  C   UNL A   1      36.234  20.434  25.031  1.00  0.00     0.038 C 
ENDBRANCH  17  18
ENDBRANCH  16  17
ENDBRANCH  15  16
ENDBRANCH  12  15
ENDBRANCH  10  12
ENDBRANCH   6  10
ENDBRANCH   1   5
BRANCH   3  21
ATOM     21  C   UNL A   1      31.716  29.265  25.458  1.00  0.00     0.117 C 
BRANCH  21  22
ATOM     22  C   UNL A   1      32.214  29.443  26.864  1.00  0.00     0.042 C 
BRANCH  22  23
ATOM     23  C   UNL A   1      33.643  29.919  26.936  1.00  0.00     0.118 C 
BRANCH  23  24
ATOM     24  N   UNL A   1      33.885  30.935  27.964  1.00  0.00    -0.352 N 
ATOM     25  C   UNL A   1      34.963  31.150  28.801  1.00  0.00     0.251 C 
ATOM     26  H   UNL A   1      33.148  31.577  28.080  1.00  0.00     0.163 HD
ATOM     27  O   UNL A   1      34.925  32.033  29.652  1.00  0.00    -0.269 OA
BRANCH  25  28
ATOM     28  C   UNL A   1      36.138  30.255  28.728  1.00  0.00     0.039 A 
ATOM     29  C   UNL A   1      36.985  30.305  27.618  1.00  0.00     0.014 A 
ATOM     30  C   UNL A   1      36.477  29.468  29.820  1.00  0.00     0.014 A 
ATOM     31  C   UNL A   1      38.251  29.719  27.697  1.00  0.00     0.010 A 
ATOM     32  C   UNL A   1      37.795  29.077  29.976  1.00  0.00     0.010 A 
ATOM     33  C   UNL A   1      38.706  29.194  28.917  1.00  0.00    -0.014 A 
BRANCH  33  34
ATOM     34  C   UNL A   1      40.112  28.757  29.131  1.00  0.00     0.031 A 
ATOM     35  C   UNL A   1      41.107  29.720  29.727  1.00  0.00     0.074 A 
ATOM     36  C   UNL A   1      40.524  27.549  28.688  1.00  0.00     0.049 A 
ATOM     37  N   UNL A   1      42.405  29.604  29.843  1.00  0.00    -0.248 NA
ATOM     38  C   UNL A   1      40.580  31.012  30.202  1.00  0.00     0.031 C 
ATOM     39  C   UNL A   1      39.682  26.548  28.027  1.00  0.00     0.029 A 
ATOM     40  N   UNL A   1      41.765  26.961  28.716  1.00  0.00    -0.354 N 
ATOM     41  C   UNL A   1      42.842  30.815  30.366  1.00  0.00     0.074 A 
ATOM     42  C   UNL A   1      41.691  31.681  30.461  1.00  0.00     0.031 C 
ATOM     43  C   UNL A   1      40.418  25.458  27.756  1.00  0.00     0.029 A 
ATOM     44  C   UNL A   1      41.796  25.701  28.167  1.00  0.00     0.049 A 
ATOM     45  H   UNL A   1      42.560  27.403  29.094  1.00  0.00     0.167 HD
ATOM     46  C   UNL A   1      44.084  31.164  30.775  1.00  0.00     0.037 A 
ATOM     47  C   UNL A   1      42.821  24.843  28.001  1.00  0.00     0.037 A 
ATOM     48  C   UNL A   1      45.215  30.279  30.735  1.00  0.00     0.049 A 
ATOM     49  C   UNL A   1      44.194  25.253  28.458  1.00  0.00     0.074 A 
ATOM     50  C   UNL A   1      46.496  30.498  31.208  1.00  0.00     0.029 A 
ATOM     51  N   UNL A   1      45.196  29.003  30.194  1.00  0.00    -0.354 N 
ATOM     52  N   UNL A   1      44.575  26.370  29.032  1.00  0.00    -0.248 NA
ATOM     53  C   UNL A   1      45.283  24.290  28.241  1.00  0.00     0.031 C 
ATOM     54  C   UNL A   1      47.268  29.375  30.902  1.00  0.00     0.029 A 
ATOM     55  C   UNL A   1      46.455  28.436  30.286  1.00  0.00     0.049 A 
ATOM     56  H   UNL A   1      44.406  28.566  29.801  1.00  0.00     0.167 HD
ATOM     57  C   UNL A   1      45.939  26.236  29.259  1.00  0.00     0.074 A 
ATOM     58  C   UNL A   1      46.315  24.921  28.783  1.00  0.00     0.031 C 
ATOM     59  C   UNL A   1      46.805  27.124  29.807  1.00  0.00     0.037 A 
BRANCH  46  60
ATOM     60  C   UNL A   1      44.271  32.551  31.319  1.00  0.00     0.057 A 
ATOM     61  C   UNL A   1      44.630  33.628  30.497  1.00  0.00     0.134 A 
ATOM     62  C   UNL A   1      44.075  32.817  32.680  1.00  0.00     0.134 A 
ATOM     63  F   UNL A   1      44.850  33.440  29.186  1.00  0.00    -0.206 F 
ATOM     64  C   UNL A   1      44.820  34.910  31.012  1.00  0.00     0.040 A 
ATOM     65  C   UNL A   1      44.229  34.102  33.201  1.00  0.00     0.040 A 
ATOM     66  F   UNL A   1      43.726  31.834  33.523  1.00  0.00    -0.206 F 
ATOM     67  C   UNL A   1      44.612  35.152  32.368  1.00  0.00     0.006 A 
ENDBRANCH  46  60
BRANCH  47  68
ATOM     68  C   UNL A   1      42.594  23.509  27.385  1.00  0.00     0.057 A 
ATOM     69  C   UNL A   1      42.267  22.397  28.172  1.00  0.00     0.134 A 
ATOM     70  C   UNL A   1      42.713  23.304  26.005  1.00  0.00     0.134 A 
ATOM     71  F   UNL A   1      42.156  22.522  29.503  1.00  0.00    -0.206 F 
ATOM     72  C   UNL A   1      42.087  21.129  27.614  1.00  0.00     0.040 A 
ATOM     73  C   UNL A   1      42.508  22.047  25.429  1.00  0.00     0.040 A 
ATOM     74  F   UNL A   1      43.017  24.326  25.191  1.00  0.00    -0.206 F 
ATOM     75  C   UNL A   1      42.203  20.954  26.236  1.00  0.00     0.006 A 
ENDBRANCH  47  68
BRANCH  59  76
ATOM     76  C   UNL A   1      48.239  26.702  29.933  1.00  0.00     0.057 A 
ATOM     77  C   UNL A   1      48.684  25.929  31.011  1.00  0.00     0.134 A 
ATOM     78  C   UNL A   1      49.164  27.009  28.927  1.00  0.00     0.134 A 
ATOM     79  F   UNL A   1      47.849  25.612  32.013  1.00  0.00    -0.206 F 
ATOM     80  C   UNL A   1      50.005  25.485  31.091  1.00  0.00     0.040 A 
ATOM     81  C   UNL A   1      50.479  26.547  28.982  1.00  0.00     0.040 A 
ATOM     82  F   UNL A   1      48.796  27.737  27.861  1.00  0.00    -0.206 F 
ATOM     83  C   UNL A   1      50.903  25.784  30.068  1.00  0.00     0.006 A 
ENDBRANCH  59  76
ENDBRANCH  33  34
ENDBRANCH  25  28
ENDBRANCH  23  24
ENDBRANCH  22  23
ENDBRANCH  21  22
ENDBRANCH   3  21
TORSDOF 16
ENDMDL
MODEL 2
REMARK VINA RESULT:     -10.6      2.812      7.641
REMARK SMILES CC(C)OCCS(=O)(=O)N[C@H]1COC[C@@H]1C(=O)NCCCNC(=O)c1ccc(-c2c3nc(c(-c4c(F)cccc4F)c4ccc([nH]4)c(-c4c(F)cccc4F)c4nc(c(-c5c(F)cccc5F)c5ccc2[nH]5)C=C4)C=C3)cc1
REMARK SMILES IDX 16 1 17 2 18 3 15 5 11 6 12 7 13 8 14 9 10 10 7 12 8 13 9 14
REMARK SMILES IDX 6 15 5 16 4 17 2 18 1 19 3 20 19 21 20 22 21 23 22 24 23 25
REMARK SMILES IDX 24 27 25 28 26 29 78 30 27 31 77 32 28 33 29 34 30 35 71 36
REMARK SMILES IDX 31 37 76 38 70 39 72 40 32 41 75 42 69 43 68 44 33 46 59 47
REMARK SMILES IDX 42 48 58 49 43 50 46 51 57 52 73 53 44 54 45 55 56 57 74 58
REMARK SMILES IDX 47 59 34 60 35 61 40 62 36 63 37 64 39 65 41 66 38 67 60 68
REMARK SMILES IDX 61 69 66 70 62 71 63 72 65 73 67 74 64 75 48 76 49 77 54 78
REMARK SMILES IDX 50 79 51 80 53 81 55 82 52 83
REMARK H PARENT 18 4 10 11 22 26 72 45 46 56
REMARK Flexibility Score: inf
ROOT
ATOM      1  C   UNL A   1      33.791  28.288  23.685  1.00  0.00     0.227 C 
ATOM      2  O   UNL A   1      34.380  28.657  22.663  1.00  0.00    -0.275 OA
ATOM      3  N   UNL A   1      33.606  29.210  24.676  1.00  0.00    -0.356 N 
ATOM      4  H   UNL A   1      33.836  30.143  24.463  1.00  0.00     0.163 HD
ENDROOT
BRANCH   1   5
ATOM      5  C   UNL A   1      33.218  26.833  23.755  1.00  0.00     0.124 C 
ATOM      6  C   UNL A   1      33.957  25.453  24.961  1.00  0.00     0.110 C 
ATOM      7  C   UNL A   1      34.498  23.873  23.821  1.00  0.00     0.181 C 
ATOM      8  O   UNL A   1      33.900  24.243  22.044  1.00  0.00    -0.379 OA
ATOM      9  C   UNL A   1      33.131  26.001  21.920  1.00  0.00     0.175 C 
BRANCH   6  10
ATOM     10  N   UNL A   1      33.103  25.185  26.152  1.00  0.00    -0.209 NA
ATOM     11  H   UNL A   1      33.625  24.518  26.722  1.00  0.00     0.141 HD
BRANCH  10  12
ATOM     12  S   UNL A   1      31.545  24.591  26.070  1.00  0.00     0.214 S 
ATOM     13  O   UNL A   1      31.258  23.782  27.228  1.00  0.00    -0.212 OA
ATOM     14  O   UNL A   1      31.465  24.010  24.746  1.00  0.00    -0.212 OA
BRANCH  12  15
ATOM     15  C   UNL A   1      30.555  26.049  26.044  1.00  0.00     0.182 C 
BRANCH  15  16
ATOM     16  C   UNL A   1      29.877  26.462  24.756  1.00  0.00     0.178 C 
BRANCH  16  17
ATOM     17  O   UNL A   1      30.119  27.630  23.990  1.00  0.00    -0.378 OA
BRANCH  17  18
ATOM     18  C   UNL A   1      29.253  28.422  23.023  1.00  0.00     0.112 C 
ATOM     19  C   UNL A   1      27.080  28.656  23.236  1.00  0.00     0.038 C 
ATOM     20  C   UNL A   1      30.430  29.368  22.213  1.00  0.00     0.038 C 
ENDBRANCH  17  18
ENDBRANCH  16  17
ENDBRANCH  15  16
ENDBRANCH  12  15
ENDBRANCH  10  12
ENDBRANCH   6  10
ENDBRANCH   1   5
BRANCH   3  21
ATOM     21  C   UNL A   1      33.110  28.946  25.993  1.00  0.00     0.117 C 
BRANCH  21  22
ATOM     22  C   UNL A   1      32.418  30.050  26.742  1.00  0.00     0.042 C 
BRANCH  22  23
ATOM     23  C   UNL A   1      33.361  31.111  27.248  1.00  0.00     0.118 C 
BRANCH  23  24
ATOM     24  N   UNL A   1      32.740  32.426  27.432  1.00  0.00    -0.352 N 
ATOM     25  C   UNL A   1      33.153  33.542  28.133  1.00  0.00     0.251 C 
ATOM     26  H   UNL A   1      31.874  32.531  26.977  1.00  0.00     0.163 HD
ATOM     27  O   UNL A   1      32.431  34.530  28.215  1.00  0.00    -0.269 OA
BRANCH  25  28
ATOM     28  C   UNL A   1      34.439  33.514  28.863  1.00  0.00     0.039 A 
ATOM     29  C   UNL A   1      34.526  32.868  30.098  1.00  0.00     0.014 A 
ATOM     30  C   UNL A   1      35.589  34.004  28.258  1.00  0.00     0.014 A 
ATOM     31  C   UNL A   1      35.784  32.552  30.617  1.00  0.00     0.010 A 
ATOM     32  C   UNL A   1      36.816  33.510  28.661  1.00  0.00     0.010 A 
ATOM     33  C   UNL A   1      36.937  32.776  29.849  1.00  0.00    -0.014 A 
BRANCH  33  34
ATOM     34  C   UNL A   1      38.279  32.267  30.242  1.00  0.00     0.031 A 
ATOM     35  C   UNL A   1      38.772  30.958  29.680  1.00  0.00     0.074 A 
ATOM     36  C   UNL A   1      39.000  32.910  31.185  1.00  0.00     0.049 A 
ATOM     37  N   UNL A   1      39.824  30.257  30.014  1.00  0.00    -0.248 NA
ATOM     38  C   UNL A   1      37.938  30.323  28.643  1.00  0.00     0.031 C 
ATOM     39  C   UNL A   1      38.608  34.148  31.867  1.00  0.00     0.029 A 
ATOM     40  N   UNL A   1      40.216  32.603  31.747  1.00  0.00    -0.354 N 
ATOM     41  C   UNL A   1      39.752  29.093  29.258  1.00  0.00     0.074 A 
ATOM     42  C   UNL A   1      38.514  29.140  28.518  1.00  0.00     0.031 C 
ATOM     43  C   UNL A   1      39.582  34.516  32.715  1.00  0.00     0.029 A 
ATOM     44  C   UNL A   1      40.640  33.514  32.686  1.00  0.00     0.049 A 
ATOM     45  H   UNL A   1      40.735  31.804  31.499  1.00  0.00     0.167 HD
ATOM     46  C   UNL A   1      40.657  28.093  29.152  1.00  0.00     0.037 A 
ATOM     47  C   UNL A   1      41.751  33.532  33.449  1.00  0.00     0.037 A 
ATOM     48  C   UNL A   1      41.916  28.078  29.844  1.00  0.00     0.049 A 
ATOM     49  C   UNL A   1      42.741  32.407  33.318  1.00  0.00     0.074 A 
ATOM     50  C   UNL A   1      42.945  27.161  29.740  1.00  0.00     0.029 A 
ATOM     51  N   UNL A   1      42.316  29.032  30.767  1.00  0.00    -0.354 N 
ATOM     52  N   UNL A   1      42.700  31.356  32.534  1.00  0.00    -0.248 NA
ATOM     53  C   UNL A   1      43.929  32.463  34.183  1.00  0.00     0.031 C 
ATOM     54  C   UNL A   1      43.946  27.529  30.642  1.00  0.00     0.029 A 
ATOM     55  C   UNL A   1      43.563  28.704  31.270  1.00  0.00     0.049 A 
ATOM     56  H   UNL A   1      41.791  29.823  31.028  1.00  0.00     0.167 HD
ATOM     57  C   UNL A   1      43.860  30.639  32.796  1.00  0.00     0.074 A 
ATOM     58  C   UNL A   1      44.596  31.385  33.795  1.00  0.00     0.031 C 
ATOM     59  C   UNL A   1      44.277  29.464  32.263  1.00  0.00     0.037 A 
BRANCH  46  60
ATOM     60  C   UNL A   1      40.322  26.948  28.240  1.00  0.00     0.057 A 
ATOM     61  C   UNL A   1      39.457  25.916  28.630  1.00  0.00     0.134 A 
ATOM     62  C   UNL A   1      40.860  26.884  26.948  1.00  0.00     0.134 A 
ATOM     63  F   UNL A   1      38.920  25.907  29.860  1.00  0.00    -0.206 F 
ATOM     64  C   UNL A   1      39.165  24.847  27.783  1.00  0.00     0.040 A 
ATOM     65  C   UNL A   1      40.548  25.837  26.080  1.00  0.00     0.040 A 
ATOM     66  F   UNL A   1      41.692  27.839  26.508  1.00  0.00    -0.206 F 
ATOM     67  C   UNL A   1      39.706  24.809  26.500  1.00  0.00     0.006 A 
ENDBRANCH  46  60
BRANCH  47  68
ATOM     68  C   UNL A   1      41.997  34.653  34.395  1.00  0.00     0.057 A 
ATOM     69  C   UNL A   1      42.628  35.830  33.970  1.00  0.00     0.134 A 
ATOM     70  C   UNL A   1      41.627  34.575  35.742  1.00  0.00     0.134 A 
ATOM     71  F   UNL A   1      43.024  35.960  32.696  1.00  0.00    -0.206 F 
ATOM     72  C   UNL A   1      42.900  36.876  34.854  1.00  0.00     0.040 A 
ATOM     73  C   UNL A   1      41.866  35.625  36.631  1.00  0.00     0.040 A 
ATOM     74  F   UNL A   1      41.012  33.480  36.214  1.00  0.00    -0.206 F 
ATOM     75  C   UNL A   1      42.513  36.777  36.189  1.00  0.00     0.006 A 
ENDBRANCH  47  68
BRANCH  59  76
ATOM     76  C   UNL A   1      45.591  28.918  32.738  1.00  0.00     0.057 A 
ATOM     77  C   UNL A   1      45.665  27.994  33.787  1.00  0.00     0.134 A 
ATOM     78  C   UNL A   1      46.785  29.263  32.090  1.00  0.00     0.134 A 
ATOM     79  F   UNL A   1      44.558  27.633  34.455  1.00  0.00    -0.206 F 
ATOM     80  C   UNL A   1      46.883  27.440  34.184  1.00  0.00     0.040 A 
ATOM     81  C   UNL A   1      48.003  28.694  32.459  1.00  0.00     0.040 A 
ATOM     82  F   UNL A   1      46.779  30.135  31.070  1.00  0.00    -0.206 F 
ATOM     83  C   UNL A   1      48.055  27.782  33.511  1.00  0.00     0.006 A 
ENDBRANCH  59  76
ENDBRANCH  33  34
ENDBRANCH  25  28
ENDBRANCH  23  24
ENDBRANCH  22  23
ENDBRANCH  21  22
ENDBRANCH   3  21
TORSDOF 16
ENDMDL
MODEL 3
REMARK VINA RESULT:     -10.6      2.184      7.586
REMARK SMILES CC(C)OCCS(=O)(=O)N[C@H]1COC[C@@H]1C(=O)NCCCNC(=O)c1ccc(-c2c3nc(c(-c4c(F)cccc4F)c4ccc([nH]4)c(-c4c(F)cccc4F)c4nc(c(-c5c(F)cccc5F)c5ccc2[nH]5)C=C4)C=C3)cc1
REMARK SMILES IDX 16 1 17 2 18 3 15 5 11 6 12 7 13 8 14 9 10 10 7 12 8 13 9 14
REMARK SMILES IDX 6 15 5 16 4 17 2 18 1 19 3 20 19 21 20 22 21 23 22 24 23 25
REMARK SMILES IDX 24 27 25 28 26 29 78 30 27 31 77 32 28 33 29 34 30 35 71 36
REMARK SMILES IDX 31 37 76 38 70 39 72 40 32 41 75 42 69 43 68 44 33 46 59 47
REMARK SMILES IDX 42 48 58 49 43 50 46 51 57 52 73 53 44 54 45 55 56 57 74 58
REMARK SMILES IDX 47 59 34 60 35 61 40 62 36 63 37 64 39 65 41 66 38 67 60 68
REMARK SMILES IDX 61 69 66 70 62 71 63 72 65 73 67 74 64 75 48 76 49 77 54 78
REMARK SMILES IDX 50 79 51 80 53 81 55 82 52 83
REMARK H PARENT 18 4 10 11 22 26 72 45 46 56
REMARK Flexibility Score: inf
ROOT
ATOM      1  C   UNL A   1      34.416  22.873  26.917  1.00  0.00     0.227 C 
ATOM      2  O   UNL A   1      34.165  22.632  28.102  1.00  0.00    -0.275 OA
ATOM      3  N   UNL A   1      35.602  22.415  26.416  1.00  0.00    -0.356 N 
ATOM      4  H   UNL A   1      36.124  21.810  26.991  1.00  0.00     0.163 HD
ENDROOT
BRANCH   1   5
ATOM      5  C   UNL A   1      33.344  23.601  26.040  1.00  0.00     0.124 C 
ATOM      6  C   UNL A   1      33.398  25.544  25.683  1.00  0.00     0.110 C 
ATOM      7  C   UNL A   1      31.641  26.328  26.305  1.00  0.00     0.181 C 
ATOM      8  O   UNL A   1      30.529  24.859  26.813  1.00  0.00    -0.379 OA
ATOM      9  C   UNL A   1      31.479  23.191  26.690  1.00  0.00     0.175 C 
BRANCH   6  10
ATOM     10  N   UNL A   1      33.857  25.883  24.307  1.00  0.00    -0.209 NA
ATOM     11  H   UNL A   1      34.249  26.823  24.370  1.00  0.00     0.141 HD
BRANCH  10  12
ATOM     12  S   UNL A   1      32.859  25.897  22.967  1.00  0.00     0.214 S 
ATOM     13  O   UNL A   1      32.001  24.740  22.972  1.00  0.00    -0.212 OA
ATOM     14  O   UNL A   1      33.768  26.117  21.861  1.00  0.00    -0.212 OA
BRANCH  12  15
ATOM     15  C   UNL A   1      31.934  27.384  23.165  1.00  0.00     0.182 C 
BRANCH  15  16
ATOM     16  C   UNL A   1      30.644  27.563  22.395  1.00  0.00     0.178 C 
BRANCH  16  17
ATOM     17  O   UNL A   1      30.081  28.777  21.926  1.00  0.00    -0.378 OA
BRANCH  17  18
ATOM     18  C   UNL A   1      28.754  29.466  22.199  1.00  0.00     0.112 C 
ATOM     19  C   UNL A   1      27.100  28.543  23.309  1.00  0.00     0.038 C 
ATOM     20  C   UNL A   1      29.158  31.106  21.904  1.00  0.00     0.038 C 
ENDBRANCH  17  18
ENDBRANCH  16  17
ENDBRANCH  15  16
ENDBRANCH  12  15
ENDBRANCH  10  12
ENDBRANCH   6  10
ENDBRANCH   1   5
BRANCH   3  21
ATOM     21  C   UNL A   1      36.157  22.732  25.134  1.00  0.00     0.117 C 
BRANCH  21  22
ATOM     22  C   UNL A   1      37.324  21.932  24.630  1.00  0.00     0.042 C 
BRANCH  22  23
ATOM     23  C   UNL A   1      38.414  21.756  25.655  1.00  0.00     0.118 C 
BRANCH  23  24
ATOM     24  N   UNL A   1      39.120  20.474  25.565  1.00  0.00    -0.352 N 
ATOM     25  C   UNL A   1      40.401  20.108  25.933  1.00  0.00     0.251 C 
ATOM     26  H   UNL A   1      38.587  19.746  25.173  1.00  0.00     0.163 HD
ATOM     27  O   UNL A   1      40.818  18.979  25.698  1.00  0.00    -0.269 OA
BRANCH  25  28
ATOM     28  C   UNL A   1      41.305  21.111  26.535  1.00  0.00     0.039 A 
ATOM     29  C   UNL A   1      42.008  21.997  25.716  1.00  0.00     0.014 A 
ATOM     30  C   UNL A   1      41.348  21.265  27.914  1.00  0.00     0.014 A 
ATOM     31  C   UNL A   1      42.585  23.138  26.279  1.00  0.00     0.010 A 
ATOM     32  C   UNL A   1      41.729  22.487  28.437  1.00  0.00     0.010 A 
ATOM     33  C   UNL A   1      42.357  23.446  27.629  1.00  0.00    -0.014 A 
BRANCH  33  34
ATOM     34  C   UNL A   1      42.752  24.745  28.238  1.00  0.00     0.031 A 
ATOM     35  C   UNL A   1      41.708  25.809  28.461  1.00  0.00     0.074 A 
ATOM     36  C   UNL A   1      44.053  25.016  28.478  1.00  0.00     0.049 A 
ATOM     37  N   UNL A   1      41.861  27.059  28.817  1.00  0.00    -0.248 NA
ATOM     38  C   UNL A   1      40.308  25.435  28.192  1.00  0.00     0.031 C 
ATOM     39  C   UNL A   1      45.176  24.103  28.238  1.00  0.00     0.029 A 
ATOM     40  N   UNL A   1      44.656  26.149  28.968  1.00  0.00    -0.354 N 
ATOM     41  C   UNL A   1      40.590  27.617  28.777  1.00  0.00     0.074 A 
ATOM     42  C   UNL A   1      39.693  26.602  28.278  1.00  0.00     0.031 C 
ATOM     43  C   UNL A   1      46.318  24.693  28.623  1.00  0.00     0.029 A 
ATOM     44  C   UNL A   1      46.023  26.046  29.081  1.00  0.00     0.049 A 
ATOM     45  H   UNL A   1      44.155  26.959  29.215  1.00  0.00     0.167 HD
ATOM     46  C   UNL A   1      40.192  28.852  29.163  1.00  0.00     0.037 A 
ATOM     47  C   UNL A   1      46.937  26.945  29.495  1.00  0.00     0.037 A 
ATOM     48  C   UNL A   1      41.077  29.838  29.716  1.00  0.00     0.049 A 
ATOM     49  C   UNL A   1      46.474  28.313  29.915  1.00  0.00     0.074 A 
ATOM     50  C   UNL A   1      40.766  31.086  30.224  1.00  0.00     0.029 A 
ATOM     51  N   UNL A   1      42.450  29.684  29.836  1.00  0.00    -0.354 N 
ATOM     52  N   UNL A   1      45.255  28.797  29.954  1.00  0.00    -0.248 NA
ATOM     53  C   UNL A   1      47.510  29.264  30.343  1.00  0.00     0.031 C 
ATOM     54  C   UNL A   1      41.957  31.710  30.600  1.00  0.00     0.029 A 
ATOM     55  C   UNL A   1      43.005  30.831  30.375  1.00  0.00     0.049 A 
ATOM     56  H   UNL A   1      42.954  28.880  29.575  1.00  0.00     0.167 HD
ATOM     57  C   UNL A   1      45.376  30.098  30.425  1.00  0.00     0.074 A 
ATOM     58  C   UNL A   1      46.784  30.321  30.681  1.00  0.00     0.031 C 
ATOM     59  C   UNL A   1      44.410  31.028  30.623  1.00  0.00     0.037 A 
BRANCH  46  60
ATOM     60  C   UNL A   1      38.736  29.188  29.020  1.00  0.00     0.057 A 
ATOM     61  C   UNL A   1      38.184  29.589  27.795  1.00  0.00     0.134 A 
ATOM     62  C   UNL A   1      37.870  29.094  30.117  1.00  0.00     0.134 A 
ATOM     63  F   UNL A   1      38.960  29.715  26.708  1.00  0.00    -0.206 F 
ATOM     64  C   UNL A   1      36.833  29.918  27.674  1.00  0.00     0.040 A 
ATOM     65  C   UNL A   1      36.510  29.388  30.000  1.00  0.00     0.040 A 
ATOM     66  F   UNL A   1      38.330  28.713  31.318  1.00  0.00    -0.206 F 
ATOM     67  C   UNL A   1      35.991  29.810  28.778  1.00  0.00     0.006 A 
ENDBRANCH  46  60
BRANCH  47  68
ATOM     68  C   UNL A   1      48.379  26.584  29.544  1.00  0.00     0.057 A 
ATOM     69  C   UNL A   1      49.220  26.818  28.448  1.00  0.00     0.134 A 
ATOM     70  C   UNL A   1      48.950  25.983  30.672  1.00  0.00     0.134 A 
ATOM     71  F   UNL A   1      48.730  27.373  27.330  1.00  0.00    -0.206 F 
ATOM     72  C   UNL A   1      50.567  26.451  28.465  1.00  0.00     0.040 A 
ATOM     73  C   UNL A   1      50.303  25.636  30.714  1.00  0.00     0.040 A 
ATOM     74  F   UNL A   1      48.205  25.737  31.760  1.00  0.00    -0.206 F 
ATOM     75  C   UNL A   1      51.113  25.862  29.603  1.00  0.00     0.006 A 
ENDBRANCH  47  68
BRANCH  59  76
ATOM     76  C   UNL A   1      44.838  32.366  31.151  1.00  0.00     0.057 A 
ATOM     77  C   UNL A   1      44.959  32.608  32.524  1.00  0.00     0.134 A 
ATOM     78  C   UNL A   1      45.202  33.396  30.275  1.00  0.00     0.134 A 
ATOM     79  F   UNL A   1      44.614  31.665  33.415  1.00  0.00    -0.206 F 
ATOM     80  C   UNL A   1      45.418  33.833  33.009  1.00  0.00     0.040 A 
ATOM     81  C   UNL A   1      45.690  34.615  30.747  1.00  0.00     0.040 A 
ATOM     82  F   UNL A   1      45.119  33.223  28.946  1.00  0.00    -0.206 F 
ATOM     83  C   UNL A   1      45.796  34.836  32.118  1.00  0.00     0.006 A 
ENDBRANCH  59  76
ENDBRANCH  33  34
ENDBRANCH  25  28
ENDBRANCH  23  24
ENDBRANCH  22  23
ENDBRANCH  21  22
ENDBRANCH   3  21
TORSDOF 16
ENDMDL
