MODEL 1
REMARK VINA RESULT:     -12.4      0.000      0.000
REMARK SMILES O=C(/C=C/c1cc(C(=O)Nc2ccc(F)cc2Cl)cs1)NCCCNC(=O)c1ccc(-c2c3nc(c(-c4c(F)cccc4F)c4ccc([nH]4)c(-c4c(F)cccc4F)c4nc(c(-c5c(F)cccc5F)c5ccc2[nH]5)C=C4)C=C3)cc1
REMARK SMILES IDX 22 1 21 2 1 3 2 4 3 6 4 7 5 8 6 9 20 10 7 11 19 12 8 13 9 14
REMARK SMILES IDX 10 15 11 17 12 18 17 19 13 20 16 21 18 22 14 23 15 24 23 25
REMARK SMILES IDX 24 26 25 27 26 28 27 30 28 31 29 32 81 33 30 34 80 35 31 36
REMARK SMILES IDX 32 37 33 38 74 39 34 40 79 41 73 42 75 43 35 44 78 45 72 46
REMARK SMILES IDX 71 47 36 49 62 50 45 51 61 52 46 53 49 54 60 55 76 56 47 57
REMARK SMILES IDX 48 58 59 60 77 61 50 62 37 63 38 64 43 65 39 66 40 67 42 68
REMARK SMILES IDX 44 69 41 70 63 71 64 72 69 73 65 74 66 75 68 76 70 77 67 78
REMARK SMILES IDX 51 79 52 80 57 81 53 82 54 83 56 84 58 85 55 86
REMARK H PARENT 21 5 10 16 25 29 75 48 49 59
REMARK Flexibility Score: inf
ROOT
ATOM      1  C   UNL A   1      39.891  21.625  26.233  1.00  0.00     0.118 C 
ENDROOT
BRANCH   1   2
ATOM      2  N   UNL A   1      38.738  22.320  25.696  1.00  0.00    -0.352 N 
ATOM      3  O   UNL A   1      37.652  20.431  24.956  1.00  0.00    -0.270 OA
ATOM      4  C   UNL A   1      37.702  21.644  25.104  1.00  0.00     0.244 C 
ATOM      5  H   UNL A   1      38.697  23.302  25.759  1.00  0.00     0.163 HD
BRANCH   4   6
ATOM      6  C   UNL A   1      36.536  22.484  24.751  1.00  0.00     0.072 C 
ATOM      7  C   UNL A   1      35.419  22.008  24.178  1.00  0.00     0.024 C 
BRANCH   7   8
ATOM      8  C   UNL A   1      34.365  22.882  23.770  1.00  0.00     0.028 A 
ATOM      9  C   UNL A   1      34.413  24.179  23.292  1.00  0.00     0.033 A 
ATOM     10  S   UNL A   1      32.731  22.341  23.796  1.00  0.00    -0.144 S 
ATOM     11  C   UNL A   1      33.191  24.614  22.668  1.00  0.00     0.051 A 
ATOM     12  C   UNL A   1      32.171  23.743  22.992  1.00  0.00     0.079 A 
BRANCH  11  13
ATOM     13  C   UNL A   1      32.992  25.821  21.862  1.00  0.00     0.256 C 
ATOM     14  O   UNL A   1      33.157  25.809  20.638  1.00  0.00    -0.269 OA
ATOM     15  N   UNL A   1      32.535  26.973  22.468  1.00  0.00    -0.321 N 
ATOM     16  H   UNL A   1      32.124  27.626  21.856  1.00  0.00     0.170 HD
BRANCH  15  17
ATOM     17  C   UNL A   1      32.561  27.365  23.825  1.00  0.00     0.060 A 
ATOM     18  C   UNL A   1      33.710  27.909  24.416  1.00  0.00     0.031 A 
ATOM     19  C   UNL A   1      31.409  27.192  24.614  1.00  0.00     0.067 A 
ATOM     20  C   UNL A   1      33.744  28.162  25.789  1.00  0.00     0.041 A 
ATOM     21  C   UNL A   1      31.447  27.437  25.987  1.00  0.00     0.062 A 
ATOM     22  Cl  UNL A   1      29.943  26.580  23.932  1.00  0.00    -0.082 Cl
ATOM     23  C   UNL A   1      32.621  27.903  26.562  1.00  0.00     0.124 A 
ATOM     24  F   UNL A   1      32.674  28.106  27.886  1.00  0.00    -0.207 F 
ENDBRANCH  15  17
ENDBRANCH  11  13
ENDBRANCH   7   8
ENDBRANCH   4   6
ENDBRANCH   1   2
BRANCH   1  25
ATOM     25  C   UNL A   1      40.463  22.301  27.473  1.00  0.00     0.042 C 
BRANCH  25  26
ATOM     26  C   UNL A   1      41.758  23.071  27.227  1.00  0.00     0.118 C 
BRANCH  26  27
ATOM     27  N   UNL A   1      41.675  23.988  26.096  1.00  0.00    -0.352 N 
ATOM     28  C   UNL A   1      41.403  25.334  26.062  1.00  0.00     0.251 C 
ATOM     29  H   UNL A   1      41.843  23.577  25.217  1.00  0.00     0.163 HD
ATOM     30  O   UNL A   1      41.261  25.898  24.981  1.00  0.00    -0.269 OA
BRANCH  28  31
ATOM     31  C   UNL A   1      41.246  26.103  27.316  1.00  0.00     0.039 A 
ATOM     32  C   UNL A   1      42.228  27.040  27.654  1.00  0.00     0.014 A 
ATOM     33  C   UNL A   1      40.150  25.904  28.159  1.00  0.00     0.014 A 
ATOM     34  C   UNL A   1      42.067  27.839  28.789  1.00  0.00     0.010 A 
ATOM     35  C   UNL A   1      39.959  26.742  29.257  1.00  0.00     0.010 A 
ATOM     36  C   UNL A   1      40.907  27.727  29.572  1.00  0.00    -0.014 A 
BRANCH  36  37
ATOM     37  C   UNL A   1      40.643  28.658  30.699  1.00  0.00     0.031 A 
ATOM     38  C   UNL A   1      39.581  29.713  30.586  1.00  0.00     0.074 A 
ATOM     39  C   UNL A   1      41.425  28.606  31.795  1.00  0.00     0.049 A 
ATOM     40  N   UNL A   1      39.287  30.683  31.415  1.00  0.00    -0.248 NA
ATOM     41  C   UNL A   1      38.755  29.690  29.369  1.00  0.00     0.031 C 
ATOM     42  C   UNL A   1      42.517  27.655  32.012  1.00  0.00     0.029 A 
ATOM     43  N   UNL A   1      41.434  29.387  32.925  1.00  0.00    -0.354 N 
ATOM     44  C   UNL A   1      38.256  31.394  30.815  1.00  0.00     0.074 A 
ATOM     45  C   UNL A   1      38.000  30.768  29.535  1.00  0.00     0.031 C 
ATOM     46  C   UNL A   1      43.083  27.900  33.205  1.00  0.00     0.029 A 
ATOM     47  C   UNL A   1      42.422  29.048  33.818  1.00  0.00     0.049 A 
ATOM     48  H   UNL A   1      40.794  30.118  33.080  1.00  0.00     0.167 HD
ATOM     49  C   UNL A   1      37.576  32.462  31.295  1.00  0.00     0.037 A 
ATOM     50  C   UNL A   1      42.770  29.611  34.990  1.00  0.00     0.037 A 
ATOM     51  C   UNL A   1      37.813  33.071  32.578  1.00  0.00     0.049 A 
ATOM     52  C   UNL A   1      42.009  30.805  35.492  1.00  0.00     0.074 A 
ATOM     53  C   UNL A   1      37.128  34.114  33.177  1.00  0.00     0.029 A 
ATOM     54  N   UNL A   1      38.816  32.693  33.458  1.00  0.00    -0.354 N 
ATOM     55  N   UNL A   1      40.999  31.431  34.941  1.00  0.00    -0.248 NA
ATOM     56  C   UNL A   1      42.439  31.372  36.779  1.00  0.00     0.031 C 
ATOM     57  C   UNL A   1      37.739  34.391  34.404  1.00  0.00     0.029 A 
ATOM     58  C   UNL A   1      38.782  33.497  34.585  1.00  0.00     0.049 A 
ATOM     59  H   UNL A   1      39.456  31.961  33.304  1.00  0.00     0.167 HD
ATOM     60  C   UNL A   1      40.660  32.452  35.819  1.00  0.00     0.074 A 
ATOM     61  C   UNL A   1      41.563  32.353  36.947  1.00  0.00     0.031 C 
ATOM     62  C   UNL A   1      39.687  33.387  35.700  1.00  0.00     0.037 A 
BRANCH  49  63
ATOM     63  C   UNL A   1      36.502  33.045  30.424  1.00  0.00     0.057 A 
ATOM     64  C   UNL A   1      36.805  33.890  29.350  1.00  0.00     0.134 A 
ATOM     65  C   UNL A   1      35.157  32.727  30.639  1.00  0.00     0.134 A 
ATOM     66  F   UNL A   1      38.074  34.243  29.097  1.00  0.00    -0.206 F 
ATOM     67  C   UNL A   1      35.804  34.417  28.531  1.00  0.00     0.040 A 
ATOM     68  C   UNL A   1      34.148  33.228  29.815  1.00  0.00     0.040 A 
ATOM     69  F   UNL A   1      34.800  31.917  31.648  1.00  0.00    -0.206 F 
ATOM     70  C   UNL A   1      34.470  34.080  28.760  1.00  0.00     0.006 A 
ENDBRANCH  49  63
BRANCH  50  71
ATOM     71  C   UNL A   1      43.892  29.046  35.778  1.00  0.00     0.057 A 
ATOM     72  C   UNL A   1      45.191  29.549  35.641  1.00  0.00     0.134 A 
ATOM     73  C   UNL A   1      43.697  27.993  36.678  1.00  0.00     0.134 A 
ATOM     74  F   UNL A   1      45.442  30.544  34.779  1.00  0.00    -0.206 F 
ATOM     75  C   UNL A   1      46.260  29.015  36.363  1.00  0.00     0.040 A 
ATOM     76  C   UNL A   1      44.753  27.464  37.422  1.00  0.00     0.040 A 
ATOM     77  F   UNL A   1      42.475  27.471  36.855  1.00  0.00    -0.206 F 
ATOM     78  C   UNL A   1      46.040  27.973  37.260  1.00  0.00     0.006 A 
ENDBRANCH  50  71
BRANCH  62  79
ATOM     79  C   UNL A   1      39.536  34.364  36.827  1.00  0.00     0.057 A 
ATOM     80  C   UNL A   1      38.862  34.026  38.007  1.00  0.00     0.134 A 
ATOM     81  C   UNL A   1      40.100  35.643  36.745  1.00  0.00     0.134 A 
ATOM     82  F   UNL A   1      38.286  32.822  38.140  1.00  0.00    -0.206 F 
ATOM     83  C   UNL A   1      38.742  34.933  39.062  1.00  0.00     0.040 A 
ATOM     84  C   UNL A   1      40.006  36.550  37.801  1.00  0.00     0.040 A 
ATOM     85  F   UNL A   1      40.764  36.026  35.643  1.00  0.00    -0.206 F 
ATOM     86  C   UNL A   1      39.321  36.197  38.962  1.00  0.00     0.006 A 
ENDBRANCH  62  79
ENDBRANCH  36  37
ENDBRANCH  28  31
ENDBRANCH  26  27
ENDBRANCH  25  26
ENDBRANCH   1  25
TORSDOF 13
ENDMDL
MODEL 2
REMARK VINA RESULT:     -12.3      1.585      1.866
REMARK SMILES O=C(/C=C/c1cc(C(=O)Nc2ccc(F)cc2Cl)cs1)NCCCNC(=O)c1ccc(-c2c3nc(c(-c4c(F)cccc4F)c4ccc([nH]4)c(-c4c(F)cccc4F)c4nc(c(-c5c(F)cccc5F)c5ccc2[nH]5)C=C4)C=C3)cc1
REMARK SMILES IDX 22 1 21 2 1 3 2 4 3 6 4 7 5 8 6 9 20 10 7 11 19 12 8 13 9 14
REMARK SMILES IDX 10 15 11 17 12 18 17 19 13 20 16 21 18 22 14 23 15 24 23 25
REMARK SMILES IDX 24 26 25 27 26 28 27 30 28 31 29 32 81 33 30 34 80 35 31 36
REMARK SMILES IDX 32 37 33 38 74 39 34 40 79 41 73 42 75 43 35 44 78 45 72 46
REMARK SMILES IDX 71 47 36 49 62 50 45 51 61 52 46 53 49 54 60 55 76 56 47 57
REMARK SMILES IDX 48 58 59 60 77 61 50 62 37 63 38 64 43 65 39 66 40 67 42 68
REMARK SMILES IDX 44 69 41 70 63 71 64 72 69 73 65 74 66 75 68 76 70 77 67 78
REMARK SMILES IDX 51 79 52 80 57 81 53 82 54 83 56 84 58 85 55 86
REMARK H PARENT 21 5 10 16 25 29 75 48 49 59
REMARK Flexibility Score: inf
ROOT
ATOM      1  C   UNL A   1      39.868  21.741  26.058  1.00  0.00     0.118 C 
ENDROOT
BRANCH   1   2
ATOM      2  N   UNL A   1      38.419  21.774  26.026  1.00  0.00    -0.352 N 
ATOM      3  O   UNL A   1      38.244  24.054  25.773  1.00  0.00    -0.270 OA
ATOM      4  C   UNL A   1      37.729  22.949  25.875  1.00  0.00     0.244 C 
ATOM      5  H   UNL A   1      37.918  20.931  26.115  1.00  0.00     0.163 HD
BRANCH   4   6
ATOM      6  C   UNL A   1      36.268  22.792  25.706  1.00  0.00     0.072 C 
ATOM      7  C   UNL A   1      35.438  23.803  25.401  1.00  0.00     0.024 C 
BRANCH   7   8
ATOM      8  C   UNL A   1      34.024  23.610  25.348  1.00  0.00     0.028 A 
ATOM      9  C   UNL A   1      33.057  23.798  26.320  1.00  0.00     0.033 A 
ATOM     10  S   UNL A   1      33.272  23.098  23.886  1.00  0.00    -0.144 S 
ATOM     11  C   UNL A   1      31.713  23.830  25.805  1.00  0.00     0.051 A 
ATOM     12  C   UNL A   1      31.701  23.338  24.516  1.00  0.00     0.079 A 
BRANCH  11  13
ATOM     13  C   UNL A   1      30.504  24.244  26.520  1.00  0.00     0.256 C 
ATOM     14  O   UNL A   1      29.919  23.474  27.290  1.00  0.00    -0.269 OA
ATOM     15  N   UNL A   1      30.052  25.541  26.395  1.00  0.00    -0.321 N 
ATOM     16  H   UNL A   1      29.457  25.842  27.119  1.00  0.00     0.170 HD
BRANCH  15  17
ATOM     17  C   UNL A   1      30.309  26.506  25.395  1.00  0.00     0.060 A 
ATOM     18  C   UNL A   1      29.639  26.492  24.164  1.00  0.00     0.031 A 
ATOM     19  C   UNL A   1      31.273  27.503  25.632  1.00  0.00     0.067 A 
ATOM     20  C   UNL A   1      30.010  27.377  23.149  1.00  0.00     0.041 A 
ATOM     21  C   UNL A   1      31.648  28.382  24.615  1.00  0.00     0.062 A 
ATOM     22  Cl  UNL A   1      32.092  27.611  27.151  1.00  0.00    -0.082 Cl
ATOM     23  C   UNL A   1      31.025  28.296  23.378  1.00  0.00     0.124 A 
ATOM     24  F   UNL A   1      31.406  29.114  22.388  1.00  0.00    -0.207 F 
ENDBRANCH  15  17
ENDBRANCH  11  13
ENDBRANCH   7   8
ENDBRANCH   4   6
ENDBRANCH   1   2
BRANCH   1  25
ATOM     25  C   UNL A   1      40.439  22.190  27.398  1.00  0.00     0.042 C 
BRANCH  25  26
ATOM     26  C   UNL A   1      41.665  23.092  27.286  1.00  0.00     0.118 C 
BRANCH  26  27
ATOM     27  N   UNL A   1      41.604  24.009  26.154  1.00  0.00    -0.352 N 
ATOM     28  C   UNL A   1      41.357  25.360  26.118  1.00  0.00     0.251 C 
ATOM     29  H   UNL A   1      41.766  23.594  25.276  1.00  0.00     0.163 HD
ATOM     30  O   UNL A   1      41.229  25.925  25.036  1.00  0.00    -0.269 OA
BRANCH  28  31
ATOM     31  C   UNL A   1      41.211  26.133  27.371  1.00  0.00     0.039 A 
ATOM     32  C   UNL A   1      42.170  27.105  27.673  1.00  0.00     0.014 A 
ATOM     33  C   UNL A   1      40.148  25.904  28.248  1.00  0.00     0.014 A 
ATOM     34  C   UNL A   1      42.016  27.907  28.806  1.00  0.00     0.010 A 
ATOM     35  C   UNL A   1      39.962  26.744  29.345  1.00  0.00     0.010 A 
ATOM     36  C   UNL A   1      40.884  27.763  29.625  1.00  0.00    -0.014 A 
BRANCH  36  37
ATOM     37  C   UNL A   1      40.623  28.693  30.752  1.00  0.00     0.031 A 
ATOM     38  C   UNL A   1      39.561  29.750  30.640  1.00  0.00     0.074 A 
ATOM     39  C   UNL A   1      41.405  28.639  31.848  1.00  0.00     0.049 A 
ATOM     40  N   UNL A   1      39.269  30.720  31.470  1.00  0.00    -0.248 NA
ATOM     41  C   UNL A   1      38.735  29.729  29.424  1.00  0.00     0.031 C 
ATOM     42  C   UNL A   1      42.496  27.686  32.064  1.00  0.00     0.029 A 
ATOM     43  N   UNL A   1      41.416  29.419  32.979  1.00  0.00    -0.354 N 
ATOM     44  C   UNL A   1      38.239  31.433  30.872  1.00  0.00     0.074 A 
ATOM     45  C   UNL A   1      37.981  30.807  29.592  1.00  0.00     0.031 C 
ATOM     46  C   UNL A   1      43.063  27.930  33.256  1.00  0.00     0.029 A 
ATOM     47  C   UNL A   1      42.404  29.079  33.870  1.00  0.00     0.049 A 
ATOM     48  H   UNL A   1      40.777  30.151  33.134  1.00  0.00     0.167 HD
ATOM     49  C   UNL A   1      37.561  32.501  31.353  1.00  0.00     0.037 A 
ATOM     50  C   UNL A   1      42.754  29.640  35.043  1.00  0.00     0.037 A 
ATOM     51  C   UNL A   1      37.800  33.109  32.636  1.00  0.00     0.049 A 
ATOM     52  C   UNL A   1      41.995  30.835  35.546  1.00  0.00     0.074 A 
ATOM     53  C   UNL A   1      37.117  34.152  33.237  1.00  0.00     0.029 A 
ATOM     54  N   UNL A   1      38.803  32.729  33.515  1.00  0.00    -0.354 N 
ATOM     55  N   UNL A   1      40.985  31.463  34.996  1.00  0.00    -0.248 NA
ATOM     56  C   UNL A   1      42.426  31.400  36.833  1.00  0.00     0.031 C 
ATOM     57  C   UNL A   1      37.729  34.427  34.464  1.00  0.00     0.029 A 
ATOM     58  C   UNL A   1      38.771  33.532  34.643  1.00  0.00     0.049 A 
ATOM     59  H   UNL A   1      39.442  31.996  33.361  1.00  0.00     0.167 HD
ATOM     60  C   UNL A   1      40.648  32.483  35.875  1.00  0.00     0.074 A 
ATOM     61  C   UNL A   1      41.552  32.382  37.002  1.00  0.00     0.031 C 
ATOM     62  C   UNL A   1      39.676  33.420  35.758  1.00  0.00     0.037 A 
BRANCH  49  63
ATOM     63  C   UNL A   1      36.488  33.086  30.483  1.00  0.00     0.057 A 
ATOM     64  C   UNL A   1      36.789  33.948  29.421  1.00  0.00     0.134 A 
ATOM     65  C   UNL A   1      35.143  32.754  30.686  1.00  0.00     0.134 A 
ATOM     66  F   UNL A   1      38.057  34.314  29.181  1.00  0.00    -0.206 F 
ATOM     67  C   UNL A   1      35.789  34.476  28.604  1.00  0.00     0.040 A 
ATOM     68  C   UNL A   1      34.135  33.257  29.863  1.00  0.00     0.040 A 
ATOM     69  F   UNL A   1      34.788  31.929  31.683  1.00  0.00    -0.206 F 
ATOM     70  C   UNL A   1      34.457  34.125  28.821  1.00  0.00     0.006 A 
ENDBRANCH  49  63
BRANCH  50  71
ATOM     71  C   UNL A   1      43.876  29.072  35.829  1.00  0.00     0.057 A 
ATOM     72  C   UNL A   1      45.172  29.585  35.704  1.00  0.00     0.134 A 
ATOM     73  C   UNL A   1      43.683  28.009  36.717  1.00  0.00     0.134 A 
ATOM     74  F   UNL A   1      45.421  30.590  34.854  1.00  0.00    -0.206 F 
ATOM     75  C   UNL A   1      46.240  29.049  36.425  1.00  0.00     0.040 A 
ATOM     76  C   UNL A   1      44.738  27.477  37.460  1.00  0.00     0.040 A 
ATOM     77  F   UNL A   1      42.462  27.478  36.883  1.00  0.00    -0.206 F 
ATOM     78  C   UNL A   1      46.023  27.996  37.310  1.00  0.00     0.006 A 
ENDBRANCH  50  71
BRANCH  62  79
ATOM     79  C   UNL A   1      39.527  34.396  36.885  1.00  0.00     0.057 A 
ATOM     80  C   UNL A   1      38.811  34.075  38.045  1.00  0.00     0.134 A 
ATOM     81  C   UNL A   1      40.136  35.656  36.826  1.00  0.00     0.134 A 
ATOM     82  F   UNL A   1      38.192  32.890  38.156  1.00  0.00    -0.206 F 
ATOM     83  C   UNL A   1      38.692  34.981  39.101  1.00  0.00     0.040 A 
ATOM     84  C   UNL A   1      40.043  36.561  37.883  1.00  0.00     0.040 A 
ATOM     85  F   UNL A   1      40.841  36.022  35.744  1.00  0.00    -0.206 F 
ATOM     86  C   UNL A   1      39.316  36.226  39.024  1.00  0.00     0.006 A 
ENDBRANCH  62  79
ENDBRANCH  36  37
ENDBRANCH  28  31
ENDBRANCH  26  27
ENDBRANCH  25  26
ENDBRANCH   1  25
TORSDOF 13
ENDMDL
MODEL 3
REMARK VINA RESULT:     -12.2      3.356      8.766
REMARK SMILES O=C(/C=C/c1cc(C(=O)Nc2ccc(F)cc2Cl)cs1)NCCCNC(=O)c1ccc(-c2c3nc(c(-c4c(F)cccc4F)c4ccc([nH]4)c(-c4c(F)cccc4F)c4nc(c(-c5c(F)cccc5F)c5ccc2[nH]5)C=C4)C=C3)cc1
REMARK SMILES IDX 22 1 21 2 1 3 2 4 3 6 4 7 5 8 6 9 20 10 7 11 19 12 8 13 9 14
REMARK SMILES IDX 10 15 11 17 12 18 17 19 13 20 16 21 18 22 14 23 15 24 23 25
REMARK SMILES IDX 24 26 25 27 26 28 27 30 28 31 29 32 81 33 30 34 80 35 31 36
REMARK SMILES IDX 32 37 33 38 74 39 34 40 79 41 73 42 75 43 35 44 78 45 72 46
REMARK SMILES IDX 71 47 36 49 62 50 45 51 61 52 46 53 49 54 60 55 76 56 47 57
REMARK SMILES IDX 48 58 59 60 77 61 50 62 37 63 38 64 43 65 39 66 40 67 42 68
REMARK SMILES IDX 44 69 41 70 63 71 64 72 69 73 65 74 66 75 68 76 70 77 67 78
REMARK SMILES IDX 51 79 52 80 57 81 53 82 54 83 56 84 58 85 55 86
REMARK H PARENT 21 5 10 16 25 29 75 48 49 59
REMARK Flexibility Score: inf
ROOT
ATOM      1  C   UNL A   1      34.207  34.064  29.101  1.00  0.00     0.118 C 
ENDROOT
BRANCH   1   2
ATOM      2  N   UNL A   1      33.785  32.955  28.271  1.00  0.00    -0.352 N 
ATOM      3  O   UNL A   1      35.834  31.910  28.217  1.00  0.00    -0.270 OA
ATOM      4  C   UNL A   1      34.652  31.958  27.905  1.00  0.00     0.244 C 
ATOM      5  H   UNL A   1      32.851  32.916  27.960  1.00  0.00     0.163 HD
BRANCH   4   6
ATOM      6  C   UNL A   1      34.026  30.824  27.190  1.00  0.00     0.072 C 
ATOM      7  C   UNL A   1      32.699  30.644  27.091  1.00  0.00     0.024 C 
BRANCH   7   8
ATOM      8  C   UNL A   1      32.153  29.478  26.473  1.00  0.00     0.028 A 
ATOM      9  C   UNL A   1      31.982  29.170  25.134  1.00  0.00     0.033 A 
ATOM     10  S   UNL A   1      31.619  28.154  27.436  1.00  0.00    -0.144 S 
ATOM     11  C   UNL A   1      31.718  27.778  24.887  1.00  0.00     0.051 A 
ATOM     12  C   UNL A   1      31.377  27.154  26.070  1.00  0.00     0.079 A 
BRANCH  11  13
ATOM     13  C   UNL A   1      31.727  27.094  23.591  1.00  0.00     0.256 C 
ATOM     14  O   UNL A   1      32.602  26.268  23.309  1.00  0.00    -0.269 OA
ATOM     15  N   UNL A   1      30.698  27.315  22.700  1.00  0.00    -0.321 N 
ATOM     16  H   UNL A   1      30.586  26.615  22.017  1.00  0.00     0.170 HD
BRANCH  15  17
ATOM     17  C   UNL A   1      29.778  28.384  22.612  1.00  0.00     0.060 A 
ATOM     18  C   UNL A   1      30.116  29.604  22.009  1.00  0.00     0.031 A 
ATOM     19  C   UNL A   1      28.490  28.231  23.157  1.00  0.00     0.067 A 
ATOM     20  C   UNL A   1      29.232  30.683  22.055  1.00  0.00     0.041 A 
ATOM     21  C   UNL A   1      27.610  29.312  23.211  1.00  0.00     0.062 A 
ATOM     22  Cl  UNL A   1      27.992  26.734  23.863  1.00  0.00    -0.082 Cl
ATOM     23  C   UNL A   1      27.999  30.533  22.675  1.00  0.00     0.124 A 
ATOM     24  F   UNL A   1      27.172  31.584  22.756  1.00  0.00    -0.207 F 
ENDBRANCH  15  17
ENDBRANCH  11  13
ENDBRANCH   7   8
ENDBRANCH   4   6
ENDBRANCH   1   2
BRANCH   1  25
ATOM     25  C   UNL A   1      33.497  35.367  28.753  1.00  0.00     0.042 C 
BRANCH  25  26
ATOM     26  C   UNL A   1      33.582  36.437  29.839  1.00  0.00     0.118 C 
BRANCH  26  27
ATOM     27  N   UNL A   1      32.506  36.349  30.818  1.00  0.00    -0.352 N 
ATOM     28  C   UNL A   1      32.455  35.697  32.025  1.00  0.00     0.251 C 
ATOM     29  H   UNL A   1      31.685  36.837  30.576  1.00  0.00     0.163 HD
ATOM     30  O   UNL A   1      31.397  35.650  32.647  1.00  0.00    -0.269 OA
BRANCH  28  31
ATOM     31  C   UNL A   1      33.654  35.022  32.569  1.00  0.00     0.039 A 
ATOM     32  C   UNL A   1      33.518  33.729  33.085  1.00  0.00     0.014 A 
ATOM     33  C   UNL A   1      34.901  35.652  32.580  1.00  0.00     0.014 A 
ATOM     34  C   UNL A   1      34.645  33.035  33.530  1.00  0.00     0.010 A 
ATOM     35  C   UNL A   1      36.034  34.938  32.968  1.00  0.00     0.010 A 
ATOM     36  C   UNL A   1      35.919  33.618  33.431  1.00  0.00    -0.014 A 
BRANCH  36  37
ATOM     37  C   UNL A   1      37.147  32.853  33.763  1.00  0.00     0.031 A 
ATOM     38  C   UNL A   1      37.912  33.145  35.022  1.00  0.00     0.074 A 
ATOM     39  C   UNL A   1      37.621  31.949  32.882  1.00  0.00     0.049 A 
ATOM     40  N   UNL A   1      39.062  32.663  35.421  1.00  0.00    -0.248 NA
ATOM     41  C   UNL A   1      37.318  34.126  35.942  1.00  0.00     0.031 C 
ATOM     42  C   UNL A   1      36.993  31.601  31.606  1.00  0.00     0.029 A 
ATOM     43  N   UNL A   1      38.753  31.174  32.919  1.00  0.00    -0.354 N 
ATOM     44  C   UNL A   1      39.337  33.292  36.628  1.00  0.00     0.074 A 
ATOM     45  C   UNL A   1      38.253  34.218  36.878  1.00  0.00     0.031 C 
ATOM     46  C   UNL A   1      37.743  30.676  30.986  1.00  0.00     0.029 A 
ATOM     47  C   UNL A   1      38.921  30.394  31.801  1.00  0.00     0.049 A 
ATOM     48  H   UNL A   1      39.384  31.176  33.674  1.00  0.00     0.167 HD
ATOM     49  C   UNL A   1      40.390  33.103  37.458  1.00  0.00     0.037 A 
ATOM     50  C   UNL A   1      39.921  29.560  31.458  1.00  0.00     0.037 A 
ATOM     51  C   UNL A   1      41.456  32.165  37.222  1.00  0.00     0.049 A 
ATOM     52  C   UNL A   1      41.085  29.381  32.390  1.00  0.00     0.074 A 
ATOM     53  C   UNL A   1      42.529  31.856  38.040  1.00  0.00     0.029 A 
ATOM     54  N   UNL A   1      41.585  31.386  36.082  1.00  0.00    -0.354 N 
ATOM     55  N   UNL A   1      41.304  29.939  33.555  1.00  0.00    -0.248 NA
ATOM     56  C   UNL A   1      42.144  28.456  31.958  1.00  0.00     0.031 C 
ATOM     57  C   UNL A   1      43.328  30.916  37.380  1.00  0.00     0.029 A 
ATOM     58  C   UNL A   1      42.732  30.614  36.166  1.00  0.00     0.049 A 
ATOM     59  H   UNL A   1      40.954  31.382  35.327  1.00  0.00     0.167 HD
ATOM     60  C   UNL A   1      42.512  29.422  34.004  1.00  0.00     0.074 A 
ATOM     61  C   UNL A   1      42.972  28.494  32.992  1.00  0.00     0.031 C 
ATOM     62  C   UNL A   1      43.179  29.693  35.151  1.00  0.00     0.037 A 
BRANCH  49  63
ATOM     63  C   UNL A   1      40.442  33.932  38.707  1.00  0.00     0.057 A 
ATOM     64  C   UNL A   1      41.161  35.131  38.765  1.00  0.00     0.134 A 
ATOM     65  C   UNL A   1      39.734  33.546  39.851  1.00  0.00     0.134 A 
ATOM     66  F   UNL A   1      41.870  35.551  37.706  1.00  0.00    -0.206 F 
ATOM     67  C   UNL A   1      41.193  35.908  39.925  1.00  0.00     0.040 A 
ATOM     68  C   UNL A   1      39.738  34.324  41.010  1.00  0.00     0.040 A 
ATOM     69  F   UNL A   1      39.019  32.410  39.860  1.00  0.00    -0.206 F 
ATOM     70  C   UNL A   1      40.474  35.507  41.050  1.00  0.00     0.006 A 
ENDBRANCH  49  63
BRANCH  50  71
ATOM     71  C   UNL A   1      39.862  28.823  30.173  1.00  0.00     0.057 A 
ATOM     72  C   UNL A   1      40.429  29.358  29.011  1.00  0.00     0.134 A 
ATOM     73  C   UNL A   1      39.239  27.574  30.074  1.00  0.00     0.134 A 
ATOM     74  F   UNL A   1      41.021  30.559  29.041  1.00  0.00    -0.206 F 
ATOM     75  C   UNL A   1      40.366  28.682  27.791  1.00  0.00     0.040 A 
ATOM     76  C   UNL A   1      39.187  26.878  28.866  1.00  0.00     0.040 A 
ATOM     77  F   UNL A   1      38.681  27.008  31.155  1.00  0.00    -0.206 F 
ATOM     78  C   UNL A   1      39.748  27.436  27.718  1.00  0.00     0.006 A 
ENDBRANCH  50  71
BRANCH  62  79
ATOM     79  C   UNL A   1      44.466  28.962  35.384  1.00  0.00     0.057 A 
ATOM     80  C   UNL A   1      44.498  27.712  36.014  1.00  0.00     0.134 A 
ATOM     81  C   UNL A   1      45.683  29.497  34.941  1.00  0.00     0.134 A 
ATOM     82  F   UNL A   1      43.368  27.154  36.475  1.00  0.00    -0.206 F 
ATOM     83  C   UNL A   1      45.697  27.026  36.210  1.00  0.00     0.040 A 
ATOM     84  C   UNL A   1      46.885  28.810  35.111  1.00  0.00     0.040 A 
ATOM     85  F   UNL A   1      45.719  30.688  34.324  1.00  0.00    -0.206 F 
ATOM     86  C   UNL A   1      46.895  27.572  35.751  1.00  0.00     0.006 A 
ENDBRANCH  62  79
ENDBRANCH  36  37
ENDBRANCH  28  31
ENDBRANCH  26  27
ENDBRANCH  25  26
ENDBRANCH   1  25
TORSDOF 13
ENDMDL
