MODEL 1
REMARK VINA RESULT:     -11.3      0.000      0.000
REMARK SMILES O=Cc1ccc(-c2ccc(C(=O)NCCCNC(=O)c3ccc(-c4c5nc(c(-c6c(F)cccc6F)c6ccc([nH]6)c(-c6c(F)cccc6F)c6nc(c(-c7c(F)cccc7F)c7ccc4[nH]7)C=C6)C=C5)cc3)cn2)cc1
REMARK SMILES IDX 15 1 14 2 13 3 11 4 12 5 10 7 7 8 8 9 75 10 9 11 74 12 6 13
REMARK SMILES IDX 3 14 4 15 77 16 5 17 76 18 2 19 1 20 16 21 17 22 18 23 19 25
REMARK SMILES IDX 20 26 21 27 73 28 22 29 72 30 23 31 24 32 25 33 66 34 26 35
REMARK SMILES IDX 71 36 65 37 67 38 27 39 70 40 64 41 63 42 28 44 54 45 37 46
REMARK SMILES IDX 53 47 38 48 41 49 52 50 68 51 39 52 40 53 51 55 69 56 42 57
REMARK SMILES IDX 29 58 30 59 35 60 31 61 32 62 34 63 36 64 33 65 55 66 56 67
REMARK SMILES IDX 61 68 57 69 58 70 60 71 62 72 59 73 43 74 44 75 49 76 45 77
REMARK SMILES IDX 46 78 48 79 50 80 47 81
REMARK H PARENT 13 6 17 24 67 43 41 54
REMARK Flexibility Score: inf
ROOT
ATOM      1  C   UNL A   1      42.634  18.627  26.712  1.00  0.00     0.042 C 
ENDROOT
BRANCH   1   2
ATOM      2  C   UNL A   1      41.663  19.389  27.615  1.00  0.00     0.118 C 
BRANCH   2   3
ATOM      3  N   UNL A   1      42.258  20.619  28.107  1.00  0.00    -0.352 N 
ATOM      4  C   UNL A   1      41.862  21.929  28.051  1.00  0.00     0.252 C 
ATOM      5  O   UNL A   1      42.565  22.757  28.629  1.00  0.00    -0.269 OA
ATOM      6  H   UNL A   1      43.115  20.484  28.572  1.00  0.00     0.163 HD
BRANCH   4   7
ATOM      7  C   UNL A   1      40.630  22.392  27.369  1.00  0.00     0.058 A 
ATOM      8  C   UNL A   1      38.313  22.975  25.965  1.00  0.00     0.070 A 
ATOM      9  C   UNL A   1      38.840  23.921  26.840  1.00  0.00     0.030 A 
ATOM     10  N   UNL A   1      38.878  21.759  25.795  1.00  0.00    -0.255 NA
ATOM     11  C   UNL A   1      39.994  23.614  27.564  1.00  0.00     0.018 A 
ATOM     12  C   UNL A   1      40.017  21.500  26.490  1.00  0.00     0.125 A 
BRANCH   8  13
ATOM     13  C   UNL A   1      37.080  23.228  25.217  1.00  0.00     0.000 A 
ATOM     14  C   UNL A   1      34.751  23.815  23.760  1.00  0.00     0.014 A 
ATOM     15  C   UNL A   1      34.883  24.277  25.071  1.00  0.00     0.012 A 
ATOM     16  C   UNL A   1      35.761  23.047  23.177  1.00  0.00     0.012 A 
ATOM     17  C   UNL A   1      36.041  23.975  25.795  1.00  0.00     0.011 A 
ATOM     18  C   UNL A   1      36.920  22.759  23.902  1.00  0.00     0.011 A 
BRANCH  14  19
ATOM     19  C   UNL A   1      33.537  24.152  22.992  1.00  0.00     0.260 C 
ATOM     20  O   UNL A   1      33.589  24.624  21.864  1.00  0.00    -0.298 OA
ENDBRANCH  14  19
ENDBRANCH   8  13
ENDBRANCH   4   7
ENDBRANCH   2   3
ENDBRANCH   1   2
BRANCH   1  21
ATOM     21  C   UNL A   1      42.785  19.246  25.324  1.00  0.00     0.118 C 
BRANCH  21  22
ATOM     22  N   UNL A   1      44.037  18.861  24.689  1.00  0.00    -0.352 N 
ATOM     23  C   UNL A   1      45.099  19.631  24.285  1.00  0.00     0.251 C 
ATOM     24  H   UNL A   1      44.138  17.896  24.523  1.00  0.00     0.163 HD
ATOM     25  O   UNL A   1      45.961  19.139  23.565  1.00  0.00    -0.269 OA
BRANCH  23  26
ATOM     26  C   UNL A   1      45.214  21.046  24.702  1.00  0.00     0.039 A 
ATOM     27  C   UNL A   1      45.524  21.329  26.036  1.00  0.00     0.014 A 
ATOM     28  C   UNL A   1      44.956  22.091  23.810  1.00  0.00     0.014 A 
ATOM     29  C   UNL A   1      45.623  22.656  26.463  1.00  0.00     0.010 A 
ATOM     30  C   UNL A   1      45.118  23.413  24.220  1.00  0.00     0.010 A 
ATOM     31  C   UNL A   1      45.445  23.708  25.552  1.00  0.00    -0.014 A 
BRANCH  31  32
ATOM     32  C   UNL A   1      45.588  25.123  25.975  1.00  0.00     0.031 A 
ATOM     33  C   UNL A   1      46.935  25.789  25.950  1.00  0.00     0.074 A 
ATOM     34  C   UNL A   1      44.515  25.789  26.441  1.00  0.00     0.049 A 
ATOM     35  N   UNL A   1      47.274  26.989  26.351  1.00  0.00    -0.248 NA
ATOM     36  C   UNL A   1      48.056  24.990  25.429  1.00  0.00     0.031 C 
ATOM     37  C   UNL A   1      43.162  25.242  26.551  1.00  0.00     0.029 A 
ATOM     38  N   UNL A   1      44.397  27.069  26.921  1.00  0.00    -0.354 N 
ATOM     39  C   UNL A   1      48.645  27.081  26.149  1.00  0.00     0.074 A 
ATOM     40  C   UNL A   1      49.083  25.802  25.634  1.00  0.00     0.031 C 
ATOM     41  C   UNL A   1      42.346  26.186  27.045  1.00  0.00     0.029 A 
ATOM     42  C   UNL A   1      43.123  27.390  27.320  1.00  0.00     0.049 A 
ATOM     43  H   UNL A   1      45.153  27.697  26.975  1.00  0.00     0.167 HD
ATOM     44  C   UNL A   1      49.462  28.143  26.355  1.00  0.00     0.037 A 
ATOM     45  C   UNL A   1      42.636  28.527  27.853  1.00  0.00     0.037 A 
ATOM     46  C   UNL A   1      49.018  29.422  26.844  1.00  0.00     0.049 A 
ATOM     47  C   UNL A   1      43.561  29.689  28.075  1.00  0.00     0.074 A 
ATOM     48  C   UNL A   1      49.757  30.578  27.032  1.00  0.00     0.029 A 
ATOM     49  N   UNL A   1      47.717  29.712  27.225  1.00  0.00    -0.354 N 
ATOM     50  N   UNL A   1      44.845  29.782  27.827  1.00  0.00    -0.248 NA
ATOM     51  C   UNL A   1      42.969  30.906  28.649  1.00  0.00     0.031 C 
ATOM     52  C   UNL A   1      48.908  31.557  27.562  1.00  0.00     0.029 A 
ATOM     53  C   UNL A   1      47.634  31.023  27.665  1.00  0.00     0.049 A 
ATOM     54  H   UNL A   1      46.963  29.080  27.189  1.00  0.00     0.167 HD
ATOM     55  C   UNL A   1      45.210  31.073  28.189  1.00  0.00     0.074 A 
ATOM     56  C   UNL A   1      44.009  31.729  28.665  1.00  0.00     0.031 C 
ATOM     57  C   UNL A   1      46.430  31.661  28.132  1.00  0.00     0.037 A 
BRANCH  44  58
ATOM     58  C   UNL A   1      50.921  27.957  26.051  1.00  0.00     0.057 A 
ATOM     59  C   UNL A   1      51.846  27.621  27.049  1.00  0.00     0.134 A 
ATOM     60  C   UNL A   1      51.404  28.100  24.745  1.00  0.00     0.134 A 
ATOM     61  F   UNL A   1      51.449  27.481  28.324  1.00  0.00    -0.206 F 
ATOM     62  C   UNL A   1      53.204  27.468  26.765  1.00  0.00     0.040 A 
ATOM     63  C   UNL A   1      52.756  27.924  24.444  1.00  0.00     0.040 A 
ATOM     64  F   UNL A   1      50.572  28.413  23.741  1.00  0.00    -0.206 F 
ATOM     65  C   UNL A   1      53.662  27.615  25.458  1.00  0.00     0.006 A 
ENDBRANCH  44  58
BRANCH  45  66
ATOM     66  C   UNL A   1      41.193  28.629  28.180  1.00  0.00     0.057 A 
ATOM     67  C   UNL A   1      40.261  28.998  27.204  1.00  0.00     0.134 A 
ATOM     68  C   UNL A   1      40.710  28.349  29.463  1.00  0.00     0.134 A 
ATOM     69  F   UNL A   1      40.668  29.294  25.962  1.00  0.00    -0.206 F 
ATOM     70  C   UNL A   1      38.900  29.097  27.495  1.00  0.00     0.040 A 
ATOM     71  C   UNL A   1      39.349  28.424  29.763  1.00  0.00     0.040 A 
ATOM     72  F   UNL A   1      41.553  27.982  30.440  1.00  0.00    -0.206 F 
ATOM     73  C   UNL A   1      38.440  28.803  28.777  1.00  0.00     0.006 A 
ENDBRANCH  45  66
BRANCH  57  74
ATOM     74  C   UNL A   1      46.518  33.094  28.567  1.00  0.00     0.057 A 
ATOM     75  C   UNL A   1      46.818  33.447  29.888  1.00  0.00     0.134 A 
ATOM     76  C   UNL A   1      46.336  34.131  27.644  1.00  0.00     0.134 A 
ATOM     77  F   UNL A   1      46.988  32.500  30.823  1.00  0.00    -0.206 F 
ATOM     78  C   UNL A   1      46.912  34.783  30.280  1.00  0.00     0.040 A 
ATOM     79  C   UNL A   1      46.451  35.469  28.019  1.00  0.00     0.040 A 
ATOM     80  F   UNL A   1      46.053  33.859  26.361  1.00  0.00    -0.206 F 
ATOM     81  C   UNL A   1      46.736  35.798  29.342  1.00  0.00     0.006 A 
ENDBRANCH  57  74
ENDBRANCH  31  32
ENDBRANCH  23  26
ENDBRANCH  21  22
ENDBRANCH   1  21
TORSDOF 12
ENDMDL
MODEL 2
REMARK VINA RESULT:     -11.3      7.528     12.719
REMARK SMILES O=Cc1ccc(-c2ccc(C(=O)NCCCNC(=O)c3ccc(-c4c5nc(c(-c6c(F)cccc6F)c6ccc([nH]6)c(-c6c(F)cccc6F)c6nc(c(-c7c(F)cccc7F)c7ccc4[nH]7)C=C6)C=C5)cc3)cn2)cc1
REMARK SMILES IDX 15 1 14 2 13 3 11 4 12 5 10 7 7 8 8 9 75 10 9 11 74 12 6 13
REMARK SMILES IDX 3 14 4 15 77 16 5 17 76 18 2 19 1 20 16 21 17 22 18 23 19 25
REMARK SMILES IDX 20 26 21 27 73 28 22 29 72 30 23 31 24 32 25 33 66 34 26 35
REMARK SMILES IDX 71 36 65 37 67 38 27 39 70 40 64 41 63 42 28 44 54 45 37 46
REMARK SMILES IDX 53 47 38 48 41 49 52 50 68 51 39 52 40 53 51 55 69 56 42 57
REMARK SMILES IDX 29 58 30 59 35 60 31 61 32 62 34 63 36 64 33 65 55 66 56 67
REMARK SMILES IDX 61 68 57 69 58 70 60 71 62 72 59 73 43 74 44 75 49 76 45 77
REMARK SMILES IDX 46 78 48 79 50 80 47 81
REMARK H PARENT 13 6 17 24 67 43 41 54
REMARK Flexibility Score: inf
ROOT
ATOM      1  C   UNL A   1      33.515  36.161  28.900  1.00  0.00     0.042 C 
ENDROOT
BRANCH   1   2
ATOM      2  C   UNL A   1      34.368  35.345  27.930  1.00  0.00     0.118 C 
BRANCH   2   3
ATOM      3  N   UNL A   1      35.628  34.956  28.538  1.00  0.00    -0.352 N 
ATOM      4  C   UNL A   1      36.246  33.743  28.699  1.00  0.00     0.252 C 
ATOM      5  O   UNL A   1      37.365  33.743  29.211  1.00  0.00    -0.269 OA
ATOM      6  H   UNL A   1      36.139  35.712  28.906  1.00  0.00     0.163 HD
BRANCH   4   7
ATOM      7  C   UNL A   1      35.658  32.452  28.268  1.00  0.00     0.058 A 
ATOM      8  C   UNL A   1      34.288  30.184  27.460  1.00  0.00     0.070 A 
ATOM      9  C   UNL A   1      35.675  30.143  27.568  1.00  0.00     0.030 A 
ATOM     10  N   UNL A   1      33.579  31.307  27.709  1.00  0.00    -0.255 NA
ATOM     11  C   UNL A   1      36.364  31.296  27.952  1.00  0.00     0.018 A 
ATOM     12  C   UNL A   1      34.274  32.405  28.110  1.00  0.00     0.125 A 
BRANCH   8  13
ATOM     13  C   UNL A   1      33.520  29.018  27.017  1.00  0.00     0.000 A 
ATOM     14  C   UNL A   1      32.101  26.721  26.244  1.00  0.00     0.014 A 
ATOM     15  C   UNL A   1      33.409  26.909  25.796  1.00  0.00     0.012 A 
ATOM     16  C   UNL A   1      31.487  27.677  27.057  1.00  0.00     0.012 A 
ATOM     17  C   UNL A   1      34.109  28.059  26.178  1.00  0.00     0.011 A 
ATOM     18  C   UNL A   1      32.196  28.817  27.443  1.00  0.00     0.011 A 
BRANCH  14  19
ATOM     19  C   UNL A   1      31.371  25.498  25.856  1.00  0.00     0.260 C 
ATOM     20  O   UNL A   1      30.377  25.113  26.458  1.00  0.00    -0.298 OA
ENDBRANCH  14  19
ENDBRANCH   8  13
ENDBRANCH   4   7
ENDBRANCH   2   3
ENDBRANCH   1   2
BRANCH   1  21
ATOM     21  C   UNL A   1      32.799  35.307  29.946  1.00  0.00     0.118 C 
BRANCH  21  22
ATOM     22  N   UNL A   1      32.457  36.074  31.135  1.00  0.00    -0.352 N 
ATOM     23  C   UNL A   1      32.920  35.966  32.422  1.00  0.00     0.251 C 
ATOM     24  H   UNL A   1      31.787  36.782  30.994  1.00  0.00     0.163 HD
ATOM     25  O   UNL A   1      32.338  36.558  33.324  1.00  0.00    -0.269 OA
BRANCH  23  26
ATOM     26  C   UNL A   1      34.109  35.142  32.735  1.00  0.00     0.039 A 
ATOM     27  C   UNL A   1      35.376  35.653  32.437  1.00  0.00     0.014 A 
ATOM     28  C   UNL A   1      33.982  33.851  33.257  1.00  0.00     0.014 A 
ATOM     29  C   UNL A   1      36.516  34.891  32.706  1.00  0.00     0.010 A 
ATOM     30  C   UNL A   1      35.121  33.118  33.585  1.00  0.00     0.010 A 
ATOM     31  C   UNL A   1      36.398  33.627  33.305  1.00  0.00    -0.014 A 
BRANCH  31  32
ATOM     32  C   UNL A   1      37.598  32.819  33.639  1.00  0.00     0.031 A 
ATOM     33  C   UNL A   1      38.391  33.119  34.880  1.00  0.00     0.074 A 
ATOM     34  C   UNL A   1      38.008  31.858  32.792  1.00  0.00     0.049 A 
ATOM     35  N   UNL A   1      39.506  32.577  35.300  1.00  0.00    -0.248 NA
ATOM     36  C   UNL A   1      37.876  34.188  35.751  1.00  0.00     0.031 C 
ATOM     37  C   UNL A   1      37.346  31.497  31.536  1.00  0.00     0.029 A 
ATOM     38  N   UNL A   1      39.089  31.015  32.852  1.00  0.00    -0.354 N 
ATOM     39  C   UNL A   1      39.835  33.250  36.470  1.00  0.00     0.074 A 
ATOM     40  C   UNL A   1      38.828  34.269  36.668  1.00  0.00     0.031 C 
ATOM     41  C   UNL A   1      38.022  30.493  30.957  1.00  0.00     0.029 A 
ATOM     42  C   UNL A   1      39.181  30.163  31.779  1.00  0.00     0.049 A 
ATOM     43  H   UNL A   1      39.735  31.019  33.594  1.00  0.00     0.167 HD
ATOM     44  C   UNL A   1      40.871  33.025  37.314  1.00  0.00     0.037 A 
ATOM     45  C   UNL A   1      40.103  29.225  31.487  1.00  0.00     0.037 A 
ATOM     46  C   UNL A   1      41.858  31.993  37.127  1.00  0.00     0.049 A 
ATOM     47  C   UNL A   1      41.245  28.996  32.436  1.00  0.00     0.074 A 
ATOM     48  C   UNL A   1      42.913  31.647  37.954  1.00  0.00     0.029 A 
ATOM     49  N   UNL A   1      41.911  31.142  36.033  1.00  0.00    -0.354 N 
ATOM     50  N   UNL A   1      41.513  29.601  33.567  1.00  0.00    -0.248 NA
ATOM     51  C   UNL A   1      42.211  27.952  32.068  1.00  0.00     0.031 C 
ATOM     52  C   UNL A   1      43.626  30.610  37.342  1.00  0.00     0.029 A 
ATOM     53  C   UNL A   1      42.992  30.283  36.154  1.00  0.00     0.049 A 
ATOM     54  H   UNL A   1      41.276  31.148  35.281  1.00  0.00     0.167 HD
ATOM     55  C   UNL A   1      42.661  28.995  34.060  1.00  0.00     0.074 A 
ATOM     56  C   UNL A   1      43.033  27.968  33.107  1.00  0.00     0.031 C 
ATOM     57  C   UNL A   1      43.346  29.265  35.198  1.00  0.00     0.037 A 
BRANCH  44  58
ATOM     58  C   UNL A   1      40.986  33.918  38.516  1.00  0.00     0.057 A 
ATOM     59  C   UNL A   1      40.326  33.627  39.718  1.00  0.00     0.134 A 
ATOM     60  C   UNL A   1      41.776  35.073  38.477  1.00  0.00     0.134 A 
ATOM     61  F   UNL A   1      39.544  32.541  39.818  1.00  0.00    -0.206 F 
ATOM     62  C   UNL A   1      40.421  34.471  40.826  1.00  0.00     0.040 A 
ATOM     63  C   UNL A   1      41.899  35.911  39.587  1.00  0.00     0.040 A 
ATOM     64  F   UNL A   1      42.440  35.407  37.361  1.00  0.00    -0.206 F 
ATOM     65  C   UNL A   1      41.214  35.614  40.764  1.00  0.00     0.006 A 
ENDBRANCH  44  58
BRANCH  45  66
ATOM     66  C   UNL A   1      39.961  28.410  30.256  1.00  0.00     0.057 A 
ATOM     67  C   UNL A   1      40.593  28.790  29.067  1.00  0.00     0.134 A 
ATOM     68  C   UNL A   1      39.206  27.232  30.239  1.00  0.00     0.134 A 
ATOM     69  F   UNL A   1      41.316  29.919  29.020  1.00  0.00    -0.206 F 
ATOM     70  C   UNL A   1      40.471  28.035  27.901  1.00  0.00     0.040 A 
ATOM     71  C   UNL A   1      39.092  26.455  29.085  1.00  0.00     0.040 A 
ATOM     72  F   UNL A   1      38.582  26.810  31.349  1.00  0.00    -0.206 F 
ATOM     73  C   UNL A   1      39.723  26.859  27.910  1.00  0.00     0.006 A 
ENDBRANCH  45  66
BRANCH  57  74
ATOM     74  C   UNL A   1      44.547  28.416  35.491  1.00  0.00     0.057 A 
ATOM     75  C   UNL A   1      44.448  27.223  36.218  1.00  0.00     0.134 A 
ATOM     76  C   UNL A   1      45.811  28.780  35.009  1.00  0.00     0.134 A 
ATOM     77  F   UNL A   1      43.268  26.828  36.720  1.00  0.00    -0.206 F 
ATOM     78  C   UNL A   1      45.569  26.432  36.473  1.00  0.00     0.040 A 
ATOM     79  C   UNL A   1      46.934  27.985  35.237  1.00  0.00     0.040 A 
ATOM     80  F   UNL A   1      45.970  29.907  34.300  1.00  0.00    -0.206 F 
ATOM     81  C   UNL A   1      46.816  26.809  35.976  1.00  0.00     0.006 A 
ENDBRANCH  57  74
ENDBRANCH  31  32
ENDBRANCH  23  26
ENDBRANCH  21  22
ENDBRANCH   1  21
TORSDOF 12
ENDMDL
MODEL 3
REMARK VINA RESULT:     -11.2      3.052      7.650
REMARK SMILES O=Cc1ccc(-c2ccc(C(=O)NCCCNC(=O)c3ccc(-c4c5nc(c(-c6c(F)cccc6F)c6ccc([nH]6)c(-c6c(F)cccc6F)c6nc(c(-c7c(F)cccc7F)c7ccc4[nH]7)C=C6)C=C5)cc3)cn2)cc1
REMARK SMILES IDX 15 1 14 2 13 3 11 4 12 5 10 7 7 8 8 9 75 10 9 11 74 12 6 13
REMARK SMILES IDX 3 14 4 15 77 16 5 17 76 18 2 19 1 20 16 21 17 22 18 23 19 25
REMARK SMILES IDX 20 26 21 27 73 28 22 29 72 30 23 31 24 32 25 33 66 34 26 35
REMARK SMILES IDX 71 36 65 37 67 38 27 39 70 40 64 41 63 42 28 44 54 45 37 46
REMARK SMILES IDX 53 47 38 48 41 49 52 50 68 51 39 52 40 53 51 55 69 56 42 57
REMARK SMILES IDX 29 58 30 59 35 60 31 61 32 62 34 63 36 64 33 65 55 66 56 67
REMARK SMILES IDX 61 68 57 69 58 70 60 71 62 72 59 73 43 74 44 75 49 76 45 77
REMARK SMILES IDX 46 78 48 79 50 80 47 81
REMARK H PARENT 13 6 17 24 67 43 41 54
REMARK Flexibility Score: inf
ROOT
ATOM      1  C   UNL A   1      37.754  19.372  24.998  1.00  0.00     0.042 C 
ENDROOT
BRANCH   1   2
ATOM      2  C   UNL A   1      36.571  20.297  24.712  1.00  0.00     0.118 C 
BRANCH   2   3
ATOM      3  N   UNL A   1      35.308  19.624  24.954  1.00  0.00    -0.352 N 
ATOM      4  C   UNL A   1      34.038  20.086  25.182  1.00  0.00     0.252 C 
ATOM      5  O   UNL A   1      33.143  19.249  25.291  1.00  0.00    -0.269 OA
ATOM      6  H   UNL A   1      35.377  18.642  24.953  1.00  0.00     0.163 HD
BRANCH   4   7
ATOM      7  C   UNL A   1      33.686  21.523  25.272  1.00  0.00     0.058 A 
ATOM      8  C   UNL A   1      33.152  24.205  25.723  1.00  0.00     0.070 A 
ATOM      9  C   UNL A   1      32.854  23.647  24.483  1.00  0.00     0.030 A 
ATOM     10  N   UNL A   1      33.724  23.488  26.716  1.00  0.00    -0.255 NA
ATOM     11  C   UNL A   1      33.147  22.301  24.252  1.00  0.00     0.018 A 
ATOM     12  C   UNL A   1      33.970  22.173  26.472  1.00  0.00     0.125 A 
BRANCH   8  13
ATOM     13  C   UNL A   1      32.907  25.621  26.003  1.00  0.00     0.000 A 
ATOM     14  C   UNL A   1      32.445  28.316  26.649  1.00  0.00     0.014 A 
ATOM     15  C   UNL A   1      31.404  27.392  26.747  1.00  0.00     0.012 A 
ATOM     16  C   UNL A   1      33.710  27.912  26.213  1.00  0.00     0.012 A 
ATOM     17  C   UNL A   1      31.637  26.053  26.417  1.00  0.00     0.011 A 
ATOM     18  C   UNL A   1      33.938  26.570  25.896  1.00  0.00     0.011 A 
BRANCH  14  19
ATOM     19  C   UNL A   1      32.202  29.724  27.017  1.00  0.00     0.260 C 
ATOM     20  O   UNL A   1      33.100  30.556  27.044  1.00  0.00    -0.298 OA
ENDBRANCH  14  19
ENDBRANCH   8  13
ENDBRANCH   4   7
ENDBRANCH   2   3
ENDBRANCH   1   2
BRANCH   1  21
ATOM     21  C   UNL A   1      38.895  20.057  25.748  1.00  0.00     0.118 C 
BRANCH  21  22
ATOM     22  N   UNL A   1      40.074  19.209  25.839  1.00  0.00    -0.352 N 
ATOM     23  C   UNL A   1      41.381  19.534  26.105  1.00  0.00     0.251 C 
ATOM     24  H   UNL A   1      39.909  18.251  25.685  1.00  0.00     0.163 HD
ATOM     25  O   UNL A   1      42.260  18.702  25.911  1.00  0.00    -0.269 OA
BRANCH  23  26
ATOM     26  C   UNL A   1      41.741  20.875  26.616  1.00  0.00     0.039 A 
ATOM     27  C   UNL A   1      41.642  21.118  27.989  1.00  0.00     0.014 A 
ATOM     28  C   UNL A   1      42.111  21.909  25.750  1.00  0.00     0.014 A 
ATOM     29  C   UNL A   1      41.960  22.380  28.500  1.00  0.00     0.010 A 
ATOM     30  C   UNL A   1      42.489  23.147  26.266  1.00  0.00     0.010 A 
ATOM     31  C   UNL A   1      42.410  23.397  27.644  1.00  0.00    -0.014 A 
BRANCH  31  32
ATOM     32  C   UNL A   1      42.793  24.730  28.170  1.00  0.00     0.031 A 
ATOM     33  C   UNL A   1      41.748  25.786  28.394  1.00  0.00     0.074 A 
ATOM     34  C   UNL A   1      44.092  25.010  28.387  1.00  0.00     0.049 A 
ATOM     35  N   UNL A   1      41.895  27.030  28.775  1.00  0.00    -0.248 NA
ATOM     36  C   UNL A   1      40.352  25.399  28.130  1.00  0.00     0.031 C 
ATOM     37  C   UNL A   1      45.204  24.083  28.171  1.00  0.00     0.029 A 
ATOM     38  N   UNL A   1      44.697  26.161  28.826  1.00  0.00    -0.354 N 
ATOM     39  C   UNL A   1      40.619  27.578  28.777  1.00  0.00     0.074 A 
ATOM     40  C   UNL A   1      39.716  26.546  28.317  1.00  0.00     0.031 C 
ATOM     41  C   UNL A   1      46.354  24.694  28.499  1.00  0.00     0.029 A 
ATOM     42  C   UNL A   1      46.064  26.063  28.912  1.00  0.00     0.049 A 
ATOM     43  H   UNL A   1      44.199  26.977  29.057  1.00  0.00     0.167 HD
ATOM     44  C   UNL A   1      40.232  28.823  29.149  1.00  0.00     0.037 A 
ATOM     45  C   UNL A   1      46.982  26.978  29.279  1.00  0.00     0.037 A 
ATOM     46  C   UNL A   1      41.130  29.839  29.630  1.00  0.00     0.049 A 
ATOM     47  C   UNL A   1      46.529  28.352  29.684  1.00  0.00     0.074 A 
ATOM     48  C   UNL A   1      40.830  31.112  30.086  1.00  0.00     0.029 A 
ATOM     49  N   UNL A   1      42.508  29.698  29.715  1.00  0.00    -0.354 N 
ATOM     50  N   UNL A   1      45.314  28.840  29.735  1.00  0.00    -0.248 NA
ATOM     51  C   UNL A   1      47.577  29.302  30.083  1.00  0.00     0.031 C 
ATOM     52  C   UNL A   1      42.030  31.753  30.413  1.00  0.00     0.029 A 
ATOM     53  C   UNL A   1      43.073  30.867  30.199  1.00  0.00     0.049 A 
ATOM     54  H   UNL A   1      43.009  28.888  29.469  1.00  0.00     0.167 HD
ATOM     55  C   UNL A   1      45.446  30.142  30.198  1.00  0.00     0.074 A 
ATOM     56  C   UNL A   1      46.861  30.366  30.420  1.00  0.00     0.031 C 
ATOM     57  C   UNL A   1      44.483  31.070  30.418  1.00  0.00     0.037 A 
BRANCH  44  58
ATOM     58  C   UNL A   1      38.770  29.148  29.045  1.00  0.00     0.057 A 
ATOM     59  C   UNL A   1      37.912  29.053  30.150  1.00  0.00     0.134 A 
ATOM     60  C   UNL A   1      38.215  29.575  27.832  1.00  0.00     0.134 A 
ATOM     61  F   UNL A   1      38.377  28.639  31.338  1.00  0.00    -0.206 F 
ATOM     62  C   UNL A   1      36.549  29.338  30.043  1.00  0.00     0.040 A 
ATOM     63  C   UNL A   1      36.859  29.888  27.720  1.00  0.00     0.040 A 
ATOM     64  F   UNL A   1      38.981  29.694  26.737  1.00  0.00    -0.206 F 
ATOM     65  C   UNL A   1      36.021  29.762  28.826  1.00  0.00     0.006 A 
ENDBRANCH  44  58
BRANCH  45  66
ATOM     66  C   UNL A   1      48.418  26.609  29.311  1.00  0.00     0.057 A 
ATOM     67  C   UNL A   1      48.973  25.984  30.433  1.00  0.00     0.134 A 
ATOM     68  C   UNL A   1      49.264  26.856  28.223  1.00  0.00     0.134 A 
ATOM     69  F   UNL A   1      48.215  25.738  31.510  1.00  0.00    -0.206 F 
ATOM     70  C   UNL A   1      50.321  25.629  30.478  1.00  0.00     0.040 A 
ATOM     71  C   UNL A   1      50.610  26.487  28.247  1.00  0.00     0.040 A 
ATOM     72  F   UNL A   1      48.789  27.444  27.115  1.00  0.00    -0.206 F 
ATOM     73  C   UNL A   1      51.143  25.875  29.380  1.00  0.00     0.006 A 
ENDBRANCH  45  66
BRANCH  57  74
ATOM     74  C   UNL A   1      44.924  32.399  30.955  1.00  0.00     0.057 A 
ATOM     75  C   UNL A   1      45.073  32.628  32.329  1.00  0.00     0.134 A 
ATOM     76  C   UNL A   1      45.237  33.451  30.085  1.00  0.00     0.134 A 
ATOM     77  F   UNL A   1      44.774  31.665  33.214  1.00  0.00    -0.206 F 
ATOM     78  C   UNL A   1      45.498  33.863  32.819  1.00  0.00     0.040 A 
ATOM     79  C   UNL A   1      45.686  34.683  30.562  1.00  0.00     0.040 A 
ATOM     80  F   UNL A   1      45.122  33.294  28.758  1.00  0.00    -0.206 F 
ATOM     81  C   UNL A   1      45.813  34.893  31.934  1.00  0.00     0.006 A 
ENDBRANCH  57  74
ENDBRANCH  31  32
ENDBRANCH  23  26
ENDBRANCH  21  22
ENDBRANCH   1  21
TORSDOF 12
ENDMDL
