MODEL 1
REMARK VINA RESULT:     -12.6      0.000      0.000
REMARK SMILES CCc1ccc2c(CC(=O)NCCCNC(=O)c3ccc(-c4c5nc(c(-c6c(F)cccc6F)c6ccc([nH]6)c(-c6c(F)cccc6F)c6nc(c(-c7c(F)cccc7F)c7ccc4[nH]7)C=C6)C=C5)cc3)c(C(=O)c3cc(C)ccn3)[nH]c2c1
REMARK SMILES IDX 12 1 11 2 9 3 10 4 8 6 7 7 3 8 4 9 84 10 5 11 83 12 6 13
REMARK SMILES IDX 82 14 72 15 2 17 1 18 73 19 74 20 75 21 76 22 81 23 77 24
REMARK SMILES IDX 80 25 78 26 79 27 13 28 14 29 15 30 16 31 17 33 18 34 19 35
REMARK SMILES IDX 71 36 20 37 70 38 21 39 22 40 23 41 64 42 24 43 69 44 63 45
REMARK SMILES IDX 65 46 25 47 68 48 62 49 61 50 26 52 52 53 35 54 51 55 36 56
REMARK SMILES IDX 39 57 50 58 66 59 37 60 38 61 49 63 67 64 40 65 27 66 28 67
REMARK SMILES IDX 33 68 29 69 30 70 32 71 34 72 31 73 53 74 54 75 59 76 55 77
REMARK SMILES IDX 56 78 58 79 60 80 57 81 41 82 42 83 47 84 43 85 44 86 46 87
REMARK SMILES IDX 48 88 45 89
REMARK H PARENT 11 5 82 16 15 32 65 51 39 62
REMARK Flexibility Score: inf
ROOT
ATOM      1  C   UNL A   1      32.510  27.344  26.494  1.00  0.00     0.117 C 
ENDROOT
BRANCH   1   2
ATOM      2  N   UNL A   1      31.654  26.217  26.801  1.00  0.00    -0.356 N 
ATOM      3  C   UNL A   1      31.864  24.882  26.606  1.00  0.00     0.224 C 
ATOM      4  O   UNL A   1      31.078  24.112  27.163  1.00  0.00    -0.275 OA
ATOM      5  H   UNL A   1      30.790  26.448  27.211  1.00  0.00     0.163 HD
BRANCH   3   6
ATOM      6  C   UNL A   1      33.085  24.370  25.848  1.00  0.00     0.138 C 
BRANCH   6   7
ATOM      7  C   UNL A   1      32.786  23.707  24.528  1.00  0.00    -0.002 A 
ATOM      8  C   UNL A   1      32.340  19.690  23.251  1.00  0.00    -0.046 A 
ATOM      9  C   UNL A   1      32.518  19.885  24.626  1.00  0.00     0.004 A 
ATOM     10  C   UNL A   1      32.277  20.807  22.403  1.00  0.00     0.030 A 
ATOM     11  C   UNL A   1      32.667  21.167  25.171  1.00  0.00     0.011 A 
ATOM     12  C   UNL A   1      32.432  22.083  22.966  1.00  0.00     0.046 A 
ATOM     13  C   UNL A   1      32.635  22.293  24.325  1.00  0.00     0.004 A 
ATOM     14  N   UNL A   1      32.423  23.320  22.368  1.00  0.00    -0.352 N 
ATOM     15  C   UNL A   1      32.544  24.328  23.301  1.00  0.00     0.093 A 
ATOM     16  H   UNL A   1      32.341  23.467  21.398  1.00  0.00     0.167 HD
BRANCH   8  17
ATOM     17  C   UNL A   1      32.152  18.275  22.746  1.00  0.00     0.032 C 
ATOM     18  C   UNL A   1      33.263  17.292  23.094  1.00  0.00     0.009 C 
ENDBRANCH   8  17
BRANCH  15  19
ATOM     19  C   UNL A   1      32.444  25.756  23.009  1.00  0.00     0.227 C 
ATOM     20  O   UNL A   1      33.408  26.451  22.692  1.00  0.00    -0.285 OA
BRANCH  19  21
ATOM     21  C   UNL A   1      31.130  26.434  23.164  1.00  0.00     0.113 A 
ATOM     22  C   UNL A   1      30.945  27.707  22.631  1.00  0.00     0.036 A 
ATOM     23  N   UNL A   1      30.170  25.740  23.824  1.00  0.00    -0.253 NA
ATOM     24  C   UNL A   1      29.696  28.313  22.786  1.00  0.00    -0.047 A 
ATOM     25  C   UNL A   1      28.963  26.331  23.922  1.00  0.00     0.112 A 
ATOM     26  C   UNL A   1      29.423  29.684  22.244  1.00  0.00     0.044 C 
ATOM     27  C   UNL A   1      28.683  27.599  23.431  1.00  0.00     0.023 A 
ENDBRANCH  19  21
ENDBRANCH  15  19
ENDBRANCH   6   7
ENDBRANCH   3   6
ENDBRANCH   1   2
BRANCH   1  28
ATOM     28  C   UNL A   1      31.734  28.613  26.154  1.00  0.00     0.042 C 
BRANCH  28  29
ATOM     29  C   UNL A   1      32.564  29.718  25.502  1.00  0.00     0.118 C 
BRANCH  29  30
ATOM     30  N   UNL A   1      32.241  31.045  26.004  1.00  0.00    -0.352 N 
ATOM     31  C   UNL A   1      32.820  31.809  26.984  1.00  0.00     0.251 C 
ATOM     32  H   UNL A   1      31.470  31.469  25.562  1.00  0.00     0.163 HD
ATOM     33  O   UNL A   1      32.264  32.851  27.326  1.00  0.00    -0.269 OA
BRANCH  31  34
ATOM     34  C   UNL A   1      34.081  31.409  27.652  1.00  0.00     0.039 A 
ATOM     35  C   UNL A   1      35.031  32.405  27.910  1.00  0.00     0.014 A 
ATOM     36  C   UNL A   1      34.379  30.080  27.963  1.00  0.00     0.014 A 
ATOM     37  C   UNL A   1      36.245  32.079  28.517  1.00  0.00     0.010 A 
ATOM     38  C   UNL A   1      35.568  29.762  28.626  1.00  0.00     0.010 A 
ATOM     39  C   UNL A   1      36.514  30.758  28.907  1.00  0.00    -0.014 A 
BRANCH  39  40
ATOM     40  C   UNL A   1      37.774  30.427  29.621  1.00  0.00     0.031 A 
ATOM     41  C   UNL A   1      38.011  30.890  31.031  1.00  0.00     0.074 A 
ATOM     42  C   UNL A   1      38.726  29.721  28.979  1.00  0.00     0.049 A 
ATOM     43  N   UNL A   1      39.046  30.678  31.805  1.00  0.00    -0.248 NA
ATOM     44  C   UNL A   1      36.959  31.714  31.645  1.00  0.00     0.031 C 
ATOM     45  C   UNL A   1      38.644  29.258  27.593  1.00  0.00     0.029 A 
ATOM     46  N   UNL A   1      39.947  29.268  29.410  1.00  0.00    -0.354 N 
ATOM     47  C   UNL A   1      38.776  31.351  32.991  1.00  0.00     0.074 A 
ATOM     48  C   UNL A   1      37.499  32.011  32.819  1.00  0.00     0.031 C 
ATOM     49  C   UNL A   1      39.754  28.561  27.297  1.00  0.00     0.029 A 
ATOM     50  C   UNL A   1      40.631  28.546  28.463  1.00  0.00     0.049 A 
ATOM     51  H   UNL A   1      40.300  29.444  30.313  1.00  0.00     0.167 HD
ATOM     52  C   UNL A   1      39.514  31.398  34.126  1.00  0.00     0.037 A 
ATOM     53  C   UNL A   1      41.826  27.933  28.528  1.00  0.00     0.037 A 
ATOM     54  C   UNL A   1      40.773  30.722  34.311  1.00  0.00     0.049 A 
ATOM     55  C   UNL A   1      42.608  27.969  29.809  1.00  0.00     0.074 A 
ATOM     56  C   UNL A   1      41.567  30.668  35.444  1.00  0.00     0.029 A 
ATOM     57  N   UNL A   1      41.420  29.979  33.336  1.00  0.00    -0.354 N 
ATOM     58  N   UNL A   1      42.310  28.557  30.942  1.00  0.00    -0.248 NA
ATOM     59  C   UNL A   1      43.887  27.246  29.824  1.00  0.00     0.031 C 
ATOM     60  C   UNL A   1      42.709  29.915  35.146  1.00  0.00     0.029 A 
ATOM     61  C   UNL A   1      42.609  29.473  33.838  1.00  0.00     0.049 A 
ATOM     62  H   UNL A   1      41.085  29.833  32.422  1.00  0.00     0.167 HD
ATOM     63  C   UNL A   1      43.352  28.260  31.809  1.00  0.00     0.074 A 
ATOM     64  C   UNL A   1      44.282  27.424  31.077  1.00  0.00     0.031 C 
ATOM     65  C   UNL A   1      43.525  28.647  33.096  1.00  0.00     0.037 A 
BRANCH  52  66
ATOM     66  C   UNL A   1      38.972  32.208  35.267  1.00  0.00     0.057 A 
ATOM     67  C   UNL A   1      38.210  31.624  36.287  1.00  0.00     0.134 A 
ATOM     68  C   UNL A   1      39.243  33.579  35.366  1.00  0.00     0.134 A 
ATOM     69  F   UNL A   1      37.907  30.318  36.244  1.00  0.00    -0.206 F 
ATOM     70  C   UNL A   1      37.719  32.378  37.354  1.00  0.00     0.040 A 
ATOM     71  C   UNL A   1      38.775  34.338  36.439  1.00  0.00     0.040 A 
ATOM     72  F   UNL A   1      39.972  34.199  34.426  1.00  0.00    -0.206 F 
ATOM     73  C   UNL A   1      38.005  33.738  37.434  1.00  0.00     0.006 A 
ENDBRANCH  52  66
BRANCH  53  74
ATOM     74  C   UNL A   1      42.340  27.191  27.352  1.00  0.00     0.057 A 
ATOM     75  C   UNL A   1      43.083  27.840  26.360  1.00  0.00     0.134 A 
ATOM     76  C   UNL A   1      42.101  25.821  27.191  1.00  0.00     0.134 A 
ATOM     77  F   UNL A   1      43.327  29.156  26.453  1.00  0.00    -0.206 F 
ATOM     78  C   UNL A   1      43.558  27.158  25.240  1.00  0.00     0.040 A 
ATOM     79  C   UNL A   1      42.588  25.122  26.085  1.00  0.00     0.040 A 
ATOM     80  F   UNL A   1      41.401  25.143  28.111  1.00  0.00    -0.206 F 
ATOM     81  C   UNL A   1      43.315  25.793  25.103  1.00  0.00     0.006 A 
ENDBRANCH  53  74
BRANCH  65  82
ATOM     82  C   UNL A   1      44.757  28.151  33.793  1.00  0.00     0.057 A 
ATOM     83  C   UNL A   1      44.772  26.931  34.481  1.00  0.00     0.134 A 
ATOM     84  C   UNL A   1      45.941  28.898  33.770  1.00  0.00     0.134 A 
ATOM     85  F   UNL A   1      43.665  26.177  34.552  1.00  0.00    -0.206 F 
ATOM     86  C   UNL A   1      45.915  26.485  35.148  1.00  0.00     0.040 A 
ATOM     87  C   UNL A   1      47.096  28.452  34.413  1.00  0.00     0.040 A 
ATOM     88  F   UNL A   1      45.994  30.072  33.123  1.00  0.00    -0.206 F 
ATOM     89  C   UNL A   1      47.082  27.245  35.112  1.00  0.00     0.006 A 
ENDBRANCH  65  82
ENDBRANCH  39  40
ENDBRANCH  31  34
ENDBRANCH  29  30
ENDBRANCH  28  29
ENDBRANCH   1  28
TORSDOF 14
ENDMDL
MODEL 2
REMARK VINA RESULT:     -12.6      1.860      2.596
REMARK SMILES CCc1ccc2c(CC(=O)NCCCNC(=O)c3ccc(-c4c5nc(c(-c6c(F)cccc6F)c6ccc([nH]6)c(-c6c(F)cccc6F)c6nc(c(-c7c(F)cccc7F)c7ccc4[nH]7)C=C6)C=C5)cc3)c(C(=O)c3cc(C)ccn3)[nH]c2c1
REMARK SMILES IDX 12 1 11 2 9 3 10 4 8 6 7 7 3 8 4 9 84 10 5 11 83 12 6 13
REMARK SMILES IDX 82 14 72 15 2 17 1 18 73 19 74 20 75 21 76 22 81 23 77 24
REMARK SMILES IDX 80 25 78 26 79 27 13 28 14 29 15 30 16 31 17 33 18 34 19 35
REMARK SMILES IDX 71 36 20 37 70 38 21 39 22 40 23 41 64 42 24 43 69 44 63 45
REMARK SMILES IDX 65 46 25 47 68 48 62 49 61 50 26 52 52 53 35 54 51 55 36 56
REMARK SMILES IDX 39 57 50 58 66 59 37 60 38 61 49 63 67 64 40 65 27 66 28 67
REMARK SMILES IDX 33 68 29 69 30 70 32 71 34 72 31 73 53 74 54 75 59 76 55 77
REMARK SMILES IDX 56 78 58 79 60 80 57 81 41 82 42 83 47 84 43 85 44 86 46 87
REMARK SMILES IDX 48 88 45 89
REMARK H PARENT 11 5 82 16 15 32 65 51 39 62
REMARK Flexibility Score: inf
ROOT
ATOM      1  C   UNL A   1      31.887  27.469  26.108  1.00  0.00     0.117 C 
ENDROOT
BRANCH   1   2
ATOM      2  N   UNL A   1      31.401  26.210  26.633  1.00  0.00    -0.356 N 
ATOM      3  C   UNL A   1      31.915  24.952  26.501  1.00  0.00     0.224 C 
ATOM      4  O   UNL A   1      31.441  24.082  27.236  1.00  0.00    -0.275 OA
ATOM      5  H   UNL A   1      30.576  26.270  27.166  1.00  0.00     0.163 HD
BRANCH   3   6
ATOM      6  C   UNL A   1      33.102  24.668  25.587  1.00  0.00     0.138 C 
BRANCH   6   7
ATOM      7  C   UNL A   1      32.820  23.721  24.449  1.00  0.00    -0.002 A 
ATOM      8  C   UNL A   1      32.558  19.506  24.083  1.00  0.00    -0.046 A 
ATOM      9  C   UNL A   1      32.742  20.004  25.379  1.00  0.00     0.004 A 
ATOM     10  C   UNL A   1      32.430  20.408  23.015  1.00  0.00     0.030 A 
ATOM     11  C   UNL A   1      32.834  21.379  25.630  1.00  0.00     0.011 A 
ATOM     12  C   UNL A   1      32.528  21.782  23.284  1.00  0.00     0.046 A 
ATOM     13  C   UNL A   1      32.736  22.291  24.560  1.00  0.00     0.004 A 
ATOM     14  N   UNL A   1      32.451  22.857  22.432  1.00  0.00    -0.352 N 
ATOM     15  C   UNL A   1      32.534  24.049  23.122  1.00  0.00     0.093 A 
ATOM     16  H   UNL A   1      32.350  22.785  21.456  1.00  0.00     0.167 HD
BRANCH   8  17
ATOM     17  C   UNL A   1      32.433  18.008  23.901  1.00  0.00     0.032 C 
ATOM     18  C   UNL A   1      33.561  17.337  23.127  1.00  0.00     0.009 C 
ENDBRANCH   8  17
BRANCH  15  19
ATOM     19  C   UNL A   1      32.360  25.373  22.530  1.00  0.00     0.227 C 
ATOM     20  O   UNL A   1      33.192  25.899  21.793  1.00  0.00    -0.285 OA
BRANCH  19  21
ATOM     21  C   UNL A   1      31.152  26.167  22.878  1.00  0.00     0.113 A 
ATOM     22  C   UNL A   1      31.048  27.487  22.450  1.00  0.00     0.036 A 
ATOM     23  N   UNL A   1      30.201  25.526  23.602  1.00  0.00    -0.253 NA
ATOM     24  C   UNL A   1      29.897  28.202  22.786  1.00  0.00    -0.047 A 
ATOM     25  C   UNL A   1      29.083  26.227  23.877  1.00  0.00     0.112 A 
ATOM     26  C   UNL A   1      29.717  29.630  22.365  1.00  0.00     0.044 C 
ATOM     27  C   UNL A   1      28.890  27.549  23.501  1.00  0.00     0.023 A 
ENDBRANCH  19  21
ENDBRANCH  15  19
ENDBRANCH   6   7
ENDBRANCH   3   6
ENDBRANCH   1   2
BRANCH   1  28
ATOM     28  C   UNL A   1      32.932  28.130  27.001  1.00  0.00     0.042 C 
BRANCH  28  29
ATOM     29  C   UNL A   1      33.886  29.081  26.279  1.00  0.00     0.118 C 
BRANCH  29  30
ATOM     30  N   UNL A   1      33.832  30.441  26.792  1.00  0.00    -0.352 N 
ATOM     31  C   UNL A   1      34.615  31.096  27.706  1.00  0.00     0.251 C 
ATOM     32  H   UNL A   1      33.104  30.987  26.417  1.00  0.00     0.163 HD
ATOM     33  O   UNL A   1      34.272  32.214  28.086  1.00  0.00    -0.269 OA
BRANCH  31  34
ATOM     34  C   UNL A   1      35.849  30.492  28.262  1.00  0.00     0.039 A 
ATOM     35  C   UNL A   1      37.042  30.666  27.551  1.00  0.00     0.014 A 
ATOM     36  C   UNL A   1      35.847  29.705  29.417  1.00  0.00     0.014 A 
ATOM     37  C   UNL A   1      38.230  30.099  28.018  1.00  0.00     0.010 A 
ATOM     38  C   UNL A   1      37.046  29.188  29.918  1.00  0.00     0.010 A 
ATOM     39  C   UNL A   1      38.249  29.378  29.222  1.00  0.00    -0.014 A 
BRANCH  39  40
ATOM     40  C   UNL A   1      39.526  28.840  29.757  1.00  0.00     0.031 A 
ATOM     41  C   UNL A   1      40.166  29.434  30.980  1.00  0.00     0.074 A 
ATOM     42  C   UNL A   1      40.128  27.819  29.116  1.00  0.00     0.049 A 
ATOM     43  N   UNL A   1      41.270  29.079  31.588  1.00  0.00    -0.248 NA
ATOM     44  C   UNL A   1      39.489  30.590  31.589  1.00  0.00     0.031 C 
ATOM     45  C   UNL A   1      39.641  27.188  27.888  1.00  0.00     0.029 A 
ATOM     46  N   UNL A   1      41.280  27.133  29.409  1.00  0.00    -0.354 N 
ATOM     47  C   UNL A   1      41.427  29.972  32.642  1.00  0.00     0.074 A 
ATOM     48  C   UNL A   1      40.327  30.910  32.565  1.00  0.00     0.031 C 
ATOM     49  C   UNL A   1      40.471  26.187  27.551  1.00  0.00     0.029 A 
ATOM     50  C   UNL A   1      41.557  26.121  28.523  1.00  0.00     0.049 A 
ATOM     51  H   UNL A   1      41.852  27.345  30.181  1.00  0.00     0.167 HD
ATOM     52  C   UNL A   1      42.388  29.996  33.596  1.00  0.00     0.037 A 
ATOM     53  C   UNL A   1      42.566  25.232  28.501  1.00  0.00     0.037 A 
ATOM     54  C   UNL A   1      43.470  29.050  33.692  1.00  0.00     0.049 A 
ATOM     55  C   UNL A   1      43.598  25.257  29.591  1.00  0.00     0.074 A 
ATOM     56  C   UNL A   1      44.460  28.963  34.656  1.00  0.00     0.029 A 
ATOM     57  N   UNL A   1      43.701  28.023  32.790  1.00  0.00    -0.354 N 
ATOM     58  N   UNL A   1      43.697  26.068  30.616  1.00  0.00    -0.248 NA
ATOM     59  C   UNL A   1      44.651  24.234  29.529  1.00  0.00     0.031 C 
ATOM     60  C   UNL A   1      45.308  27.900  34.321  1.00  0.00     0.029 A 
ATOM     61  C   UNL A   1      44.825  27.305  33.167  1.00  0.00     0.049 A 
ATOM     62  H   UNL A   1      43.149  27.832  31.997  1.00  0.00     0.167 HD
ATOM     63  C   UNL A   1      44.809  25.644  31.329  1.00  0.00     0.074 A 
ATOM     64  C   UNL A   1      45.341  24.492  30.631  1.00  0.00     0.031 C 
ATOM     65  C   UNL A   1      45.344  26.164  32.461  1.00  0.00     0.037 A 
BRANCH  52  66
ATOM     66  C   UNL A   1      42.308  31.085  34.626  1.00  0.00     0.057 A 
ATOM     67  C   UNL A   1      41.589  30.920  35.817  1.00  0.00     0.134 A 
ATOM     68  C   UNL A   1      42.985  32.298  34.443  1.00  0.00     0.134 A 
ATOM     69  F   UNL A   1      40.910  29.785  36.047  1.00  0.00    -0.206 F 
ATOM     70  C   UNL A   1      41.527  31.929  36.778  1.00  0.00     0.040 A 
ATOM     71  C   UNL A   1      42.948  33.306  35.407  1.00  0.00     0.040 A 
ATOM     72  F   UNL A   1      43.697  32.518  33.327  1.00  0.00    -0.206 F 
ATOM     73  C   UNL A   1      42.213  33.125  36.577  1.00  0.00     0.006 A 
ENDBRANCH  52  66
BRANCH  53  74
ATOM     74  C   UNL A   1      42.627  24.210  27.428  1.00  0.00     0.057 A 
ATOM     75  C   UNL A   1      43.237  24.491  26.201  1.00  0.00     0.134 A 
ATOM     76  C   UNL A   1      42.078  22.935  27.603  1.00  0.00     0.134 A 
ATOM     77  F   UNL A   1      43.763  25.703  25.972  1.00  0.00    -0.206 F 
ATOM     78  C   UNL A   1      43.287  23.545  25.177  1.00  0.00     0.040 A 
ATOM     79  C   UNL A   1      42.138  21.972  26.594  1.00  0.00     0.040 A 
ATOM     80  F   UNL A   1      41.486  22.604  28.759  1.00  0.00    -0.206 F 
ATOM     81  C   UNL A   1      42.740  22.279  25.375  1.00  0.00     0.006 A 
ENDBRANCH  53  74
BRANCH  65  82
ATOM     82  C   UNL A   1      46.554  25.475  33.017  1.00  0.00     0.057 A 
ATOM     83  C   UNL A   1      46.445  24.453  33.969  1.00  0.00     0.134 A 
ATOM     84  C   UNL A   1      47.840  25.832  32.592  1.00  0.00     0.134 A 
ATOM     85  F   UNL A   1      45.242  24.076  34.427  1.00  0.00    -0.206 F 
ATOM     86  C   UNL A   1      47.576  23.829  34.501  1.00  0.00     0.040 A 
ATOM     87  C   UNL A   1      48.975  25.201  33.100  1.00  0.00     0.040 A 
ATOM     88  F   UNL A   1      48.011  26.799  31.679  1.00  0.00    -0.206 F 
ATOM     89  C   UNL A   1      48.845  24.202  34.063  1.00  0.00     0.006 A 
ENDBRANCH  65  82
ENDBRANCH  39  40
ENDBRANCH  31  34
ENDBRANCH  29  30
ENDBRANCH  28  29
ENDBRANCH   1  28
TORSDOF 14
ENDMDL
MODEL 3
REMARK VINA RESULT:     -12.4      2.523      7.646
REMARK SMILES CCc1ccc2c(CC(=O)NCCCNC(=O)c3ccc(-c4c5nc(c(-c6c(F)cccc6F)c6ccc([nH]6)c(-c6c(F)cccc6F)c6nc(c(-c7c(F)cccc7F)c7ccc4[nH]7)C=C6)C=C5)cc3)c(C(=O)c3cc(C)ccn3)[nH]c2c1
REMARK SMILES IDX 12 1 11 2 9 3 10 4 8 6 7 7 3 8 4 9 84 10 5 11 83 12 6 13
REMARK SMILES IDX 82 14 72 15 2 17 1 18 73 19 74 20 75 21 76 22 81 23 77 24
REMARK SMILES IDX 80 25 78 26 79 27 13 28 14 29 15 30 16 31 17 33 18 34 19 35
REMARK SMILES IDX 71 36 20 37 70 38 21 39 22 40 23 41 64 42 24 43 69 44 63 45
REMARK SMILES IDX 65 46 25 47 68 48 62 49 61 50 26 52 52 53 35 54 51 55 36 56
REMARK SMILES IDX 39 57 50 58 66 59 37 60 38 61 49 63 67 64 40 65 27 66 28 67
REMARK SMILES IDX 33 68 29 69 30 70 32 71 34 72 31 73 53 74 54 75 59 76 55 77
REMARK SMILES IDX 56 78 58 79 60 80 57 81 41 82 42 83 47 84 43 85 44 86 46 87
REMARK SMILES IDX 48 88 45 89
REMARK H PARENT 11 5 82 16 15 32 65 51 39 62
REMARK Flexibility Score: inf
ROOT
ATOM      1  C   UNL A   1      35.416  23.734  25.336  1.00  0.00     0.117 C 
ENDROOT
BRANCH   1   2
ATOM      2  N   UNL A   1      34.922  24.107  24.027  1.00  0.00    -0.356 N 
ATOM      3  C   UNL A   1      34.089  25.127  23.667  1.00  0.00     0.224 C 
ATOM      4  O   UNL A   1      34.004  25.370  22.461  1.00  0.00    -0.275 OA
ATOM      5  H   UNL A   1      35.232  23.539  23.286  1.00  0.00     0.163 HD
BRANCH   3   6
ATOM      6  C   UNL A   1      33.404  26.003  24.711  1.00  0.00     0.138 C 
BRANCH   6   7
ATOM      7  C   UNL A   1      31.903  26.074  24.599  1.00  0.00    -0.002 A 
ATOM      8  C   UNL A   1      29.178  28.776  22.799  1.00  0.00    -0.046 A 
ATOM      9  C   UNL A   1      30.538  29.028  22.575  1.00  0.00     0.004 A 
ATOM     10  C   UNL A   1      28.805  27.650  23.549  1.00  0.00     0.030 A 
ATOM     11  C   UNL A   1      31.534  28.201  23.109  1.00  0.00     0.011 A 
ATOM     12  C   UNL A   1      29.816  26.835  24.079  1.00  0.00     0.046 A 
ATOM     13  C   UNL A   1      31.170  27.084  23.888  1.00  0.00     0.004 A 
ATOM     14  N   UNL A   1      29.724  25.698  24.845  1.00  0.00    -0.352 N 
ATOM     15  C   UNL A   1      30.970  25.164  25.100  1.00  0.00     0.093 A 
ATOM     16  H   UNL A   1      28.877  25.315  25.171  1.00  0.00     0.167 HD
BRANCH   8  17
ATOM     17  C   UNL A   1      28.163  29.698  22.157  1.00  0.00     0.032 C 
ATOM     18  C   UNL A   1      27.621  30.810  23.046  1.00  0.00     0.009 C 
ENDBRANCH   8  17
BRANCH  15  19
ATOM     19  C   UNL A   1      31.213  23.893  25.778  1.00  0.00     0.227 C 
ATOM     20  O   UNL A   1      31.120  23.747  26.995  1.00  0.00    -0.285 OA
BRANCH  19  21
ATOM     21  C   UNL A   1      31.663  22.723  24.979  1.00  0.00     0.113 A 
ATOM     22  C   UNL A   1      32.040  21.550  25.626  1.00  0.00     0.036 A 
ATOM     23  N   UNL A   1      31.665  22.881  23.632  1.00  0.00    -0.253 NA
ATOM     24  C   UNL A   1      32.449  20.466  24.845  1.00  0.00    -0.047 A 
ATOM     25  C   UNL A   1      32.025  21.806  22.902  1.00  0.00     0.112 A 
ATOM     26  C   UNL A   1      32.875  19.172  25.472  1.00  0.00     0.044 C 
ATOM     27  C   UNL A   1      32.424  20.597  23.455  1.00  0.00     0.023 A 
ENDBRANCH  19  21
ENDBRANCH  15  19
ENDBRANCH   6   7
ENDBRANCH   3   6
ENDBRANCH   1   2
BRANCH   1  28
ATOM     28  C   UNL A   1      36.876  23.288  25.322  1.00  0.00     0.042 C 
BRANCH  28  29
ATOM     29  C   UNL A   1      37.803  24.097  26.227  1.00  0.00     0.118 C 
BRANCH  29  30
ATOM     30  N   UNL A   1      39.207  23.748  26.063  1.00  0.00    -0.352 N 
ATOM     31  C   UNL A   1      40.348  24.340  26.539  1.00  0.00     0.251 C 
ATOM     32  H   UNL A   1      39.363  22.947  25.514  1.00  0.00     0.163 HD
ATOM     33  O   UNL A   1      41.436  23.934  26.134  1.00  0.00    -0.269 OA
BRANCH  31  34
ATOM     34  C   UNL A   1      40.309  25.461  27.508  1.00  0.00     0.039 A 
ATOM     35  C   UNL A   1      39.437  25.356  28.598  1.00  0.00     0.014 A 
ATOM     36  C   UNL A   1      41.050  26.632  27.332  1.00  0.00     0.014 A 
ATOM     37  C   UNL A   1      39.345  26.393  29.529  1.00  0.00     0.010 A 
ATOM     38  C   UNL A   1      41.005  27.645  28.295  1.00  0.00     0.010 A 
ATOM     39  C   UNL A   1      40.150  27.536  29.402  1.00  0.00    -0.014 A 
BRANCH  39  40
ATOM     40  C   UNL A   1      40.106  28.604  30.433  1.00  0.00     0.031 A 
ATOM     41  C   UNL A   1      39.108  29.724  30.347  1.00  0.00     0.074 A 
ATOM     42  C   UNL A   1      40.994  28.576  31.446  1.00  0.00     0.049 A 
ATOM     43  N   UNL A   1      38.923  30.729  31.166  1.00  0.00    -0.248 NA
ATOM     44  C   UNL A   1      38.214  29.729  29.178  1.00  0.00     0.031 C 
ATOM     45  C   UNL A   1      42.050  27.575  31.616  1.00  0.00     0.029 A 
ATOM     46  N   UNL A   1      41.151  29.412  32.523  1.00  0.00    -0.354 N 
ATOM     47  C   UNL A   1      37.902  31.490  30.609  1.00  0.00     0.074 A 
ATOM     48  C   UNL A   1      37.537  30.854  29.361  1.00  0.00     0.031 C 
ATOM     49  C   UNL A   1      42.723  27.838  32.749  1.00  0.00     0.029 A 
ATOM     50  C   UNL A   1      42.164  29.034  33.369  1.00  0.00     0.049 A 
ATOM     51  H   UNL A   1      40.589  30.207  32.675  1.00  0.00     0.167 HD
ATOM     52  C   UNL A   1      37.311  32.606  31.101  1.00  0.00     0.037 A 
ATOM     53  C   UNL A   1      42.589  29.583  34.521  1.00  0.00     0.037 A 
ATOM     54  C   UNL A   1      37.654  33.228  32.354  1.00  0.00     0.049 A 
ATOM     55  C   UNL A   1      41.893  30.797  35.064  1.00  0.00     0.074 A 
ATOM     56  C   UNL A   1      37.074  34.329  32.960  1.00  0.00     0.029 A 
ATOM     57  N   UNL A   1      38.669  32.800  33.195  1.00  0.00    -0.354 N 
ATOM     58  N   UNL A   1      40.888  31.469  34.556  1.00  0.00    -0.248 NA
ATOM     59  C   UNL A   1      42.382  31.323  36.346  1.00  0.00     0.031 C 
ATOM     60  C   UNL A   1      37.756  34.585  34.155  1.00  0.00     0.029 A 
ATOM     61  C   UNL A   1      38.740  33.622  34.309  1.00  0.00     0.049 A 
ATOM     62  H   UNL A   1      39.255  32.026  33.026  1.00  0.00     0.167 HD
ATOM     63  C   UNL A   1      40.612  32.483  35.463  1.00  0.00     0.074 A 
ATOM     64  C   UNL A   1      41.544  32.327  36.562  1.00  0.00     0.031 C 
ATOM     65  C   UNL A   1      39.674  33.457  35.391  1.00  0.00     0.037 A 
BRANCH  52  66
ATOM     66  C   UNL A   1      36.219  33.226  30.279  1.00  0.00     0.057 A 
ATOM     67  C   UNL A   1      36.501  34.024  29.163  1.00  0.00     0.134 A 
ATOM     68  C   UNL A   1      34.871  32.995  30.585  1.00  0.00     0.134 A 
ATOM     69  F   UNL A   1      37.771  34.292  28.825  1.00  0.00    -0.206 F 
ATOM     70  C   UNL A   1      35.483  34.588  28.394  1.00  0.00     0.040 A 
ATOM     71  C   UNL A   1      33.845  33.535  29.810  1.00  0.00     0.040 A 
ATOM     72  F   UNL A   1      34.533  32.234  31.637  1.00  0.00    -0.206 F 
ATOM     73  C   UNL A   1      34.150  34.340  28.713  1.00  0.00     0.006 A 
ENDBRANCH  52  66
BRANCH  53  74
ATOM     74  C   UNL A   1      43.709  28.960  35.267  1.00  0.00     0.057 A 
ATOM     75  C   UNL A   1      43.468  28.018  36.272  1.00  0.00     0.134 A 
ATOM     76  C   UNL A   1      45.041  29.291  34.994  1.00  0.00     0.134 A 
ATOM     77  F   UNL A   1      42.210  27.677  36.589  1.00  0.00    -0.206 F 
ATOM     78  C   UNL A   1      44.511  27.436  36.993  1.00  0.00     0.040 A 
ATOM     79  C   UNL A   1      46.096  28.701  35.693  1.00  0.00     0.040 A 
ATOM     80  F   UNL A   1      45.336  30.181  34.036  1.00  0.00    -0.206 F 
ATOM     81  C   UNL A   1      45.831  27.775  36.700  1.00  0.00     0.006 A 
ENDBRANCH  53  74
BRANCH  65  82
ATOM     82  C   UNL A   1      39.601  34.414  36.544  1.00  0.00     0.057 A 
ATOM     83  C   UNL A   1      40.250  35.655  36.510  1.00  0.00     0.134 A 
ATOM     84  C   UNL A   1      38.872  34.093  37.696  1.00  0.00     0.134 A 
ATOM     85  F   UNL A   1      40.977  36.014  35.442  1.00  0.00    -0.206 F 
ATOM     86  C   UNL A   1      40.198  36.533  37.595  1.00  0.00     0.040 A 
ATOM     87  C   UNL A   1      38.796  34.972  38.776  1.00  0.00     0.040 A 
ATOM     88  F   UNL A   1      38.224  32.922  37.788  1.00  0.00    -0.206 F 
ATOM     89  C   UNL A   1      39.467  36.192  38.731  1.00  0.00     0.006 A 
ENDBRANCH  65  82
ENDBRANCH  39  40
ENDBRANCH  31  34
ENDBRANCH  29  30
ENDBRANCH  28  29
ENDBRANCH   1  28
TORSDOF 14
ENDMDL
