MODEL 1
REMARK VINA RESULT:     -11.6      0.000      0.000
REMARK SMILES Cc1nccc(CNC(=O)N2CC[C@@H](C(=O)NCCCNC(=O)c3ccc(-c4c5nc(c(-c6c(F)cccc6F)c6ccc([nH]6)c(-c6c(F)cccc6F)c6nc(c(-c7c(F)cccc7F)c7ccc4[nH]7)C=C6)C=C5)cc3)[C@H]2C)n1
REMARK SMILES IDX 18 1 17 2 15 3 16 4 14 6 11 7 12 8 78 9 13 10 79 11 9 12
REMARK SMILES IDX 8 13 10 15 7 16 6 17 1 18 2 19 3 20 80 21 4 22 5 23 19 24
REMARK SMILES IDX 20 25 21 26 22 27 23 29 24 30 25 31 77 32 26 33 76 34 27 35
REMARK SMILES IDX 28 36 29 37 70 38 30 39 75 40 69 41 71 42 31 43 74 44 68 45
REMARK SMILES IDX 67 46 32 48 58 49 41 50 57 51 42 52 45 53 56 54 72 55 43 56
REMARK SMILES IDX 44 57 55 59 73 60 46 61 33 62 34 63 39 64 35 65 36 66 38 67
REMARK SMILES IDX 40 68 37 69 59 70 60 71 65 72 61 73 62 74 64 75 66 76 63 77
REMARK SMILES IDX 47 78 48 79 53 80 49 81 50 82 52 83 54 84 51 85
REMARK H PARENT 17 5 8 14 21 28 71 47 45 58
REMARK Flexibility Score: inf
ROOT
ATOM      1  C   UNL A   1      36.359  20.465  24.942  1.00  0.00     0.117 C 
ENDROOT
BRANCH   1   2
ATOM      2  N   UNL A   1      36.180  21.709  24.207  1.00  0.00    -0.356 N 
ATOM      3  C   UNL A   1      35.105  22.498  23.966  1.00  0.00     0.225 C 
ATOM      4  O   UNL A   1      35.313  23.505  23.280  1.00  0.00    -0.275 OA
ATOM      5  H   UNL A   1      37.012  22.047  23.804  1.00  0.00     0.163 HD
BRANCH   3   6
ATOM      6  C   UNL A   1      33.695  22.211  24.458  1.00  0.00     0.102 C 
ATOM      7  N   UNL A   1      32.115  23.658  25.524  1.00  0.00    -0.321 N 
ATOM      8  C   UNL A   1      31.475  23.126  24.332  1.00  0.00     0.122 C 
ATOM      9  C   UNL A   1      33.278  22.806  25.820  1.00  0.00     0.096 C 
ATOM     10  C   UNL A   1      32.588  22.574  23.466  1.00  0.00     0.037 C 
ATOM     11  C   UNL A   1      34.411  23.386  26.653  1.00  0.00     0.032 C 
BRANCH   7  12
ATOM     12  C   UNL A   1      31.250  24.067  26.516  1.00  0.00     0.317 C 
ATOM     13  N   UNL A   1      30.816  25.347  26.511  1.00  0.00    -0.332 N 
ATOM     14  H   UNL A   1      30.346  25.637  27.325  1.00  0.00     0.165 HD
ATOM     15  O   UNL A   1      30.784  23.298  27.356  1.00  0.00    -0.249 OA
BRANCH  13  16
ATOM     16  C   UNL A   1      30.943  26.351  25.478  1.00  0.00     0.174 C 
BRANCH  16  17
ATOM     17  C   UNL A   1      31.940  27.439  25.791  1.00  0.00     0.063 A 
ATOM     18  C   UNL A   1      31.759  31.038  26.485  1.00  0.00     0.089 C 
ATOM     19  C   UNL A   1      32.300  29.654  26.314  1.00  0.00     0.125 A 
ATOM     20  N   UNL A   1      33.592  29.447  26.620  1.00  0.00    -0.242 NA
ATOM     21  N   UNL A   1      31.449  28.694  25.905  1.00  0.00    -0.236 NA
ATOM     22  C   UNL A   1      34.044  28.186  26.488  1.00  0.00     0.115 A 
ATOM     23  C   UNL A   1      33.257  27.136  26.076  1.00  0.00     0.046 A 
ENDBRANCH  16  17
ENDBRANCH  13  16
ENDBRANCH   7  12
ENDBRANCH   3   6
ENDBRANCH   1   2
BRANCH   1  24
ATOM     24  C   UNL A   1      37.743  19.848  24.744  1.00  0.00     0.042 C 
BRANCH  24  25
ATOM     25  C   UNL A   1      38.756  20.150  25.843  1.00  0.00     0.118 C 
BRANCH  25  26
ATOM     26  N   UNL A   1      39.918  19.278  25.804  1.00  0.00    -0.352 N 
ATOM     27  C   UNL A   1      41.244  19.548  26.052  1.00  0.00     0.251 C 
ATOM     28  H   UNL A   1      39.725  18.344  25.561  1.00  0.00     0.163 HD
ATOM     29  O   UNL A   1      42.087  18.691  25.797  1.00  0.00    -0.269 OA
BRANCH  27  30
ATOM     30  C   UNL A   1      41.681  20.858  26.596  1.00  0.00     0.039 A 
ATOM     31  C   UNL A   1      42.114  21.843  25.701  1.00  0.00     0.014 A 
ATOM     32  C   UNL A   1      41.728  21.112  27.969  1.00  0.00     0.014 A 
ATOM     33  C   UNL A   1      42.534  23.090  26.176  1.00  0.00     0.010 A 
ATOM     34  C   UNL A   1      42.067  22.382  28.437  1.00  0.00     0.010 A 
ATOM     35  C   UNL A   1      42.485  23.383  27.547  1.00  0.00    -0.014 A 
BRANCH  35  36
ATOM     36  C   UNL A   1      42.898  24.713  28.071  1.00  0.00     0.031 A 
ATOM     37  C   UNL A   1      41.863  25.769  28.363  1.00  0.00     0.074 A 
ATOM     38  C   UNL A   1      44.204  24.999  28.239  1.00  0.00     0.049 A 
ATOM     39  N   UNL A   1      42.030  27.013  28.736  1.00  0.00    -0.248 NA
ATOM     40  C   UNL A   1      40.455  25.382  28.186  1.00  0.00     0.031 C 
ATOM     41  C   UNL A   1      45.314  24.087  27.960  1.00  0.00     0.029 A 
ATOM     42  N   UNL A   1      44.819  26.147  28.675  1.00  0.00    -0.354 N 
ATOM     43  C   UNL A   1      40.756  27.560  28.814  1.00  0.00     0.074 A 
ATOM     44  C   UNL A   1      39.827  26.528  28.409  1.00  0.00     0.031 C 
ATOM     45  C   UNL A   1      46.472  24.703  28.249  1.00  0.00     0.029 A 
ATOM     46  C   UNL A   1      46.191  26.063  28.698  1.00  0.00     0.049 A 
ATOM     47  H   UNL A   1      44.324  26.953  28.945  1.00  0.00     0.167 HD
ATOM     48  C   UNL A   1      40.387  28.803  29.209  1.00  0.00     0.037 A 
ATOM     49  C   UNL A   1      47.119  26.979  29.035  1.00  0.00     0.037 A 
ATOM     50  C   UNL A   1      41.300  29.821  29.656  1.00  0.00     0.049 A 
ATOM     51  C   UNL A   1      46.683  28.343  29.491  1.00  0.00     0.074 A 
ATOM     52  C   UNL A   1      41.013  31.092  30.125  1.00  0.00     0.029 A 
ATOM     53  N   UNL A   1      42.678  29.682  29.698  1.00  0.00    -0.354 N 
ATOM     54  N   UNL A   1      45.472  28.829  29.601  1.00  0.00    -0.248 NA
ATOM     55  C   UNL A   1      47.746  29.284  29.877  1.00  0.00     0.031 C 
ATOM     56  C   UNL A   1      42.220  31.729  30.429  1.00  0.00     0.029 A 
ATOM     57  C   UNL A   1      43.256  30.845  30.178  1.00  0.00     0.049 A 
ATOM     58  H   UNL A   1      43.172  28.874  29.427  1.00  0.00     0.167 HD
ATOM     59  C   UNL A   1      45.623  30.120  30.089  1.00  0.00     0.074 A 
ATOM     60  C   UNL A   1      47.042  30.339  30.267  1.00  0.00     0.031 C 
ATOM     61  C   UNL A   1      44.669  31.043  30.363  1.00  0.00     0.037 A 
BRANCH  48  62
ATOM     62  C   UNL A   1      38.922  29.126  29.191  1.00  0.00     0.057 A 
ATOM     63  C   UNL A   1      38.132  29.023  30.343  1.00  0.00     0.134 A 
ATOM     64  C   UNL A   1      38.304  29.581  28.020  1.00  0.00     0.134 A 
ATOM     65  F   UNL A   1      38.663  28.582  31.493  1.00  0.00    -0.206 F 
ATOM     66  C   UNL A   1      36.773  29.340  30.325  1.00  0.00     0.040 A 
ATOM     67  C   UNL A   1      36.951  29.923  27.996  1.00  0.00     0.040 A 
ATOM     68  F   UNL A   1      39.006  29.708  26.883  1.00  0.00    -0.206 F 
ATOM     69  C   UNL A   1      36.180  29.798  29.150  1.00  0.00     0.006 A 
ENDBRANCH  48  62
BRANCH  49  70
ATOM     70  C   UNL A   1      48.560  26.630  28.973  1.00  0.00     0.057 A 
ATOM     71  C   UNL A   1      49.194  25.995  30.048  1.00  0.00     0.134 A 
ATOM     72  C   UNL A   1      49.336  26.930  27.849  1.00  0.00     0.134 A 
ATOM     73  F   UNL A   1      48.505  25.700  31.160  1.00  0.00    -0.206 F 
ATOM     74  C   UNL A   1      50.554  25.686  30.013  1.00  0.00     0.040 A 
ATOM     75  C   UNL A   1      50.693  26.607  27.793  1.00  0.00     0.040 A 
ATOM     76  F   UNL A   1      48.784  27.530  26.785  1.00  0.00    -0.206 F 
ATOM     77  C   UNL A   1      51.307  25.990  28.881  1.00  0.00     0.006 A 
ENDBRANCH  49  70
BRANCH  61  78
ATOM     78  C   UNL A   1      45.126  32.359  30.915  1.00  0.00     0.057 A 
ATOM     79  C   UNL A   1      45.288  32.564  32.291  1.00  0.00     0.134 A 
ATOM     80  C   UNL A   1      45.446  33.419  30.058  1.00  0.00     0.134 A 
ATOM     81  F   UNL A   1      44.985  31.590  33.163  1.00  0.00    -0.206 F 
ATOM     82  C   UNL A   1      45.735  33.785  32.797  1.00  0.00     0.040 A 
ATOM     83  C   UNL A   1      45.914  34.638  30.551  1.00  0.00     0.040 A 
ATOM     84  F   UNL A   1      45.319  33.284  28.730  1.00  0.00    -0.206 F 
ATOM     85  C   UNL A   1      46.055  34.825  31.924  1.00  0.00     0.006 A 
ENDBRANCH  61  78
ENDBRANCH  35  36
ENDBRANCH  27  30
ENDBRANCH  25  26
ENDBRANCH  24  25
ENDBRANCH   1  24
TORSDOF 13
ENDMDL
MODEL 2
REMARK VINA RESULT:     -11.5      3.172      7.702
REMARK SMILES Cc1nccc(CNC(=O)N2CC[C@@H](C(=O)NCCCNC(=O)c3ccc(-c4c5nc(c(-c6c(F)cccc6F)c6ccc([nH]6)c(-c6c(F)cccc6F)c6nc(c(-c7c(F)cccc7F)c7ccc4[nH]7)C=C6)C=C5)cc3)[C@H]2C)n1
REMARK SMILES IDX 18 1 17 2 15 3 16 4 14 6 11 7 12 8 78 9 13 10 79 11 9 12
REMARK SMILES IDX 8 13 10 15 7 16 6 17 1 18 2 19 3 20 80 21 4 22 5 23 19 24
REMARK SMILES IDX 20 25 21 26 22 27 23 29 24 30 25 31 77 32 26 33 76 34 27 35
REMARK SMILES IDX 28 36 29 37 70 38 30 39 75 40 69 41 71 42 31 43 74 44 68 45
REMARK SMILES IDX 67 46 32 48 58 49 41 50 57 51 42 52 45 53 56 54 72 55 43 56
REMARK SMILES IDX 44 57 55 59 73 60 46 61 33 62 34 63 39 64 35 65 36 66 38 67
REMARK SMILES IDX 40 68 37 69 59 70 60 71 65 72 61 73 62 74 64 75 66 76 63 77
REMARK SMILES IDX 47 78 48 79 53 80 49 81 50 82 52 83 54 84 51 85
REMARK H PARENT 17 5 8 14 21 28 71 47 45 58
REMARK Flexibility Score: inf
ROOT
ATOM      1  C   UNL A   1      31.794  28.494  27.487  1.00  0.00     0.117 C 
ENDROOT
BRANCH   1   2
ATOM      2  N   UNL A   1      31.042  27.268  27.261  1.00  0.00    -0.356 N 
ATOM      3  C   UNL A   1      30.781  26.531  26.154  1.00  0.00     0.225 C 
ATOM      4  O   UNL A   1      30.084  25.524  26.324  1.00  0.00    -0.275 OA
ATOM      5  H   UNL A   1      30.642  26.899  28.080  1.00  0.00     0.163 HD
BRANCH   3   6
ATOM      6  C   UNL A   1      31.264  26.873  24.754  1.00  0.00     0.102 C 
ATOM      7  N   UNL A   1      32.027  25.438  22.996  1.00  0.00    -0.321 N 
ATOM      8  C   UNL A   1      30.916  26.212  22.468  1.00  0.00     0.122 C 
ATOM      9  C   UNL A   1      32.497  26.115  24.217  1.00  0.00     0.096 C 
ATOM     10  C   UNL A   1      30.190  26.782  23.669  1.00  0.00     0.037 C 
ATOM     11  C   UNL A   1      33.264  25.302  25.249  1.00  0.00     0.032 C 
BRANCH   7  12
ATOM     12  C   UNL A   1      32.910  24.965  22.050  1.00  0.00     0.317 C 
ATOM     13  N   UNL A   1      33.077  23.629  21.930  1.00  0.00    -0.332 N 
ATOM     14  H   UNL A   1      33.835  23.346  21.371  1.00  0.00     0.165 HD
ATOM     15  O   UNL A   1      33.487  25.698  21.248  1.00  0.00    -0.249 OA
BRANCH  13  16
ATOM     16  C   UNL A   1      32.299  22.555  22.508  1.00  0.00     0.174 C 
BRANCH  16  17
ATOM     17  C   UNL A   1      33.016  21.781  23.587  1.00  0.00     0.063 A 
ATOM     18  C   UNL A   1      36.204  22.113  25.373  1.00  0.00     0.089 C 
ATOM     19  C   UNL A   1      34.851  21.617  24.968  1.00  0.00     0.125 A 
ATOM     20  N   UNL A   1      34.300  20.639  25.706  1.00  0.00    -0.242 NA
ATOM     21  N   UNL A   1      34.254  22.212  23.919  1.00  0.00    -0.236 NA
ATOM     22  C   UNL A   1      33.070  20.234  25.340  1.00  0.00     0.115 A 
ATOM     23  C   UNL A   1      32.376  20.775  24.283  1.00  0.00     0.046 A 
ENDBRANCH  16  17
ENDBRANCH  13  16
ENDBRANCH   7  12
ENDBRANCH   3   6
ENDBRANCH   1   2
BRANCH   1  24
ATOM     24  C   UNL A   1      33.295  28.325  27.258  1.00  0.00     0.042 C 
BRANCH  24  25
ATOM     25  C   UNL A   1      33.956  29.416  26.422  1.00  0.00     0.118 C 
BRANCH  25  26
ATOM     26  N   UNL A   1      33.858  30.735  27.024  1.00  0.00    -0.352 N 
ATOM     27  C   UNL A   1      34.624  31.329  28.000  1.00  0.00     0.251 C 
ATOM     28  H   UNL A   1      33.126  31.294  26.677  1.00  0.00     0.163 HD
ATOM     29  O   UNL A   1      34.259  32.399  28.480  1.00  0.00    -0.269 OA
BRANCH  27  30
ATOM     30  C   UNL A   1      35.867  30.693  28.504  1.00  0.00     0.039 A 
ATOM     31  C   UNL A   1      37.084  31.035  27.903  1.00  0.00     0.014 A 
ATOM     32  C   UNL A   1      35.850  29.725  29.511  1.00  0.00     0.014 A 
ATOM     33  C   UNL A   1      38.277  30.456  28.350  1.00  0.00     0.010 A 
ATOM     34  C   UNL A   1      37.046  29.210  30.012  1.00  0.00     0.010 A 
ATOM     35  C   UNL A   1      38.273  29.561  29.430  1.00  0.00    -0.014 A 
BRANCH  35  36
ATOM     36  C   UNL A   1      39.534  28.957  29.941  1.00  0.00     0.031 A 
ATOM     37  C   UNL A   1      40.205  29.522  31.166  1.00  0.00     0.074 A 
ATOM     38  C   UNL A   1      40.110  27.934  29.280  1.00  0.00     0.049 A 
ATOM     39  N   UNL A   1      41.350  29.193  31.710  1.00  0.00    -0.248 NA
ATOM     40  C   UNL A   1      39.507  30.619  31.855  1.00  0.00     0.031 C 
ATOM     41  C   UNL A   1      39.592  27.313  28.059  1.00  0.00     0.029 A 
ATOM     42  N   UNL A   1      41.268  27.242  29.538  1.00  0.00    -0.354 N 
ATOM     43  C   UNL A   1      41.519  30.055  32.785  1.00  0.00     0.074 A 
ATOM     44  C   UNL A   1      40.383  30.950  32.794  1.00  0.00     0.031 C 
ATOM     45  C   UNL A   1      40.418  26.322  27.686  1.00  0.00     0.029 A 
ATOM     46  C   UNL A   1      41.541  26.259  28.617  1.00  0.00     0.049 A 
ATOM     47  H   UNL A   1      41.848  27.432  30.310  1.00  0.00     0.167 HD
ATOM     48  C   UNL A   1      42.519  30.088  33.700  1.00  0.00     0.037 A 
ATOM     49  C   UNL A   1      42.581  25.408  28.526  1.00  0.00     0.037 A 
ATOM     50  C   UNL A   1      43.630  29.174  33.726  1.00  0.00     0.049 A 
ATOM     51  C   UNL A   1      43.666  25.450  29.564  1.00  0.00     0.074 A 
ATOM     52  C   UNL A   1      44.664  29.098  34.644  1.00  0.00     0.029 A 
ATOM     53  N   UNL A   1      43.848  28.171  32.795  1.00  0.00    -0.354 N 
ATOM     54  N   UNL A   1      43.789  26.243  30.599  1.00  0.00    -0.248 NA
ATOM     55  C   UNL A   1      44.755  24.470  29.425  1.00  0.00     0.031 C 
ATOM     56  C   UNL A   1      45.520  28.062  34.255  1.00  0.00     0.029 A 
ATOM     57  C   UNL A   1      45.002  27.475  33.112  1.00  0.00     0.049 A 
ATOM     58  H   UNL A   1      43.268  27.982  32.022  1.00  0.00     0.167 HD
ATOM     59  C   UNL A   1      44.951  25.846  31.247  1.00  0.00     0.074 A 
ATOM     60  C   UNL A   1      45.492  24.733  30.496  1.00  0.00     0.031 C 
ATOM     61  C   UNL A   1      45.521  26.361  32.364  1.00  0.00     0.037 A 
BRANCH  48  62
ATOM     62  C   UNL A   1      42.448  31.143  34.764  1.00  0.00     0.057 A 
ATOM     63  C   UNL A   1      41.828  30.903  35.997  1.00  0.00     0.134 A 
ATOM     64  C   UNL A   1      43.037  32.398  34.568  1.00  0.00     0.134 A 
ATOM     65  F   UNL A   1      41.235  29.725  36.240  1.00  0.00    -0.206 F 
ATOM     66  C   UNL A   1      41.778  31.881  36.990  1.00  0.00     0.040 A 
ATOM     67  C   UNL A   1      43.013  33.377  35.563  1.00  0.00     0.040 A 
ATOM     68  F   UNL A   1      43.651  32.690  33.412  1.00  0.00    -0.206 F 
ATOM     69  C   UNL A   1      42.377  33.121  36.777  1.00  0.00     0.006 A 
ENDBRANCH  48  62
BRANCH  49  70
ATOM     70  C   UNL A   1      42.638  24.426  27.415  1.00  0.00     0.057 A 
ATOM     71  C   UNL A   1      43.202  24.767  26.180  1.00  0.00     0.134 A 
ATOM     72  C   UNL A   1      42.123  23.133  27.556  1.00  0.00     0.134 A 
ATOM     73  F   UNL A   1      43.694  25.998  25.980  1.00  0.00    -0.206 F 
ATOM     74  C   UNL A   1      43.238  23.862  25.119  1.00  0.00     0.040 A 
ATOM     75  C   UNL A   1      42.171  22.210  26.509  1.00  0.00     0.040 A 
ATOM     76  F   UNL A   1      41.576  22.744  28.717  1.00  0.00    -0.206 F 
ATOM     77  C   UNL A   1      42.724  22.577  25.284  1.00  0.00     0.006 A 
ENDBRANCH  49  70
BRANCH  61  78
ATOM     78  C   UNL A   1      46.773  25.704  32.859  1.00  0.00     0.057 A 
ATOM     79  C   UNL A   1      48.039  26.091  32.401  1.00  0.00     0.134 A 
ATOM     80  C   UNL A   1      46.714  24.701  33.834  1.00  0.00     0.134 A 
ATOM     81  F   UNL A   1      48.159  27.039  31.458  1.00  0.00    -0.206 F 
ATOM     82  C   UNL A   1      49.202  25.490  32.883  1.00  0.00     0.040 A 
ATOM     83  C   UNL A   1      47.871  24.106  34.339  1.00  0.00     0.040 A 
ATOM     84  F   UNL A   1      45.533  24.290  34.318  1.00  0.00    -0.206 F 
ATOM     85  C   UNL A   1      49.120  24.498  33.860  1.00  0.00     0.006 A 
ENDBRANCH  61  78
ENDBRANCH  35  36
ENDBRANCH  27  30
ENDBRANCH  25  26
ENDBRANCH  24  25
ENDBRANCH   1  24
TORSDOF 13
ENDMDL
MODEL 3
REMARK VINA RESULT:     -11.4      5.043      9.714
REMARK SMILES Cc1nccc(CNC(=O)N2CC[C@@H](C(=O)NCCCNC(=O)c3ccc(-c4c5nc(c(-c6c(F)cccc6F)c6ccc([nH]6)c(-c6c(F)cccc6F)c6nc(c(-c7c(F)cccc7F)c7ccc4[nH]7)C=C6)C=C5)cc3)[C@H]2C)n1
REMARK SMILES IDX 18 1 17 2 15 3 16 4 14 6 11 7 12 8 78 9 13 10 79 11 9 12
REMARK SMILES IDX 8 13 10 15 7 16 6 17 1 18 2 19 3 20 80 21 4 22 5 23 19 24
REMARK SMILES IDX 20 25 21 26 22 27 23 29 24 30 25 31 77 32 26 33 76 34 27 35
REMARK SMILES IDX 28 36 29 37 70 38 30 39 75 40 69 41 71 42 31 43 74 44 68 45
REMARK SMILES IDX 67 46 32 48 58 49 41 50 57 51 42 52 45 53 56 54 72 55 43 56
REMARK SMILES IDX 44 57 55 59 73 60 46 61 33 62 34 63 39 64 35 65 36 66 38 67
REMARK SMILES IDX 40 68 37 69 59 70 60 71 65 72 61 73 62 74 64 75 66 76 63 77
REMARK SMILES IDX 47 78 48 79 53 80 49 81 50 82 52 83 54 84 51 85
REMARK H PARENT 17 5 8 14 21 28 71 47 45 58
REMARK Flexibility Score: inf
ROOT
ATOM      1  C   UNL A   1      31.534  30.790  26.091  1.00  0.00     0.117 C 
ENDROOT
BRANCH   1   2
ATOM      2  N   UNL A   1      32.572  30.027  26.770  1.00  0.00    -0.356 N 
ATOM      3  C   UNL A   1      33.372  29.003  26.386  1.00  0.00     0.225 C 
ATOM      4  O   UNL A   1      34.159  28.578  27.240  1.00  0.00    -0.275 OA
ATOM      5  H   UNL A   1      32.725  30.317  27.698  1.00  0.00     0.163 HD
BRANCH   3   6
ATOM      6  C   UNL A   1      33.344  28.352  25.012  1.00  0.00     0.102 C 
ATOM      7  N   UNL A   1      31.563  28.199  23.420  1.00  0.00    -0.321 N 
ATOM      8  C   UNL A   1      32.685  28.839  22.751  1.00  0.00     0.122 C 
ATOM      9  C   UNL A   1      32.085  27.544  24.630  1.00  0.00     0.096 C 
ATOM     10  C   UNL A   1      33.620  29.305  23.848  1.00  0.00     0.037 C 
ATOM     11  C   UNL A   1      31.123  27.255  25.773  1.00  0.00     0.032 C 
BRANCH   7  12
ATOM     12  C   UNL A   1      30.673  27.562  22.583  1.00  0.00     0.317 C 
ATOM     13  N   UNL A   1      29.354  27.827  22.718  1.00  0.00    -0.332 N 
ATOM     14  H   UNL A   1      28.750  27.228  22.224  1.00  0.00     0.165 HD
ATOM     15  O   UNL A   1      31.028  26.831  21.659  1.00  0.00    -0.249 OA
BRANCH  13  16
ATOM     16  C   UNL A   1      28.704  28.867  23.484  1.00  0.00     0.174 C 
BRANCH  16  17
ATOM     17  C   UNL A   1      28.474  30.148  22.721  1.00  0.00     0.063 A 
ATOM     18  C   UNL A   1      29.153  33.706  23.310  1.00  0.00     0.089 C 
ATOM     19  C   UNL A   1      28.740  32.435  22.638  1.00  0.00     0.125 A 
ATOM     20  N   UNL A   1      28.363  32.504  21.350  1.00  0.00    -0.242 NA
ATOM     21  N   UNL A   1      28.814  31.296  23.351  1.00  0.00    -0.236 NA
ATOM     22  C   UNL A   1      28.028  31.342  20.761  1.00  0.00     0.115 A 
ATOM     23  C   UNL A   1      28.067  30.126  21.402  1.00  0.00     0.046 A 
ENDBRANCH  16  17
ENDBRANCH  13  16
ENDBRANCH   7  12
ENDBRANCH   3   6
ENDBRANCH   1   2
BRANCH   1  24
ATOM     24  C   UNL A   1      31.376  32.205  26.643  1.00  0.00     0.042 C 
BRANCH  24  25
ATOM     25  C   UNL A   1      32.672  32.894  27.059  1.00  0.00     0.118 C 
BRANCH  25  26
ATOM     26  N   UNL A   1      32.460  34.215  27.626  1.00  0.00    -0.352 N 
ATOM     27  C   UNL A   1      33.069  34.837  28.691  1.00  0.00     0.251 C 
ATOM     28  H   UNL A   1      31.770  34.753  27.175  1.00  0.00     0.163 HD
ATOM     29  O   UNL A   1      32.616  35.901  29.103  1.00  0.00    -0.269 OA
BRANCH  27  30
ATOM     30  C   UNL A   1      34.246  34.237  29.369  1.00  0.00     0.039 A 
ATOM     31  C   UNL A   1      34.028  33.389  30.461  1.00  0.00     0.014 A 
ATOM     32  C   UNL A   1      35.555  34.541  28.990  1.00  0.00     0.014 A 
ATOM     33  C   UNL A   1      35.112  32.805  31.126  1.00  0.00     0.010 A 
ATOM     34  C   UNL A   1      36.631  33.895  29.598  1.00  0.00     0.010 A 
ATOM     35  C   UNL A   1      36.424  33.028  30.682  1.00  0.00    -0.014 A 
BRANCH  35  36
ATOM     36  C   UNL A   1      37.589  32.394  31.356  1.00  0.00     0.031 A 
ATOM     37  C   UNL A   1      38.309  31.242  30.704  1.00  0.00     0.074 A 
ATOM     38  C   UNL A   1      37.974  32.812  32.577  1.00  0.00     0.049 A 
ATOM     39  N   UNL A   1      39.283  30.501  31.170  1.00  0.00    -0.248 NA
ATOM     40  C   UNL A   1      37.855  30.855  29.358  1.00  0.00     0.031 C 
ATOM     41  C   UNL A   1      37.345  33.889  33.343  1.00  0.00     0.029 A 
ATOM     42  N   UNL A   1      38.985  32.370  33.395  1.00  0.00    -0.354 N 
ATOM     43  C   UNL A   1      39.540  29.552  30.190  1.00  0.00     0.074 A 
ATOM     44  C   UNL A   1      38.593  29.780  29.121  1.00  0.00     0.031 C 
ATOM     45  C   UNL A   1      37.995  34.036  34.509  1.00  0.00     0.029 A 
ATOM     46  C   UNL A   1      39.061  33.043  34.591  1.00  0.00     0.049 A 
ATOM     47  H   UNL A   1      39.597  31.640  33.149  1.00  0.00     0.167 HD
ATOM     48  C   UNL A   1      40.493  28.588  30.169  1.00  0.00     0.037 A 
ATOM     49  C   UNL A   1      39.890  32.877  35.639  1.00  0.00     0.037 A 
ATOM     50  C   UNL A   1      41.468  28.383  31.207  1.00  0.00     0.049 A 
ATOM     51  C   UNL A   1      40.953  31.815  35.582  1.00  0.00     0.074 A 
ATOM     52  C   UNL A   1      42.505  27.466  31.249  1.00  0.00     0.029 A 
ATOM     53  N   UNL A   1      41.532  29.111  32.384  1.00  0.00    -0.354 N 
ATOM     54  N   UNL A   1      41.211  30.954  34.629  1.00  0.00    -0.248 NA
ATOM     55  C   UNL A   1      41.847  31.709  36.746  1.00  0.00     0.031 C 
ATOM     56  C   UNL A   1      43.182  27.625  32.463  1.00  0.00     0.029 A 
ATOM     57  C   UNL A   1      42.585  28.661  33.162  1.00  0.00     0.049 A 
ATOM     58  H   UNL A   1      40.918  29.841  32.631  1.00  0.00     0.167 HD
ATOM     59  C   UNL A   1      42.306  30.221  35.065  1.00  0.00     0.074 A 
ATOM     60  C   UNL A   1      42.674  30.745  36.363  1.00  0.00     0.031 C 
ATOM     61  C   UNL A   1      42.948  29.201  34.445  1.00  0.00     0.037 A 
BRANCH  48  62
ATOM     62  C   UNL A   1      40.539  27.688  28.969  1.00  0.00     0.057 A 
ATOM     63  C   UNL A   1      39.722  26.555  28.869  1.00  0.00     0.134 A 
ATOM     64  C   UNL A   1      41.381  27.978  27.889  1.00  0.00     0.134 A 
ATOM     65  F   UNL A   1      38.903  26.218  29.876  1.00  0.00    -0.206 F 
ATOM     66  C   UNL A   1      39.756  25.729  27.745  1.00  0.00     0.040 A 
ATOM     67  C   UNL A   1      41.408  27.172  26.750  1.00  0.00     0.040 A 
ATOM     68  F   UNL A   1      42.185  29.052  27.919  1.00  0.00    -0.206 F 
ATOM     69  C   UNL A   1      40.597  26.041  26.677  1.00  0.00     0.006 A 
ENDBRANCH  48  62
BRANCH  49  70
ATOM     70  C   UNL A   1      39.762  33.751  36.831  1.00  0.00     0.057 A 
ATOM     71  C   UNL A   1      40.434  34.976  36.902  1.00  0.00     0.134 A 
ATOM     72  C   UNL A   1      38.975  33.381  37.927  1.00  0.00     0.134 A 
ATOM     73  F   UNL A   1      41.219  35.375  35.889  1.00  0.00    -0.206 F 
ATOM     74  C   UNL A   1      40.344  35.796  38.027  1.00  0.00     0.040 A 
ATOM     75  C   UNL A   1      38.859  34.200  39.051  1.00  0.00     0.040 A 
ATOM     76  F   UNL A   1      38.300  32.222  37.916  1.00  0.00    -0.206 F 
ATOM     77  C   UNL A   1      39.550  35.408  39.106  1.00  0.00     0.006 A 
ENDBRANCH  49  70
BRANCH  61  78
ATOM     78  C   UNL A   1      44.133  28.610  35.146  1.00  0.00     0.057 A 
ATOM     79  C   UNL A   1      45.424  29.126  34.973  1.00  0.00     0.134 A 
ATOM     80  C   UNL A   1      43.974  27.538  36.033  1.00  0.00     0.134 A 
ATOM     81  F   UNL A   1      45.641  30.144  34.127  1.00  0.00    -0.206 F 
ATOM     82  C   UNL A   1      46.519  28.583  35.646  1.00  0.00     0.040 A 
ATOM     83  C   UNL A   1      45.060  27.001  36.727  1.00  0.00     0.040 A 
ATOM     84  F   UNL A   1      42.764  27.003  36.246  1.00  0.00    -0.206 F 
ATOM     85  C   UNL A   1      46.337  27.522  36.531  1.00  0.00     0.006 A 
ENDBRANCH  61  78
ENDBRANCH  35  36
ENDBRANCH  27  30
ENDBRANCH  25  26
ENDBRANCH  24  25
ENDBRANCH   1  24
TORSDOF 13
ENDMDL
