MODEL 1
REMARK VINA RESULT:      -9.9      0.000      0.000
REMARK SMILES Cc1nonc1CSCC(=O)NCCCNC(=O)c1ccc(-c2c3nc(c(-c4c(F)cccc4F)c4ccc([nH]4)c(-c4c(F)cccc4F)c4nc(c(-c5c(F)cccc5F)c5ccc2[nH]5)C=C4)C=C3)cc1
REMARK SMILES IDX 13 1 12 2 10 3 11 4 9 6 8 7 7 8 6 9 1 10 2 11 3 12 4 13 5 14
REMARK SMILES IDX 14 15 15 16 16 17 17 18 18 20 19 21 20 22 72 23 21 24 71 25
REMARK SMILES IDX 22 26 23 27 24 28 65 29 25 30 70 31 64 32 66 33 26 34 69 35
REMARK SMILES IDX 63 36 62 37 27 39 53 40 36 41 52 42 37 43 40 44 51 45 67 46
REMARK SMILES IDX 38 47 39 48 50 50 68 51 41 52 28 53 29 54 34 55 30 56 31 57
REMARK SMILES IDX 33 58 35 59 32 60 54 61 55 62 60 63 56 64 57 65 59 66 61 67
REMARK SMILES IDX 58 68 42 69 43 70 48 71 44 72 45 73 47 74 49 75 46 76
REMARK H PARENT 12 5 16 19 66 38 40 49
REMARK Flexibility Score: inf
ROOT
ATOM      1  C   UNL A   1      33.407  36.532  32.202  1.00  0.00     0.117 C 
ENDROOT
BRANCH   1   2
ATOM      2  N   UNL A   1      33.159  35.170  32.638  1.00  0.00    -0.355 N 
ATOM      3  C   UNL A   1      34.045  34.227  33.069  1.00  0.00     0.230 C 
ATOM      4  O   UNL A   1      33.630  33.081  33.252  1.00  0.00    -0.274 OA
ATOM      5  H   UNL A   1      32.216  34.885  32.619  1.00  0.00     0.163 HD
BRANCH   3   6
ATOM      6  C   UNL A   1      35.502  34.584  33.303  1.00  0.00     0.169 C 
BRANCH   6   7
ATOM      7  S   UNL A   1      36.158  33.829  34.823  1.00  0.00    -0.145 SA
BRANCH   7   8
ATOM      8  C   UNL A   1      37.054  32.396  34.132  1.00  0.00     0.132 C 
BRANCH   8   9
ATOM      9  C   UNL A   1      37.814  31.603  35.132  1.00  0.00     0.117 A 
ATOM     10  C   UNL A   1      39.379  30.068  33.690  1.00  0.00     0.073 C 
ATOM     11  C   UNL A   1      38.808  30.621  34.935  1.00  0.00     0.106 A 
ATOM     12  N   UNL A   1      39.252  30.197  36.121  1.00  0.00    -0.055 NA
ATOM     13  O   UNL A   1      38.535  30.926  37.060  1.00  0.00    -0.244 OA
ATOM     14  N   UNL A   1      37.657  31.809  36.445  1.00  0.00    -0.054 NA
ENDBRANCH   8   9
ENDBRANCH   7   8
ENDBRANCH   6   7
ENDBRANCH   3   6
ENDBRANCH   1   2
BRANCH   1  15
ATOM     15  C   UNL A   1      32.664  36.865  30.907  1.00  0.00     0.042 C 
BRANCH  15  16
ATOM     16  C   UNL A   1      33.408  36.480  29.629  1.00  0.00     0.118 C 
BRANCH  16  17
ATOM     17  N   UNL A   1      32.685  35.502  28.831  1.00  0.00    -0.352 N 
ATOM     18  C   UNL A   1      33.093  34.300  28.316  1.00  0.00     0.251 C 
ATOM     19  H   UNL A   1      31.754  35.745  28.628  1.00  0.00     0.163 HD
ATOM     20  O   UNL A   1      32.352  33.713  27.524  1.00  0.00    -0.269 OA
BRANCH  18  21
ATOM     21  C   UNL A   1      34.395  33.694  28.676  1.00  0.00     0.039 A 
ATOM     22  C   UNL A   1      34.454  32.882  29.813  1.00  0.00     0.014 A 
ATOM     23  C   UNL A   1      35.567  33.971  27.965  1.00  0.00     0.014 A 
ATOM     24  C   UNL A   1      35.671  32.324  30.216  1.00  0.00     0.010 A 
ATOM     25  C   UNL A   1      36.771  33.366  28.332  1.00  0.00     0.010 A 
ATOM     26  C   UNL A   1      36.838  32.549  29.470  1.00  0.00    -0.014 A 
BRANCH  26  27
ATOM     27  C   UNL A   1      38.131  31.951  29.893  1.00  0.00     0.031 A 
ATOM     28  C   UNL A   1      39.019  32.667  30.874  1.00  0.00     0.074 A 
ATOM     29  C   UNL A   1      38.522  30.771  29.375  1.00  0.00     0.049 A 
ATOM     30  N   UNL A   1      40.183  32.305  31.352  1.00  0.00    -0.248 NA
ATOM     31  C   UNL A   1      38.550  33.972  31.363  1.00  0.00     0.031 C 
ATOM     32  C   UNL A   1      37.778  29.995  28.382  1.00  0.00     0.029 A 
ATOM     33  N   UNL A   1      39.644  30.018  29.614  1.00  0.00    -0.354 N 
ATOM     34  C   UNL A   1      40.590  33.340  32.184  1.00  0.00     0.074 A 
ATOM     35  C   UNL A   1      39.569  34.364  32.113  1.00  0.00     0.031 C 
ATOM     36  C   UNL A   1      38.451  28.864  28.116  1.00  0.00     0.029 A 
ATOM     37  C   UNL A   1      39.681  28.844  28.902  1.00  0.00     0.049 A 
ATOM     38  H   UNL A   1      40.355  30.293  30.238  1.00  0.00     0.167 HD
ATOM     39  C   UNL A   1      41.702  33.424  32.955  1.00  0.00     0.037 A 
ATOM     40  C   UNL A   1      40.598  27.859  28.891  1.00  0.00     0.037 A 
ATOM     41  C   UNL A   1      42.704  32.396  33.054  1.00  0.00     0.049 A 
ATOM     42  C   UNL A   1      41.801  27.957  29.786  1.00  0.00     0.074 A 
ATOM     43  C   UNL A   1      43.842  32.371  33.844  1.00  0.00     0.029 A 
ATOM     44  N   UNL A   1      42.684  31.205  32.347  1.00  0.00    -0.354 N 
ATOM     45  N   UNL A   1      42.143  28.917  30.609  1.00  0.00    -0.248 NA
ATOM     46  C   UNL A   1      42.738  26.824  29.760  1.00  0.00     0.031 C 
ATOM     47  C   UNL A   1      44.523  31.174  33.597  1.00  0.00     0.029 A 
ATOM     48  C   UNL A   1      43.792  30.440  32.677  1.00  0.00     0.049 A 
ATOM     49  H   UNL A   1      41.987  30.941  31.704  1.00  0.00     0.167 HD
ATOM     50  C   UNL A   1      43.318  28.495  31.217  1.00  0.00     0.074 A 
ATOM     51  C   UNL A   1      43.623  27.185  30.677  1.00  0.00     0.031 C 
ATOM     52  C   UNL A   1      44.076  29.134  32.141  1.00  0.00     0.037 A 
BRANCH  39  53
ATOM     53  C   UNL A   1      41.887  34.677  33.759  1.00  0.00     0.057 A 
ATOM     54  C   UNL A   1      42.632  35.759  33.274  1.00  0.00     0.134 A 
ATOM     55  C   UNL A   1      41.291  34.814  35.019  1.00  0.00     0.134 A 
ATOM     56  F   UNL A   1      43.240  35.686  32.080  1.00  0.00    -0.206 F 
ATOM     57  C   UNL A   1      42.800  36.924  34.024  1.00  0.00     0.040 A 
ATOM     58  C   UNL A   1      41.432  35.982  35.769  1.00  0.00     0.040 A 
ATOM     59  F   UNL A   1      40.559  33.816  35.538  1.00  0.00    -0.206 F 
ATOM     60  C   UNL A   1      42.193  37.040  35.274  1.00  0.00     0.006 A 
ENDBRANCH  39  53
BRANCH  40  61
ATOM     61  C   UNL A   1      40.391  26.667  28.035  1.00  0.00     0.057 A 
ATOM     62  C   UNL A   1      41.024  26.556  26.792  1.00  0.00     0.134 A 
ATOM     63  C   UNL A   1      39.558  25.616  28.434  1.00  0.00     0.134 A 
ATOM     64  F   UNL A   1      41.820  27.540  26.350  1.00  0.00    -0.206 F 
ATOM     65  C   UNL A   1      40.821  25.450  25.965  1.00  0.00     0.040 A 
ATOM     66  C   UNL A   1      39.361  24.496  27.627  1.00  0.00     0.040 A 
ATOM     67  F   UNL A   1      38.929  25.663  29.618  1.00  0.00    -0.206 F 
ATOM     68  C   UNL A   1      39.990  24.414  26.384  1.00  0.00     0.006 A 
ENDBRANCH  40  61
BRANCH  52  69
ATOM     69  C   UNL A   1      45.285  28.410  32.649  1.00  0.00     0.057 A 
ATOM     70  C   UNL A   1      46.541  28.554  32.047  1.00  0.00     0.134 A 
ATOM     71  C   UNL A   1      45.194  27.567  33.764  1.00  0.00     0.134 A 
ATOM     72  F   UNL A   1      46.691  29.337  30.967  1.00  0.00    -0.206 F 
ATOM     73  C   UNL A   1      47.659  27.868  32.522  1.00  0.00     0.040 A 
ATOM     74  C   UNL A   1      46.308  26.892  34.261  1.00  0.00     0.040 A 
ATOM     75  F   UNL A   1      44.020  27.390  34.389  1.00  0.00    -0.206 F 
ATOM     76  C   UNL A   1      47.546  27.037  33.635  1.00  0.00     0.006 A 
ENDBRANCH  52  69
ENDBRANCH  26  27
ENDBRANCH  18  21
ENDBRANCH  16  17
ENDBRANCH  15  16
ENDBRANCH   1  15
TORSDOF 13
ENDMDL
MODEL 2
REMARK VINA RESULT:      -9.3      1.089      2.146
REMARK SMILES Cc1nonc1CSCC(=O)NCCCNC(=O)c1ccc(-c2c3nc(c(-c4c(F)cccc4F)c4ccc([nH]4)c(-c4c(F)cccc4F)c4nc(c(-c5c(F)cccc5F)c5ccc2[nH]5)C=C4)C=C3)cc1
REMARK SMILES IDX 13 1 12 2 10 3 11 4 9 6 8 7 7 8 6 9 1 10 2 11 3 12 4 13 5 14
REMARK SMILES IDX 14 15 15 16 16 17 17 18 18 20 19 21 20 22 72 23 21 24 71 25
REMARK SMILES IDX 22 26 23 27 24 28 65 29 25 30 70 31 64 32 66 33 26 34 69 35
REMARK SMILES IDX 63 36 62 37 27 39 53 40 36 41 52 42 37 43 40 44 51 45 67 46
REMARK SMILES IDX 38 47 39 48 50 50 68 51 41 52 28 53 29 54 34 55 30 56 31 57
REMARK SMILES IDX 33 58 35 59 32 60 54 61 55 62 60 63 56 64 57 65 59 66 61 67
REMARK SMILES IDX 58 68 42 69 43 70 48 71 44 72 45 73 47 74 49 75 46 76
REMARK H PARENT 12 5 16 19 66 38 40 49
REMARK Flexibility Score: inf
ROOT
ATOM      1  C   UNL A   1      34.755  35.860  32.860  1.00  0.00     0.117 C 
ENDROOT
BRANCH   1   2
ATOM      2  N   UNL A   1      34.695  35.209  34.156  1.00  0.00    -0.355 N 
ATOM      3  C   UNL A   1      35.577  34.338  34.726  1.00  0.00     0.230 C 
ATOM      4  O   UNL A   1      35.253  33.792  35.782  1.00  0.00    -0.274 OA
ATOM      5  H   UNL A   1      33.905  35.426  34.702  1.00  0.00     0.163 HD
BRANCH   3   6
ATOM      6  C   UNL A   1      36.912  34.048  34.066  1.00  0.00     0.169 C 
BRANCH   6   7
ATOM      7  S   UNL A   1      37.288  32.268  34.031  1.00  0.00    -0.145 SA
BRANCH   7   8
ATOM      8  C   UNL A   1      38.628  32.178  35.268  1.00  0.00     0.132 C 
BRANCH   8   9
ATOM      9  C   UNL A   1      38.182  31.795  36.632  1.00  0.00     0.117 A 
ATOM     10  C   UNL A   1      38.372  34.013  38.022  1.00  0.00     0.073 C 
ATOM     11  C   UNL A   1      38.068  32.585  37.796  1.00  0.00     0.106 A 
ATOM     12  N   UNL A   1      37.586  31.838  38.792  1.00  0.00    -0.055 NA
ATOM     13  O   UNL A   1      37.392  30.578  38.241  1.00  0.00    -0.244 OA
ATOM     14  N   UNL A   1      37.746  30.558  36.899  1.00  0.00    -0.054 NA
ENDBRANCH   8   9
ENDBRANCH   7   8
ENDBRANCH   6   7
ENDBRANCH   3   6
ENDBRANCH   1   2
BRANCH   1  15
ATOM     15  C   UNL A   1      33.400  35.849  32.149  1.00  0.00     0.042 C 
BRANCH  15  16
ATOM     16  C   UNL A   1      33.405  36.483  30.760  1.00  0.00     0.118 C 
BRANCH  16  17
ATOM     17  N   UNL A   1      32.711  35.675  29.770  1.00  0.00    -0.352 N 
ATOM     18  C   UNL A   1      33.156  34.627  29.008  1.00  0.00     0.251 C 
ATOM     19  H   UNL A   1      31.769  35.921  29.624  1.00  0.00     0.163 HD
ATOM     20  O   UNL A   1      32.429  34.198  28.108  1.00  0.00    -0.269 OA
BRANCH  18  21
ATOM     21  C   UNL A   1      34.482  34.006  29.227  1.00  0.00     0.039 A 
ATOM     22  C   UNL A   1      34.628  33.124  30.304  1.00  0.00     0.014 A 
ATOM     23  C   UNL A   1      35.595  34.331  28.446  1.00  0.00     0.014 A 
ATOM     24  C   UNL A   1      35.872  32.548  30.576  1.00  0.00     0.010 A 
ATOM     25  C   UNL A   1      36.823  33.709  28.681  1.00  0.00     0.010 A 
ATOM     26  C   UNL A   1      36.978  32.823  29.758  1.00  0.00    -0.014 A 
BRANCH  26  27
ATOM     27  C   UNL A   1      38.299  32.205  30.041  1.00  0.00     0.031 A 
ATOM     28  C   UNL A   1      39.309  32.921  30.897  1.00  0.00     0.074 A 
ATOM     29  C   UNL A   1      38.605  31.008  29.507  1.00  0.00     0.049 A 
ATOM     30  N   UNL A   1      40.513  32.543  31.246  1.00  0.00    -0.248 NA
ATOM     31  C   UNL A   1      38.924  34.245  31.410  1.00  0.00     0.031 C 
ATOM     32  C   UNL A   1      37.736  30.229  28.623  1.00  0.00     0.029 A 
ATOM     33  N   UNL A   1      39.733  30.235  29.631  1.00  0.00    -0.354 N 
ATOM     34  C   UNL A   1      41.034  33.584  32.003  1.00  0.00     0.074 A 
ATOM     35  C   UNL A   1      40.031  34.628  32.028  1.00  0.00     0.031 C 
ATOM     36  C   UNL A   1      38.352  29.078  28.306  1.00  0.00     0.029 A 
ATOM     37  C   UNL A   1      39.665  29.048  28.945  1.00  0.00     0.049 A 
ATOM     38  H   UNL A   1      40.516  30.507  30.163  1.00  0.00     0.167 HD
ATOM     39  C   UNL A   1      42.229  33.659  32.638  1.00  0.00     0.037 A 
ATOM     40  C   UNL A   1      40.554  28.043  28.850  1.00  0.00     0.037 A 
ATOM     41  C   UNL A   1      43.215  32.612  32.644  1.00  0.00     0.049 A 
ATOM     42  C   UNL A   1      41.855  28.132  29.597  1.00  0.00     0.074 A 
ATOM     43  C   UNL A   1      44.436  32.577  33.297  1.00  0.00     0.029 A 
ATOM     44  N   UNL A   1      43.091  31.408  31.969  1.00  0.00    -0.354 N 
ATOM     45  N   UNL A   1      42.308  29.099  30.355  1.00  0.00    -0.248 NA
ATOM     46  C   UNL A   1      42.760  26.978  29.488  1.00  0.00     0.031 C 
ATOM     47  C   UNL A   1      45.061  31.361  32.999  1.00  0.00     0.029 A 
ATOM     48  C   UNL A   1      44.214  30.626  32.186  1.00  0.00     0.049 A 
ATOM     49  H   UNL A   1      42.319  31.147  31.416  1.00  0.00     0.167 HD
ATOM     50  C   UNL A   1      43.537  28.664  30.833  1.00  0.00     0.074 A 
ATOM     51  C   UNL A   1      43.752  27.338  30.289  1.00  0.00     0.031 C 
ATOM     52  C   UNL A   1      44.409  29.304  31.648  1.00  0.00     0.037 A 
BRANCH  39  53
ATOM     53  C   UNL A   1      42.529  34.923  33.389  1.00  0.00     0.057 A 
ATOM     54  C   UNL A   1      42.217  35.063  34.747  1.00  0.00     0.134 A 
ATOM     55  C   UNL A   1      43.161  35.999  32.755  1.00  0.00     0.134 A 
ATOM     56  F   UNL A   1      41.598  34.073  35.408  1.00  0.00    -0.206 F 
ATOM     57  C   UNL A   1      42.500  36.239  35.443  1.00  0.00     0.040 A 
ATOM     58  C   UNL A   1      43.470  37.173  33.446  1.00  0.00     0.040 A 
ATOM     59  F   UNL A   1      43.492  35.927  31.457  1.00  0.00    -0.206 F 
ATOM     60  C   UNL A   1      43.134  37.297  34.793  1.00  0.00     0.006 A 
ENDBRANCH  39  53
BRANCH  40  61
ATOM     61  C   UNL A   1      40.227  26.839  28.049  1.00  0.00     0.057 A 
ATOM     62  C   UNL A   1      39.417  25.825  28.573  1.00  0.00     0.134 A 
ATOM     63  C   UNL A   1      40.718  26.671  26.749  1.00  0.00     0.134 A 
ATOM     64  F   UNL A   1      38.934  25.924  29.820  1.00  0.00    -0.206 F 
ATOM     65  C   UNL A   1      39.120  24.676  27.840  1.00  0.00     0.040 A 
ATOM     66  C   UNL A   1      40.413  25.536  25.997  1.00  0.00     0.040 A 
ATOM     67  F   UNL A   1      41.494  27.611  26.191  1.00  0.00    -0.206 F 
ATOM     68  C   UNL A   1      39.615  24.531  26.546  1.00  0.00     0.006 A 
ENDBRANCH  40  61
BRANCH  52  69
ATOM     69  C   UNL A   1      45.655  28.563  32.030  1.00  0.00     0.057 A 
ATOM     70  C   UNL A   1      45.702  27.725  33.150  1.00  0.00     0.134 A 
ATOM     71  C   UNL A   1      46.818  28.681  31.258  1.00  0.00     0.134 A 
ATOM     72  F   UNL A   1      44.624  27.581  33.937  1.00  0.00    -0.206 F 
ATOM     73  C   UNL A   1      46.869  27.047  33.504  1.00  0.00     0.040 A 
ATOM     74  C   UNL A   1      47.984  27.992  31.589  1.00  0.00     0.040 A 
ATOM     75  F   UNL A   1      46.836  29.465  30.170  1.00  0.00    -0.206 F 
ATOM     76  C   UNL A   1      48.014  27.176  32.720  1.00  0.00     0.006 A 
ENDBRANCH  52  69
ENDBRANCH  26  27
ENDBRANCH  18  21
ENDBRANCH  16  17
ENDBRANCH  15  16
ENDBRANCH   1  15
TORSDOF 13
ENDMDL
MODEL 3
REMARK VINA RESULT:      -9.3      6.105     11.314
REMARK SMILES Cc1nonc1CSCC(=O)NCCCNC(=O)c1ccc(-c2c3nc(c(-c4c(F)cccc4F)c4ccc([nH]4)c(-c4c(F)cccc4F)c4nc(c(-c5c(F)cccc5F)c5ccc2[nH]5)C=C4)C=C3)cc1
REMARK SMILES IDX 13 1 12 2 10 3 11 4 9 6 8 7 7 8 6 9 1 10 2 11 3 12 4 13 5 14
REMARK SMILES IDX 14 15 15 16 16 17 17 18 18 20 19 21 20 22 72 23 21 24 71 25
REMARK SMILES IDX 22 26 23 27 24 28 65 29 25 30 70 31 64 32 66 33 26 34 69 35
REMARK SMILES IDX 63 36 62 37 27 39 53 40 36 41 52 42 37 43 40 44 51 45 67 46
REMARK SMILES IDX 38 47 39 48 50 50 68 51 41 52 28 53 29 54 34 55 30 56 31 57
REMARK SMILES IDX 33 58 35 59 32 60 54 61 55 62 60 63 56 64 57 65 59 66 61 67
REMARK SMILES IDX 58 68 42 69 43 70 48 71 44 72 45 73 47 74 49 75 46 76
REMARK H PARENT 12 5 16 19 66 38 40 49
REMARK Flexibility Score: inf
ROOT
ATOM      1  C   UNL A   1      36.304  20.062  24.990  1.00  0.00     0.117 C 
ENDROOT
BRANCH   1   2
ATOM      2  N   UNL A   1      36.180  21.414  25.503  1.00  0.00    -0.355 N 
ATOM      3  C   UNL A   1      35.152  21.983  26.197  1.00  0.00     0.230 C 
ATOM      4  O   UNL A   1      35.197  23.196  26.408  1.00  0.00    -0.274 OA
ATOM      5  H   UNL A   1      36.947  22.006  25.324  1.00  0.00     0.163 HD
BRANCH   3   6
ATOM      6  C   UNL A   1      33.987  21.141  26.681  1.00  0.00     0.169 C 
BRANCH   6   7
ATOM      7  S   UNL A   1      32.828  20.735  25.338  1.00  0.00    -0.145 SA
BRANCH   7   8
ATOM      8  C   UNL A   1      32.766  18.915  25.480  1.00  0.00     0.132 C 
BRANCH   8   9
ATOM      9  C   UNL A   1      33.037  18.189  24.212  1.00  0.00     0.117 A 
ATOM     10  C   UNL A   1      34.821  16.380  24.870  1.00  0.00     0.073 C 
ATOM     11  C   UNL A   1      33.906  17.106  23.964  1.00  0.00     0.106 A 
ATOM     12  N   UNL A   1      33.803  16.740  22.684  1.00  0.00    -0.055 NA
ATOM     13  O   UNL A   1      32.858  17.597  22.136  1.00  0.00    -0.244 OA
ATOM     14  N   UNL A   1      32.372  18.482  23.088  1.00  0.00    -0.054 NA
ENDBRANCH   8   9
ENDBRANCH   7   8
ENDBRANCH   6   7
ENDBRANCH   3   6
ENDBRANCH   1   2
BRANCH   1  15
ATOM     15  C   UNL A   1      37.756  19.698  24.675  1.00  0.00     0.042 C 
BRANCH  15  16
ATOM     16  C   UNL A   1      38.768  20.151  25.726  1.00  0.00     0.118 C 
BRANCH  16  17
ATOM     17  N   UNL A   1      39.927  19.277  25.804  1.00  0.00    -0.352 N 
ATOM     18  C   UNL A   1      41.234  19.559  26.099  1.00  0.00     0.251 C 
ATOM     19  H   UNL A   1      39.741  18.329  25.614  1.00  0.00     0.163 HD
ATOM     20  O   UNL A   1      42.081  18.676  25.943  1.00  0.00    -0.269 OA
BRANCH  18  21
ATOM     21  C   UNL A   1      41.658  20.891  26.589  1.00  0.00     0.039 A 
ATOM     22  C   UNL A   1      41.568  21.149  27.962  1.00  0.00     0.014 A 
ATOM     23  C   UNL A   1      42.065  21.909  25.722  1.00  0.00     0.014 A 
ATOM     24  C   UNL A   1      41.914  22.406  28.465  1.00  0.00     0.010 A 
ATOM     25  C   UNL A   1      42.468  23.145  26.231  1.00  0.00     0.010 A 
ATOM     26  C   UNL A   1      42.383  23.412  27.605  1.00  0.00    -0.014 A 
BRANCH  26  27
ATOM     27  C   UNL A   1      42.759  24.746  28.139  1.00  0.00     0.031 A 
ATOM     28  C   UNL A   1      41.710  25.802  28.363  1.00  0.00     0.074 A 
ATOM     29  C   UNL A   1      44.050  25.021  28.401  1.00  0.00     0.049 A 
ATOM     30  N   UNL A   1      41.850  27.024  28.813  1.00  0.00    -0.248 NA
ATOM     31  C   UNL A   1      40.326  25.447  28.013  1.00  0.00     0.031 C 
ATOM     32  C   UNL A   1      45.171  24.104  28.185  1.00  0.00     0.029 A 
ATOM     33  N   UNL A   1      44.639  26.154  28.906  1.00  0.00    -0.354 N 
ATOM     34  C   UNL A   1      40.581  27.586  28.787  1.00  0.00     0.074 A 
ATOM     35  C   UNL A   1      39.689  26.587  28.237  1.00  0.00     0.031 C 
ATOM     36  C   UNL A   1      46.307  24.701  28.580  1.00  0.00     0.029 A 
ATOM     37  C   UNL A   1      46.000  26.047  29.055  1.00  0.00     0.049 A 
ATOM     38  H   UNL A   1      44.133  26.966  29.139  1.00  0.00     0.167 HD
ATOM     39  C   UNL A   1      40.186  28.815  29.202  1.00  0.00     0.037 A 
ATOM     40  C   UNL A   1      46.897  26.930  29.531  1.00  0.00     0.037 A 
ATOM     41  C   UNL A   1      41.061  29.799  29.780  1.00  0.00     0.049 A 
ATOM     42  C   UNL A   1      46.429  28.270  30.023  1.00  0.00     0.074 A 
ATOM     43  C   UNL A   1      40.745  31.055  30.272  1.00  0.00     0.029 A 
ATOM     44  N   UNL A   1      42.427  29.637  29.951  1.00  0.00    -0.354 N 
ATOM     45  N   UNL A   1      45.216  28.765  30.044  1.00  0.00    -0.248 NA
ATOM     46  C   UNL A   1      47.454  29.167  30.575  1.00  0.00     0.031 C 
ATOM     47  C   UNL A   1      41.924  31.661  30.721  1.00  0.00     0.029 A 
ATOM     48  C   UNL A   1      42.968  30.771  30.536  1.00  0.00     0.049 A 
ATOM     49  H   UNL A   1      42.937  28.836  29.693  1.00  0.00     0.167 HD
ATOM     50  C   UNL A   1      45.327  30.018  30.631  1.00  0.00     0.074 A 
ATOM     51  C   UNL A   1      46.725  30.202  30.965  1.00  0.00     0.031 C 
ATOM     52  C   UNL A   1      44.359  30.935  30.873  1.00  0.00     0.037 A 
BRANCH  39  53
ATOM     53  C   UNL A   1      38.733  29.157  29.049  1.00  0.00     0.057 A 
ATOM     54  C   UNL A   1      37.845  29.089  30.129  1.00  0.00     0.134 A 
ATOM     55  C   UNL A   1      38.224  29.585  27.817  1.00  0.00     0.134 A 
ATOM     56  F   UNL A   1      38.267  28.673  31.332  1.00  0.00    -0.206 F 
ATOM     57  C   UNL A   1      36.493  29.410  29.985  1.00  0.00     0.040 A 
ATOM     58  C   UNL A   1      36.880  29.931  27.665  1.00  0.00     0.040 A 
ATOM     59  F   UNL A   1      39.024  29.678  26.744  1.00  0.00    -0.206 F 
ATOM     60  C   UNL A   1      36.010  29.838  28.749  1.00  0.00     0.006 A 
ENDBRANCH  39  53
BRANCH  40  61
ATOM     61  C   UNL A   1      48.330  26.558  29.609  1.00  0.00     0.057 A 
ATOM     62  C   UNL A   1      48.834  25.868  30.717  1.00  0.00     0.134 A 
ATOM     63  C   UNL A   1      49.227  26.886  28.586  1.00  0.00     0.134 A 
ATOM     64  F   UNL A   1      48.025  25.543  31.735  1.00  0.00    -0.206 F 
ATOM     65  C   UNL A   1      50.185  25.532  30.816  1.00  0.00     0.040 A 
ATOM     66  C   UNL A   1      50.576  26.539  28.662  1.00  0.00     0.040 A 
ATOM     67  F   UNL A   1      48.801  27.542  27.497  1.00  0.00    -0.206 F 
ATOM     68  C   UNL A   1      51.059  25.865  29.783  1.00  0.00     0.006 A 
ENDBRANCH  40  61
BRANCH  52  69
ATOM     69  C   UNL A   1      44.774  32.199  31.562  1.00  0.00     0.057 A 
ATOM     70  C   UNL A   1      45.179  33.332  30.845  1.00  0.00     0.134 A 
ATOM     71  C   UNL A   1      44.755  32.288  32.959  1.00  0.00     0.134 A 
ATOM     72  F   UNL A   1      45.233  33.305  29.505  1.00  0.00    -0.206 F 
ATOM     73  C   UNL A   1      45.574  34.501  31.495  1.00  0.00     0.040 A 
ATOM     74  C   UNL A   1      45.126  33.459  33.620  1.00  0.00     0.040 A 
ATOM     75  F   UNL A   1      44.371  31.240  33.703  1.00  0.00    -0.206 F 
ATOM     76  C   UNL A   1      45.544  34.569  32.887  1.00  0.00     0.006 A 
ENDBRANCH  52  69
ENDBRANCH  26  27
ENDBRANCH  18  21
ENDBRANCH  16  17
ENDBRANCH  15  16
ENDBRANCH   1  15
TORSDOF 13
ENDMDL
