MODEL 1
REMARK VINA RESULT:     -12.5      0.000      0.000
REMARK SMILES CCc1cc(N2CCC[C@H](C(=O)NCCCNC(=O)c3ccc(-c4c5nc(c(-c6c(F)cccc6F)c6ccc([nH]6)c(-c6c(F)cccc6F)c6nc(c(-c7c(F)cccc7F)c7ccc4[nH]7)C=C6)C=C5)cc3)C2)nc(-c2ccc(Cl)cc2)n1
REMARK SMILES IDX 15 1 14 2 13 3 11 4 12 5 10 7 6 8 7 9 74 10 8 11 9 12 5 13
REMARK SMILES IDX 3 14 4 15 84 16 76 17 75 18 2 19 1 20 77 21 78 22 83 23
REMARK SMILES IDX 79 24 82 25 80 26 81 27 16 28 17 29 18 30 19 32 20 33 21 34
REMARK SMILES IDX 73 35 22 36 72 37 23 38 24 39 25 40 66 41 26 42 71 43 65 44
REMARK SMILES IDX 67 45 27 46 70 47 64 48 63 49 28 51 54 52 37 53 53 54 38 55
REMARK SMILES IDX 41 56 52 57 68 58 39 59 40 60 51 62 69 63 42 64 29 65 30 66
REMARK SMILES IDX 35 67 31 68 32 69 34 70 36 71 33 72 55 73 56 74 61 75 57 76
REMARK SMILES IDX 58 77 60 78 62 79 59 80 43 81 44 82 49 83 45 84 46 85 48 86
REMARK SMILES IDX 50 87 47 88
REMARK H PARENT 13 6 17 31 67 50 41 61
REMARK Flexibility Score: inf
ROOT
ATOM      1  C   UNL A   1      32.427  28.607  27.082  1.00  0.00     0.042 C 
ENDROOT
BRANCH   1   2
ATOM      2  C   UNL A   1      32.379  27.127  26.752  1.00  0.00     0.117 C 
BRANCH   2   3
ATOM      3  N   UNL A   1      31.061  26.550  26.886  1.00  0.00    -0.356 N 
ATOM      4  C   UNL A   1      30.343  25.775  26.034  1.00  0.00     0.224 C 
ATOM      5  O   UNL A   1      29.309  25.277  26.497  1.00  0.00    -0.275 OA
ATOM      6  H   UNL A   1      30.608  26.753  27.736  1.00  0.00     0.163 HD
BRANCH   4   7
ATOM      7  C   UNL A   1      30.714  25.497  24.574  1.00  0.00     0.098 C 
ATOM      8  N   UNL A   1      33.036  24.723  24.299  1.00  0.00    -0.356 N 
ATOM      9  C   UNL A   1      33.423  25.753  23.351  1.00  0.00     0.118 C 
ATOM     10  C   UNL A   1      31.646  24.308  24.378  1.00  0.00     0.131 C 
ATOM     11  C   UNL A   1      32.557  27.004  23.539  1.00  0.00     0.022 C 
ATOM     12  C   UNL A   1      31.066  26.724  23.725  1.00  0.00     0.017 C 
BRANCH   8  13
ATOM     13  C   UNL A   1      33.965  23.819  24.776  1.00  0.00     0.132 A 
ATOM     14  C   UNL A   1      36.083  23.270  25.648  1.00  0.00     0.046 A 
ATOM     15  C   UNL A   1      35.178  24.244  25.275  1.00  0.00     0.070 A 
ATOM     16  N   UNL A   1      35.778  21.960  25.607  1.00  0.00    -0.233 NA
ATOM     17  C   UNL A   1      34.577  21.631  25.105  1.00  0.00     0.161 A 
ATOM     18  N   UNL A   1      33.668  22.512  24.657  1.00  0.00    -0.211 NA
BRANCH  14  19
ATOM     19  C   UNL A   1      37.461  23.672  26.107  1.00  0.00     0.053 C 
ATOM     20  C   UNL A   1      38.494  22.556  26.028  1.00  0.00     0.011 C 
ENDBRANCH  14  19
BRANCH  17  21
ATOM     21  C   UNL A   1      34.261  20.200  25.027  1.00  0.00     0.019 A 
ATOM     22  C   UNL A   1      35.247  19.270  24.644  1.00  0.00     0.013 A 
ATOM     23  C   UNL A   1      32.967  19.715  25.289  1.00  0.00     0.013 A 
ATOM     24  C   UNL A   1      34.951  17.910  24.512  1.00  0.00     0.021 A 
ATOM     25  C   UNL A   1      32.663  18.355  25.142  1.00  0.00     0.021 A 
ATOM     26  C   UNL A   1      33.656  17.460  24.752  1.00  0.00     0.041 A 
ATOM     27  Cl  UNL A   1      33.277  15.794  24.544  1.00  0.00    -0.084 Cl
ENDBRANCH  17  21
ENDBRANCH   8  13
ENDBRANCH   4   7
ENDBRANCH   2   3
ENDBRANCH   1   2
BRANCH   1  28
ATOM     28  C   UNL A   1      33.846  29.140  27.141  1.00  0.00     0.118 C 
BRANCH  28  29
ATOM     29  N   UNL A   1      33.952  30.355  27.945  1.00  0.00    -0.352 N 
ATOM     30  C   UNL A   1      34.971  30.819  28.747  1.00  0.00     0.251 C 
ATOM     31  H   UNL A   1      33.162  30.942  27.908  1.00  0.00     0.163 HD
ATOM     32  O   UNL A   1      34.786  31.779  29.481  1.00  0.00    -0.269 OA
BRANCH  30  33
ATOM     33  C   UNL A   1      36.280  30.131  28.756  1.00  0.00     0.039 A 
ATOM     34  C   UNL A   1      37.106  30.236  27.632  1.00  0.00     0.014 A 
ATOM     35  C   UNL A   1      36.706  29.407  29.868  1.00  0.00     0.014 A 
ATOM     36  C   UNL A   1      38.397  29.706  27.672  1.00  0.00     0.010 A 
ATOM     37  C   UNL A   1      38.026  28.985  29.952  1.00  0.00     0.010 A 
ATOM     38  C   UNL A   1      38.889  29.135  28.856  1.00  0.00    -0.014 A 
BRANCH  38  39
ATOM     39  C   UNL A   1      40.304  28.709  28.988  1.00  0.00     0.031 A 
ATOM     40  C   UNL A   1      41.344  29.684  29.464  1.00  0.00     0.074 A 
ATOM     41  C   UNL A   1      40.665  27.473  28.586  1.00  0.00     0.049 A 
ATOM     42  N   UNL A   1      42.642  29.537  29.541  1.00  0.00    -0.248 NA
ATOM     43  C   UNL A   1      40.866  31.013  29.880  1.00  0.00     0.031 C 
ATOM     44  C   UNL A   1      39.755  26.457  28.050  1.00  0.00     0.029 A 
ATOM     45  N   UNL A   1      41.895  26.866  28.550  1.00  0.00    -0.354 N 
ATOM     46  C   UNL A   1      43.134  30.754  29.992  1.00  0.00     0.074 A 
ATOM     47  C   UNL A   1      42.004  31.648  30.117  1.00  0.00     0.031 C 
ATOM     48  C   UNL A   1      40.454  25.347  27.766  1.00  0.00     0.029 A 
ATOM     49  C   UNL A   1      41.863  25.587  28.050  1.00  0.00     0.049 A 
ATOM     50  H   UNL A   1      42.722  27.307  28.854  1.00  0.00     0.167 HD
ATOM     51  C   UNL A   1      44.409  31.089  30.300  1.00  0.00     0.037 A 
ATOM     52  C   UNL A   1      42.863  24.711  27.829  1.00  0.00     0.037 A 
ATOM     53  C   UNL A   1      45.524  30.185  30.198  1.00  0.00     0.049 A 
ATOM     54  C   UNL A   1      44.272  25.114  28.161  1.00  0.00     0.074 A 
ATOM     55  C   UNL A   1      46.842  30.402  30.557  1.00  0.00     0.029 A 
ATOM     56  N   UNL A   1      45.451  28.895  29.695  1.00  0.00    -0.354 N 
ATOM     57  N   UNL A   1      44.712  26.242  28.663  1.00  0.00    -0.248 NA
ATOM     58  C   UNL A   1      45.324  24.124  27.891  1.00  0.00     0.031 C 
ATOM     59  C   UNL A   1      47.578  29.260  30.220  1.00  0.00     0.029 A 
ATOM     60  C   UNL A   1      46.709  28.314  29.699  1.00  0.00     0.049 A 
ATOM     61  H   UNL A   1      44.628  28.457  29.381  1.00  0.00     0.167 HD
ATOM     62  C   UNL A   1      46.087  26.094  28.785  1.00  0.00     0.074 A 
ATOM     63  C   UNL A   1      46.405  24.757  28.326  1.00  0.00     0.031 C 
ATOM     64  C   UNL A   1      47.004  26.985  29.233  1.00  0.00     0.037 A 
BRANCH  51  65
ATOM     65  C   UNL A   1      44.663  32.488  30.781  1.00  0.00     0.057 A 
ATOM     66  C   UNL A   1      44.975  33.530  29.896  1.00  0.00     0.134 A 
ATOM     67  C   UNL A   1      44.566  32.806  32.142  1.00  0.00     0.134 A 
ATOM     68  F   UNL A   1      45.097  33.291  28.581  1.00  0.00    -0.206 F 
ATOM     69  C   UNL A   1      45.206  34.830  30.349  1.00  0.00     0.040 A 
ATOM     70  C   UNL A   1      44.766  34.109  32.603  1.00  0.00     0.040 A 
ATOM     71  F   UNL A   1      44.267  31.860  33.043  1.00  0.00    -0.206 F 
ATOM     72  C   UNL A   1      45.093  35.123  31.706  1.00  0.00     0.006 A 
ENDBRANCH  51  65
BRANCH  52  73
ATOM     73  C   UNL A   1      42.565  23.367  27.272  1.00  0.00     0.057 A 
ATOM     74  C   UNL A   1      42.187  22.308  28.106  1.00  0.00     0.134 A 
ATOM     75  C   UNL A   1      42.656  23.103  25.900  1.00  0.00     0.134 A 
ATOM     76  F   UNL A   1      42.100  22.492  29.432  1.00  0.00    -0.206 F 
ATOM     77  C   UNL A   1      41.928  21.033  27.601  1.00  0.00     0.040 A 
ATOM     78  C   UNL A   1      42.374  21.841  25.377  1.00  0.00     0.040 A 
ATOM     79  F   UNL A   1      43.006  24.075  25.045  1.00  0.00    -0.206 F 
ATOM     80  C   UNL A   1      42.016  20.798  26.230  1.00  0.00     0.006 A 
ENDBRANCH  52  73
BRANCH  64  81
ATOM     81  C   UNL A   1      48.437  26.538  29.256  1.00  0.00     0.057 A 
ATOM     82  C   UNL A   1      49.292  26.755  28.169  1.00  0.00     0.134 A 
ATOM     83  C   UNL A   1      48.979  25.930  30.395  1.00  0.00     0.134 A 
ATOM     84  F   UNL A   1      48.830  27.320  27.043  1.00  0.00    -0.206 F 
ATOM     85  C   UNL A   1      50.632  26.365  28.207  1.00  0.00     0.040 A 
ATOM     86  C   UNL A   1      50.323  25.562  30.456  1.00  0.00     0.040 A 
ATOM     87  F   UNL A   1      48.215  25.702  31.474  1.00  0.00    -0.206 F 
ATOM     88  C   UNL A   1      51.152  25.774  29.357  1.00  0.00     0.006 A 
ENDBRANCH  64  81
ENDBRANCH  38  39
ENDBRANCH  30  33
ENDBRANCH  28  29
ENDBRANCH   1  28
TORSDOF 13
ENDMDL
MODEL 2
REMARK VINA RESULT:     -12.3      4.179      7.967
REMARK SMILES CCc1cc(N2CCC[C@H](C(=O)NCCCNC(=O)c3ccc(-c4c5nc(c(-c6c(F)cccc6F)c6ccc([nH]6)c(-c6c(F)cccc6F)c6nc(c(-c7c(F)cccc7F)c7ccc4[nH]7)C=C6)C=C5)cc3)C2)nc(-c2ccc(Cl)cc2)n1
REMARK SMILES IDX 15 1 14 2 13 3 11 4 12 5 10 7 6 8 7 9 74 10 8 11 9 12 5 13
REMARK SMILES IDX 3 14 4 15 84 16 76 17 75 18 2 19 1 20 77 21 78 22 83 23
REMARK SMILES IDX 79 24 82 25 80 26 81 27 16 28 17 29 18 30 19 32 20 33 21 34
REMARK SMILES IDX 73 35 22 36 72 37 23 38 24 39 25 40 66 41 26 42 71 43 65 44
REMARK SMILES IDX 67 45 27 46 70 47 64 48 63 49 28 51 54 52 37 53 53 54 38 55
REMARK SMILES IDX 41 56 52 57 68 58 39 59 40 60 51 62 69 63 42 64 29 65 30 66
REMARK SMILES IDX 35 67 31 68 32 69 34 70 36 71 33 72 55 73 56 74 61 75 57 76
REMARK SMILES IDX 58 77 60 78 62 79 59 80 43 81 44 82 49 83 45 84 46 85 48 86
REMARK SMILES IDX 50 87 47 88
REMARK H PARENT 13 6 17 31 67 50 41 61
REMARK Flexibility Score: inf
ROOT
ATOM      1  C   UNL A   1      31.749  31.748  26.589  1.00  0.00     0.042 C 
ENDROOT
BRANCH   1   2
ATOM      2  C   UNL A   1      31.826  30.242  26.753  1.00  0.00     0.117 C 
BRANCH   2   3
ATOM      3  N   UNL A   1      32.822  29.621  25.908  1.00  0.00    -0.356 N 
ATOM      4  C   UNL A   1      32.790  28.458  25.210  1.00  0.00     0.224 C 
ATOM      5  O   UNL A   1      33.730  28.272  24.426  1.00  0.00    -0.275 OA
ATOM      6  H   UNL A   1      33.663  30.126  25.825  1.00  0.00     0.163 HD
BRANCH   4   7
ATOM      7  C   UNL A   1      31.704  27.386  25.338  1.00  0.00     0.098 C 
ATOM      8  N   UNL A   1      32.505  25.128  24.763  1.00  0.00    -0.356 N 
ATOM      9  C   UNL A   1      31.498  24.869  23.749  1.00  0.00     0.118 C 
ATOM     10  C   UNL A   1      32.204  26.042  25.852  1.00  0.00     0.131 C 
ATOM     11  C   UNL A   1      30.995  26.186  23.148  1.00  0.00     0.022 C 
ATOM     12  C   UNL A   1      30.716  27.287  24.170  1.00  0.00     0.017 C 
BRANCH   8  13
ATOM     13  C   UNL A   1      33.520  24.222  24.996  1.00  0.00     0.132 A 
ATOM     14  C   UNL A   1      35.750  23.678  25.526  1.00  0.00     0.046 A 
ATOM     15  C   UNL A   1      34.768  24.642  25.402  1.00  0.00     0.070 A 
ATOM     16  N   UNL A   1      35.492  22.371  25.338  1.00  0.00    -0.233 NA
ATOM     17  C   UNL A   1      34.252  22.046  24.941  1.00  0.00     0.161 A 
ATOM     18  N   UNL A   1      33.260  22.927  24.732  1.00  0.00    -0.211 NA
BRANCH  14  19
ATOM     19  C   UNL A   1      37.158  24.091  25.870  1.00  0.00     0.053 C 
ATOM     20  C   UNL A   1      38.153  22.939  25.905  1.00  0.00     0.011 C 
ENDBRANCH  14  19
BRANCH  17  21
ATOM     21  C   UNL A   1      33.984  20.623  24.703  1.00  0.00     0.019 A 
ATOM     22  C   UNL A   1      34.996  19.663  24.899  1.00  0.00     0.013 A 
ATOM     23  C   UNL A   1      32.735  20.175  24.235  1.00  0.00     0.013 A 
ATOM     24  C   UNL A   1      34.776  18.309  24.625  1.00  0.00     0.021 A 
ATOM     25  C   UNL A   1      32.516  18.823  23.944  1.00  0.00     0.021 A 
ATOM     26  C   UNL A   1      33.539  17.897  24.139  1.00  0.00     0.041 A 
ATOM     27  Cl  UNL A   1      33.280  16.239  23.755  1.00  0.00    -0.084 Cl
ENDBRANCH  17  21
ENDBRANCH   8  13
ENDBRANCH   4   7
ENDBRANCH   2   3
ENDBRANCH   1   2
BRANCH   1  28
ATOM     28  C   UNL A   1      32.856  32.468  27.336  1.00  0.00     0.118 C 
BRANCH  28  29
ATOM     29  N   UNL A   1      32.525  33.863  27.615  1.00  0.00    -0.352 N 
ATOM     30  C   UNL A   1      33.036  34.743  28.544  1.00  0.00     0.251 C 
ATOM     31  H   UNL A   1      31.817  34.239  27.043  1.00  0.00     0.163 HD
ATOM     32  O   UNL A   1      32.490  35.820  28.733  1.00  0.00    -0.269 OA
BRANCH  30  33
ATOM     33  C   UNL A   1      34.221  34.370  29.345  1.00  0.00     0.039 A 
ATOM     34  C   UNL A   1      34.031  33.822  30.617  1.00  0.00     0.014 A 
ATOM     35  C   UNL A   1      35.511  34.534  28.843  1.00  0.00     0.014 A 
ATOM     36  C   UNL A   1      35.129  33.341  31.334  1.00  0.00     0.010 A 
ATOM     37  C   UNL A   1      36.586  33.952  29.501  1.00  0.00     0.010 A 
ATOM     38  C   UNL A   1      36.407  33.343  30.752  1.00  0.00    -0.014 A 
BRANCH  38  39
ATOM     39  C   UNL A   1      37.566  32.697  31.413  1.00  0.00     0.031 A 
ATOM     40  C   UNL A   1      38.239  31.515  30.772  1.00  0.00     0.074 A 
ATOM     41  C   UNL A   1      37.950  33.115  32.636  1.00  0.00     0.049 A 
ATOM     42  N   UNL A   1      39.190  30.750  31.241  1.00  0.00    -0.248 NA
ATOM     43  C   UNL A   1      37.756  31.121  29.438  1.00  0.00     0.031 C 
ATOM     44  C   UNL A   1      37.337  34.214  33.387  1.00  0.00     0.029 A 
ATOM     45  N   UNL A   1      38.936  32.655  33.472  1.00  0.00    -0.354 N 
ATOM     46  C   UNL A   1      39.404  29.778  30.274  1.00  0.00     0.074 A 
ATOM     47  C   UNL A   1      38.446  30.013  29.216  1.00  0.00     0.031 C 
ATOM     48  C   UNL A   1      37.978  34.359  34.557  1.00  0.00     0.029 A 
ATOM     49  C   UNL A   1      39.012  33.337  34.662  1.00  0.00     0.049 A 
ATOM     50  H   UNL A   1      39.534  31.908  33.239  1.00  0.00     0.167 HD
ATOM     51  C   UNL A   1      40.334  28.794  30.255  1.00  0.00     0.037 A 
ATOM     52  C   UNL A   1      39.813  33.146  35.728  1.00  0.00     0.037 A 
ATOM     53  C   UNL A   1      41.302  28.583  31.299  1.00  0.00     0.049 A 
ATOM     54  C   UNL A   1      40.824  32.035  35.691  1.00  0.00     0.074 A 
ATOM     55  C   UNL A   1      42.334  27.663  31.342  1.00  0.00     0.029 A 
ATOM     56  N   UNL A   1      41.351  29.298  32.486  1.00  0.00    -0.354 N 
ATOM     57  N   UNL A   1      41.069  31.173  34.734  1.00  0.00    -0.248 NA
ATOM     58  C   UNL A   1      41.666  31.866  36.883  1.00  0.00     0.031 C 
ATOM     59  C   UNL A   1      42.975  27.786  32.579  1.00  0.00     0.029 A 
ATOM     60  C   UNL A   1      42.374  28.817  33.285  1.00  0.00     0.049 A 
ATOM     61  H   UNL A   1      40.748  30.038  32.724  1.00  0.00     0.167 HD
ATOM     62  C   UNL A   1      42.102  30.370  35.199  1.00  0.00     0.074 A 
ATOM     63  C   UNL A   1      42.453  30.864  36.516  1.00  0.00     0.031 C 
ATOM     64  C   UNL A   1      42.704  29.318  34.595  1.00  0.00     0.037 A 
BRANCH  51  65
ATOM     65  C   UNL A   1      40.351  27.876  29.067  1.00  0.00     0.057 A 
ATOM     66  C   UNL A   1      41.100  28.166  27.918  1.00  0.00     0.134 A 
ATOM     67  C   UNL A   1      39.636  26.672  29.082  1.00  0.00     0.134 A 
ATOM     68  F   UNL A   1      41.798  29.309  27.832  1.00  0.00    -0.206 F 
ATOM     69  C   UNL A   1      41.116  27.307  26.819  1.00  0.00     0.040 A 
ATOM     70  C   UNL A   1      39.667  25.790  28.000  1.00  0.00     0.040 A 
ATOM     71  F   UNL A   1      38.902  26.329  30.151  1.00  0.00    -0.206 F 
ATOM     72  C   UNL A   1      40.404  26.110  26.862  1.00  0.00     0.006 A 
ENDBRANCH  51  65
BRANCH  52  73
ATOM     73  C   UNL A   1      39.698  34.033  36.915  1.00  0.00     0.057 A 
ATOM     74  C   UNL A   1      40.386  35.251  36.975  1.00  0.00     0.134 A 
ATOM     75  C   UNL A   1      38.908  33.685  38.017  1.00  0.00     0.134 A 
ATOM     76  F   UNL A   1      41.174  35.631  35.958  1.00  0.00    -0.206 F 
ATOM     77  C   UNL A   1      40.306  36.082  38.093  1.00  0.00     0.040 A 
ATOM     78  C   UNL A   1      38.797  34.519  39.130  1.00  0.00     0.040 A 
ATOM     79  F   UNL A   1      38.217  32.536  38.020  1.00  0.00    -0.206 F 
ATOM     80  C   UNL A   1      39.505  35.719  39.174  1.00  0.00     0.006 A 
ENDBRANCH  52  73
BRANCH  64  81
ATOM     81  C   UNL A   1      43.809  28.636  35.347  1.00  0.00     0.057 A 
ATOM     82  C   UNL A   1      43.547  27.638  36.293  1.00  0.00     0.134 A 
ATOM     83  C   UNL A   1      45.150  28.947  35.087  1.00  0.00     0.134 A 
ATOM     84  F   UNL A   1      42.283  27.305  36.598  1.00  0.00    -0.206 F 
ATOM     85  C   UNL A   1      44.579  26.986  36.968  1.00  0.00     0.040 A 
ATOM     86  C   UNL A   1      46.191  28.281  35.734  1.00  0.00     0.040 A 
ATOM     87  F   UNL A   1      45.469  29.887  34.185  1.00  0.00    -0.206 F 
ATOM     88  C   UNL A   1      45.906  27.301  36.683  1.00  0.00     0.006 A 
ENDBRANCH  64  81
ENDBRANCH  38  39
ENDBRANCH  30  33
ENDBRANCH  28  29
ENDBRANCH   1  28
TORSDOF 13
ENDMDL
MODEL 3
REMARK VINA RESULT:     -12.3      3.645      7.044
REMARK SMILES CCc1cc(N2CCC[C@H](C(=O)NCCCNC(=O)c3ccc(-c4c5nc(c(-c6c(F)cccc6F)c6ccc([nH]6)c(-c6c(F)cccc6F)c6nc(c(-c7c(F)cccc7F)c7ccc4[nH]7)C=C6)C=C5)cc3)C2)nc(-c2ccc(Cl)cc2)n1
REMARK SMILES IDX 15 1 14 2 13 3 11 4 12 5 10 7 6 8 7 9 74 10 8 11 9 12 5 13
REMARK SMILES IDX 3 14 4 15 84 16 76 17 75 18 2 19 1 20 77 21 78 22 83 23
REMARK SMILES IDX 79 24 82 25 80 26 81 27 16 28 17 29 18 30 19 32 20 33 21 34
REMARK SMILES IDX 73 35 22 36 72 37 23 38 24 39 25 40 66 41 26 42 71 43 65 44
REMARK SMILES IDX 67 45 27 46 70 47 64 48 63 49 28 51 54 52 37 53 53 54 38 55
REMARK SMILES IDX 41 56 52 57 68 58 39 59 40 60 51 62 69 63 42 64 29 65 30 66
REMARK SMILES IDX 35 67 31 68 32 69 34 70 36 71 33 72 55 73 56 74 61 75 57 76
REMARK SMILES IDX 58 77 60 78 62 79 59 80 43 81 44 82 49 83 45 84 46 85 48 86
REMARK SMILES IDX 50 87 47 88
REMARK H PARENT 13 6 17 31 67 50 41 61
REMARK Flexibility Score: inf
ROOT
ATOM      1  C   UNL A   1      31.230  29.929  25.308  1.00  0.00     0.042 C 
ENDROOT
BRANCH   1   2
ATOM      2  C   UNL A   1      31.857  28.815  24.492  1.00  0.00     0.117 C 
BRANCH   2   3
ATOM      3  N   UNL A   1      32.770  27.990  25.251  1.00  0.00    -0.356 N 
ATOM      4  C   UNL A   1      33.009  26.656  25.198  1.00  0.00     0.224 C 
ATOM      5  O   UNL A   1      33.983  26.254  25.848  1.00  0.00    -0.275 OA
ATOM      6  H   UNL A   1      33.308  28.477  25.916  1.00  0.00     0.163 HD
BRANCH   4   7
ATOM      7  C   UNL A   1      32.165  25.642  24.420  1.00  0.00     0.098 C 
ATOM      8  N   UNL A   1      33.427  23.623  23.784  1.00  0.00    -0.356 N 
ATOM      9  C   UNL A   1      33.151  23.720  22.361  1.00  0.00     0.118 C 
ATOM     10  C   UNL A   1      32.483  24.186  24.735  1.00  0.00     0.131 C 
ATOM     11  C   UNL A   1      32.881  25.177  21.968  1.00  0.00     0.022 C 
ATOM     12  C   UNL A   1      31.966  25.936  22.929  1.00  0.00     0.017 C 
BRANCH   8  13
ATOM     13  C   UNL A   1      34.270  22.645  24.273  1.00  0.00     0.132 A 
ATOM     14  C   UNL A   1      36.369  21.887  25.025  1.00  0.00     0.046 A 
ATOM     15  C   UNL A   1      35.568  22.940  24.629  1.00  0.00     0.070 A 
ATOM     16  N   UNL A   1      35.894  20.634  25.138  1.00  0.00    -0.233 NA
ATOM     17  C   UNL A   1      34.620  20.431  24.769  1.00  0.00     0.161 A 
ATOM     18  N   UNL A   1      33.795  21.386  24.309  1.00  0.00    -0.211 NA
BRANCH  14  19
ATOM     19  C   UNL A   1      37.825  22.134  25.330  1.00  0.00     0.053 C 
ATOM     20  C   UNL A   1      38.086  23.401  26.133  1.00  0.00     0.011 C 
ENDBRANCH  14  19
BRANCH  17  21
ATOM     21  C   UNL A   1      34.114  19.057  24.860  1.00  0.00     0.019 A 
ATOM     22  C   UNL A   1      32.923  18.778  25.558  1.00  0.00     0.013 A 
ATOM     23  C   UNL A   1      34.814  17.974  24.298  1.00  0.00     0.013 A 
ATOM     24  C   UNL A   1      32.455  17.468  25.702  1.00  0.00     0.021 A 
ATOM     25  C   UNL A   1      34.357  16.659  24.454  1.00  0.00     0.021 A 
ATOM     26  C   UNL A   1      33.180  16.413  25.158  1.00  0.00     0.041 A 
ATOM     27  Cl  UNL A   1      32.633  14.796  25.375  1.00  0.00    -0.084 Cl
ENDBRANCH  17  21
ENDBRANCH   8  13
ENDBRANCH   4   7
ENDBRANCH   2   3
ENDBRANCH   1   2
BRANCH   1  28
ATOM     28  C   UNL A   1      32.105  30.357  26.471  1.00  0.00     0.118 C 
BRANCH  28  29
ATOM     29  N   UNL A   1      32.046  31.796  26.715  1.00  0.00    -0.352 N 
ATOM     30  C   UNL A   1      32.901  32.631  27.399  1.00  0.00     0.251 C 
ATOM     31  H   UNL A   1      31.261  32.246  26.324  1.00  0.00     0.163 HD
ATOM     32  O   UNL A   1      32.571  33.783  27.640  1.00  0.00    -0.269 OA
BRANCH  30  33
ATOM     33  C   UNL A   1      34.204  32.124  27.882  1.00  0.00     0.039 A 
ATOM     34  C   UNL A   1      35.272  33.017  28.007  1.00  0.00     0.014 A 
ATOM     35  C   UNL A   1      34.371  30.786  28.232  1.00  0.00     0.014 A 
ATOM     36  C   UNL A   1      36.468  32.588  28.585  1.00  0.00     0.010 A 
ATOM     37  C   UNL A   1      35.514  30.388  28.912  1.00  0.00     0.010 A 
ATOM     38  C   UNL A   1      36.574  31.287  29.102  1.00  0.00    -0.014 A 
BRANCH  38  39
ATOM     39  C   UNL A   1      37.767  30.846  29.865  1.00  0.00     0.031 A 
ATOM     40  C   UNL A   1      38.740  29.877  29.252  1.00  0.00     0.074 A 
ATOM     41  C   UNL A   1      37.920  31.245  31.144  1.00  0.00     0.049 A 
ATOM     42  N   UNL A   1      39.776  29.292  29.795  1.00  0.00    -0.248 NA
ATOM     43  C   UNL A   1      38.497  29.490  27.853  1.00  0.00     0.031 C 
ATOM     44  C   UNL A   1      37.012  32.137  31.869  1.00  0.00     0.029 A 
ATOM     45  N   UNL A   1      38.888  30.938  32.069  1.00  0.00    -0.354 N 
ATOM     46  C   UNL A   1      40.294  28.457  28.814  1.00  0.00     0.074 A 
ATOM     47  C   UNL A   1      39.426  28.566  27.662  1.00  0.00     0.031 C 
ATOM     48  C   UNL A   1      37.479  32.326  33.112  1.00  0.00     0.029 A 
ATOM     49  C   UNL A   1      38.689  31.533  33.291  1.00  0.00     0.049 A 
ATOM     50  H   UNL A   1      39.652  30.348  31.873  1.00  0.00     0.167 HD
ATOM     51  C   UNL A   1      41.408  27.689  28.859  1.00  0.00     0.037 A 
ATOM     52  C   UNL A   1      39.395  31.435  34.434  1.00  0.00     0.037 A 
ATOM     53  C   UNL A   1      42.281  27.606  29.999  1.00  0.00     0.049 A 
ATOM     54  C   UNL A   1      40.617  30.560  34.464  1.00  0.00     0.074 A 
ATOM     55  C   UNL A   1      43.475  26.917  30.121  1.00  0.00     0.029 A 
ATOM     56  N   UNL A   1      42.051  28.229  31.216  1.00  0.00    -0.354 N 
ATOM     57  N   UNL A   1      41.139  29.838  33.503  1.00  0.00    -0.248 NA
ATOM     58  C   UNL A   1      41.343  30.482  35.739  1.00  0.00     0.031 C 
ATOM     59  C   UNL A   1      43.940  27.080  31.430  1.00  0.00     0.029 A 
ATOM     60  C   UNL A   1      43.062  27.911  32.108  1.00  0.00     0.049 A 
ATOM     61  H   UNL A   1      41.283  28.810  31.417  1.00  0.00     0.167 HD
ATOM     62  C   UNL A   1      42.264  29.234  34.049  1.00  0.00     0.074 A 
ATOM     63  C   UNL A   1      42.360  29.693  35.420  1.00  0.00     0.031 C 
ATOM     64  C   UNL A   1      43.136  28.374  33.470  1.00  0.00     0.037 A 
BRANCH  51  65
ATOM     65  C   UNL A   1      41.746  26.882  27.639  1.00  0.00     0.057 A 
ATOM     66  C   UNL A   1      42.555  27.393  26.614  1.00  0.00     0.134 A 
ATOM     67  C   UNL A   1      41.283  25.568  27.498  1.00  0.00     0.134 A 
ATOM     68  F   UNL A   1      43.020  28.651  26.679  1.00  0.00    -0.206 F 
ATOM     69  C   UNL A   1      42.870  26.637  25.484  1.00  0.00     0.040 A 
ATOM     70  C   UNL A   1      41.616  24.791  26.387  1.00  0.00     0.040 A 
ATOM     71  F   UNL A   1      40.509  25.013  28.443  1.00  0.00    -0.206 F 
ATOM     72  C   UNL A   1      42.406  25.328  25.373  1.00  0.00     0.006 A 
ENDBRANCH  51  65
BRANCH  52  73
ATOM     73  C   UNL A   1      38.968  32.191  35.640  1.00  0.00     0.057 A 
ATOM     74  C   UNL A   1      39.346  33.526  35.826  1.00  0.00     0.134 A 
ATOM     75  C   UNL A   1      38.182  31.600  36.636  1.00  0.00     0.134 A 
ATOM     76  F   UNL A   1      40.116  34.142  34.916  1.00  0.00    -0.206 F 
ATOM     77  C   UNL A   1      38.974  34.241  36.965  1.00  0.00     0.040 A 
ATOM     78  C   UNL A   1      37.779  32.311  37.768  1.00  0.00     0.040 A 
ATOM     79  F   UNL A   1      37.779  30.327  36.517  1.00  0.00    -0.206 F 
ATOM     80  C   UNL A   1      38.182  33.634  37.938  1.00  0.00     0.006 A 
ENDBRANCH  52  73
BRANCH  64  81
ATOM     81  C   UNL A   1      44.274  27.881  34.315  1.00  0.00     0.057 A 
ATOM     82  C   UNL A   1      44.185  26.691  35.046  1.00  0.00     0.134 A 
ATOM     83  C   UNL A   1      45.488  28.579  34.359  1.00  0.00     0.134 A 
ATOM     84  F   UNL A   1      43.044  25.984  35.058  1.00  0.00    -0.206 F 
ATOM     85  C   UNL A   1      45.256  26.221  35.807  1.00  0.00     0.040 A 
ATOM     86  C   UNL A   1      46.576  28.104  35.092  1.00  0.00     0.040 A 
ATOM     87  F   UNL A   1      45.642  29.721  33.673  1.00  0.00    -0.206 F 
ATOM     88  C   UNL A   1      46.459  26.924  35.823  1.00  0.00     0.006 A 
ENDBRANCH  64  81
ENDBRANCH  38  39
ENDBRANCH  30  33
ENDBRANCH  28  29
ENDBRANCH   1  28
TORSDOF 13
ENDMDL
