MODEL 1
REMARK VINA RESULT:     -11.7      0.000      0.000
REMARK SMILES CC(=O)N[C@@H](C)C(=O)N1CCC[C@H]1C(=O)NCCCNC(=O)c1ccc(-c2c3nc(c(-c4c(F)cccc4F)c4ccc([nH]4)c(-c4c(F)cccc4F)c4nc(c(-c5c(F)cccc5F)c5ccc2[nH]5)C=C4)C=C3)cc1
REMARK SMILES IDX 17 1 16 2 14 3 15 4 13 6 9 7 10 8 11 9 12 10 7 11 8 12 5 13
REMARK SMILES IDX 6 14 4 15 1 16 2 17 3 18 18 20 19 21 20 22 21 23 22 25 23 26
REMARK SMILES IDX 24 27 76 28 25 29 75 30 26 31 27 32 28 33 69 34 29 35 74 36
REMARK SMILES IDX 68 37 70 38 30 39 73 40 67 41 66 42 31 44 57 45 40 46 56 47
REMARK SMILES IDX 41 48 44 49 55 50 71 51 42 52 43 53 54 55 72 56 45 57 32 58
REMARK SMILES IDX 33 59 38 60 34 61 35 62 37 63 39 64 36 65 58 66 59 67 64 68
REMARK SMILES IDX 60 69 61 70 63 71 65 72 62 73 46 74 47 75 52 76 48 77 49 78
REMARK SMILES IDX 51 79 53 80 50 81
REMARK H PARENT 16 5 4 19 20 24 70 43 44 54
REMARK Flexibility Score: inf
ROOT
ATOM      1  C   UNL A   1      31.542  30.703  26.593  1.00  0.00     0.117 C 
ENDROOT
BRANCH   1   2
ATOM      2  N   UNL A   1      32.380  30.239  25.510  1.00  0.00    -0.354 N 
ATOM      3  C   UNL A   1      32.121  29.331  24.528  1.00  0.00     0.242 C 
ATOM      4  O   UNL A   1      32.917  29.296  23.583  1.00  0.00    -0.273 OA
ATOM      5  H   UNL A   1      33.278  30.642  25.478  1.00  0.00     0.163 HD
BRANCH   3   6
ATOM      6  C   UNL A   1      30.801  28.530  24.471  1.00  0.00     0.174 C 
ATOM      7  N   UNL A   1      30.242  28.205  23.151  1.00  0.00    -0.329 N 
ATOM      8  C   UNL A   1      30.056  26.776  22.985  1.00  0.00     0.120 C 
ATOM      9  C   UNL A   1      30.126  26.197  24.387  1.00  0.00     0.024 C 
ATOM     10  C   UNL A   1      30.946  27.190  25.201  1.00  0.00     0.037 C 
BRANCH   7  11
ATOM     11  C   UNL A   1      29.736  29.243  22.392  1.00  0.00     0.245 C 
ATOM     12  O   UNL A   1      30.386  29.688  21.438  1.00  0.00    -0.272 OA
BRANCH  11  13
ATOM     13  C   UNL A   1      28.464  30.006  22.829  1.00  0.00     0.168 C 
ATOM     14  C   UNL A   1      27.345  29.011  23.140  1.00  0.00     0.041 C 
BRANCH  13  15
ATOM     15  N   UNL A   1      28.009  31.056  21.923  1.00  0.00    -0.345 N 
ATOM     16  C   UNL A   1      28.981  32.927  23.212  1.00  0.00     0.114 C 
ATOM     17  C   UNL A   1      28.202  32.401  22.038  1.00  0.00     0.217 C 
ATOM     18  O   UNL A   1      27.732  33.145  21.179  1.00  0.00    -0.275 OA
ATOM     19  H   UNL A   1      27.502  30.757  21.134  1.00  0.00     0.164 HD
ENDBRANCH  13  15
ENDBRANCH  11  13
ENDBRANCH   7  11
ENDBRANCH   3   6
ENDBRANCH   1   2
BRANCH   1  20
ATOM     20  C   UNL A   1      31.434  32.218  26.639  1.00  0.00     0.042 C 
BRANCH  20  21
ATOM     21  C   UNL A   1      32.697  32.884  27.168  1.00  0.00     0.118 C 
BRANCH  21  22
ATOM     22  N   UNL A   1      32.460  34.260  27.593  1.00  0.00    -0.352 N 
ATOM     23  C   UNL A   1      33.017  34.976  28.622  1.00  0.00     0.251 C 
ATOM     24  H   UNL A   1      31.796  34.751  27.056  1.00  0.00     0.163 HD
ATOM     25  O   UNL A   1      32.529  36.051  28.952  1.00  0.00    -0.269 OA
BRANCH  23  26
ATOM     26  C   UNL A   1      34.199  34.449  29.334  1.00  0.00     0.039 A 
ATOM     27  C   UNL A   1      34.023  33.829  30.574  1.00  0.00     0.014 A 
ATOM     28  C   UNL A   1      35.478  34.591  28.793  1.00  0.00     0.014 A 
ATOM     29  C   UNL A   1      35.127  33.299  31.242  1.00  0.00     0.010 A 
ATOM     30  C   UNL A   1      36.563  33.988  29.416  1.00  0.00     0.010 A 
ATOM     31  C   UNL A   1      36.400  33.347  30.653  1.00  0.00    -0.014 A 
BRANCH  31  32
ATOM     32  C   UNL A   1      37.586  32.758  31.318  1.00  0.00     0.031 A 
ATOM     33  C   UNL A   1      38.264  31.561  30.709  1.00  0.00     0.074 A 
ATOM     34  C   UNL A   1      38.001  33.245  32.502  1.00  0.00     0.049 A 
ATOM     35  N   UNL A   1      39.241  30.831  31.185  1.00  0.00    -0.248 NA
ATOM     36  C   UNL A   1      37.755  31.105  29.406  1.00  0.00     0.031 C 
ATOM     37  C   UNL A   1      37.395  34.374  33.212  1.00  0.00     0.029 A 
ATOM     38  N   UNL A   1      39.019  32.842  33.326  1.00  0.00    -0.354 N 
ATOM     39  C   UNL A   1      39.446  29.822  30.253  1.00  0.00     0.074 A 
ATOM     40  C   UNL A   1      38.457  29.999  29.212  1.00  0.00     0.031 C 
ATOM     41  C   UNL A   1      38.066  34.584  34.355  1.00  0.00     0.029 A 
ATOM     42  C   UNL A   1      39.118  33.580  34.480  1.00  0.00     0.049 A 
ATOM     43  H   UNL A   1      39.623  32.094  33.111  1.00  0.00     0.167 HD
ATOM     44  C   UNL A   1      40.387  28.849  30.254  1.00  0.00     0.037 A 
ATOM     45  C   UNL A   1      39.956  33.452  35.526  1.00  0.00     0.037 A 
ATOM     46  C   UNL A   1      41.383  28.696  31.280  1.00  0.00     0.049 A 
ATOM     47  C   UNL A   1      40.988  32.359  35.507  1.00  0.00     0.074 A 
ATOM     48  C   UNL A   1      42.419  27.779  31.347  1.00  0.00     0.029 A 
ATOM     49  N   UNL A   1      41.467  29.479  32.422  1.00  0.00    -0.354 N 
ATOM     50  N   UNL A   1      41.212  31.449  34.591  1.00  0.00    -0.248 NA
ATOM     51  C   UNL A   1      41.888  32.279  36.665  1.00  0.00     0.031 C 
ATOM     52  C   UNL A   1      43.100  27.979  32.552  1.00  0.00     0.029 A 
ATOM     53  C   UNL A   1      42.524  29.055  33.210  1.00  0.00     0.049 A 
ATOM     54  H   UNL A   1      40.864  30.227  32.640  1.00  0.00     0.167 HD
ATOM     55  C   UNL A   1      42.295  30.708  35.045  1.00  0.00     0.074 A 
ATOM     56  C   UNL A   1      42.690  31.285  36.315  1.00  0.00     0.031 C 
ATOM     57  C   UNL A   1      42.908  29.648  34.465  1.00  0.00     0.037 A 
BRANCH  44  58
ATOM     58  C   UNL A   1      40.381  27.880  29.107  1.00  0.00     0.057 A 
ATOM     59  C   UNL A   1      39.573  26.734  29.109  1.00  0.00     0.134 A 
ATOM     60  C   UNL A   1      41.174  28.108  27.975  1.00  0.00     0.134 A 
ATOM     61  F   UNL A   1      38.799  26.449  30.168  1.00  0.00    -0.206 F 
ATOM     62  C   UNL A   1      39.577  25.835  28.041  1.00  0.00     0.040 A 
ATOM     63  C   UNL A   1      41.163  27.230  26.888  1.00  0.00     0.040 A 
ATOM     64  F   UNL A   1      41.966  29.187  27.902  1.00  0.00    -0.206 F 
ATOM     65  C   UNL A   1      40.370  26.086  26.923  1.00  0.00     0.006 A 
ENDBRANCH  44  58
BRANCH  45  66
ATOM     66  C   UNL A   1      39.869  34.396  36.669  1.00  0.00     0.057 A 
ATOM     67  C   UNL A   1      40.514  35.637  36.630  1.00  0.00     0.134 A 
ATOM     68  C   UNL A   1      39.146  34.081  37.826  1.00  0.00     0.134 A 
ATOM     69  F   UNL A   1      41.237  35.988  35.556  1.00  0.00    -0.206 F 
ATOM     70  C   UNL A   1      40.462  36.523  37.707  1.00  0.00     0.040 A 
ATOM     71  C   UNL A   1      39.062  34.969  38.900  1.00  0.00     0.040 A 
ATOM     72  F   UNL A   1      38.499  32.911  37.923  1.00  0.00    -0.206 F 
ATOM     73  C   UNL A   1      39.729  36.192  38.845  1.00  0.00     0.006 A 
ENDBRANCH  45  66
BRANCH  57  74
ATOM     74  C   UNL A   1      44.098  29.070  35.175  1.00  0.00     0.057 A 
ATOM     75  C   UNL A   1      45.400  29.520  34.926  1.00  0.00     0.134 A 
ATOM     76  C   UNL A   1      43.930  28.080  36.152  1.00  0.00     0.134 A 
ATOM     77  F   UNL A   1      45.630  30.456  33.994  1.00  0.00    -0.206 F 
ATOM     78  C   UNL A   1      46.497  28.988  35.608  1.00  0.00     0.040 A 
ATOM     79  C   UNL A   1      45.014  27.563  36.861  1.00  0.00     0.040 A 
ATOM     80  F   UNL A   1      42.708  27.612  36.446  1.00  0.00    -0.206 F 
ATOM     81  C   UNL A   1      46.303  28.012  36.584  1.00  0.00     0.006 A 
ENDBRANCH  57  74
ENDBRANCH  31  32
ENDBRANCH  23  26
ENDBRANCH  21  22
ENDBRANCH  20  21
ENDBRANCH   1  20
TORSDOF 13
ENDMDL
MODEL 2
REMARK VINA RESULT:     -11.5      6.982     11.764
REMARK SMILES CC(=O)N[C@@H](C)C(=O)N1CCC[C@H]1C(=O)NCCCNC(=O)c1ccc(-c2c3nc(c(-c4c(F)cccc4F)c4ccc([nH]4)c(-c4c(F)cccc4F)c4nc(c(-c5c(F)cccc5F)c5ccc2[nH]5)C=C4)C=C3)cc1
REMARK SMILES IDX 17 1 16 2 14 3 15 4 13 6 9 7 10 8 11 9 12 10 7 11 8 12 5 13
REMARK SMILES IDX 6 14 4 15 1 16 2 17 3 18 18 20 19 21 20 22 21 23 22 25 23 26
REMARK SMILES IDX 24 27 76 28 25 29 75 30 26 31 27 32 28 33 69 34 29 35 74 36
REMARK SMILES IDX 68 37 70 38 30 39 73 40 67 41 66 42 31 44 57 45 40 46 56 47
REMARK SMILES IDX 41 48 44 49 55 50 71 51 42 52 43 53 54 55 72 56 45 57 32 58
REMARK SMILES IDX 33 59 38 60 34 61 35 62 37 63 39 64 36 65 58 66 59 67 64 68
REMARK SMILES IDX 60 69 61 70 63 71 65 72 62 73 46 74 47 75 52 76 48 77 49 78
REMARK SMILES IDX 51 79 53 80 50 81
REMARK H PARENT 16 5 4 19 20 24 70 43 44 54
REMARK Flexibility Score: inf
ROOT
ATOM      1  C   UNL A   1      37.219  20.744  24.630  1.00  0.00     0.117 C 
ENDROOT
BRANCH   1   2
ATOM      2  N   UNL A   1      36.268  21.056  25.672  1.00  0.00    -0.354 N 
ATOM      3  C   UNL A   1      34.911  21.170  25.617  1.00  0.00     0.242 C 
ATOM      4  O   UNL A   1      34.314  21.203  26.698  1.00  0.00    -0.273 OA
ATOM      5  H   UNL A   1      36.662  21.211  26.561  1.00  0.00     0.163 HD
BRANCH   3   6
ATOM      6  C   UNL A   1      34.127  21.051  24.291  1.00  0.00     0.174 C 
ATOM      7  N   UNL A   1      32.740  20.568  24.346  1.00  0.00    -0.329 N 
ATOM      8  C   UNL A   1      31.817  21.515  23.751  1.00  0.00     0.120 C 
ATOM      9  C   UNL A   1      32.683  22.459  22.935  1.00  0.00     0.024 C 
ATOM     10  C   UNL A   1      34.065  22.403  23.572  1.00  0.00     0.037 C 
BRANCH   7  11
ATOM     11  C   UNL A   1      32.532  19.242  24.678  1.00  0.00     0.245 C 
ATOM     12  O   UNL A   1      32.135  18.942  25.810  1.00  0.00    -0.272 OA
BRANCH  11  13
ATOM     13  C   UNL A   1      32.982  18.102  23.734  1.00  0.00     0.168 C 
ATOM     14  C   UNL A   1      32.429  18.345  22.330  1.00  0.00     0.041 C 
BRANCH  13  15
ATOM     15  N   UNL A   1      32.696  16.746  24.193  1.00  0.00    -0.345 N 
ATOM     16  C   UNL A   1      34.978  16.287  25.027  1.00  0.00     0.114 C 
ATOM     17  C   UNL A   1      33.554  15.865  24.782  1.00  0.00     0.217 C 
ATOM     18  O   UNL A   1      33.141  14.750  25.095  1.00  0.00    -0.275 OA
ATOM     19  H   UNL A   1      31.773  16.430  24.062  1.00  0.00     0.164 HD
ENDBRANCH  13  15
ENDBRANCH  11  13
ENDBRANCH   7  11
ENDBRANCH   3   6
ENDBRANCH   1   2
BRANCH   1  20
ATOM     20  C   UNL A   1      38.137  19.592  25.004  1.00  0.00     0.042 C 
BRANCH  20  21
ATOM     21  C   UNL A   1      39.271  20.016  25.928  1.00  0.00     0.118 C 
BRANCH  21  22
ATOM     22  N   UNL A   1      40.338  19.022  25.985  1.00  0.00    -0.352 N 
ATOM     23  C   UNL A   1      41.695  19.188  26.096  1.00  0.00     0.251 C 
ATOM     24  H   UNL A   1      40.036  18.086  25.937  1.00  0.00     0.163 HD
ATOM     25  O   UNL A   1      42.443  18.235  25.910  1.00  0.00    -0.269 OA
BRANCH  23  26
ATOM     26  C   UNL A   1      42.252  20.514  26.432  1.00  0.00     0.039 A 
ATOM     27  C   UNL A   1      42.782  21.306  25.410  1.00  0.00     0.014 A 
ATOM     28  C   UNL A   1      42.278  20.961  27.754  1.00  0.00     0.014 A 
ATOM     29  C   UNL A   1      43.283  22.573  25.709  1.00  0.00     0.010 A 
ATOM     30  C   UNL A   1      42.696  22.255  28.038  1.00  0.00     0.010 A 
ATOM     31  C   UNL A   1      43.215  23.069  27.021  1.00  0.00    -0.014 A 
BRANCH  31  32
ATOM     32  C   UNL A   1      43.701  24.426  27.365  1.00  0.00     0.031 A 
ATOM     33  C   UNL A   1      42.722  25.480  27.804  1.00  0.00     0.074 A 
ATOM     34  C   UNL A   1      45.003  24.730  27.206  1.00  0.00     0.049 A 
ATOM     35  N   UNL A   1      42.924  26.751  28.042  1.00  0.00    -0.248 NA
ATOM     36  C   UNL A   1      41.322  25.054  27.965  1.00  0.00     0.031 C 
ATOM     37  C   UNL A   1      46.038  23.804  26.744  1.00  0.00     0.029 A 
ATOM     38  N   UNL A   1      45.673  25.911  27.399  1.00  0.00    -0.354 N 
ATOM     39  C   UNL A   1      41.678  27.277  28.358  1.00  0.00     0.074 A 
ATOM     40  C   UNL A   1      40.718  26.203  28.228  1.00  0.00     0.031 C 
ATOM     41  C   UNL A   1      47.217  24.447  26.708  1.00  0.00     0.029 A 
ATOM     42  C   UNL A   1      47.011  25.838  27.100  1.00  0.00     0.049 A 
ATOM     43  H   UNL A   1      45.236  26.733  27.721  1.00  0.00     0.167 HD
ATOM     44  C   UNL A   1      41.367  28.537  28.744  1.00  0.00     0.037 A 
ATOM     45  C   UNL A   1      47.963  26.789  27.129  1.00  0.00     0.037 A 
ATOM     46  C   UNL A   1      42.332  29.593  28.896  1.00  0.00     0.049 A 
ATOM     47  C   UNL A   1      47.590  28.183  27.554  1.00  0.00     0.074 A 
ATOM     48  C   UNL A   1      42.129  30.889  29.337  1.00  0.00     0.029 A 
ATOM     49  N   UNL A   1      43.683  29.474  28.609  1.00  0.00    -0.354 N 
ATOM     50  N   UNL A   1      46.420  28.654  27.911  1.00  0.00    -0.248 NA
ATOM     51  C   UNL A   1      48.672  29.177  27.585  1.00  0.00     0.031 C 
ATOM     52  C   UNL A   1      43.350  31.567  29.272  1.00  0.00     0.029 A 
ATOM     53  C   UNL A   1      44.324  30.678  28.843  1.00  0.00     0.049 A 
ATOM     54  H   UNL A   1      44.122  28.653  28.285  1.00  0.00     0.167 HD
ATOM     55  C   UNL A   1      46.629  29.987  28.238  1.00  0.00     0.074 A 
ATOM     56  C   UNL A   1      48.042  30.246  28.049  1.00  0.00     0.031 C 
ATOM     57  C   UNL A   1      45.733  30.914  28.659  1.00  0.00     0.037 A 
BRANCH  44  58
ATOM     58  C   UNL A   1      39.923  28.835  29.030  1.00  0.00     0.057 A 
ATOM     59  C   UNL A   1      39.390  28.751  30.324  1.00  0.00     0.134 A 
ATOM     60  C   UNL A   1      39.060  29.238  28.003  1.00  0.00     0.134 A 
ATOM     61  F   UNL A   1      40.159  28.358  31.351  1.00  0.00    -0.206 F 
ATOM     62  C   UNL A   1      38.046  29.024  30.581  1.00  0.00     0.040 A 
ATOM     63  C   UNL A   1      37.720  29.544  28.253  1.00  0.00     0.040 A 
ATOM     64  F   UNL A   1      39.503  29.347  26.742  1.00  0.00    -0.206 F 
ATOM     65  C   UNL A   1      37.208  29.429  29.544  1.00  0.00     0.006 A 
ENDBRANCH  44  58
BRANCH  45  66
ATOM     66  C   UNL A   1      49.363  26.454  26.765  1.00  0.00     0.057 A 
ATOM     67  C   UNL A   1      50.240  25.907  27.707  1.00  0.00     0.134 A 
ATOM     68  C   UNL A   1      49.857  26.676  25.475  1.00  0.00     0.134 A 
ATOM     69  F   UNL A   1      49.830  25.688  28.965  1.00  0.00    -0.206 F 
ATOM     70  C   UNL A   1      51.566  25.611  27.386  1.00  0.00     0.040 A 
ATOM     71  C   UNL A   1      51.173  26.359  25.132  1.00  0.00     0.040 A 
ATOM     72  F   UNL A   1      49.065  27.192  24.524  1.00  0.00    -0.206 F 
ATOM     73  C   UNL A   1      52.034  25.832  26.093  1.00  0.00     0.006 A 
ENDBRANCH  45  66
BRANCH  57  74
ATOM     74  C   UNL A   1      46.262  32.281  28.985  1.00  0.00     0.057 A 
ATOM     75  C   UNL A   1      46.736  32.607  30.261  1.00  0.00     0.134 A 
ATOM     76  C   UNL A   1      46.335  33.268  27.994  1.00  0.00     0.134 A 
ATOM     77  F   UNL A   1      46.681  31.710  31.257  1.00  0.00    -0.206 F 
ATOM     78  C   UNL A   1      47.244  33.876  30.546  1.00  0.00     0.040 A 
ATOM     79  C   UNL A   1      46.868  34.530  28.259  1.00  0.00     0.040 A 
ATOM     80  F   UNL A   1      45.907  33.017  26.747  1.00  0.00    -0.206 F 
ATOM     81  C   UNL A   1      47.318  34.838  29.541  1.00  0.00     0.006 A 
ENDBRANCH  57  74
ENDBRANCH  31  32
ENDBRANCH  23  26
ENDBRANCH  21  22
ENDBRANCH  20  21
ENDBRANCH   1  20
TORSDOF 13
ENDMDL
MODEL 3
REMARK VINA RESULT:     -11.4      1.519      3.084
REMARK SMILES CC(=O)N[C@@H](C)C(=O)N1CCC[C@H]1C(=O)NCCCNC(=O)c1ccc(-c2c3nc(c(-c4c(F)cccc4F)c4ccc([nH]4)c(-c4c(F)cccc4F)c4nc(c(-c5c(F)cccc5F)c5ccc2[nH]5)C=C4)C=C3)cc1
REMARK SMILES IDX 17 1 16 2 14 3 15 4 13 6 9 7 10 8 11 9 12 10 7 11 8 12 5 13
REMARK SMILES IDX 6 14 4 15 1 16 2 17 3 18 18 20 19 21 20 22 21 23 22 25 23 26
REMARK SMILES IDX 24 27 76 28 25 29 75 30 26 31 27 32 28 33 69 34 29 35 74 36
REMARK SMILES IDX 68 37 70 38 30 39 73 40 67 41 66 42 31 44 57 45 40 46 56 47
REMARK SMILES IDX 41 48 44 49 55 50 71 51 42 52 43 53 54 55 72 56 45 57 32 58
REMARK SMILES IDX 33 59 38 60 34 61 35 62 37 63 39 64 36 65 58 66 59 67 64 68
REMARK SMILES IDX 60 69 61 70 63 71 65 72 62 73 46 74 47 75 52 76 48 77 49 78
REMARK SMILES IDX 51 79 53 80 50 81
REMARK H PARENT 16 5 4 19 20 24 70 43 44 54
REMARK Flexibility Score: inf
ROOT
ATOM      1  C   UNL A   1      31.548  30.799  26.113  1.00  0.00     0.117 C 
ENDROOT
BRANCH   1   2
ATOM      2  N   UNL A   1      30.814  30.456  24.916  1.00  0.00    -0.354 N 
ATOM      3  C   UNL A   1      31.030  29.463  24.008  1.00  0.00     0.242 C 
ATOM      4  O   UNL A   1      30.115  29.234  23.211  1.00  0.00    -0.273 OA
ATOM      5  H   UNL A   1      30.035  31.029  24.729  1.00  0.00     0.163 HD
BRANCH   3   6
ATOM      6  C   UNL A   1      32.255  28.525  24.088  1.00  0.00     0.174 C 
ATOM      7  N   UNL A   1      32.020  27.074  24.071  1.00  0.00    -0.329 N 
ATOM      8  C   UNL A   1      32.737  26.427  22.990  1.00  0.00     0.120 C 
ATOM      9  C   UNL A   1      33.778  27.435  22.539  1.00  0.00     0.024 C 
ATOM     10  C   UNL A   1      33.227  28.799  22.935  1.00  0.00     0.037 C 
BRANCH   7  11
ATOM     11  C   UNL A   1      31.415  26.507  25.177  1.00  0.00     0.245 C 
ATOM     12  O   UNL A   1      31.910  26.659  26.300  1.00  0.00    -0.272 OA
BRANCH  11  13
ATOM     13  C   UNL A   1      30.242  25.509  25.024  1.00  0.00     0.168 C 
ATOM     14  C   UNL A   1      29.056  26.205  24.356  1.00  0.00     0.041 C 
BRANCH  13  15
ATOM     15  N   UNL A   1      29.837  24.813  26.241  1.00  0.00    -0.345 N 
ATOM     16  C   UNL A   1      31.045  22.717  25.733  1.00  0.00     0.114 C 
ATOM     17  C   UNL A   1      30.158  23.544  26.623  1.00  0.00     0.217 C 
ATOM     18  O   UNL A   1      29.713  23.112  27.685  1.00  0.00    -0.275 OA
ATOM     19  H   UNL A   1      29.263  25.319  26.860  1.00  0.00     0.164 HD
ENDBRANCH  13  15
ENDBRANCH  11  13
ENDBRANCH   7  11
ENDBRANCH   3   6
ENDBRANCH   1   2
BRANCH   1  20
ATOM     20  C   UNL A   1      31.372  32.255  26.509  1.00  0.00     0.042 C 
BRANCH  20  21
ATOM     21  C   UNL A   1      32.607  32.836  27.185  1.00  0.00     0.118 C 
BRANCH  21  22
ATOM     22  N   UNL A   1      32.416  34.227  27.583  1.00  0.00    -0.352 N 
ATOM     23  C   UNL A   1      33.032  34.958  28.567  1.00  0.00     0.251 C 
ATOM     24  H   UNL A   1      31.738  34.718  27.063  1.00  0.00     0.163 HD
ATOM     25  O   UNL A   1      32.580  36.051  28.889  1.00  0.00    -0.269 OA
BRANCH  23  26
ATOM     26  C   UNL A   1      34.234  34.425  29.240  1.00  0.00     0.039 A 
ATOM     27  C   UNL A   1      34.084  33.721  30.438  1.00  0.00     0.014 A 
ATOM     28  C   UNL A   1      35.505  34.643  28.705  1.00  0.00     0.014 A 
ATOM     29  C   UNL A   1      35.208  33.185  31.067  1.00  0.00     0.010 A 
ATOM     30  C   UNL A   1      36.612  34.036  29.285  1.00  0.00     0.010 A 
ATOM     31  C   UNL A   1      36.476  33.313  30.479  1.00  0.00    -0.014 A 
BRANCH  31  32
ATOM     32  C   UNL A   1      37.684  32.721  31.100  1.00  0.00     0.031 A 
ATOM     33  C   UNL A   1      38.328  31.513  30.477  1.00  0.00     0.074 A 
ATOM     34  C   UNL A   1      38.150  33.217  32.262  1.00  0.00     0.049 A 
ATOM     35  N   UNL A   1      39.318  30.780  30.920  1.00  0.00    -0.248 NA
ATOM     36  C   UNL A   1      37.762  31.047  29.201  1.00  0.00     0.031 C 
ATOM     37  C   UNL A   1      37.582  34.358  32.984  1.00  0.00     0.029 A 
ATOM     38  N   UNL A   1      39.199  32.814  33.048  1.00  0.00    -0.354 N 
ATOM     39  C   UNL A   1      39.476  29.760  29.991  1.00  0.00     0.074 A 
ATOM     40  C   UNL A   1      38.447  29.934  28.990  1.00  0.00     0.031 C 
ATOM     41  C   UNL A   1      38.301  34.574  34.097  1.00  0.00     0.029 A 
ATOM     42  C   UNL A   1      39.350  33.563  34.189  1.00  0.00     0.049 A 
ATOM     43  H   UNL A   1      39.787  32.059  32.816  1.00  0.00     0.167 HD
ATOM     44  C   UNL A   1      40.410  28.780  29.964  1.00  0.00     0.037 A 
ATOM     45  C   UNL A   1      40.228  33.439  35.201  1.00  0.00     0.037 A 
ATOM     46  C   UNL A   1      41.446  28.629  30.950  1.00  0.00     0.049 A 
ATOM     47  C   UNL A   1      41.251  32.337  35.151  1.00  0.00     0.074 A 
ATOM     48  C   UNL A   1      42.477  27.705  30.985  1.00  0.00     0.029 A 
ATOM     49  N   UNL A   1      41.582  29.423  32.079  1.00  0.00    -0.354 N 
ATOM     50  N   UNL A   1      41.430  31.417  34.236  1.00  0.00    -0.248 NA
ATOM     51  C   UNL A   1      42.197  32.262  36.273  1.00  0.00     0.031 C 
ATOM     52  C   UNL A   1      43.208  27.912  32.158  1.00  0.00     0.029 A 
ATOM     53  C   UNL A   1      42.667  28.998  32.828  1.00  0.00     0.049 A 
ATOM     54  H   UNL A   1      40.994  30.178  32.314  1.00  0.00     0.167 HD
ATOM     55  C   UNL A   1      42.526  30.672  34.654  1.00  0.00     0.074 A 
ATOM     56  C   UNL A   1      42.977  31.258  35.900  1.00  0.00     0.031 C 
ATOM     57  C   UNL A   1      43.107  29.601  34.060  1.00  0.00     0.037 A 
BRANCH  44  58
ATOM     58  C   UNL A   1      40.350  27.799  28.829  1.00  0.00     0.057 A 
ATOM     59  C   UNL A   1      41.058  28.001  27.636  1.00  0.00     0.134 A 
ATOM     60  C   UNL A   1      39.595  26.624  28.939  1.00  0.00     0.134 A 
ATOM     61  F   UNL A   1      41.790  29.112  27.460  1.00  0.00    -0.206 F 
ATOM     62  C   UNL A   1      40.992  27.087  26.582  1.00  0.00     0.040 A 
ATOM     63  C   UNL A   1      39.546  25.688  27.903  1.00  0.00     0.040 A 
ATOM     64  F   UNL A   1      38.897  26.362  30.054  1.00  0.00    -0.206 F 
ATOM     65  C   UNL A   1      40.239  25.923  26.717  1.00  0.00     0.006 A 
ENDBRANCH  44  58
BRANCH  45  66
ATOM     66  C   UNL A   1      40.195  34.395  36.337  1.00  0.00     0.057 A 
ATOM     67  C   UNL A   1      39.421  34.136  37.474  1.00  0.00     0.134 A 
ATOM     68  C   UNL A   1      40.929  35.586  36.314  1.00  0.00     0.134 A 
ATOM     69  F   UNL A   1      38.682  33.020  37.547  1.00  0.00    -0.206 F 
ATOM     70  C   UNL A   1      39.361  35.037  38.538  1.00  0.00     0.040 A 
ATOM     71  C   UNL A   1      40.900  36.484  37.383  1.00  0.00     0.040 A 
ATOM     72  F   UNL A   1      41.697  35.889  35.257  1.00  0.00    -0.206 F 
ATOM     73  C   UNL A   1      40.106  36.213  38.497  1.00  0.00     0.006 A 
ENDBRANCH  45  66
BRANCH  57  74
ATOM     74  C   UNL A   1      44.321  29.021  34.727  1.00  0.00     0.057 A 
ATOM     75  C   UNL A   1      45.611  29.494  34.460  1.00  0.00     0.134 A 
ATOM     76  C   UNL A   1      44.188  28.004  35.681  1.00  0.00     0.134 A 
ATOM     77  F   UNL A   1      45.806  30.458  33.547  1.00  0.00    -0.206 F 
ATOM     78  C   UNL A   1      46.730  28.960  35.102  1.00  0.00     0.040 A 
ATOM     79  C   UNL A   1      45.296  27.483  36.351  1.00  0.00     0.040 A 
ATOM     80  F   UNL A   1      42.979  27.513  35.992  1.00  0.00    -0.206 F 
ATOM     81  C   UNL A   1      46.572  27.957  36.056  1.00  0.00     0.006 A 
ENDBRANCH  57  74
ENDBRANCH  31  32
ENDBRANCH  23  26
ENDBRANCH  21  22
ENDBRANCH  20  21
ENDBRANCH   1  20
TORSDOF 13
ENDMDL
