MODEL 1
REMARK VINA RESULT:     -11.9      0.000      0.000
REMARK SMILES Cc1ccc2c(c1C)O[C@@H](C(=O)NCCCNC(=O)c1ccc(-c3c4nc(c(-c5c(F)cccc5F)c5ccc([nH]5)c(-c5c(F)cccc5F)c5nc(c(-c6c(F)cccc6F)c6ccc3[nH]6)C=C5)C=C4)cc1)CC2=O
REMARK SMILES IDX 16 1 15 2 14 3 13 4 11 5 12 6 10 8 1 9 2 10 3 11 7 12 4 13
REMARK SMILES IDX 6 14 8 15 5 16 9 17 75 18 74 19 76 20 17 21 18 22 19 24
REMARK SMILES IDX 20 25 21 26 73 27 22 28 72 29 23 30 24 31 25 32 66 33 26 34
REMARK SMILES IDX 71 35 65 36 67 37 27 38 70 39 64 40 63 41 28 43 54 44 37 45
REMARK SMILES IDX 53 46 38 47 41 48 52 49 68 50 39 51 40 52 51 54 69 55 42 56
REMARK SMILES IDX 29 57 30 58 35 59 31 60 32 61 34 62 36 63 33 64 55 65 56 66
REMARK SMILES IDX 61 67 57 68 58 69 60 70 62 71 59 72 43 73 44 74 49 75 45 76
REMARK SMILES IDX 46 77 48 78 50 79 47 80
REMARK H PARENT 13 7 17 23 67 42 41 53
REMARK Flexibility Score: inf
ROOT
ATOM      1  C   UNL A   1      33.509  28.699  27.265  1.00  0.00     0.118 C 
ENDROOT
BRANCH   1   2
ATOM      2  C   UNL A   1      32.091  28.166  27.415  1.00  0.00     0.042 C 
BRANCH   2   3
ATOM      3  C   UNL A   1      31.733  27.158  26.327  1.00  0.00     0.118 C 
BRANCH   3   4
ATOM      4  N   UNL A   1      31.675  25.803  26.829  1.00  0.00    -0.353 N 
ATOM      5  C   UNL A   1      32.248  24.642  26.422  1.00  0.00     0.261 C 
ATOM      6  O   UNL A   1      32.037  23.659  27.146  1.00  0.00    -0.271 OA
ATOM      7  H   UNL A   1      31.107  25.702  27.627  1.00  0.00     0.163 HD
BRANCH   5   8
ATOM      8  C   UNL A   1      33.060  24.462  25.110  1.00  0.00     0.269 C 
ATOM      9  C   UNL A   1      34.065  18.495  24.538  1.00  0.00     0.045 C 
ATOM     10  C   UNL A   1      34.454  19.946  24.640  1.00  0.00    -0.044 A 
ATOM     11  C   UNL A   1      35.708  20.268  25.185  1.00  0.00     0.005 A 
ATOM     12  C   UNL A   1      33.570  20.985  24.272  1.00  0.00    -0.005 A 
ATOM     13  C   UNL A   1      36.080  21.595  25.389  1.00  0.00     0.016 A 
ATOM     14  C   UNL A   1      33.929  22.321  24.556  1.00  0.00     0.134 A 
ATOM     15  C   UNL A   1      32.214  20.714  23.671  1.00  0.00     0.049 C 
ATOM     16  C   UNL A   1      35.178  22.616  25.097  1.00  0.00     0.060 A 
ATOM     17  O   UNL A   1      32.950  23.256  24.377  1.00  0.00    -0.479 OA
ATOM     18  C   UNL A   1      35.495  24.002  25.474  1.00  0.00     0.170 C 
ATOM     19  C   UNL A   1      34.460  25.048  25.208  1.00  0.00     0.136 C 
ATOM     20  O   UNL A   1      36.584  24.281  25.969  1.00  0.00    -0.294 OA
ENDBRANCH   5   8
ENDBRANCH   3   4
ENDBRANCH   2   3
ENDBRANCH   1   2
BRANCH   1  21
ATOM     21  N   UNL A   1      33.594  30.107  27.645  1.00  0.00    -0.352 N 
ATOM     22  C   UNL A   1      34.572  30.788  28.321  1.00  0.00     0.251 C 
ATOM     23  H   UNL A   1      32.823  30.655  27.372  1.00  0.00     0.163 HD
ATOM     24  O   UNL A   1      34.329  31.909  28.769  1.00  0.00    -0.269 OA
BRANCH  22  25
ATOM     25  C   UNL A   1      35.917  30.204  28.508  1.00  0.00     0.039 A 
ATOM     26  C   UNL A   1      36.244  29.629  29.742  1.00  0.00     0.014 A 
ATOM     27  C   UNL A   1      36.883  30.297  27.504  1.00  0.00     0.014 A 
ATOM     28  C   UNL A   1      37.528  29.120  29.956  1.00  0.00     0.010 A 
ATOM     29  C   UNL A   1      38.135  29.724  27.688  1.00  0.00     0.010 A 
ATOM     30  C   UNL A   1      38.479  29.160  28.926  1.00  0.00    -0.014 A 
BRANCH  30  31
ATOM     31  C   UNL A   1      39.880  28.731  29.138  1.00  0.00     0.031 A 
ATOM     32  C   UNL A   1      40.854  29.713  29.729  1.00  0.00     0.074 A 
ATOM     33  C   UNL A   1      40.290  27.514  28.742  1.00  0.00     0.049 A 
ATOM     34  N   UNL A   1      42.151  29.618  29.869  1.00  0.00    -0.248 NA
ATOM     35  C   UNL A   1      40.291  30.990  30.202  1.00  0.00     0.031 C 
ATOM     36  C   UNL A   1      39.439  26.482  28.151  1.00  0.00     0.029 A 
ATOM     37  N   UNL A   1      41.540  26.950  28.757  1.00  0.00    -0.354 N 
ATOM     38  C   UNL A   1      42.557  30.824  30.425  1.00  0.00     0.074 A 
ATOM     39  C   UNL A   1      41.381  31.657  30.546  1.00  0.00     0.031 C 
ATOM     40  C   UNL A   1      40.193  25.407  27.862  1.00  0.00     0.029 A 
ATOM     41  C   UNL A   1      41.582  25.691  28.211  1.00  0.00     0.049 A 
ATOM     42  H   UNL A   1      42.332  27.405  29.127  1.00  0.00     0.167 HD
ATOM     43  C   UNL A   1      43.797  31.197  30.821  1.00  0.00     0.037 A 
ATOM     44  C   UNL A   1      42.631  24.873  28.001  1.00  0.00     0.037 A 
ATOM     45  C   UNL A   1      44.960  30.360  30.709  1.00  0.00     0.049 A 
ATOM     46  C   UNL A   1      44.008  25.330  28.402  1.00  0.00     0.074 A 
ATOM     47  C   UNL A   1      46.258  30.627  31.102  1.00  0.00     0.029 A 
ATOM     48  N   UNL A   1      44.960  29.087  30.159  1.00  0.00    -0.354 N 
ATOM     49  N   UNL A   1      44.378  26.457  28.962  1.00  0.00    -0.248 NA
ATOM     50  C   UNL A   1      45.115  24.399  28.142  1.00  0.00     0.031 C 
ATOM     51  C   UNL A   1      47.052  29.528  30.754  1.00  0.00     0.029 A 
ATOM     52  C   UNL A   1      46.238  28.560  30.188  1.00  0.00     0.049 A 
ATOM     53  H   UNL A   1      44.166  28.625  29.800  1.00  0.00     0.167 HD
ATOM     54  C   UNL A   1      45.748  26.354  29.159  1.00  0.00     0.074 A 
ATOM     55  C   UNL A   1      46.145  25.053  28.660  1.00  0.00     0.031 C 
ATOM     56  C   UNL A   1      46.603  27.252  29.707  1.00  0.00     0.037 A 
BRANCH  43  57
ATOM     57  C   UNL A   1      43.945  32.572  31.403  1.00  0.00     0.057 A 
ATOM     58  C   UNL A   1      44.213  33.674  30.581  1.00  0.00     0.134 A 
ATOM     59  C   UNL A   1      43.821  32.809  32.779  1.00  0.00     0.134 A 
ATOM     60  F   UNL A   1      44.348  33.520  29.255  1.00  0.00    -0.206 F 
ATOM     61  C   UNL A   1      44.344  34.961  31.106  1.00  0.00     0.040 A 
ATOM     62  C   UNL A   1      43.920  34.095  33.312  1.00  0.00     0.040 A 
ATOM     63  F   UNL A   1      43.547  31.800  33.620  1.00  0.00    -0.206 F 
ATOM     64  C   UNL A   1      44.188  35.175  32.474  1.00  0.00     0.006 A 
ENDBRANCH  43  57
BRANCH  44  65
ATOM     65  C   UNL A   1      42.428  23.534  27.393  1.00  0.00     0.057 A 
ATOM     66  C   UNL A   1      42.550  23.325  26.015  1.00  0.00     0.134 A 
ATOM     67  C   UNL A   1      42.138  22.420  28.190  1.00  0.00     0.134 A 
ATOM     68  F   UNL A   1      42.823  24.352  25.195  1.00  0.00    -0.206 F 
ATOM     69  C   UNL A   1      42.392  22.058  25.451  1.00  0.00     0.040 A 
ATOM     70  C   UNL A   1      42.002  21.143  27.643  1.00  0.00     0.040 A 
ATOM     71  F   UNL A   1      42.029  22.553  29.520  1.00  0.00    -0.206 F 
ATOM     72  C   UNL A   1      42.127  20.961  26.267  1.00  0.00     0.006 A 
ENDBRANCH  44  65
BRANCH  56  73
ATOM     73  C   UNL A   1      48.038  26.835  29.853  1.00  0.00     0.057 A 
ATOM     74  C   UNL A   1      48.975  27.175  28.868  1.00  0.00     0.134 A 
ATOM     75  C   UNL A   1      48.481  26.063  30.932  1.00  0.00     0.134 A 
ATOM     76  F   UNL A   1      48.611  27.906  27.804  1.00  0.00    -0.206 F 
ATOM     77  C   UNL A   1      50.302  26.752  28.949  1.00  0.00     0.040 A 
ATOM     78  C   UNL A   1      49.812  25.656  31.038  1.00  0.00     0.040 A 
ATOM     79  F   UNL A   1      47.635  25.717  31.915  1.00  0.00    -0.206 F 
ATOM     80  C   UNL A   1      50.724  25.994  30.039  1.00  0.00     0.006 A 
ENDBRANCH  56  73
ENDBRANCH  30  31
ENDBRANCH  22  25
ENDBRANCH   1  21
TORSDOF 10
ENDMDL
MODEL 2
REMARK VINA RESULT:     -11.8      0.879      2.297
REMARK SMILES Cc1ccc2c(c1C)O[C@@H](C(=O)NCCCNC(=O)c1ccc(-c3c4nc(c(-c5c(F)cccc5F)c5ccc([nH]5)c(-c5c(F)cccc5F)c5nc(c(-c6c(F)cccc6F)c6ccc3[nH]6)C=C5)C=C4)cc1)CC2=O
REMARK SMILES IDX 16 1 15 2 14 3 13 4 11 5 12 6 10 8 1 9 2 10 3 11 7 12 4 13
REMARK SMILES IDX 6 14 8 15 5 16 9 17 75 18 74 19 76 20 17 21 18 22 19 24
REMARK SMILES IDX 20 25 21 26 73 27 22 28 72 29 23 30 24 31 25 32 66 33 26 34
REMARK SMILES IDX 71 35 65 36 67 37 27 38 70 39 64 40 63 41 28 43 54 44 37 45
REMARK SMILES IDX 53 46 38 47 41 48 52 49 68 50 39 51 40 52 51 54 69 55 42 56
REMARK SMILES IDX 29 57 30 58 35 59 31 60 32 61 34 62 36 63 33 64 55 65 56 66
REMARK SMILES IDX 61 67 57 68 58 69 60 70 62 71 59 72 43 73 44 74 49 75 45 76
REMARK SMILES IDX 46 77 48 78 50 79 47 80
REMARK H PARENT 13 7 17 23 67 42 41 53
REMARK Flexibility Score: inf
ROOT
ATOM      1  C   UNL A   1      33.745  28.705  26.997  1.00  0.00     0.118 C 
ENDROOT
BRANCH   1   2
ATOM      2  C   UNL A   1      33.713  28.708  25.474  1.00  0.00     0.042 C 
BRANCH   2   3
ATOM      3  C   UNL A   1      32.728  27.687  24.913  1.00  0.00     0.118 C 
BRANCH   3   4
ATOM      4  N   UNL A   1      33.365  26.738  24.025  1.00  0.00    -0.353 N 
ATOM      5  C   UNL A   1      33.835  25.478  24.204  1.00  0.00     0.261 C 
ATOM      6  O   UNL A   1      34.262  24.917  23.186  1.00  0.00    -0.271 OA
ATOM      7  H   UNL A   1      33.480  27.074  23.107  1.00  0.00     0.163 HD
BRANCH   5   8
ATOM      8  C   UNL A   1      33.936  24.752  25.574  1.00  0.00     0.269 C 
ATOM      9  C   UNL A   1      37.775  20.111  24.757  1.00  0.00     0.045 C 
ATOM     10  C   UNL A   1      36.471  20.759  25.139  1.00  0.00    -0.044 A 
ATOM     11  C   UNL A   1      35.288  20.012  25.009  1.00  0.00     0.005 A 
ATOM     12  C   UNL A   1      36.398  22.108  25.552  1.00  0.00    -0.005 A 
ATOM     13  C   UNL A   1      34.046  20.592  25.259  1.00  0.00     0.016 A 
ATOM     14  C   UNL A   1      35.130  22.703  25.726  1.00  0.00     0.134 A 
ATOM     15  C   UNL A   1      37.627  22.965  25.723  1.00  0.00     0.049 C 
ATOM     16  C   UNL A   1      33.970  21.943  25.593  1.00  0.00     0.060 A 
ATOM     17  O   UNL A   1      35.121  24.055  25.912  1.00  0.00    -0.479 OA
ATOM     18  C   UNL A   1      32.657  22.601  25.683  1.00  0.00     0.170 C 
ATOM     19  C   UNL A   1      32.636  24.069  25.967  1.00  0.00     0.136 C 
ATOM     20  O   UNL A   1      31.623  21.952  25.551  1.00  0.00    -0.294 OA
ENDBRANCH   5   8
ENDBRANCH   3   4
ENDBRANCH   2   3
ENDBRANCH   1   2
BRANCH   1  21
ATOM     21  N   UNL A   1      33.809  30.062  27.533  1.00  0.00    -0.352 N 
ATOM     22  C   UNL A   1      34.767  30.670  28.302  1.00  0.00     0.251 C 
ATOM     23  H   UNL A   1      33.039  30.632  27.305  1.00  0.00     0.163 HD
ATOM     24  O   UNL A   1      34.504  31.732  28.866  1.00  0.00    -0.269 OA
BRANCH  22  25
ATOM     25  C   UNL A   1      36.112  30.077  28.453  1.00  0.00     0.039 A 
ATOM     26  C   UNL A   1      36.457  29.472  29.667  1.00  0.00     0.014 A 
ATOM     27  C   UNL A   1      37.062  30.191  27.436  1.00  0.00     0.014 A 
ATOM     28  C   UNL A   1      37.743  28.954  29.848  1.00  0.00     0.010 A 
ATOM     29  C   UNL A   1      38.314  29.609  27.586  1.00  0.00     0.010 A 
ATOM     30  C   UNL A   1      38.676  29.015  28.804  1.00  0.00    -0.014 A 
BRANCH  30  31
ATOM     31  C   UNL A   1      40.079  28.577  28.983  1.00  0.00     0.031 A 
ATOM     32  C   UNL A   1      41.083  29.565  29.511  1.00  0.00     0.074 A 
ATOM     33  C   UNL A   1      40.463  27.344  28.611  1.00  0.00     0.049 A 
ATOM     34  N   UNL A   1      42.382  29.459  29.611  1.00  0.00    -0.248 NA
ATOM     35  C   UNL A   1      40.549  30.862  29.963  1.00  0.00     0.031 C 
ATOM     36  C   UNL A   1      39.583  26.304  28.080  1.00  0.00     0.029 A 
ATOM     37  N   UNL A   1      41.707  26.766  28.603  1.00  0.00    -0.354 N 
ATOM     38  C   UNL A   1      42.820  30.677  30.116  1.00  0.00     0.074 A 
ATOM     39  C   UNL A   1      41.657  31.526  30.250  1.00  0.00     0.031 C 
ATOM     40  C   UNL A   1      40.315  25.212  27.800  1.00  0.00     0.029 A 
ATOM     41  C   UNL A   1      41.717  25.491  28.094  1.00  0.00     0.049 A 
ATOM     42  H   UNL A   1      42.515  27.223  28.932  1.00  0.00     0.167 HD
ATOM     43  C   UNL A   1      44.075  31.048  30.459  1.00  0.00     0.037 A 
ATOM     44  C   UNL A   1      42.750  24.655  27.875  1.00  0.00     0.037 A 
ATOM     45  C   UNL A   1      45.225  30.194  30.335  1.00  0.00     0.049 A 
ATOM     46  C   UNL A   1      44.145  25.108  28.216  1.00  0.00     0.074 A 
ATOM     47  C   UNL A   1      46.539  30.458  30.677  1.00  0.00     0.029 A 
ATOM     48  N   UNL A   1      45.193  28.905  29.824  1.00  0.00    -0.354 N 
ATOM     49  N   UNL A   1      44.545  26.247  28.729  1.00  0.00    -0.248 NA
ATOM     50  C   UNL A   1      45.232  24.157  27.949  1.00  0.00     0.031 C 
ATOM     51  C   UNL A   1      47.309  29.340  30.336  1.00  0.00     0.029 A 
ATOM     52  C   UNL A   1      46.467  28.365  29.828  1.00  0.00     0.049 A 
ATOM     53  H   UNL A   1      44.384  28.442  29.506  1.00  0.00     0.167 HD
ATOM     54  C   UNL A   1      45.920  26.135  28.883  1.00  0.00     0.074 A 
ATOM     55  C   UNL A   1      46.286  24.815  28.412  1.00  0.00     0.031 C 
ATOM     56  C   UNL A   1      46.802  27.039  29.375  1.00  0.00     0.037 A 
BRANCH  43  57
ATOM     57  C   UNL A   1      44.258  32.438  30.994  1.00  0.00     0.057 A 
ATOM     58  C   UNL A   1      44.185  32.694  32.368  1.00  0.00     0.134 A 
ATOM     59  C   UNL A   1      44.508  33.527  30.147  1.00  0.00     0.134 A 
ATOM     60  F   UNL A   1      43.945  31.700  33.236  1.00  0.00    -0.206 F 
ATOM     61  C   UNL A   1      44.362  33.981  32.882  1.00  0.00     0.040 A 
ATOM     62  C   UNL A   1      44.716  34.813  30.650  1.00  0.00     0.040 A 
ATOM     63  F   UNL A   1      44.607  33.348  28.820  1.00  0.00    -0.206 F 
ATOM     64  C   UNL A   1      44.638  35.042  32.021  1.00  0.00     0.006 A 
ENDBRANCH  43  57
BRANCH  44  65
ATOM     65  C   UNL A   1      42.513  23.301  27.315  1.00  0.00     0.057 A 
ATOM     66  C   UNL A   1      42.153  22.221  28.129  1.00  0.00     0.134 A 
ATOM     67  C   UNL A   1      42.609  23.065  25.938  1.00  0.00     0.134 A 
ATOM     68  F   UNL A   1      42.047  22.379  29.458  1.00  0.00    -0.206 F 
ATOM     69  C   UNL A   1      41.898  20.956  27.595  1.00  0.00     0.040 A 
ATOM     70  C   UNL A   1      42.332  21.813  25.388  1.00  0.00     0.040 A 
ATOM     71  F   UNL A   1      42.930  24.065  25.105  1.00  0.00    -0.206 F 
ATOM     72  C   UNL A   1      41.977  20.752  26.220  1.00  0.00     0.006 A 
ENDBRANCH  44  65
BRANCH  56  73
ATOM     73  C   UNL A   1      48.236  26.610  29.487  1.00  0.00     0.057 A 
ATOM     74  C   UNL A   1      48.686  25.944  30.635  1.00  0.00     0.134 A 
ATOM     75  C   UNL A   1      49.176  26.896  28.492  1.00  0.00     0.134 A 
ATOM     76  F   UNL A   1      47.835  25.648  31.629  1.00  0.00    -0.206 F 
ATOM     77  C   UNL A   1      50.025  25.585  30.790  1.00  0.00     0.040 A 
ATOM     78  C   UNL A   1      50.514  26.519  28.625  1.00  0.00     0.040 A 
ATOM     79  F   UNL A   1      48.806  27.520  27.363  1.00  0.00    -0.206 F 
ATOM     80  C   UNL A   1      50.942  25.869  29.781  1.00  0.00     0.006 A 
ENDBRANCH  56  73
ENDBRANCH  30  31
ENDBRANCH  22  25
ENDBRANCH   1  21
TORSDOF 10
ENDMDL
MODEL 3
REMARK VINA RESULT:     -11.8      4.322      8.615
REMARK SMILES Cc1ccc2c(c1C)O[C@@H](C(=O)NCCCNC(=O)c1ccc(-c3c4nc(c(-c5c(F)cccc5F)c5ccc([nH]5)c(-c5c(F)cccc5F)c5nc(c(-c6c(F)cccc6F)c6ccc3[nH]6)C=C5)C=C4)cc1)CC2=O
REMARK SMILES IDX 16 1 15 2 14 3 13 4 11 5 12 6 10 8 1 9 2 10 3 11 7 12 4 13
REMARK SMILES IDX 6 14 8 15 5 16 9 17 75 18 74 19 76 20 17 21 18 22 19 24
REMARK SMILES IDX 20 25 21 26 73 27 22 28 72 29 23 30 24 31 25 32 66 33 26 34
REMARK SMILES IDX 71 35 65 36 67 37 27 38 70 39 64 40 63 41 28 43 54 44 37 45
REMARK SMILES IDX 53 46 38 47 41 48 52 49 68 50 39 51 40 52 51 54 69 55 42 56
REMARK SMILES IDX 29 57 30 58 35 59 31 60 32 61 34 62 36 63 33 64 55 65 56 66
REMARK SMILES IDX 61 67 57 68 58 69 60 70 62 71 59 72 43 73 44 74 49 75 45 76
REMARK SMILES IDX 46 77 48 78 50 79 47 80
REMARK H PARENT 13 7 17 23 67 42 41 53
REMARK Flexibility Score: inf
ROOT
ATOM      1  C   UNL A   1      32.628  32.539  27.260  1.00  0.00     0.118 C 
ENDROOT
BRANCH   1   2
ATOM      2  C   UNL A   1      31.402  31.945  26.579  1.00  0.00     0.042 C 
BRANCH   2   3
ATOM      3  C   UNL A   1      31.737  30.701  25.763  1.00  0.00     0.118 C 
BRANCH   3   4
ATOM      4  N   UNL A   1      32.772  29.900  26.379  1.00  0.00    -0.353 N 
ATOM      5  C   UNL A   1      33.550  28.886  25.923  1.00  0.00     0.261 C 
ATOM      6  O   UNL A   1      34.404  28.470  26.717  1.00  0.00    -0.271 OA
ATOM      7  H   UNL A   1      32.947  30.138  27.318  1.00  0.00     0.163 HD
BRANCH   5   8
ATOM      8  C   UNL A   1      33.389  28.193  24.542  1.00  0.00     0.269 C 
ATOM      9  C   UNL A   1      27.490  28.577  23.126  1.00  0.00     0.045 C 
ATOM     10  C   UNL A   1      28.793  27.869  23.387  1.00  0.00    -0.044 A 
ATOM     11  C   UNL A   1      28.755  26.552  23.876  1.00  0.00     0.005 A 
ATOM     12  C   UNL A   1      30.040  28.512  23.224  1.00  0.00    -0.005 A 
ATOM     13  C   UNL A   1      29.927  25.884  24.222  1.00  0.00     0.016 A 
ATOM     14  C   UNL A   1      31.212  27.852  23.652  1.00  0.00     0.134 A 
ATOM     15  C   UNL A   1      30.157  29.920  22.695  1.00  0.00     0.049 C 
ATOM     16  C   UNL A   1      31.151  26.546  24.132  1.00  0.00     0.060 A 
ATOM     17  O   UNL A   1      32.352  28.603  23.669  1.00  0.00    -0.479 OA
ATOM     18  C   UNL A   1      32.366  25.909  24.662  1.00  0.00     0.170 C 
ATOM     19  C   UNL A   1      33.638  26.695  24.611  1.00  0.00     0.136 C 
ATOM     20  O   UNL A   1      32.330  24.766  25.107  1.00  0.00    -0.294 OA
ENDBRANCH   5   8
ENDBRANCH   3   4
ENDBRANCH   2   3
ENDBRANCH   1   2
BRANCH   1  21
ATOM     21  N   UNL A   1      32.445  33.959  27.549  1.00  0.00    -0.352 N 
ATOM     22  C   UNL A   1      33.016  34.751  28.510  1.00  0.00     0.251 C 
ATOM     23  H   UNL A   1      31.808  34.421  26.958  1.00  0.00     0.163 HD
ATOM     24  O   UNL A   1      32.528  35.856  28.751  1.00  0.00    -0.269 OA
BRANCH  22  25
ATOM     25  C   UNL A   1      34.214  34.305  29.252  1.00  0.00     0.039 A 
ATOM     26  C   UNL A   1      35.477  34.488  28.678  1.00  0.00     0.014 A 
ATOM     27  C   UNL A   1      34.092  33.632  30.469  1.00  0.00     0.014 A 
ATOM     28  C   UNL A   1      36.618  34.025  29.339  1.00  0.00     0.010 A 
ATOM     29  C   UNL A   1      35.230  33.239  31.163  1.00  0.00     0.010 A 
ATOM     30  C   UNL A   1      36.500  33.403  30.589  1.00  0.00    -0.014 A 
BRANCH  30  31
ATOM     31  C   UNL A   1      37.664  32.802  31.278  1.00  0.00     0.031 A 
ATOM     32  C   UNL A   1      38.335  31.608  30.656  1.00  0.00     0.074 A 
ATOM     33  C   UNL A   1      38.069  33.269  32.472  1.00  0.00     0.049 A 
ATOM     34  N   UNL A   1      39.266  30.829  31.142  1.00  0.00    -0.248 NA
ATOM     35  C   UNL A   1      37.868  31.222  29.313  1.00  0.00     0.031 C 
ATOM     36  C   UNL A   1      37.492  34.415  33.175  1.00  0.00     0.029 A 
ATOM     37  N   UNL A   1      39.050  32.817  33.317  1.00  0.00    -0.354 N 
ATOM     38  C   UNL A   1      39.482  29.855  30.175  1.00  0.00     0.074 A 
ATOM     39  C   UNL A   1      38.547  30.106  29.100  1.00  0.00     0.031 C 
ATOM     40  C   UNL A   1      38.134  34.577  34.346  1.00  0.00     0.029 A 
ATOM     41  C   UNL A   1      39.136  33.526  34.489  1.00  0.00     0.049 A 
ATOM     42  H   UNL A   1      39.638  32.056  33.101  1.00  0.00     0.167 HD
ATOM     43  C   UNL A   1      40.394  28.855  30.172  1.00  0.00     0.037 A 
ATOM     44  C   UNL A   1      39.924  33.329  35.563  1.00  0.00     0.037 A 
ATOM     45  C   UNL A   1      41.328  28.619  31.238  1.00  0.00     0.049 A 
ATOM     46  C   UNL A   1      40.895  32.178  35.559  1.00  0.00     0.074 A 
ATOM     47  C   UNL A   1      42.311  27.650  31.328  1.00  0.00     0.029 A 
ATOM     48  N   UNL A   1      41.391  29.365  32.406  1.00  0.00    -0.354 N 
ATOM     49  N   UNL A   1      41.119  31.285  34.625  1.00  0.00    -0.248 NA
ATOM     50  C   UNL A   1      41.723  32.009  36.761  1.00  0.00     0.031 C 
ATOM     51  C   UNL A   1      42.944  27.788  32.569  1.00  0.00     0.029 A 
ATOM     52  C   UNL A   1      42.386  28.870  33.229  1.00  0.00     0.049 A 
ATOM     53  H   UNL A   1      40.812  30.133  32.618  1.00  0.00     0.167 HD
ATOM     54  C   UNL A   1      42.139  30.476  35.106  1.00  0.00     0.074 A 
ATOM     55  C   UNL A   1      42.492  30.985  36.416  1.00  0.00     0.031 C 
ATOM     56  C   UNL A   1      42.735  29.410  34.519  1.00  0.00     0.037 A 
BRANCH  43  57
ATOM     57  C   UNL A   1      40.409  27.945  28.978  1.00  0.00     0.057 A 
ATOM     58  C   UNL A   1      39.654  26.766  28.965  1.00  0.00     0.134 A 
ATOM     59  C   UNL A   1      41.170  28.237  27.838  1.00  0.00     0.134 A 
ATOM     60  F   UNL A   1      38.905  26.423  30.024  1.00  0.00    -0.206 F 
ATOM     61  C   UNL A   1      39.649  25.915  27.859  1.00  0.00     0.040 A 
ATOM     62  C   UNL A   1      41.151  27.409  26.714  1.00  0.00     0.040 A 
ATOM     63  F   UNL A   1      41.902  29.360  27.778  1.00  0.00    -0.206 F 
ATOM     64  C   UNL A   1      40.392  26.241  26.726  1.00  0.00     0.006 A 
ENDBRANCH  43  57
BRANCH  44  65
ATOM     65  C   UNL A   1      39.844  34.244  36.730  1.00  0.00     0.057 A 
ATOM     66  C   UNL A   1      40.540  35.458  36.762  1.00  0.00     0.134 A 
ATOM     67  C   UNL A   1      39.035  33.936  37.830  1.00  0.00     0.134 A 
ATOM     68  F   UNL A   1      41.335  35.811  35.740  1.00  0.00    -0.206 F 
ATOM     69  C   UNL A   1      40.436  36.331  37.846  1.00  0.00     0.040 A 
ATOM     70  C   UNL A   1      38.902  34.811  38.909  1.00  0.00     0.040 A 
ATOM     71  F   UNL A   1      38.328  32.797  37.849  1.00  0.00    -0.206 F 
ATOM     72  C   UNL A   1      39.607  36.013  38.919  1.00  0.00     0.006 A 
ENDBRANCH  44  65
BRANCH  56  73
ATOM     73  C   UNL A   1      43.870  28.762  35.257  1.00  0.00     0.057 A 
ATOM     74  C   UNL A   1      45.188  29.181  35.031  1.00  0.00     0.134 A 
ATOM     75  C   UNL A   1      43.668  27.702  36.146  1.00  0.00     0.134 A 
ATOM     76  F   UNL A   1      45.448  30.187  34.183  1.00  0.00    -0.206 F 
ATOM     77  C   UNL A   1      46.267  28.558  35.660  1.00  0.00     0.040 A 
ATOM     78  C   UNL A   1      44.738  27.089  36.802  1.00  0.00     0.040 A 
ATOM     79  F   UNL A   1      42.429  27.264  36.415  1.00  0.00    -0.206 F 
ATOM     80  C   UNL A   1      46.042  27.512  36.552  1.00  0.00     0.006 A 
ENDBRANCH  56  73
ENDBRANCH  30  31
ENDBRANCH  22  25
ENDBRANCH   1  21
TORSDOF 10
ENDMDL
