MODEL 1
REMARK VINA RESULT:     -13.1      0.000      0.000
REMARK SMILES CC(=O)Nc1cccc(-c2cc(F)ccc2C(=O)NCCCNC(=O)c2ccc(-c3c4nc(c(-c5c(F)cccc5F)c5ccc([nH]5)c(-c5c(F)cccc5F)c5nc(c(-c6c(F)cccc6F)c6ccc3[nH]6)C=C5)C=C4)cc2)c1
REMARK SMILES IDX 21 1 20 2 19 3 17 4 18 5 16 7 10 8 11 9 12 10 15 11 13 12
REMARK SMILES IDX 14 13 9 14 5 15 6 16 80 17 7 18 8 19 4 20 1 21 2 22 3 23
REMARK SMILES IDX 22 25 23 26 24 27 25 29 26 30 27 31 79 32 28 33 78 34 29 35
REMARK SMILES IDX 30 36 31 37 72 38 32 39 77 40 71 41 73 42 33 43 76 44 70 45
REMARK SMILES IDX 69 46 34 48 60 49 43 50 59 51 44 52 47 53 58 54 74 55 45 56
REMARK SMILES IDX 46 57 57 59 75 60 48 61 35 62 36 63 41 64 37 65 38 66 40 67
REMARK SMILES IDX 42 68 39 69 61 70 62 71 67 72 63 73 64 74 66 75 68 76 65 77
REMARK SMILES IDX 49 78 50 79 55 80 51 81 52 82 54 83 56 84 53 85
REMARK H PARENT 19 6 4 24 23 28 73 47 47 58
REMARK Flexibility Score: inf
ROOT
ATOM      1  C   UNL A   1      31.543  31.812  26.473  1.00  0.00     0.042 C 
ENDROOT
BRANCH   1   2
ATOM      2  C   UNL A   1      31.847  30.452  25.898  1.00  0.00     0.118 C 
BRANCH   2   3
ATOM      3  N   UNL A   1      31.400  29.280  26.576  1.00  0.00    -0.352 N 
ATOM      4  C   UNL A   1      31.568  27.969  26.186  1.00  0.00     0.251 C 
ATOM      5  O   UNL A   1      31.377  27.129  27.074  1.00  0.00    -0.269 OA
ATOM      6  H   UNL A   1      30.915  29.424  27.421  1.00  0.00     0.163 HD
BRANCH   4   7
ATOM      7  C   UNL A   1      31.845  27.466  24.779  1.00  0.00     0.047 A 
ATOM      8  C   UNL A   1      31.128  27.601  23.550  1.00  0.00    -0.003 A 
ATOM      9  C   UNL A   1      31.692  27.019  22.383  1.00  0.00     0.048 A 
ATOM     10  C   UNL A   1      32.901  26.337  22.405  1.00  0.00     0.123 A 
ATOM     11  C   UNL A   1      33.083  26.760  24.747  1.00  0.00     0.017 A 
ATOM     12  F   UNL A   1      33.381  25.803  21.276  1.00  0.00    -0.207 F 
ATOM     13  C   UNL A   1      33.606  26.202  23.581  1.00  0.00     0.040 A 
BRANCH   8  14
ATOM     14  C   UNL A   1      29.818  28.259  23.331  1.00  0.00    -0.015 A 
ATOM     15  C   UNL A   1      28.451  30.277  23.173  1.00  0.00     0.041 A 
ATOM     16  C   UNL A   1      27.299  29.505  23.379  1.00  0.00     0.026 A 
ATOM     17  C   UNL A   1      29.700  29.637  23.091  1.00  0.00     0.034 A 
ATOM     18  C   UNL A   1      27.382  28.120  23.500  1.00  0.00     0.003 A 
ATOM     19  C   UNL A   1      28.632  27.503  23.478  1.00  0.00     0.009 A 
BRANCH  15  20
ATOM     20  N   UNL A   1      28.295  31.671  23.300  1.00  0.00    -0.326 N 
ATOM     21  C   UNL A   1      28.029  32.398  20.936  1.00  0.00     0.114 C 
ATOM     22  C   UNL A   1      28.325  32.679  22.380  1.00  0.00     0.221 C 
ATOM     23  O   UNL A   1      28.570  33.828  22.751  1.00  0.00    -0.275 OA
ATOM     24  H   UNL A   1      28.136  31.976  24.222  1.00  0.00     0.169 HD
ENDBRANCH  15  20
ENDBRANCH   8  14
ENDBRANCH   4   7
ENDBRANCH   2   3
ENDBRANCH   1   2
BRANCH   1  25
ATOM     25  C   UNL A   1      32.655  32.423  27.311  1.00  0.00     0.118 C 
BRANCH  25  26
ATOM     26  N   UNL A   1      32.499  33.857  27.582  1.00  0.00    -0.352 N 
ATOM     27  C   UNL A   1      33.059  34.712  28.502  1.00  0.00     0.251 C 
ATOM     28  H   UNL A   1      31.860  34.299  26.978  1.00  0.00     0.163 HD
ATOM     29  O   UNL A   1      32.525  35.811  28.685  1.00  0.00    -0.269 OA
BRANCH  27  30
ATOM     30  C   UNL A   1      34.229  34.333  29.328  1.00  0.00     0.039 A 
ATOM     31  C   UNL A   1      34.029  33.732  30.577  1.00  0.00     0.014 A 
ATOM     32  C   UNL A   1      35.529  34.553  28.892  1.00  0.00     0.014 A 
ATOM     33  C   UNL A   1      35.121  33.244  31.303  1.00  0.00     0.010 A 
ATOM     34  C   UNL A   1      36.588  33.914  29.516  1.00  0.00     0.010 A 
ATOM     35  C   UNL A   1      36.405  33.262  30.739  1.00  0.00    -0.014 A 
BRANCH  35  36
ATOM     36  C   UNL A   1      37.585  32.645  31.398  1.00  0.00     0.031 A 
ATOM     37  C   UNL A   1      38.292  31.492  30.730  1.00  0.00     0.074 A 
ATOM     38  C   UNL A   1      37.945  33.035  32.637  1.00  0.00     0.049 A 
ATOM     39  N   UNL A   1      39.205  30.687  31.211  1.00  0.00    -0.248 NA
ATOM     40  C   UNL A   1      37.874  31.165  29.355  1.00  0.00     0.031 C 
ATOM     41  C   UNL A   1      37.299  34.093  33.419  1.00  0.00     0.029 A 
ATOM     42  N   UNL A   1      38.932  32.568  33.469  1.00  0.00    -0.354 N 
ATOM     43  C   UNL A   1      39.441  29.750  30.213  1.00  0.00     0.074 A 
ATOM     44  C   UNL A   1      38.518  30.030  29.137  1.00  0.00     0.031 C 
ATOM     45  C   UNL A   1      37.921  34.211  34.603  1.00  0.00     0.029 A 
ATOM     46  C   UNL A   1      38.972  33.204  34.688  1.00  0.00     0.049 A 
ATOM     47  H   UNL A   1      39.552  31.846  33.218  1.00  0.00     0.167 HD
ATOM     48  C   UNL A   1      40.372  28.767  30.174  1.00  0.00     0.037 A 
ATOM     49  C   UNL A   1      39.758  32.986  35.759  1.00  0.00     0.037 A 
ATOM     50  C   UNL A   1      41.317  28.523  31.229  1.00  0.00     0.049 A 
ATOM     51  C   UNL A   1      40.796  31.900  35.689  1.00  0.00     0.074 A 
ATOM     52  C   UNL A   1      42.337  27.589  31.275  1.00  0.00     0.029 A 
ATOM     53  N   UNL A   1      41.365  29.231  32.421  1.00  0.00    -0.354 N 
ATOM     54  N   UNL A   1      41.043  31.054  34.716  1.00  0.00    -0.248 NA
ATOM     55  C   UNL A   1      41.670  31.742  36.859  1.00  0.00     0.031 C 
ATOM     56  C   UNL A   1      42.977  27.706  32.513  1.00  0.00     0.029 A 
ATOM     57  C   UNL A   1      42.392  28.749  33.214  1.00  0.00     0.049 A 
ATOM     58  H   UNL A   1      40.757  29.965  32.667  1.00  0.00     0.167 HD
ATOM     59  C   UNL A   1      42.120  30.288  35.143  1.00  0.00     0.074 A 
ATOM     60  C   UNL A   1      42.487  30.780  36.455  1.00  0.00     0.031 C 
ATOM     61  C   UNL A   1      42.748  29.268  34.510  1.00  0.00     0.037 A 
BRANCH  48  62
ATOM     62  C   UNL A   1      40.426  27.910  28.941  1.00  0.00     0.057 A 
ATOM     63  C   UNL A   1      41.231  28.249  27.842  1.00  0.00     0.134 A 
ATOM     64  C   UNL A   1      39.690  26.722  28.855  1.00  0.00     0.134 A 
ATOM     65  F   UNL A   1      41.951  29.381  27.851  1.00  0.00    -0.206 F 
ATOM     66  C   UNL A   1      41.274  27.458  26.694  1.00  0.00     0.040 A 
ATOM     67  C   UNL A   1      39.752  25.904  27.725  1.00  0.00     0.040 A 
ATOM     68  F   UNL A   1      38.904  26.333  29.869  1.00  0.00    -0.206 F 
ATOM     69  C   UNL A   1      40.539  26.276  26.636  1.00  0.00     0.006 A 
ENDBRANCH  48  62
BRANCH  49  70
ATOM     70  C   UNL A   1      39.610  33.822  36.979  1.00  0.00     0.057 A 
ATOM     71  C   UNL A   1      38.791  33.415  38.040  1.00  0.00     0.134 A 
ATOM     72  C   UNL A   1      40.270  35.049  37.112  1.00  0.00     0.134 A 
ATOM     73  F   UNL A   1      38.121  32.256  37.969  1.00  0.00    -0.206 F 
ATOM     74  C   UNL A   1      38.610  34.211  39.173  1.00  0.00     0.040 A 
ATOM     75  C   UNL A   1      40.123  35.841  38.253  1.00  0.00     0.040 A 
ATOM     76  F   UNL A   1      41.082  35.491  36.140  1.00  0.00    -0.206 F 
ATOM     77  C   UNL A   1      39.281  35.427  39.282  1.00  0.00     0.006 A 
ENDBRANCH  49  70
BRANCH  61  78
ATOM     78  C   UNL A   1      43.928  28.653  35.202  1.00  0.00     0.057 A 
ATOM     79  C   UNL A   1      43.794  27.567  36.076  1.00  0.00     0.134 A 
ATOM     80  C   UNL A   1      45.222  29.128  34.953  1.00  0.00     0.134 A 
ATOM     81  F   UNL A   1      42.581  27.072  36.365  1.00  0.00    -0.206 F 
ATOM     82  C   UNL A   1      44.903  26.992  36.698  1.00  0.00     0.040 A 
ATOM     83  C   UNL A   1      46.341  28.543  35.544  1.00  0.00     0.040 A 
ATOM     84  F   UNL A   1      45.421  30.158  34.116  1.00  0.00    -0.206 F 
ATOM     85  C   UNL A   1      46.182  27.475  36.425  1.00  0.00     0.006 A 
ENDBRANCH  61  78
ENDBRANCH  35  36
ENDBRANCH  27  30
ENDBRANCH  25  26
ENDBRANCH   1  25
TORSDOF 12
ENDMDL
MODEL 2
REMARK VINA RESULT:     -13.0      6.640     11.511
REMARK SMILES CC(=O)Nc1cccc(-c2cc(F)ccc2C(=O)NCCCNC(=O)c2ccc(-c3c4nc(c(-c5c(F)cccc5F)c5ccc([nH]5)c(-c5c(F)cccc5F)c5nc(c(-c6c(F)cccc6F)c6ccc3[nH]6)C=C5)C=C4)cc2)c1
REMARK SMILES IDX 21 1 20 2 19 3 17 4 18 5 16 7 10 8 11 9 12 10 15 11 13 12
REMARK SMILES IDX 14 13 9 14 5 15 6 16 80 17 7 18 8 19 4 20 1 21 2 22 3 23
REMARK SMILES IDX 22 25 23 26 24 27 25 29 26 30 27 31 79 32 28 33 78 34 29 35
REMARK SMILES IDX 30 36 31 37 72 38 32 39 77 40 71 41 73 42 33 43 76 44 70 45
REMARK SMILES IDX 69 46 34 48 60 49 43 50 59 51 44 52 47 53 58 54 74 55 45 56
REMARK SMILES IDX 46 57 57 59 75 60 48 61 35 62 36 63 41 64 37 65 38 66 40 67
REMARK SMILES IDX 42 68 39 69 61 70 62 71 67 72 63 73 64 74 66 75 68 76 65 77
REMARK SMILES IDX 49 78 50 79 55 80 51 81 52 82 54 83 56 84 53 85
REMARK H PARENT 19 6 4 24 23 28 73 47 47 58
REMARK Flexibility Score: inf
ROOT
ATOM      1  C   UNL A   1      37.854  19.871  25.007  1.00  0.00     0.042 C 
ENDROOT
BRANCH   1   2
ATOM      2  C   UNL A   1      36.708  20.846  25.087  1.00  0.00     0.118 C 
BRANCH   2   3
ATOM      3  N   UNL A   1      36.398  21.669  23.964  1.00  0.00    -0.352 N 
ATOM      4  C   UNL A   1      35.376  22.586  23.852  1.00  0.00     0.251 C 
ATOM      5  O   UNL A   1      35.494  23.392  22.921  1.00  0.00    -0.269 OA
ATOM      6  H   UNL A   1      36.982  21.571  23.177  1.00  0.00     0.163 HD
BRANCH   4   7
ATOM      7  C   UNL A   1      34.096  22.628  24.670  1.00  0.00     0.047 A 
ATOM      8  C   UNL A   1      33.041  21.681  24.856  1.00  0.00    -0.003 A 
ATOM      9  C   UNL A   1      31.978  22.032  25.731  1.00  0.00     0.048 A 
ATOM     10  C   UNL A   1      31.940  23.248  26.400  1.00  0.00     0.123 A 
ATOM     11  C   UNL A   1      34.011  23.859  25.383  1.00  0.00     0.017 A 
ATOM     12  F   UNL A   1      30.910  23.527  27.208  1.00  0.00    -0.207 F 
ATOM     13  C   UNL A   1      32.951  24.169  26.236  1.00  0.00     0.040 A 
BRANCH   8  14
ATOM     14  C   UNL A   1      32.887  20.356  24.211  1.00  0.00    -0.015 A 
ATOM     15  C   UNL A   1      33.584  18.031  23.933  1.00  0.00     0.041 A 
ATOM     16  C   UNL A   1      32.926  17.989  22.697  1.00  0.00     0.026 A 
ATOM     17  C   UNL A   1      33.509  19.200  24.711  1.00  0.00     0.034 A 
ATOM     18  C   UNL A   1      32.203  19.086  22.236  1.00  0.00     0.003 A 
ATOM     19  C   UNL A   1      32.185  20.260  22.987  1.00  0.00     0.009 A 
BRANCH  15  20
ATOM     20  N   UNL A   1      34.475  16.973  24.201  1.00  0.00    -0.326 N 
ATOM     21  C   UNL A   1      33.019  15.329  25.370  1.00  0.00     0.114 C 
ATOM     22  C   UNL A   1      34.369  15.873  25.000  1.00  0.00     0.221 C 
ATOM     23  O   UNL A   1      35.392  15.310  25.394  1.00  0.00    -0.275 OA
ATOM     24  H   UNL A   1      35.333  17.040  23.723  1.00  0.00     0.169 HD
ENDBRANCH  15  20
ENDBRANCH   8  14
ENDBRANCH   4   7
ENDBRANCH   2   3
ENDBRANCH   1   2
BRANCH   1  25
ATOM     25  C   UNL A   1      39.104  20.278  25.770  1.00  0.00     0.118 C 
BRANCH  25  26
ATOM     26  N   UNL A   1      40.116  19.222  25.894  1.00  0.00    -0.352 N 
ATOM     27  C   UNL A   1      41.478  19.234  26.083  1.00  0.00     0.251 C 
ATOM     28  H   UNL A   1      39.740  18.314  25.829  1.00  0.00     0.163 HD
ATOM     29  O   UNL A   1      42.113  18.198  25.860  1.00  0.00    -0.269 OA
BRANCH  27  30
ATOM     30  C   UNL A   1      42.213  20.461  26.470  1.00  0.00     0.039 A 
ATOM     31  C   UNL A   1      42.898  21.195  25.494  1.00  0.00     0.014 A 
ATOM     32  C   UNL A   1      42.239  20.909  27.784  1.00  0.00     0.014 A 
ATOM     33  C   UNL A   1      43.478  22.426  25.820  1.00  0.00     0.010 A 
ATOM     34  C   UNL A   1      42.649  22.201  28.070  1.00  0.00     0.010 A 
ATOM     35  C   UNL A   1      43.289  22.976  27.097  1.00  0.00    -0.014 A 
BRANCH  35  36
ATOM     36  C   UNL A   1      43.765  24.331  27.471  1.00  0.00     0.031 A 
ATOM     37  C   UNL A   1      42.769  25.374  27.912  1.00  0.00     0.074 A 
ATOM     38  C   UNL A   1      45.062  24.661  27.300  1.00  0.00     0.049 A 
ATOM     39  N   UNL A   1      42.937  26.660  28.091  1.00  0.00    -0.248 NA
ATOM     40  C   UNL A   1      41.383  24.919  28.127  1.00  0.00     0.031 C 
ATOM     41  C   UNL A   1      46.113  23.763  26.814  1.00  0.00     0.029 A 
ATOM     42  N   UNL A   1      45.713  25.853  27.495  1.00  0.00    -0.354 N 
ATOM     43  C   UNL A   1      41.680  27.162  28.405  1.00  0.00     0.074 A 
ATOM     44  C   UNL A   1      40.745  26.065  28.308  1.00  0.00     0.031 C 
ATOM     45  C   UNL A   1      47.278  24.427  26.774  1.00  0.00     0.029 A 
ATOM     46  C   UNL A   1      47.050  25.810  27.176  1.00  0.00     0.049 A 
ATOM     47  H   UNL A   1      45.266  26.664  27.830  1.00  0.00     0.167 HD
ATOM     48  C   UNL A   1      41.336  28.416  28.782  1.00  0.00     0.037 A 
ATOM     49  C   UNL A   1      47.982  26.781  27.191  1.00  0.00     0.037 A 
ATOM     50  C   UNL A   1      42.279  29.493  28.920  1.00  0.00     0.049 A 
ATOM     51  C   UNL A   1      47.582  28.164  27.628  1.00  0.00     0.074 A 
ATOM     52  C   UNL A   1      42.051  30.790  29.345  1.00  0.00     0.029 A 
ATOM     53  N   UNL A   1      43.635  29.390  28.648  1.00  0.00    -0.354 N 
ATOM     54  N   UNL A   1      46.398  28.611  27.974  1.00  0.00    -0.248 NA
ATOM     55  C   UNL A   1      48.647  29.174  27.687  1.00  0.00     0.031 C 
ATOM     56  C   UNL A   1      43.265  31.483  29.291  1.00  0.00     0.029 A 
ATOM     57  C   UNL A   1      44.257  30.603  28.888  1.00  0.00     0.049 A 
ATOM     58  H   UNL A   1      44.088  28.576  28.330  1.00  0.00     0.167 HD
ATOM     59  C   UNL A   1      46.582  29.943  28.322  1.00  0.00     0.074 A 
ATOM     60  C   UNL A   1      47.993  30.225  28.160  1.00  0.00     0.031 C 
ATOM     61  C   UNL A   1      45.667  30.854  28.736  1.00  0.00     0.037 A 
BRANCH  48  62
ATOM     62  C   UNL A   1      39.890  28.675  29.098  1.00  0.00     0.057 A 
ATOM     63  C   UNL A   1      39.372  28.488  30.389  1.00  0.00     0.134 A 
ATOM     64  C   UNL A   1      39.009  29.139  28.114  1.00  0.00     0.134 A 
ATOM     65  F   UNL A   1      40.157  28.031  31.376  1.00  0.00    -0.206 F 
ATOM     66  C   UNL A   1      38.028  28.720  30.680  1.00  0.00     0.040 A 
ATOM     67  C   UNL A   1      37.669  29.408  28.401  1.00  0.00     0.040 A 
ATOM     68  F   UNL A   1      39.435  29.346  26.860  1.00  0.00    -0.206 F 
ATOM     69  C   UNL A   1      37.173  29.189  29.685  1.00  0.00     0.006 A 
ENDBRANCH  48  62
BRANCH  49  70
ATOM     70  C   UNL A   1      49.384  26.481  26.800  1.00  0.00     0.057 A 
ATOM     71  C   UNL A   1      49.843  26.732  25.501  1.00  0.00     0.134 A 
ATOM     72  C   UNL A   1      50.295  25.925  27.706  1.00  0.00     0.134 A 
ATOM     73  F   UNL A   1      49.016  27.251  24.582  1.00  0.00    -0.206 F 
ATOM     74  C   UNL A   1      51.145  26.415  25.108  1.00  0.00     0.040 A 
ATOM     75  C   UNL A   1      51.609  25.631  27.336  1.00  0.00     0.040 A 
ATOM     76  F   UNL A   1      49.926  25.673  28.970  1.00  0.00    -0.206 F 
ATOM     77  C   UNL A   1      52.033  25.866  26.030  1.00  0.00     0.006 A 
ENDBRANCH  49  70
BRANCH  61  78
ATOM     78  C   UNL A   1      46.171  32.220  29.093  1.00  0.00     0.057 A 
ATOM     79  C   UNL A   1      46.596  32.540  30.389  1.00  0.00     0.134 A 
ATOM     80  C   UNL A   1      46.273  33.216  28.113  1.00  0.00     0.134 A 
ATOM     81  F   UNL A   1      46.513  31.634  31.375  1.00  0.00    -0.206 F 
ATOM     82  C   UNL A   1      47.081  33.810  30.702  1.00  0.00     0.040 A 
ATOM     83  C   UNL A   1      46.785  34.479  28.406  1.00  0.00     0.040 A 
ATOM     84  F   UNL A   1      45.894  32.970  26.850  1.00  0.00    -0.206 F 
ATOM     85  C   UNL A   1      47.185  34.781  29.707  1.00  0.00     0.006 A 
ENDBRANCH  61  78
ENDBRANCH  35  36
ENDBRANCH  27  30
ENDBRANCH  25  26
ENDBRANCH   1  25
TORSDOF 12
ENDMDL
MODEL 3
REMARK VINA RESULT:     -13.0      5.066      7.565
REMARK SMILES CC(=O)Nc1cccc(-c2cc(F)ccc2C(=O)NCCCNC(=O)c2ccc(-c3c4nc(c(-c5c(F)cccc5F)c5ccc([nH]5)c(-c5c(F)cccc5F)c5nc(c(-c6c(F)cccc6F)c6ccc3[nH]6)C=C5)C=C4)cc2)c1
REMARK SMILES IDX 21 1 20 2 19 3 17 4 18 5 16 7 10 8 11 9 12 10 15 11 13 12
REMARK SMILES IDX 14 13 9 14 5 15 6 16 80 17 7 18 8 19 4 20 1 21 2 22 3 23
REMARK SMILES IDX 22 25 23 26 24 27 25 29 26 30 27 31 79 32 28 33 78 34 29 35
REMARK SMILES IDX 30 36 31 37 72 38 32 39 77 40 71 41 73 42 33 43 76 44 70 45
REMARK SMILES IDX 69 46 34 48 60 49 43 50 59 51 44 52 47 53 58 54 74 55 45 56
REMARK SMILES IDX 46 57 57 59 75 60 48 61 35 62 36 63 41 64 37 65 38 66 40 67
REMARK SMILES IDX 42 68 39 69 61 70 62 71 67 72 63 73 64 74 66 75 68 76 65 77
REMARK SMILES IDX 49 78 50 79 55 80 51 81 52 82 54 83 56 84 53 85
REMARK H PARENT 19 6 4 24 23 28 73 47 47 58
REMARK Flexibility Score: inf
ROOT
ATOM      1  C   UNL A   1      33.794  31.292  27.566  1.00  0.00     0.042 C 
ENDROOT
BRANCH   1   2
ATOM      2  C   UNL A   1      32.904  30.498  26.645  1.00  0.00     0.118 C 
BRANCH   2   3
ATOM      3  N   UNL A   1      31.912  29.630  27.192  1.00  0.00    -0.352 N 
ATOM      4  C   UNL A   1      31.721  28.294  26.915  1.00  0.00     0.251 C 
ATOM      5  O   UNL A   1      31.015  27.686  27.728  1.00  0.00    -0.269 OA
ATOM      6  H   UNL A   1      31.292  30.033  27.842  1.00  0.00     0.163 HD
BRANCH   4   7
ATOM      7  C   UNL A   1      32.187  27.544  25.678  1.00  0.00     0.047 A 
ATOM      8  C   UNL A   1      31.715  27.525  24.330  1.00  0.00    -0.003 A 
ATOM      9  C   UNL A   1      32.411  26.716  23.392  1.00  0.00     0.048 A 
ATOM     10  C   UNL A   1      33.521  25.961  23.745  1.00  0.00     0.123 A 
ATOM     11  C   UNL A   1      33.333  26.755  25.988  1.00  0.00     0.017 A 
ATOM     12  F   UNL A   1      34.135  25.213  22.821  1.00  0.00    -0.207 F 
ATOM     13  C   UNL A   1      33.992  25.973  25.039  1.00  0.00     0.040 A 
BRANCH   8  14
ATOM     14  C   UNL A   1      30.537  28.230  23.771  1.00  0.00    -0.015 A 
ATOM     15  C   UNL A   1      29.266  30.283  23.397  1.00  0.00     0.041 A 
ATOM     16  C   UNL A   1      28.122  29.518  23.133  1.00  0.00     0.026 A 
ATOM     17  C   UNL A   1      30.484  29.628  23.656  1.00  0.00     0.034 A 
ATOM     18  C   UNL A   1      28.181  28.127  23.124  1.00  0.00     0.003 A 
ATOM     19  C   UNL A   1      29.379  27.488  23.441  1.00  0.00     0.009 A 
BRANCH  15  20
ATOM     20  N   UNL A   1      29.058  31.658  23.617  1.00  0.00    -0.326 N 
ATOM     21  C   UNL A   1      28.193  32.428  21.416  1.00  0.00     0.114 C 
ATOM     22  C   UNL A   1      28.805  32.690  22.761  1.00  0.00     0.221 C 
ATOM     23  O   UNL A   1      29.058  33.844  23.113  1.00  0.00    -0.275 OA
ATOM     24  H   UNL A   1      29.104  31.925  24.564  1.00  0.00     0.169 HD
ENDBRANCH  15  20
ENDBRANCH   8  14
ENDBRANCH   4   7
ENDBRANCH   2   3
ENDBRANCH   1   2
BRANCH   1  25
ATOM     25  C   UNL A   1      35.062  30.582  28.012  1.00  0.00     0.118 C 
BRANCH  25  26
ATOM     26  N   UNL A   1      35.316  30.633  29.456  1.00  0.00    -0.352 N 
ATOM     27  C   UNL A   1      36.303  30.115  30.262  1.00  0.00     0.251 C 
ATOM     28  H   UNL A   1      34.637  31.144  29.953  1.00  0.00     0.163 HD
ATOM     29  O   UNL A   1      36.106  30.071  31.481  1.00  0.00    -0.269 OA
BRANCH  27  30
ATOM     30  C   UNL A   1      37.555  29.543  29.714  1.00  0.00     0.039 A 
ATOM     31  C   UNL A   1      37.901  29.786  28.378  1.00  0.00     0.014 A 
ATOM     32  C   UNL A   1      38.406  28.771  30.494  1.00  0.00     0.014 A 
ATOM     33  C   UNL A   1      39.144  29.371  27.888  1.00  0.00     0.010 A 
ATOM     34  C   UNL A   1      39.701  28.521  30.071  1.00  0.00     0.010 A 
ATOM     35  C   UNL A   1      40.087  28.802  28.757  1.00  0.00    -0.014 A 
BRANCH  35  36
ATOM     36  C   UNL A   1      41.469  28.458  28.335  1.00  0.00     0.031 A 
ATOM     37  C   UNL A   1      41.799  27.036  27.958  1.00  0.00     0.074 A 
ATOM     38  C   UNL A   1      42.445  29.385  28.405  1.00  0.00     0.049 A 
ATOM     39  N   UNL A   1      42.966  26.480  27.754  1.00  0.00    -0.248 NA
ATOM     40  C   UNL A   1      40.667  26.098  27.851  1.00  0.00     0.031 C 
ATOM     41  C   UNL A   1      42.269  30.779  28.821  1.00  0.00     0.029 A 
ATOM     42  N   UNL A   1      43.791  29.286  28.151  1.00  0.00    -0.354 N 
ATOM     43  C   UNL A   1      42.707  25.134  27.530  1.00  0.00     0.074 A 
ATOM     44  C   UNL A   1      41.286  24.937  27.706  1.00  0.00     0.031 C 
ATOM     45  C   UNL A   1      43.453  31.410  28.768  1.00  0.00     0.029 A 
ATOM     46  C   UNL A   1      44.481  30.456  28.370  1.00  0.00     0.049 A 
ATOM     47  H   UNL A   1      44.221  28.457  27.842  1.00  0.00     0.167 HD
ATOM     48  C   UNL A   1      43.566  24.152  27.166  1.00  0.00     0.037 A 
ATOM     49  C   UNL A   1      45.797  30.722  28.276  1.00  0.00     0.037 A 
ATOM     50  C   UNL A   1      44.971  24.364  26.948  1.00  0.00     0.049 A 
ATOM     51  C   UNL A   1      46.731  29.621  27.856  1.00  0.00     0.074 A 
ATOM     52  C   UNL A   1      45.926  23.455  26.528  1.00  0.00     0.029 A 
ATOM     53  N   UNL A   1      45.619  25.578  27.120  1.00  0.00    -0.354 N 
ATOM     54  N   UNL A   1      46.463  28.364  27.595  1.00  0.00    -0.248 NA
ATOM     55  C   UNL A   1      48.149  29.976  27.707  1.00  0.00     0.031 C 
ATOM     56  C   UNL A   1      47.160  24.111  26.484  1.00  0.00     0.029 A 
ATOM     57  C   UNL A   1      46.963  25.441  26.822  1.00  0.00     0.049 A 
ATOM     58  H   UNL A   1      45.186  26.414  27.411  1.00  0.00     0.167 HD
ATOM     59  C   UNL A   1      47.670  27.787  27.220  1.00  0.00     0.074 A 
ATOM     60  C   UNL A   1      48.667  28.836  27.273  1.00  0.00     0.031 C 
ATOM     61  C   UNL A   1      47.933  26.505  26.866  1.00  0.00     0.037 A 
BRANCH  48  62
ATOM     62  C   UNL A   1      43.000  22.776  26.956  1.00  0.00     0.057 A 
ATOM     63  C   UNL A   1      42.659  21.946  28.034  1.00  0.00     0.134 A 
ATOM     64  C   UNL A   1      42.769  22.281  25.666  1.00  0.00     0.134 A 
ATOM     65  F   UNL A   1      42.868  22.350  29.296  1.00  0.00    -0.206 F 
ATOM     66  C   UNL A   1      42.142  20.665  27.838  1.00  0.00     0.040 A 
ATOM     67  C   UNL A   1      42.220  21.014  25.457  1.00  0.00     0.040 A 
ATOM     68  F   UNL A   1      43.066  23.022  24.589  1.00  0.00    -0.206 F 
ATOM     69  C   UNL A   1      41.913  20.199  26.545  1.00  0.00     0.006 A 
ENDBRANCH  48  62
BRANCH  49  70
ATOM     70  C   UNL A   1      46.308  32.087  28.565  1.00  0.00     0.057 A 
ATOM     71  C   UNL A   1      46.410  33.052  27.555  1.00  0.00     0.134 A 
ATOM     72  C   UNL A   1      46.716  32.459  29.852  1.00  0.00     0.134 A 
ATOM     73  F   UNL A   1      46.047  32.754  26.299  1.00  0.00    -0.206 F 
ATOM     74  C   UNL A   1      46.927  34.324  27.806  1.00  0.00     0.040 A 
ATOM     75  C   UNL A   1      47.207  33.738  30.124  1.00  0.00     0.040 A 
ATOM     76  F   UNL A   1      46.631  31.589  30.868  1.00  0.00    -0.206 F 
ATOM     77  C   UNL A   1      47.324  34.671  29.095  1.00  0.00     0.006 A 
ENDBRANCH  49  70
BRANCH  61  78
ATOM     78  C   UNL A   1      49.339  26.180  26.458  1.00  0.00     0.057 A 
ATOM     79  C   UNL A   1      49.806  26.403  25.157  1.00  0.00     0.134 A 
ATOM     80  C   UNL A   1      50.250  25.677  27.397  1.00  0.00     0.134 A 
ATOM     81  F   UNL A   1      48.980  26.873  24.210  1.00  0.00    -0.206 F 
ATOM     82  C   UNL A   1      51.123  26.114  24.797  1.00  0.00     0.040 A 
ATOM     83  C   UNL A   1      51.576  25.413  27.057  1.00  0.00     0.040 A 
ATOM     84  F   UNL A   1      49.869  25.451  28.663  1.00  0.00    -0.206 F 
ATOM     85  C   UNL A   1      52.014  25.625  25.751  1.00  0.00     0.006 A 
ENDBRANCH  61  78
ENDBRANCH  35  36
ENDBRANCH  27  30
ENDBRANCH  25  26
ENDBRANCH   1  25
TORSDOF 12
ENDMDL
