MODEL 1
REMARK VINA RESULT:     -12.6      0.000      0.000
REMARK SMILES NS(=O)(=O)c1ccc(-c2coc(=O)n2-c2ccc(C(=O)NCCCNC(=O)c3ccc(-c4c5nc(c(-c6c(F)cccc6F)c6ccc([nH]6)c(-c6c(F)cccc6F)c6nc(c(-c7c(F)cccc7F)c7ccc4[nH]7)C=C6)C=C5)cc3)cc2)cc1
REMARK SMILES IDX 22 1 21 2 19 3 20 4 18 6 15 7 16 8 83 9 17 10 82 11 14 12
REMARK SMILES IDX 9 13 10 14 11 15 12 16 13 17 8 18 5 19 6 20 85 21 7 22 84 23
REMARK SMILES IDX 2 24 3 25 4 26 1 27 23 30 24 31 25 32 26 33 27 35 28 36
REMARK SMILES IDX 29 37 81 38 30 39 80 40 31 41 32 42 33 43 74 44 34 45 79 46
REMARK SMILES IDX 73 47 75 48 35 49 78 50 72 51 71 52 36 54 62 55 45 56 61 57
REMARK SMILES IDX 46 58 49 59 60 60 76 61 47 62 48 63 59 65 77 66 50 67 37 68
REMARK SMILES IDX 38 69 43 70 39 71 40 72 42 73 44 74 41 75 63 76 64 77 69 78
REMARK SMILES IDX 65 79 66 80 68 81 70 82 67 83 51 84 52 85 57 86 53 87 54 88
REMARK SMILES IDX 56 89 58 90 55 91
REMARK H PARENT 21 5 1 28 1 29 25 34 75 53 49 64
REMARK Flexibility Score: inf
ROOT
ATOM      1  C   UNL A   1      33.286  31.446  27.419  1.00  0.00     0.118 C 
ENDROOT
BRANCH   1   2
ATOM      2  N   UNL A   1      34.463  30.628  27.682  1.00  0.00    -0.352 N 
ATOM      3  C   UNL A   1      34.827  29.365  27.278  1.00  0.00     0.251 C 
ATOM      4  O   UNL A   1      35.941  28.959  27.609  1.00  0.00    -0.269 OA
ATOM      5  H   UNL A   1      35.128  31.064  28.261  1.00  0.00     0.163 HD
BRANCH   3   6
ATOM      6  C   UNL A   1      33.962  28.496  26.428  1.00  0.00     0.039 A 
ATOM      7  C   UNL A   1      32.368  26.689  24.971  1.00  0.00     0.053 A 
ATOM      8  C   UNL A   1      32.045  26.985  26.295  1.00  0.00     0.028 A 
ATOM      9  C   UNL A   1      33.422  27.364  24.358  1.00  0.00     0.028 A 
ATOM     10  C   UNL A   1      32.859  27.864  27.027  1.00  0.00     0.016 A 
ATOM     11  C   UNL A   1      34.177  28.289  25.068  1.00  0.00     0.016 A 
BRANCH   7  12
ATOM     12  N   UNL A   1      31.684  25.705  24.238  1.00  0.00    -0.242 N 
ATOM     13  C   UNL A   1      30.511  25.843  23.550  1.00  0.00     0.095 A 
ATOM     14  C   UNL A   1      30.160  24.619  23.178  1.00  0.00     0.228 A 
ATOM     15  O   UNL A   1      31.054  23.622  23.570  1.00  0.00    -0.415 OA
ATOM     16  C   UNL A   1      32.033  24.359  24.240  1.00  0.00     0.424 A 
ATOM     17  O   UNL A   1      33.003  23.836  24.772  1.00  0.00    -0.223 OA
BRANCH  13  18
ATOM     18  C   UNL A   1      29.883  27.119  23.201  1.00  0.00     0.002 A 
ATOM     19  C   UNL A   1      28.752  29.616  22.606  1.00  0.00     0.082 A 
ATOM     20  C   UNL A   1      30.078  29.356  22.254  1.00  0.00     0.022 A 
ATOM     21  C   UNL A   1      27.985  28.640  23.247  1.00  0.00     0.022 A 
ATOM     22  C   UNL A   1      30.637  28.110  22.549  1.00  0.00     0.012 A 
ATOM     23  C   UNL A   1      28.551  27.391  23.538  1.00  0.00     0.012 A 
BRANCH  19  24
ATOM     24  S   UNL A   1      28.095  31.210  22.211  1.00  0.00     0.238 S 
ATOM     25  O   UNL A   1      27.263  31.640  23.299  1.00  0.00    -0.207 OA
ATOM     26  O   UNL A   1      27.642  31.177  20.833  1.00  0.00    -0.207 OA
BRANCH  24  27
ATOM     27  N   UNL A   1      29.424  32.240  22.211  1.00  0.00    -0.225 NA
ATOM     28  H   UNL A   1      29.486  32.714  23.112  1.00  0.00     0.137 HD
ATOM     29  H   UNL A   1      29.318  32.931  21.468  1.00  0.00     0.137 HD
ENDBRANCH  24  27
ENDBRANCH  19  24
ENDBRANCH  13  18
ENDBRANCH   7  12
ENDBRANCH   3   6
ENDBRANCH   1   2
BRANCH   1  30
ATOM     30  C   UNL A   1      33.431  32.861  27.998  1.00  0.00     0.042 C 
BRANCH  30  31
ATOM     31  C   UNL A   1      34.787  33.079  28.640  1.00  0.00     0.118 C 
BRANCH  31  32
ATOM     32  N   UNL A   1      34.708  33.174  30.097  1.00  0.00    -0.352 N 
ATOM     33  C   UNL A   1      35.345  32.390  31.037  1.00  0.00     0.251 C 
ATOM     34  H   UNL A   1      34.126  33.885  30.452  1.00  0.00     0.163 HD
ATOM     35  O   UNL A   1      34.933  32.334  32.189  1.00  0.00    -0.269 OA
BRANCH  33  36
ATOM     36  C   UNL A   1      36.524  31.609  30.624  1.00  0.00     0.039 A 
ATOM     37  C   UNL A   1      37.717  32.238  30.266  1.00  0.00     0.014 A 
ATOM     38  C   UNL A   1      36.432  30.220  30.642  1.00  0.00     0.014 A 
ATOM     39  C   UNL A   1      38.836  31.449  30.016  1.00  0.00     0.010 A 
ATOM     40  C   UNL A   1      37.571  29.459  30.579  1.00  0.00     0.010 A 
ATOM     41  C   UNL A   1      38.766  30.056  30.208  1.00  0.00    -0.014 A 
BRANCH  41  42
ATOM     42  C   UNL A   1      39.972  29.236  30.139  1.00  0.00     0.031 A 
ATOM     43  C   UNL A   1      40.629  29.019  31.457  1.00  0.00     0.074 A 
ATOM     44  C   UNL A   1      40.390  28.581  29.033  1.00  0.00     0.049 A 
ATOM     45  N   UNL A   1      41.754  29.511  31.856  1.00  0.00    -0.248 NA
ATOM     46  C   UNL A   1      39.883  28.311  32.510  1.00  0.00     0.031 C 
ATOM     47  C   UNL A   1      39.723  28.432  27.734  1.00  0.00     0.029 A 
ATOM     48  N   UNL A   1      41.512  27.826  28.869  1.00  0.00    -0.354 N 
ATOM     49  C   UNL A   1      41.964  29.006  33.135  1.00  0.00     0.074 A 
ATOM     50  C   UNL A   1      40.714  28.422  33.548  1.00  0.00     0.031 C 
ATOM     51  C   UNL A   1      40.332  27.466  27.011  1.00  0.00     0.029 A 
ATOM     52  C   UNL A   1      41.538  27.061  27.708  1.00  0.00     0.049 A 
ATOM     53  H   UNL A   1      42.248  27.821  29.523  1.00  0.00     0.167 HD
ATOM     54  C   UNL A   1      43.221  28.906  33.645  1.00  0.00     0.037 A 
ATOM     55  C   UNL A   1      42.489  26.163  27.344  1.00  0.00     0.037 A 
ATOM     56  C   UNL A   1      44.148  29.733  32.908  1.00  0.00     0.049 A 
ATOM     57  C   UNL A   1      43.709  26.480  28.123  1.00  0.00     0.074 A 
ATOM     58  C   UNL A   1      44.238  31.084  32.637  1.00  0.00     0.029 A 
ATOM     59  N   UNL A   1      44.953  29.118  31.980  1.00  0.00    -0.354 N 
ATOM     60  N   UNL A   1      44.423  27.555  27.943  1.00  0.00    -0.248 NA
ATOM     61  C   UNL A   1      43.867  25.830  29.414  1.00  0.00     0.031 C 
ATOM     62  C   UNL A   1      44.669  31.160  31.278  1.00  0.00     0.029 A 
ATOM     63  C   UNL A   1      44.894  29.860  30.828  1.00  0.00     0.049 A 
ATOM     64  H   UNL A   1      45.478  28.296  32.119  1.00  0.00     0.167 HD
ATOM     65  C   UNL A   1      44.759  27.968  29.223  1.00  0.00     0.074 A 
ATOM     66  C   UNL A   1      44.463  26.821  30.082  1.00  0.00     0.031 C 
ATOM     67  C   UNL A   1      44.970  29.287  29.503  1.00  0.00     0.037 A 
BRANCH  54  68
ATOM     68  C   UNL A   1      43.683  27.781  34.537  1.00  0.00     0.057 A 
ATOM     69  C   UNL A   1      44.216  28.081  35.804  1.00  0.00     0.134 A 
ATOM     70  C   UNL A   1      43.903  26.460  34.094  1.00  0.00     0.134 A 
ATOM     71  F   UNL A   1      44.088  29.307  36.331  1.00  0.00    -0.206 F 
ATOM     72  C   UNL A   1      44.977  27.161  36.536  1.00  0.00     0.040 A 
ATOM     73  C   UNL A   1      44.618  25.519  34.839  1.00  0.00     0.040 A 
ATOM     74  F   UNL A   1      43.535  26.037  32.879  1.00  0.00    -0.206 F 
ATOM     75  C   UNL A   1      45.187  25.877  36.050  1.00  0.00     0.006 A 
ENDBRANCH  54  68
BRANCH  55  76
ATOM     76  C   UNL A   1      42.360  24.893  26.596  1.00  0.00     0.057 A 
ATOM     77  C   UNL A   1      43.118  24.657  25.438  1.00  0.00     0.134 A 
ATOM     78  C   UNL A   1      41.740  23.770  27.168  1.00  0.00     0.134 A 
ATOM     79  F   UNL A   1      43.775  25.660  24.838  1.00  0.00    -0.206 F 
ATOM     80  C   UNL A   1      43.285  23.372  24.905  1.00  0.00     0.040 A 
ATOM     81  C   UNL A   1      41.896  22.482  26.644  1.00  0.00     0.040 A 
ATOM     82  F   UNL A   1      41.044  23.874  28.309  1.00  0.00    -0.206 F 
ATOM     83  C   UNL A   1      42.687  22.277  25.519  1.00  0.00     0.006 A 
ENDBRANCH  55  76
BRANCH  67  84
ATOM     84  C   UNL A   1      45.070  30.244  28.343  1.00  0.00     0.057 A 
ATOM     85  C   UNL A   1      43.984  30.932  27.781  1.00  0.00     0.134 A 
ATOM     86  C   UNL A   1      46.339  30.572  27.855  1.00  0.00     0.134 A 
ATOM     87  F   UNL A   1      42.739  30.764  28.242  1.00  0.00    -0.206 F 
ATOM     88  C   UNL A   1      44.149  31.863  26.748  1.00  0.00     0.040 A 
ATOM     89  C   UNL A   1      46.523  31.525  26.849  1.00  0.00     0.040 A 
ATOM     90  F   UNL A   1      47.434  29.998  28.378  1.00  0.00    -0.206 F 
ATOM     91  C   UNL A   1      45.424  32.165  26.282  1.00  0.00     0.006 A 
ENDBRANCH  67  84
ENDBRANCH  41  42
ENDBRANCH  33  36
ENDBRANCH  31  32
ENDBRANCH  30  31
ENDBRANCH   1  30
TORSDOF 14
ENDMDL
MODEL 2
REMARK VINA RESULT:     -12.3      2.459      6.240
REMARK SMILES NS(=O)(=O)c1ccc(-c2coc(=O)n2-c2ccc(C(=O)NCCCNC(=O)c3ccc(-c4c5nc(c(-c6c(F)cccc6F)c6ccc([nH]6)c(-c6c(F)cccc6F)c6nc(c(-c7c(F)cccc7F)c7ccc4[nH]7)C=C6)C=C5)cc3)cc2)cc1
REMARK SMILES IDX 22 1 21 2 19 3 20 4 18 6 15 7 16 8 83 9 17 10 82 11 14 12
REMARK SMILES IDX 9 13 10 14 11 15 12 16 13 17 8 18 5 19 6 20 85 21 7 22 84 23
REMARK SMILES IDX 2 24 3 25 4 26 1 27 23 30 24 31 25 32 26 33 27 35 28 36
REMARK SMILES IDX 29 37 81 38 30 39 80 40 31 41 32 42 33 43 74 44 34 45 79 46
REMARK SMILES IDX 73 47 75 48 35 49 78 50 72 51 71 52 36 54 62 55 45 56 61 57
REMARK SMILES IDX 46 58 49 59 60 60 76 61 47 62 48 63 59 65 77 66 50 67 37 68
REMARK SMILES IDX 38 69 43 70 39 71 40 72 42 73 44 74 41 75 63 76 64 77 69 78
REMARK SMILES IDX 65 79 66 80 68 81 70 82 67 83 51 84 52 85 57 86 53 87 54 88
REMARK SMILES IDX 56 89 58 90 55 91
REMARK H PARENT 21 5 1 28 1 29 25 34 75 53 49 64
REMARK Flexibility Score: inf
ROOT
ATOM      1  C   UNL A   1      32.216  31.087  26.598  1.00  0.00     0.118 C 
ENDROOT
BRANCH   1   2
ATOM      2  N   UNL A   1      33.332  30.629  27.416  1.00  0.00    -0.352 N 
ATOM      3  C   UNL A   1      33.920  29.397  27.582  1.00  0.00     0.251 C 
ATOM      4  O   UNL A   1      34.916  29.332  28.302  1.00  0.00    -0.269 OA
ATOM      5  H   UNL A   1      33.747  31.340  27.956  1.00  0.00     0.163 HD
BRANCH   3   6
ATOM      6  C   UNL A   1      33.438  28.161  26.898  1.00  0.00     0.039 A 
ATOM      7  C   UNL A   1      32.538  25.946  25.412  1.00  0.00     0.053 A 
ATOM      8  C   UNL A   1      33.775  26.518  25.120  1.00  0.00     0.028 A 
ATOM      9  C   UNL A   1      31.804  26.421  26.498  1.00  0.00     0.028 A 
ATOM     10  C   UNL A   1      34.208  27.641  25.843  1.00  0.00     0.016 A 
ATOM     11  C   UNL A   1      32.276  27.485  27.256  1.00  0.00     0.016 A 
BRANCH   7  12
ATOM     12  N   UNL A   1      31.985  24.921  24.626  1.00  0.00    -0.242 N 
ATOM     13  C   UNL A   1      30.873  24.986  23.832  1.00  0.00     0.095 A 
ATOM     14  C   UNL A   1      30.634  23.742  23.437  1.00  0.00     0.228 A 
ATOM     15  O   UNL A   1      31.547  22.803  23.916  1.00  0.00    -0.415 OA
ATOM     16  C   UNL A   1      32.414  23.599  24.668  1.00  0.00     0.424 A 
ATOM     17  O   UNL A   1      33.361  23.137  25.290  1.00  0.00    -0.223 OA
BRANCH  13  18
ATOM     18  C   UNL A   1      30.203  26.221  23.420  1.00  0.00     0.002 A 
ATOM     19  C   UNL A   1      28.997  28.645  22.690  1.00  0.00     0.082 A 
ATOM     20  C   UNL A   1      30.291  28.357  22.251  1.00  0.00     0.022 A 
ATOM     21  C   UNL A   1      28.299  27.733  23.485  1.00  0.00     0.022 A 
ATOM     22  C   UNL A   1      30.887  27.147  22.613  1.00  0.00     0.012 A 
ATOM     23  C   UNL A   1      28.902  26.519  23.843  1.00  0.00     0.012 A 
BRANCH  19  24
ATOM     24  S   UNL A   1      28.290  30.192  22.203  1.00  0.00     0.238 S 
ATOM     25  O   UNL A   1      27.394  30.627  23.238  1.00  0.00    -0.207 OA
ATOM     26  O   UNL A   1      27.899  30.086  20.810  1.00  0.00    -0.207 OA
BRANCH  24  27
ATOM     27  N   UNL A   1      29.572  31.279  22.217  1.00  0.00    -0.225 NA
ATOM     28  H   UNL A   1      29.209  32.233  22.199  1.00  0.00     0.137 HD
ATOM     29  H   UNL A   1      30.160  31.123  21.398  1.00  0.00     0.137 HD
ENDBRANCH  24  27
ENDBRANCH  19  24
ENDBRANCH  13  18
ENDBRANCH   7  12
ENDBRANCH   3   6
ENDBRANCH   1   2
BRANCH   1  30
ATOM     30  C   UNL A   1      31.518  32.309  27.214  1.00  0.00     0.042 C 
BRANCH  30  31
ATOM     31  C   UNL A   1      32.248  33.600  26.905  1.00  0.00     0.118 C 
BRANCH  31  32
ATOM     32  N   UNL A   1      32.217  34.542  28.022  1.00  0.00    -0.352 N 
ATOM     33  C   UNL A   1      33.011  34.552  29.150  1.00  0.00     0.251 C 
ATOM     34  H   UNL A   1      31.544  35.259  27.962  1.00  0.00     0.163 HD
ATOM     35  O   UNL A   1      32.663  35.157  30.156  1.00  0.00    -0.269 OA
BRANCH  33  36
ATOM     36  C   UNL A   1      34.282  33.806  29.127  1.00  0.00     0.039 A 
ATOM     37  C   UNL A   1      35.174  33.934  28.062  1.00  0.00     0.014 A 
ATOM     38  C   UNL A   1      34.591  33.000  30.219  1.00  0.00     0.014 A 
ATOM     39  C   UNL A   1      36.416  33.313  28.157  1.00  0.00     0.010 A 
ATOM     40  C   UNL A   1      35.874  32.547  30.392  1.00  0.00     0.010 A 
ATOM     41  C   UNL A   1      36.775  32.646  29.344  1.00  0.00    -0.014 A 
BRANCH  41  42
ATOM     42  C   UNL A   1      38.138  32.157  29.536  1.00  0.00     0.031 A 
ATOM     43  C   UNL A   1      38.332  30.739  29.125  1.00  0.00     0.074 A 
ATOM     44  C   UNL A   1      39.186  32.932  29.890  1.00  0.00     0.049 A 
ATOM     45  N   UNL A   1      38.540  29.727  29.898  1.00  0.00    -0.248 NA
ATOM     46  C   UNL A   1      38.112  30.377  27.715  1.00  0.00     0.031 C 
ATOM     47  C   UNL A   1      39.253  34.390  30.046  1.00  0.00     0.029 A 
ATOM     48  N   UNL A   1      40.476  32.559  30.122  1.00  0.00    -0.354 N 
ATOM     49  C   UNL A   1      38.687  28.626  29.061  1.00  0.00     0.074 A 
ATOM     50  C   UNL A   1      38.246  29.049  27.757  1.00  0.00     0.031 C 
ATOM     51  C   UNL A   1      40.543  34.788  30.120  1.00  0.00     0.029 A 
ATOM     52  C   UNL A   1      41.384  33.609  30.207  1.00  0.00     0.049 A 
ATOM     53  H   UNL A   1      40.745  31.617  30.221  1.00  0.00     0.167 HD
ATOM     54  C   UNL A   1      39.385  27.531  29.468  1.00  0.00     0.037 A 
ATOM     55  C   UNL A   1      42.730  33.514  30.345  1.00  0.00     0.037 A 
ATOM     56  C   UNL A   1      39.538  27.518  30.904  1.00  0.00     0.049 A 
ATOM     57  C   UNL A   1      43.020  32.159  30.872  1.00  0.00     0.074 A 
ATOM     58  C   UNL A   1      38.663  27.505  31.973  1.00  0.00     0.029 A 
ATOM     59  N   UNL A   1      40.743  27.929  31.421  1.00  0.00    -0.354 N 
ATOM     60  N   UNL A   1      42.705  31.769  32.075  1.00  0.00    -0.248 NA
ATOM     61  C   UNL A   1      43.241  31.097  29.904  1.00  0.00     0.031 C 
ATOM     62  C   UNL A   1      39.247  28.381  32.938  1.00  0.00     0.029 A 
ATOM     63  C   UNL A   1      40.476  28.810  32.437  1.00  0.00     0.049 A 
ATOM     64  H   UNL A   1      41.635  27.642  31.117  1.00  0.00     0.167 HD
ATOM     65  C   UNL A   1      42.247  30.471  31.910  1.00  0.00     0.074 A 
ATOM     66  C   UNL A   1      42.680  30.083  30.568  1.00  0.00     0.031 C 
ATOM     67  C   UNL A   1      41.316  29.942  32.757  1.00  0.00     0.037 A 
BRANCH  54  68
ATOM     68  C   UNL A   1      40.254  26.698  28.560  1.00  0.00     0.057 A 
ATOM     69  C   UNL A   1      39.984  25.324  28.418  1.00  0.00     0.134 A 
ATOM     70  C   UNL A   1      41.506  27.115  28.062  1.00  0.00     0.134 A 
ATOM     71  F   UNL A   1      38.834  24.800  28.865  1.00  0.00    -0.206 F 
ATOM     72  C   UNL A   1      40.921  24.425  27.895  1.00  0.00     0.040 A 
ATOM     73  C   UNL A   1      42.428  26.234  27.493  1.00  0.00     0.040 A 
ATOM     74  F   UNL A   1      41.951  28.370  28.193  1.00  0.00    -0.206 F 
ATOM     75  C   UNL A   1      42.152  24.878  27.437  1.00  0.00     0.006 A 
ENDBRANCH  54  68
BRANCH  55  76
ATOM     76  C   UNL A   1      43.804  34.378  29.807  1.00  0.00     0.057 A 
ATOM     77  C   UNL A   1      44.573  35.188  30.657  1.00  0.00     0.134 A 
ATOM     78  C   UNL A   1      44.307  34.193  28.509  1.00  0.00     0.134 A 
ATOM     79  F   UNL A   1      44.193  35.397  31.926  1.00  0.00    -0.206 F 
ATOM     80  C   UNL A   1      45.794  35.744  30.255  1.00  0.00     0.040 A 
ATOM     81  C   UNL A   1      45.524  34.745  28.093  1.00  0.00     0.040 A 
ATOM     82  F   UNL A   1      43.683  33.388  27.637  1.00  0.00    -0.206 F 
ATOM     83  C   UNL A   1      46.281  35.509  28.973  1.00  0.00     0.006 A 
ENDBRANCH  55  76
BRANCH  67  84
ATOM     84  C   UNL A   1      40.988  30.712  34.009  1.00  0.00     0.057 A 
ATOM     85  C   UNL A   1      41.735  30.661  35.197  1.00  0.00     0.134 A 
ATOM     86  C   UNL A   1      39.940  31.638  33.970  1.00  0.00     0.134 A 
ATOM     87  F   UNL A   1      42.818  29.882  35.305  1.00  0.00    -0.206 F 
ATOM     88  C   UNL A   1      41.420  31.455  36.307  1.00  0.00     0.040 A 
ATOM     89  C   UNL A   1      39.636  32.461  35.057  1.00  0.00     0.040 A 
ATOM     90  F   UNL A   1      39.211  31.786  32.851  1.00  0.00    -0.206 F 
ATOM     91  C   UNL A   1      40.370  32.363  36.236  1.00  0.00     0.006 A 
ENDBRANCH  67  84
ENDBRANCH  41  42
ENDBRANCH  33  36
ENDBRANCH  31  32
ENDBRANCH  30  31
ENDBRANCH   1  30
TORSDOF 14
ENDMDL
MODEL 3
REMARK VINA RESULT:     -12.1      3.310      5.330
REMARK SMILES NS(=O)(=O)c1ccc(-c2coc(=O)n2-c2ccc(C(=O)NCCCNC(=O)c3ccc(-c4c5nc(c(-c6c(F)cccc6F)c6ccc([nH]6)c(-c6c(F)cccc6F)c6nc(c(-c7c(F)cccc7F)c7ccc4[nH]7)C=C6)C=C5)cc3)cc2)cc1
REMARK SMILES IDX 22 1 21 2 19 3 20 4 18 6 15 7 16 8 83 9 17 10 82 11 14 12
REMARK SMILES IDX 9 13 10 14 11 15 12 16 13 17 8 18 5 19 6 20 85 21 7 22 84 23
REMARK SMILES IDX 2 24 3 25 4 26 1 27 23 30 24 31 25 32 26 33 27 35 28 36
REMARK SMILES IDX 29 37 81 38 30 39 80 40 31 41 32 42 33 43 74 44 34 45 79 46
REMARK SMILES IDX 73 47 75 48 35 49 78 50 72 51 71 52 36 54 62 55 45 56 61 57
REMARK SMILES IDX 46 58 49 59 60 60 76 61 47 62 48 63 59 65 77 66 50 67 37 68
REMARK SMILES IDX 38 69 43 70 39 71 40 72 42 73 44 74 41 75 63 76 64 77 69 78
REMARK SMILES IDX 65 79 66 80 68 81 70 82 67 83 51 84 52 85 57 86 53 87 54 88
REMARK SMILES IDX 56 89 58 90 55 91
REMARK H PARENT 21 5 1 28 1 29 25 34 75 53 49 64
REMARK Flexibility Score: inf
ROOT
ATOM      1  C   UNL A   1      33.139  27.858  26.895  1.00  0.00     0.118 C 
ENDROOT
BRANCH   1   2
ATOM      2  N   UNL A   1      32.047  27.029  26.401  1.00  0.00    -0.352 N 
ATOM      3  C   UNL A   1      32.000  25.739  25.925  1.00  0.00     0.251 C 
ATOM      4  O   UNL A   1      30.895  25.275  25.644  1.00  0.00    -0.269 OA
ATOM      5  H   UNL A   1      31.172  27.479  26.409  1.00  0.00     0.163 HD
BRANCH   3   6
ATOM      6  C   UNL A   1      33.207  24.874  25.783  1.00  0.00     0.039 A 
ATOM      7  C   UNL A   1      35.562  23.334  25.707  1.00  0.00     0.053 A 
ATOM      8  C   UNL A   1      34.701  23.227  26.798  1.00  0.00     0.028 A 
ATOM      9  C   UNL A   1      35.198  24.132  24.625  1.00  0.00     0.028 A 
ATOM     10  C   UNL A   1      33.542  24.019  26.847  1.00  0.00     0.016 A 
ATOM     11  C   UNL A   1      34.012  24.855  24.648  1.00  0.00     0.016 A 
BRANCH   7  12
ATOM     12  N   UNL A   1      36.808  22.684  25.674  1.00  0.00    -0.242 N 
ATOM     13  C   UNL A   1      37.045  21.344  25.550  1.00  0.00     0.095 A 
ATOM     14  C   UNL A   1      38.347  21.184  25.753  1.00  0.00     0.228 A 
ATOM     15  O   UNL A   1      39.037  22.370  26.004  1.00  0.00    -0.415 OA
ATOM     16  C   UNL A   1      38.017  23.320  25.932  1.00  0.00     0.424 A 
ATOM     17  O   UNL A   1      38.211  24.512  26.127  1.00  0.00    -0.223 OA
BRANCH  13  18
ATOM     18  C   UNL A   1      36.056  20.346  25.138  1.00  0.00     0.002 A 
ATOM     19  C   UNL A   1      34.222  18.419  24.251  1.00  0.00     0.082 A 
ATOM     20  C   UNL A   1      35.531  18.040  24.554  1.00  0.00     0.022 A 
ATOM     21  C   UNL A   1      33.820  19.749  24.390  1.00  0.00     0.022 A 
ATOM     22  C   UNL A   1      36.441  19.001  24.999  1.00  0.00     0.012 A 
ATOM     23  C   UNL A   1      34.737  20.709  24.839  1.00  0.00     0.012 A 
BRANCH  19  24
ATOM     24  S   UNL A   1      33.111  17.161  23.690  1.00  0.00     0.238 S 
ATOM     25  O   UNL A   1      33.704  15.881  23.956  1.00  0.00    -0.207 OA
ATOM     26  O   UNL A   1      32.619  17.551  22.382  1.00  0.00    -0.207 OA
BRANCH  24  27
ATOM     27  N   UNL A   1      31.778  17.272  24.709  1.00  0.00    -0.225 NA
ATOM     28  H   UNL A   1      30.958  17.545  24.168  1.00  0.00     0.137 HD
ATOM     29  H   UNL A   1      31.959  17.971  25.430  1.00  0.00     0.137 HD
ENDBRANCH  24  27
ENDBRANCH  19  24
ENDBRANCH  13  18
ENDBRANCH   7  12
ENDBRANCH   3   6
ENDBRANCH   1   2
BRANCH   1  30
ATOM     30  C   UNL A   1      32.699  29.313  27.115  1.00  0.00     0.042 C 
BRANCH  30  31
ATOM     31  C   UNL A   1      33.828  30.294  26.873  1.00  0.00     0.118 C 
BRANCH  31  32
ATOM     32  N   UNL A   1      33.826  31.397  27.831  1.00  0.00    -0.352 N 
ATOM     33  C   UNL A   1      34.731  31.648  28.843  1.00  0.00     0.251 C 
ATOM     34  H   UNL A   1      33.086  32.042  27.745  1.00  0.00     0.163 HD
ATOM     35  O   UNL A   1      34.435  32.379  29.780  1.00  0.00    -0.269 OA
BRANCH  33  36
ATOM     36  C   UNL A   1      36.056  31.008  28.780  1.00  0.00     0.039 A 
ATOM     37  C   UNL A   1      37.209  31.697  29.158  1.00  0.00     0.014 A 
ATOM     38  C   UNL A   1      36.126  29.678  28.376  1.00  0.00     0.014 A 
ATOM     39  C   UNL A   1      38.414  31.002  29.207  1.00  0.00     0.010 A 
ATOM     40  C   UNL A   1      37.268  28.954  28.603  1.00  0.00     0.010 A 
ATOM     41  C   UNL A   1      38.431  29.616  28.961  1.00  0.00    -0.014 A 
BRANCH  41  42
ATOM     42  C   UNL A   1      39.644  28.836  29.196  1.00  0.00     0.031 A 
ATOM     43  C   UNL A   1      39.959  28.633  30.637  1.00  0.00     0.074 A 
ATOM     44  C   UNL A   1      40.344  28.202  28.230  1.00  0.00     0.049 A 
ATOM     45  N   UNL A   1      40.932  29.158  31.302  1.00  0.00    -0.248 NA
ATOM     46  C   UNL A   1      38.997  27.893  31.471  1.00  0.00     0.031 C 
ATOM     47  C   UNL A   1      40.027  28.040  26.806  1.00  0.00     0.029 A 
ATOM     48  N   UNL A   1      41.496  27.485  28.352  1.00  0.00    -0.354 N 
ATOM     49  C   UNL A   1      40.833  28.652  32.593  1.00  0.00     0.074 A 
ATOM     50  C   UNL A   1      39.540  28.025  32.683  1.00  0.00     0.031 C 
ATOM     51  C   UNL A   1      40.829  27.099  26.259  1.00  0.00     0.029 A 
ATOM     52  C   UNL A   1      41.836  26.729  27.235  1.00  0.00     0.049 A 
ATOM     53  H   UNL A   1      42.046  27.500  29.169  1.00  0.00     0.167 HD
ATOM     54  C   UNL A   1      41.927  28.589  33.401  1.00  0.00     0.037 A 
ATOM     55  C   UNL A   1      42.877  25.865  27.121  1.00  0.00     0.037 A 
ATOM     56  C   UNL A   1      42.980  29.450  32.916  1.00  0.00     0.049 A 
ATOM     57  C   UNL A   1      43.854  26.217  28.179  1.00  0.00     0.074 A 
ATOM     58  C   UNL A   1      43.090  30.806  32.674  1.00  0.00     0.029 A 
ATOM     59  N   UNL A   1      44.011  28.868  32.219  1.00  0.00    -0.354 N 
ATOM     60  N   UNL A   1      44.553  27.316  28.180  1.00  0.00    -0.248 NA
ATOM     61  C   UNL A   1      43.707  25.563  29.469  1.00  0.00     0.031 C 
ATOM     62  C   UNL A   1      43.842  30.904  31.465  1.00  0.00     0.029 A 
ATOM     63  C   UNL A   1      44.215  29.615  31.088  1.00  0.00     0.049 A 
ATOM     64  H   UNL A   1      44.511  28.063  32.486  1.00  0.00     0.167 HD
ATOM     65  C   UNL A   1      44.547  27.731  29.502  1.00  0.00     0.074 A 
ATOM     66  C   UNL A   1      44.085  26.569  30.262  1.00  0.00     0.031 C 
ATOM     67  C   UNL A   1      44.638  29.054  29.824  1.00  0.00     0.037 A 
BRANCH  54  68
ATOM     68  C   UNL A   1      42.189  27.474  34.382  1.00  0.00     0.057 A 
ATOM     69  C   UNL A   1      41.899  27.673  35.744  1.00  0.00     0.134 A 
ATOM     70  C   UNL A   1      42.981  26.342  34.098  1.00  0.00     0.134 A 
ATOM     71  F   UNL A   1      41.168  28.723  36.145  1.00  0.00    -0.206 F 
ATOM     72  C   UNL A   1      42.425  26.853  36.751  1.00  0.00     0.040 A 
ATOM     73  C   UNL A   1      43.469  25.489  35.092  1.00  0.00     0.040 A 
ATOM     74  F   UNL A   1      43.415  26.056  32.865  1.00  0.00    -0.206 F 
ATOM     75  C   UNL A   1      43.219  25.761  36.427  1.00  0.00     0.006 A 
ENDBRANCH  54  68
BRANCH  55  76
ATOM     76  C   UNL A   1      42.980  24.597  26.366  1.00  0.00     0.057 A 
ATOM     77  C   UNL A   1      43.974  24.414  25.393  1.00  0.00     0.134 A 
ATOM     78  C   UNL A   1      42.320  23.435  26.800  1.00  0.00     0.134 A 
ATOM     79  F   UNL A   1      44.684  25.459  24.940  1.00  0.00    -0.206 F 
ATOM     80  C   UNL A   1      44.324  23.146  24.911  1.00  0.00     0.040 A 
ATOM     81  C   UNL A   1      42.657  22.163  26.325  1.00  0.00     0.040 A 
ATOM     82  F   UNL A   1      41.396  23.489  27.771  1.00  0.00    -0.206 F 
ATOM     83  C   UNL A   1      43.675  22.013  25.390  1.00  0.00     0.006 A 
ENDBRANCH  55  76
BRANCH  67  84
ATOM     84  C   UNL A   1      44.991  30.021  28.724  1.00  0.00     0.057 A 
ATOM     85  C   UNL A   1      46.296  30.276  28.274  1.00  0.00     0.134 A 
ATOM     86  C   UNL A   1      43.953  30.629  28.009  1.00  0.00     0.134 A 
ATOM     87  F   UNL A   1      47.354  29.668  28.825  1.00  0.00    -0.206 F 
ATOM     88  C   UNL A   1      46.556  31.134  27.198  1.00  0.00     0.040 A 
ATOM     89  C   UNL A   1      44.196  31.460  26.912  1.00  0.00     0.040 A 
ATOM     90  F   UNL A   1      42.675  30.393  28.343  1.00  0.00    -0.206 F 
ATOM     91  C   UNL A   1      45.503  31.725  26.511  1.00  0.00     0.006 A 
ENDBRANCH  67  84
ENDBRANCH  41  42
ENDBRANCH  33  36
ENDBRANCH  31  32
ENDBRANCH  30  31
ENDBRANCH   1  30
TORSDOF 14
ENDMDL
