MODEL 1
REMARK VINA RESULT:     -12.3      0.000      0.000
REMARK SMILES O=CN1CC[NH+](C[C@@H](CC(=O)Nc2ccc(C(F)(F)F)nc2)C(=O)NCCCNC(=O)c2ccc(-c3c4nc(c(-c5c(F)cccc5F)c5ccc([nH]5)c(-c5c(F)cccc5F)c5nc(c(-c6c(F)cccc6F)c6ccc3[nH]6)C=C5)C=C4)cc2)CC1
REMARK SMILES IDX 26 1 25 2 23 3 24 4 8 6 7 7 6 8 1 9 2 10 3 11 4 12 87 13
REMARK SMILES IDX 5 14 86 15 9 17 10 18 11 19 12 20 13 22 14 23 22 24 15 25
REMARK SMILES IDX 21 26 16 27 17 28 18 29 19 30 20 31 27 32 28 33 29 34 30 35
REMARK SMILES IDX 31 37 32 38 33 39 85 40 34 41 84 42 35 43 36 44 37 45 78 46
REMARK SMILES IDX 38 47 83 48 77 49 79 50 39 51 82 52 76 53 75 54 40 56 66 57
REMARK SMILES IDX 49 58 65 59 50 60 53 61 64 62 80 63 51 64 52 65 63 67 81 68
REMARK SMILES IDX 54 69 41 70 42 71 47 72 43 73 44 74 46 75 48 76 45 77 67 78
REMARK SMILES IDX 68 79 73 80 69 81 70 82 72 83 74 84 71 85 55 86 56 87 61 88
REMARK SMILES IDX 57 89 58 90 60 91 62 92 59 93
REMARK H PARENT 25 5 6 16 12 21 29 36 79 55 53 66
REMARK Flexibility Score: inf
ROOT
ATOM      1  C   UNL A   1      35.857  23.388  23.862  1.00  0.00     0.117 C 
ENDROOT
BRANCH   1   2
ATOM      2  N   UNL A   1      34.667  23.757  23.161  1.00  0.00    -0.356 N 
ATOM      3  C   UNL A   1      33.764  24.691  23.580  1.00  0.00     0.229 C 
ATOM      4  O   UNL A   1      32.860  24.996  22.798  1.00  0.00    -0.275 OA
ATOM      5  H   UNL A   1      34.484  23.301  22.308  1.00  0.00     0.163 HD
BRANCH   3   6
ATOM      6  C   UNL A   1      33.786  25.267  25.022  1.00  0.00     0.142 C 
BRANCH   6   7
ATOM      7  C   UNL A   1      33.229  26.696  24.950  1.00  0.00     0.276 C 
BRANCH   7   8
ATOM      8  N   UNL A   1      31.947  27.129  25.526  1.00  0.00    -0.331 N 
ATOM      9  O   UNL A   1      28.888  29.215  21.999  1.00  0.00    -0.279 OA
ATOM     10  C   UNL A   1      29.616  29.609  22.893  1.00  0.00     0.340 C 
ATOM     11  N   UNL A   1      30.387  28.816  23.713  1.00  0.00    -0.334 N 
ATOM     12  C   UNL A   1      31.384  29.414  24.579  1.00  0.00     0.180 C 
ATOM     13  C   UNL A   1      30.472  27.373  23.489  1.00  0.00     0.180 C 
ATOM     14  C   UNL A   1      31.698  28.545  25.803  1.00  0.00     0.284 C 
ATOM     15  C   UNL A   1      30.784  26.591  24.781  1.00  0.00     0.284 C 
ATOM     16  H   UNL A   1      32.056  26.720  26.454  1.00  0.00     0.348 HD
ENDBRANCH   7   8
ENDBRANCH   6   7
BRANCH   6  17
ATOM     17  C   UNL A   1      33.492  24.267  26.153  1.00  0.00     0.119 C 
BRANCH  17  18
ATOM     18  C   UNL A   1      32.254  23.450  26.590  1.00  0.00     0.225 C 
ATOM     19  O   UNL A   1      31.499  24.020  27.399  1.00  0.00    -0.275 OA
ATOM     20  N   UNL A   1      31.763  22.266  26.154  1.00  0.00    -0.325 N 
ATOM     21  H   UNL A   1      30.864  22.092  26.515  1.00  0.00     0.169 HD
BRANCH  20  22
ATOM     22  C   UNL A   1      32.196  21.225  25.327  1.00  0.00     0.059 A 
ATOM     23  C   UNL A   1      32.114  21.210  23.944  1.00  0.00     0.030 A 
ATOM     24  C   UNL A   1      32.856  20.151  25.914  1.00  0.00     0.137 A 
ATOM     25  C   UNL A   1      32.468  20.060  23.232  1.00  0.00     0.035 A 
ATOM     26  N   UNL A   1      33.206  19.017  25.262  1.00  0.00    -0.250 NA
ATOM     27  C   UNL A   1      32.929  18.948  23.930  1.00  0.00     0.144 A 
BRANCH  27  28
ATOM     28  C   UNL A   1      33.086  17.624  23.193  1.00  0.00     0.433 C 
ATOM     29  F   UNL A   1      34.369  17.380  22.804  1.00  0.00    -0.165 F 
ATOM     30  F   UNL A   1      32.695  16.540  23.922  1.00  0.00    -0.165 F 
ATOM     31  F   UNL A   1      32.342  17.574  22.045  1.00  0.00    -0.165 F 
ENDBRANCH  27  28
ENDBRANCH  20  22
ENDBRANCH  17  18
ENDBRANCH   6  17
ENDBRANCH   3   6
ENDBRANCH   1   2
BRANCH   1  32
ATOM     32  C   UNL A   1      35.964  21.975  24.354  1.00  0.00     0.042 C 
BRANCH  32  33
ATOM     33  C   UNL A   1      36.620  21.875  25.705  1.00  0.00     0.118 C 
BRANCH  33  34
ATOM     34  N   UNL A   1      37.679  20.870  25.753  1.00  0.00    -0.352 N 
ATOM     35  C   UNL A   1      39.016  20.964  26.063  1.00  0.00     0.251 C 
ATOM     36  H   UNL A   1      37.382  19.959  25.524  1.00  0.00     0.163 HD
ATOM     37  O   UNL A   1      39.745  19.990  25.902  1.00  0.00    -0.269 OA
BRANCH  35  38
ATOM     38  C   UNL A   1      39.587  22.237  26.551  1.00  0.00     0.039 A 
ATOM     39  C   UNL A   1      40.614  22.213  27.497  1.00  0.00     0.014 A 
ATOM     40  C   UNL A   1      39.121  23.459  26.074  1.00  0.00     0.014 A 
ATOM     41  C   UNL A   1      41.205  23.413  27.899  1.00  0.00     0.010 A 
ATOM     42  C   UNL A   1      39.836  24.616  26.318  1.00  0.00     0.010 A 
ATOM     43  C   UNL A   1      40.847  24.621  27.280  1.00  0.00    -0.014 A 
BRANCH  43  44
ATOM     44  C   UNL A   1      41.451  25.914  27.678  1.00  0.00     0.031 A 
ATOM     45  C   UNL A   1      42.849  26.257  27.226  1.00  0.00     0.074 A 
ATOM     46  C   UNL A   1      40.767  26.755  28.477  1.00  0.00     0.049 A 
ATOM     47  N   UNL A   1      43.561  27.325  27.476  1.00  0.00    -0.248 NA
ATOM     48  C   UNL A   1      43.560  25.248  26.422  1.00  0.00     0.031 C 
ATOM     49  C   UNL A   1      39.437  26.501  29.037  1.00  0.00     0.029 A 
ATOM     50  N   UNL A   1      41.095  28.000  28.947  1.00  0.00    -0.354 N 
ATOM     51  C   UNL A   1      44.795  27.102  26.877  1.00  0.00     0.074 A 
ATOM     52  C   UNL A   1      44.775  25.762  26.343  1.00  0.00     0.031 C 
ATOM     53  C   UNL A   1      39.035  27.586  29.719  1.00  0.00     0.029 A 
ATOM     54  C   UNL A   1      40.094  28.589  29.678  1.00  0.00     0.049 A 
ATOM     55  H   UNL A   1      41.964  28.429  28.776  1.00  0.00     0.167 HD
ATOM     56  C   UNL A   1      45.839  27.953  26.736  1.00  0.00     0.037 A 
ATOM     57  C   UNL A   1      40.035  29.812  30.236  1.00  0.00     0.037 A 
ATOM     58  C   UNL A   1      45.844  29.297  27.245  1.00  0.00     0.049 A 
ATOM     59  C   UNL A   1      41.203  30.743  30.069  1.00  0.00     0.074 A 
ATOM     60  C   UNL A   1      46.824  30.264  27.126  1.00  0.00     0.029 A 
ATOM     61  N   UNL A   1      44.806  29.862  27.975  1.00  0.00    -0.354 N 
ATOM     62  N   UNL A   1      42.336  30.547  29.437  1.00  0.00    -0.248 NA
ATOM     63  C   UNL A   1      41.076  32.071  30.682  1.00  0.00     0.031 C 
ATOM     64  C   UNL A   1      46.401  31.399  27.828  1.00  0.00     0.029 A 
ATOM     65  C   UNL A   1      45.131  31.160  28.330  1.00  0.00     0.049 A 
ATOM     66  H   UNL A   1      43.965  29.406  28.207  1.00  0.00     0.167 HD
ATOM     67  C   UNL A   1      43.042  31.739  29.545  1.00  0.00     0.074 A 
ATOM     68  C   UNL A   1      42.199  32.653  30.290  1.00  0.00     0.031 C 
ATOM     69  C   UNL A   1      44.274  32.052  29.070  1.00  0.00     0.037 A 
BRANCH  56  70
ATOM     70  C   UNL A   1      47.044  27.442  25.994  1.00  0.00     0.057 A 
ATOM     71  C   UNL A   1      48.122  26.835  26.656  1.00  0.00     0.134 A 
ATOM     72  C   UNL A   1      47.141  27.578  24.604  1.00  0.00     0.134 A 
ATOM     73  F   UNL A   1      48.107  26.689  27.990  1.00  0.00    -0.206 F 
ATOM     74  C   UNL A   1      49.267  26.426  25.972  1.00  0.00     0.040 A 
ATOM     75  C   UNL A   1      48.266  27.139  23.903  1.00  0.00     0.040 A 
ATOM     76  F   UNL A   1      46.149  28.147  23.903  1.00  0.00    -0.206 F 
ATOM     77  C   UNL A   1      49.340  26.573  24.589  1.00  0.00     0.006 A 
ENDBRANCH  56  70
BRANCH  57  78
ATOM     78  C   UNL A   1      38.804  30.246  30.944  1.00  0.00     0.057 A 
ATOM     79  C   UNL A   1      38.623  29.972  32.306  1.00  0.00     0.134 A 
ATOM     80  C   UNL A   1      37.786  30.949  30.288  1.00  0.00     0.134 A 
ATOM     81  F   UNL A   1      39.558  29.292  32.986  1.00  0.00    -0.206 F 
ATOM     82  C   UNL A   1      37.467  30.359  32.984  1.00  0.00     0.040 A 
ATOM     83  C   UNL A   1      36.635  31.366  30.961  1.00  0.00     0.040 A 
ATOM     84  F   UNL A   1      37.904  31.255  28.988  1.00  0.00    -0.206 F 
ATOM     85  C   UNL A   1      36.471  31.064  32.311  1.00  0.00     0.006 A 
ENDBRANCH  57  78
BRANCH  69  86
ATOM     86  C   UNL A   1      44.755  33.456  29.300  1.00  0.00     0.057 A 
ATOM     87  C   UNL A   1      45.531  33.805  30.412  1.00  0.00     0.134 A 
ATOM     88  C   UNL A   1      44.446  34.469  28.384  1.00  0.00     0.134 A 
ATOM     89  F   UNL A   1      45.855  32.883  31.332  1.00  0.00    -0.206 F 
ATOM     90  C   UNL A   1      45.946  35.120  30.627  1.00  0.00     0.040 A 
ATOM     91  C   UNL A   1      44.884  35.781  28.569  1.00  0.00     0.040 A 
ATOM     92  F   UNL A   1      43.718  34.201  27.289  1.00  0.00    -0.206 F 
ATOM     93  C   UNL A   1      45.625  36.111  29.701  1.00  0.00     0.006 A 
ENDBRANCH  69  86
ENDBRANCH  43  44
ENDBRANCH  35  38
ENDBRANCH  33  34
ENDBRANCH  32  33
ENDBRANCH   1  32
TORSDOF 16
ENDMDL
MODEL 2
REMARK VINA RESULT:     -12.3      4.298      9.422
REMARK SMILES O=CN1CC[NH+](C[C@@H](CC(=O)Nc2ccc(C(F)(F)F)nc2)C(=O)NCCCNC(=O)c2ccc(-c3c4nc(c(-c5c(F)cccc5F)c5ccc([nH]5)c(-c5c(F)cccc5F)c5nc(c(-c6c(F)cccc6F)c6ccc3[nH]6)C=C5)C=C4)cc2)CC1
REMARK SMILES IDX 26 1 25 2 23 3 24 4 8 6 7 7 6 8 1 9 2 10 3 11 4 12 87 13
REMARK SMILES IDX 5 14 86 15 9 17 10 18 11 19 12 20 13 22 14 23 22 24 15 25
REMARK SMILES IDX 21 26 16 27 17 28 18 29 19 30 20 31 27 32 28 33 29 34 30 35
REMARK SMILES IDX 31 37 32 38 33 39 85 40 34 41 84 42 35 43 36 44 37 45 78 46
REMARK SMILES IDX 38 47 83 48 77 49 79 50 39 51 82 52 76 53 75 54 40 56 66 57
REMARK SMILES IDX 49 58 65 59 50 60 53 61 64 62 80 63 51 64 52 65 63 67 81 68
REMARK SMILES IDX 54 69 41 70 42 71 47 72 43 73 44 74 46 75 48 76 45 77 67 78
REMARK SMILES IDX 68 79 73 80 69 81 70 82 72 83 74 84 71 85 55 86 56 87 61 88
REMARK SMILES IDX 57 89 58 90 60 91 62 92 59 93
REMARK H PARENT 25 5 6 16 12 21 29 36 79 55 53 66
REMARK Flexibility Score: inf
ROOT
ATOM      1  C   UNL A   1      32.307  27.672  27.013  1.00  0.00     0.117 C 
ENDROOT
BRANCH   1   2
ATOM      2  N   UNL A   1      31.472  26.578  26.631  1.00  0.00    -0.356 N 
ATOM      3  C   UNL A   1      31.904  25.429  26.032  1.00  0.00     0.229 C 
ATOM      4  O   UNL A   1      31.081  24.521  25.890  1.00  0.00    -0.275 OA
ATOM      5  H   UNL A   1      30.508  26.658  26.813  1.00  0.00     0.163 HD
BRANCH   3   6
ATOM      6  C   UNL A   1      33.333  25.297  25.441  1.00  0.00     0.142 C 
BRANCH   6   7
ATOM      7  C   UNL A   1      33.719  23.813  25.509  1.00  0.00     0.276 C 
BRANCH   7   8
ATOM      8  N   UNL A   1      34.035  22.972  24.345  1.00  0.00    -0.331 N 
ATOM      9  O   UNL A   1      32.077  18.270  24.814  1.00  0.00    -0.279 OA
ATOM     10  C   UNL A   1      33.168  18.799  24.940  1.00  0.00     0.340 C 
ATOM     11  N   UNL A   1      33.437  20.140  24.782  1.00  0.00    -0.334 N 
ATOM     12  C   UNL A   1      34.721  20.679  25.187  1.00  0.00     0.180 C 
ATOM     13  C   UNL A   1      32.355  21.094  24.541  1.00  0.00     0.180 C 
ATOM     14  C   UNL A   1      35.088  21.958  24.425  1.00  0.00     0.284 C 
ATOM     15  C   UNL A   1      32.827  22.339  23.763  1.00  0.00     0.284 C 
ATOM     16  H   UNL A   1      34.441  23.692  23.747  1.00  0.00     0.348 HD
ENDBRANCH   7   8
ENDBRANCH   6   7
BRANCH   6  17
ATOM     17  C   UNL A   1      33.669  26.239  24.271  1.00  0.00     0.119 C 
BRANCH  17  18
ATOM     18  C   UNL A   1      33.269  26.307  22.779  1.00  0.00     0.225 C 
ATOM     19  O   UNL A   1      34.017  25.689  21.999  1.00  0.00    -0.275 OA
ATOM     20  N   UNL A   1      32.171  26.811  22.168  1.00  0.00    -0.325 N 
ATOM     21  H   UNL A   1      32.131  26.551  21.220  1.00  0.00     0.169 HD
BRANCH  20  22
ATOM     22  C   UNL A   1      31.077  27.605  22.529  1.00  0.00     0.059 A 
ATOM     23  C   UNL A   1      30.038  27.214  23.357  1.00  0.00     0.030 A 
ATOM     24  C   UNL A   1      31.065  28.933  22.114  1.00  0.00     0.137 A 
ATOM     25  C   UNL A   1      28.937  28.054  23.547  1.00  0.00     0.035 A 
ATOM     26  N   UNL A   1      30.015  29.774  22.270  1.00  0.00    -0.250 NA
ATOM     27  C   UNL A   1      28.917  29.295  22.917  1.00  0.00     0.144 A 
BRANCH  27  28
ATOM     28  C   UNL A   1      27.628  30.107  22.924  1.00  0.00     0.433 C 
ATOM     29  F   UNL A   1      26.509  29.331  22.963  1.00  0.00    -0.165 F 
ATOM     30  F   UNL A   1      27.530  30.971  23.974  1.00  0.00    -0.165 F 
ATOM     31  F   UNL A   1      27.493  30.883  21.804  1.00  0.00    -0.165 F 
ENDBRANCH  27  28
ENDBRANCH  20  22
ENDBRANCH  17  18
ENDBRANCH   6  17
ENDBRANCH   3   6
ENDBRANCH   1   2
BRANCH   1  32
ATOM     32  C   UNL A   1      31.721  29.052  26.943  1.00  0.00     0.042 C 
BRANCH  32  33
ATOM     33  C   UNL A   1      32.556  30.001  26.128  1.00  0.00     0.118 C 
BRANCH  33  34
ATOM     34  N   UNL A   1      32.358  31.401  26.497  1.00  0.00    -0.352 N 
ATOM     35  C   UNL A   1      33.081  32.244  27.307  1.00  0.00     0.251 C 
ATOM     36  H   UNL A   1      31.562  31.816  26.091  1.00  0.00     0.163 HD
ATOM     37  O   UNL A   1      32.637  33.356  27.575  1.00  0.00    -0.269 OA
BRANCH  35  38
ATOM     38  C   UNL A   1      34.370  31.809  27.886  1.00  0.00     0.039 A 
ATOM     39  C   UNL A   1      35.354  32.759  28.170  1.00  0.00     0.014 A 
ATOM     40  C   UNL A   1      34.613  30.466  28.161  1.00  0.00     0.014 A 
ATOM     41  C   UNL A   1      36.539  32.357  28.788  1.00  0.00     0.010 A 
ATOM     42  C   UNL A   1      35.689  30.103  28.948  1.00  0.00     0.010 A 
ATOM     43  C   UNL A   1      36.698  31.030  29.220  1.00  0.00    -0.014 A 
BRANCH  43  44
ATOM     44  C   UNL A   1      37.940  30.564  29.880  1.00  0.00     0.031 A 
ATOM     45  C   UNL A   1      38.226  30.967  31.305  1.00  0.00     0.074 A 
ATOM     46  C   UNL A   1      38.826  29.822  29.190  1.00  0.00     0.049 A 
ATOM     47  N   UNL A   1      39.258  30.679  32.055  1.00  0.00    -0.248 NA
ATOM     48  C   UNL A   1      37.244  31.848  31.963  1.00  0.00     0.031 C 
ATOM     49  C   UNL A   1      38.694  29.430  27.784  1.00  0.00     0.029 A 
ATOM     50  N   UNL A   1      40.011  29.256  29.584  1.00  0.00    -0.354 N 
ATOM     51  C   UNL A   1      39.051  31.354  33.253  1.00  0.00     0.074 A 
ATOM     52  C   UNL A   1      37.856  32.146  33.095  1.00  0.00     0.031 C 
ATOM     53  C   UNL A   1      39.722  28.631  27.454  1.00  0.00     0.029 A 
ATOM     54  C   UNL A   1      40.602  28.492  28.609  1.00  0.00     0.049 A 
ATOM     55  H   UNL A   1      40.399  29.385  30.479  1.00  0.00     0.167 HD
ATOM     56  C   UNL A   1      39.762  31.284  34.403  1.00  0.00     0.037 A 
ATOM     57  C   UNL A   1      41.722  27.748  28.654  1.00  0.00     0.037 A 
ATOM     58  C   UNL A   1      40.935  30.471  34.564  1.00  0.00     0.049 A 
ATOM     59  C   UNL A   1      42.499  27.682  29.940  1.00  0.00     0.074 A 
ATOM     60  C   UNL A   1      41.712  30.285  35.692  1.00  0.00     0.029 A 
ATOM     61  N   UNL A   1      41.501  29.704  33.554  1.00  0.00    -0.354 N 
ATOM     62  N   UNL A   1      42.254  28.267  31.088  1.00  0.00    -0.248 NA
ATOM     63  C   UNL A   1      43.701  26.840  29.937  1.00  0.00     0.031 C 
ATOM     64  C   UNL A   1      42.778  29.445  35.351  1.00  0.00     0.029 A 
ATOM     65  C   UNL A   1      42.630  29.057  34.029  1.00  0.00     0.049 A 
ATOM     66  H   UNL A   1      41.152  29.631  32.637  1.00  0.00     0.167 HD
ATOM     67  C   UNL A   1      43.250  27.835  31.955  1.00  0.00     0.074 A 
ATOM     68  C   UNL A   1      44.090  26.927  31.200  1.00  0.00     0.031 C 
ATOM     69  C   UNL A   1      43.450  28.155  33.258  1.00  0.00     0.037 A 
BRANCH  56  70
ATOM     70  C   UNL A   1      39.270  32.105  35.563  1.00  0.00     0.057 A 
ATOM     71  C   UNL A   1      38.353  31.600  36.497  1.00  0.00     0.134 A 
ATOM     72  C   UNL A   1      39.701  33.426  35.740  1.00  0.00     0.134 A 
ATOM     73  F   UNL A   1      37.882  30.348  36.379  1.00  0.00    -0.206 F 
ATOM     74  C   UNL A   1      37.847  32.389  37.531  1.00  0.00     0.040 A 
ATOM     75  C   UNL A   1      39.231  34.214  36.792  1.00  0.00     0.040 A 
ATOM     76  F   UNL A   1      40.579  33.977  34.888  1.00  0.00    -0.206 F 
ATOM     77  C   UNL A   1      38.290  33.700  37.684  1.00  0.00     0.006 A 
ENDBRANCH  56  70
BRANCH  57  78
ATOM     78  C   UNL A   1      42.136  26.956  27.468  1.00  0.00     0.057 A 
ATOM     79  C   UNL A   1      42.932  27.526  26.466  1.00  0.00     0.134 A 
ATOM     80  C   UNL A   1      41.759  25.618  27.307  1.00  0.00     0.134 A 
ATOM     81  F   UNL A   1      43.316  28.808  26.557  1.00  0.00    -0.206 F 
ATOM     82  C   UNL A   1      43.318  26.803  25.337  1.00  0.00     0.040 A 
ATOM     83  C   UNL A   1      42.161  24.874  26.196  1.00  0.00     0.040 A 
ATOM     84  F   UNL A   1      41.009  25.010  28.237  1.00  0.00    -0.206 F 
ATOM     85  C   UNL A   1      42.936  25.470  25.203  1.00  0.00     0.006 A 
ENDBRANCH  57  78
BRANCH  69  86
ATOM     86  C   UNL A   1      44.594  27.479  33.957  1.00  0.00     0.057 A 
ATOM     87  C   UNL A   1      45.874  28.046  34.013  1.00  0.00     0.134 A 
ATOM     88  C   UNL A   1      44.405  26.246  34.594  1.00  0.00     0.134 A 
ATOM     89  F   UNL A   1      46.124  29.221  33.415  1.00  0.00    -0.206 F 
ATOM     90  C   UNL A   1      46.934  27.391  34.641  1.00  0.00     0.040 A 
ATOM     91  C   UNL A   1      45.448  25.597  35.255  1.00  0.00     0.040 A 
ATOM     92  F   UNL A   1      43.202  25.653  34.591  1.00  0.00    -0.206 F 
ATOM     93  C   UNL A   1      46.721  26.164  35.268  1.00  0.00     0.006 A 
ENDBRANCH  69  86
ENDBRANCH  43  44
ENDBRANCH  35  38
ENDBRANCH  33  34
ENDBRANCH  32  33
ENDBRANCH   1  32
TORSDOF 16
ENDMDL
MODEL 3
REMARK VINA RESULT:     -12.2      3.756      8.729
REMARK SMILES O=CN1CC[NH+](C[C@@H](CC(=O)Nc2ccc(C(F)(F)F)nc2)C(=O)NCCCNC(=O)c2ccc(-c3c4nc(c(-c5c(F)cccc5F)c5ccc([nH]5)c(-c5c(F)cccc5F)c5nc(c(-c6c(F)cccc6F)c6ccc3[nH]6)C=C5)C=C4)cc2)CC1
REMARK SMILES IDX 26 1 25 2 23 3 24 4 8 6 7 7 6 8 1 9 2 10 3 11 4 12 87 13
REMARK SMILES IDX 5 14 86 15 9 17 10 18 11 19 12 20 13 22 14 23 22 24 15 25
REMARK SMILES IDX 21 26 16 27 17 28 18 29 19 30 20 31 27 32 28 33 29 34 30 35
REMARK SMILES IDX 31 37 32 38 33 39 85 40 34 41 84 42 35 43 36 44 37 45 78 46
REMARK SMILES IDX 38 47 83 48 77 49 79 50 39 51 82 52 76 53 75 54 40 56 66 57
REMARK SMILES IDX 49 58 65 59 50 60 53 61 64 62 80 63 51 64 52 65 63 67 81 68
REMARK SMILES IDX 54 69 41 70 42 71 47 72 43 73 44 74 46 75 48 76 45 77 67 78
REMARK SMILES IDX 68 79 73 80 69 81 70 82 72 83 74 84 71 85 55 86 56 87 61 88
REMARK SMILES IDX 57 89 58 90 60 91 62 92 59 93
REMARK H PARENT 25 5 6 16 12 21 29 36 79 55 53 66
REMARK Flexibility Score: inf
ROOT
ATOM      1  C   UNL A   1      31.567  29.583  24.905  1.00  0.00     0.117 C 
ENDROOT
BRANCH   1   2
ATOM      2  N   UNL A   1      31.053  29.377  23.588  1.00  0.00    -0.356 N 
ATOM      3  C   UNL A   1      30.996  28.174  22.944  1.00  0.00     0.229 C 
ATOM      4  O   UNL A   1      30.398  28.137  21.865  1.00  0.00    -0.275 OA
ATOM      5  H   UNL A   1      30.712  30.165  23.106  1.00  0.00     0.163 HD
BRANCH   3   6
ATOM      6  C   UNL A   1      31.748  26.923  23.471  1.00  0.00     0.142 C 
BRANCH   6   7
ATOM      7  C   UNL A   1      30.727  26.062  24.228  1.00  0.00     0.276 C 
BRANCH   7   8
ATOM      8  N   UNL A   1      30.612  25.987  25.692  1.00  0.00    -0.331 N 
ATOM      9  O   UNL A   1      33.956  22.672  27.689  1.00  0.00    -0.279 OA
ATOM     10  C   UNL A   1      32.765  22.690  27.427  1.00  0.00     0.340 C 
ATOM     11  N   UNL A   1      32.085  23.733  26.841  1.00  0.00    -0.334 N 
ATOM     12  C   UNL A   1      30.727  23.544  26.370  1.00  0.00     0.180 C 
ATOM     13  C   UNL A   1      32.800  24.919  26.369  1.00  0.00     0.180 C 
ATOM     14  C   UNL A   1      29.932  24.855  26.326  1.00  0.00     0.284 C 
ATOM     15  C   UNL A   1      31.916  26.182  26.370  1.00  0.00     0.284 C 
ATOM     16  H   UNL A   1      29.965  26.763  25.830  1.00  0.00     0.348 HD
ENDBRANCH   7   8
ENDBRANCH   6   7
BRANCH   6  17
ATOM     17  C   UNL A   1      32.859  26.370  22.561  1.00  0.00     0.119 C 
BRANCH  17  18
ATOM     18  C   UNL A   1      32.921  25.305  21.442  1.00  0.00     0.225 C 
ATOM     19  O   UNL A   1      32.903  25.752  20.280  1.00  0.00    -0.275 OA
ATOM     20  N   UNL A   1      33.124  23.967  21.490  1.00  0.00    -0.325 N 
ATOM     21  H   UNL A   1      33.277  23.592  20.592  1.00  0.00     0.169 HD
BRANCH  20  22
ATOM     22  C   UNL A   1      33.173  22.978  22.477  1.00  0.00     0.059 A 
ATOM     23  C   UNL A   1      34.189  22.818  23.405  1.00  0.00     0.030 A 
ATOM     24  C   UNL A   1      32.075  22.137  22.618  1.00  0.00     0.137 A 
ATOM     25  C   UNL A   1      34.188  21.716  24.265  1.00  0.00     0.035 A 
ATOM     26  N   UNL A   1      32.038  21.055  23.432  1.00  0.00    -0.250 NA
ATOM     27  C   UNL A   1      33.140  20.803  24.193  1.00  0.00     0.144 A 
BRANCH  27  28
ATOM     28  C   UNL A   1      33.252  19.487  24.950  1.00  0.00     0.433 C 
ATOM     29  F   UNL A   1      32.263  18.604  24.634  1.00  0.00    -0.165 F 
ATOM     30  F   UNL A   1      34.429  18.832  24.740  1.00  0.00    -0.165 F 
ATOM     31  F   UNL A   1      33.169  19.654  26.306  1.00  0.00    -0.165 F 
ENDBRANCH  27  28
ENDBRANCH  20  22
ENDBRANCH  17  18
ENDBRANCH   6  17
ENDBRANCH   3   6
ENDBRANCH   1   2
BRANCH   1  32
ATOM     32  C   UNL A   1      31.178  30.848  25.613  1.00  0.00     0.042 C 
BRANCH  32  33
ATOM     33  C   UNL A   1      32.118  31.203  26.733  1.00  0.00     0.118 C 
BRANCH  33  34
ATOM     34  N   UNL A   1      32.129  32.631  27.040  1.00  0.00    -0.352 N 
ATOM     35  C   UNL A   1      33.004  33.403  27.768  1.00  0.00     0.251 C 
ATOM     36  H   UNL A   1      31.374  33.133  26.653  1.00  0.00     0.163 HD
ATOM     37  O   UNL A   1      32.728  34.576  28.001  1.00  0.00    -0.269 OA
BRANCH  35  38
ATOM     38  C   UNL A   1      34.254  32.823  28.303  1.00  0.00     0.039 A 
ATOM     39  C   UNL A   1      35.374  33.639  28.477  1.00  0.00     0.014 A 
ATOM     40  C   UNL A   1      34.327  31.475  28.644  1.00  0.00     0.014 A 
ATOM     41  C   UNL A   1      36.528  33.107  29.054  1.00  0.00     0.010 A 
ATOM     42  C   UNL A   1      35.390  31.006  29.394  1.00  0.00     0.010 A 
ATOM     43  C   UNL A   1      36.530  31.796  29.556  1.00  0.00    -0.014 A 
BRANCH  43  44
ATOM     44  C   UNL A   1      37.734  31.195  30.176  1.00  0.00     0.031 A 
ATOM     45  C   UNL A   1      38.073  31.512  31.611  1.00  0.00     0.074 A 
ATOM     46  C   UNL A   1      38.542  30.407  29.442  1.00  0.00     0.049 A 
ATOM     47  N   UNL A   1      39.086  31.104  32.332  1.00  0.00    -0.248 NA
ATOM     48  C   UNL A   1      37.183  32.448  32.319  1.00  0.00     0.031 C 
ATOM     49  C   UNL A   1      38.358  30.086  28.024  1.00  0.00     0.029 A 
ATOM     50  N   UNL A   1      39.677  29.723  29.793  1.00  0.00    -0.354 N 
ATOM     51  C   UNL A   1      38.955  31.744  33.558  1.00  0.00     0.074 A 
ATOM     52  C   UNL A   1      37.833  32.645  33.453  1.00  0.00     0.031 C 
ATOM     53  C   UNL A   1      39.306  29.214  27.646  1.00  0.00     0.029 A 
ATOM     54  C   UNL A   1      40.186  28.950  28.779  1.00  0.00     0.049 A 
ATOM     55  H   UNL A   1      40.086  29.780  30.686  1.00  0.00     0.167 HD
ATOM     56  C   UNL A   1      39.672  31.564  34.693  1.00  0.00     0.037 A 
ATOM     57  C   UNL A   1      41.236  28.109  28.776  1.00  0.00     0.037 A 
ATOM     58  C   UNL A   1      40.771  30.645  34.801  1.00  0.00     0.049 A 
ATOM     59  C   UNL A   1      42.020  27.922  30.044  1.00  0.00     0.074 A 
ATOM     60  C   UNL A   1      41.543  30.346  35.908  1.00  0.00     0.029 A 
ATOM     61  N   UNL A   1      41.253  29.873  33.752  1.00  0.00    -0.354 N 
ATOM     62  N   UNL A   1      41.843  28.479  31.219  1.00  0.00    -0.248 NA
ATOM     63  C   UNL A   1      43.143  26.979  29.988  1.00  0.00     0.031 C 
ATOM     64  C   UNL A   1      42.526  29.429  35.517  1.00  0.00     0.029 A 
ATOM     65  C   UNL A   1      42.326  29.111  34.182  1.00  0.00     0.049 A 
ATOM     66  H   UNL A   1      40.887  29.870  32.839  1.00  0.00     0.167 HD
ATOM     67  C   UNL A   1      42.808  27.926  32.052  1.00  0.00     0.074 A 
ATOM     68  C   UNL A   1      43.554  26.979  31.247  1.00  0.00     0.031 C 
ATOM     69  C   UNL A   1      43.053  28.173  33.363  1.00  0.00     0.037 A 
BRANCH  56  70
ATOM     70  C   UNL A   1      39.271  32.377  35.893  1.00  0.00     0.057 A 
ATOM     71  C   UNL A   1      38.323  31.918  36.819  1.00  0.00     0.134 A 
ATOM     72  C   UNL A   1      39.821  33.646  36.116  1.00  0.00     0.134 A 
ATOM     73  F   UNL A   1      37.739  30.720  36.659  1.00  0.00    -0.206 F 
ATOM     74  C   UNL A   1      37.903  32.705  37.893  1.00  0.00     0.040 A 
ATOM     75  C   UNL A   1      39.436  34.428  37.207  1.00  0.00     0.040 A 
ATOM     76  F   UNL A   1      40.735  34.151  35.274  1.00  0.00    -0.206 F 
ATOM     77  C   UNL A   1      38.464  33.964  38.092  1.00  0.00     0.006 A 
ENDBRANCH  56  70
BRANCH  57  78
ATOM     78  C   UNL A   1      41.562  27.334  27.552  1.00  0.00     0.057 A 
ATOM     79  C   UNL A   1      42.389  27.874  26.559  1.00  0.00     0.134 A 
ATOM     80  C   UNL A   1      41.069  26.040  27.346  1.00  0.00     0.134 A 
ATOM     81  F   UNL A   1      42.883  29.114  26.693  1.00  0.00    -0.206 F 
ATOM     82  C   UNL A   1      42.694  27.167  25.395  1.00  0.00     0.040 A 
ATOM     83  C   UNL A   1      41.388  25.310  26.199  1.00  0.00     0.040 A 
ATOM     84  F   UNL A   1      40.284  25.461  28.266  1.00  0.00    -0.206 F 
ATOM     85  C   UNL A   1      42.197  25.878  25.216  1.00  0.00     0.006 A 
ENDBRANCH  57  78
BRANCH  69  86
ATOM     86  C   UNL A   1      44.142  27.370  34.015  1.00  0.00     0.057 A 
ATOM     87  C   UNL A   1      43.898  26.121  34.600  1.00  0.00     0.134 A 
ATOM     88  C   UNL A   1      45.457  27.851  34.042  1.00  0.00     0.134 A 
ATOM     89  F   UNL A   1      42.659  25.607  34.615  1.00  0.00    -0.206 F 
ATOM     90  C   UNL A   1      44.915  25.400  35.228  1.00  0.00     0.040 A 
ATOM     91  C   UNL A   1      46.489  27.124  34.635  1.00  0.00     0.040 A 
ATOM     92  F   UNL A   1      45.762  29.034  33.487  1.00  0.00    -0.206 F 
ATOM     93  C   UNL A   1      46.216  25.901  35.242  1.00  0.00     0.006 A 
ENDBRANCH  69  86
ENDBRANCH  43  44
ENDBRANCH  35  38
ENDBRANCH  33  34
ENDBRANCH  32  33
ENDBRANCH   1  32
TORSDOF 16
ENDMDL
