MODEL 1
REMARK VINA RESULT:     -11.3      0.000      0.000
REMARK SMILES CCC(CC)(C(=O)NCCCNC(=O)c1ccc(-c2c3nc(c(-c4c(F)cccc4F)c4ccc([nH]4)c(-c4c(F)cccc4F)c4nc(c(-c5c(F)cccc5F)c5ccc2[nH]5)C=C4)C=C3)cc1)n1nnnc1CC[C@@H]1CCCO1
REMARK SMILES IDX 9 1 8 2 6 3 7 4 3 6 2 7 1 8 4 9 5 10 69 11 70 12 73 13 71 14
REMARK SMILES IDX 72 15 74 16 75 17 76 18 77 19 80 20 78 21 79 22 10 23 11 24
REMARK SMILES IDX 12 25 13 26 14 28 15 29 16 30 68 31 17 32 67 33 18 34 19 35
REMARK SMILES IDX 20 36 61 37 21 38 66 39 60 40 62 41 22 42 65 43 59 44 58 45
REMARK SMILES IDX 23 47 49 48 32 49 48 50 33 51 36 52 47 53 63 54 34 55 35 56
REMARK SMILES IDX 46 58 64 59 37 60 24 61 25 62 30 63 26 64 27 65 29 66 31 67
REMARK SMILES IDX 28 68 50 69 51 70 56 71 52 72 53 73 55 74 57 75 54 76 38 77
REMARK SMILES IDX 39 78 44 79 40 80 41 81 43 82 45 83 42 84
REMARK H PARENT 8 5 12 27 62 46 36 57
REMARK Flexibility Score: inf
ROOT
ATOM      1  C   UNL A   1      31.411  30.271  26.083  1.00  0.00     0.117 C 
ENDROOT
BRANCH   1   2
ATOM      2  N   UNL A   1      32.325  30.072  24.973  1.00  0.00    -0.354 N 
ATOM      3  C   UNL A   1      32.898  28.932  24.479  1.00  0.00     0.248 C 
ATOM      4  O   UNL A   1      33.162  28.975  23.271  1.00  0.00    -0.272 OA
ATOM      5  H   UNL A   1      32.576  30.897  24.496  1.00  0.00     0.163 HD
BRANCH   3   6
ATOM      6  C   UNL A   1      33.110  27.635  25.330  1.00  0.00     0.144 C 
BRANCH   6   7
ATOM      7  C   UNL A   1      34.039  26.622  24.586  1.00  0.00     0.037 C 
ATOM      8  C   UNL A   1      34.401  25.346  25.339  1.00  0.00     0.007 C 
ENDBRANCH   6   7
BRANCH   6   9
ATOM      9  C   UNL A   1      33.566  28.090  26.752  1.00  0.00     0.037 C 
ATOM     10  C   UNL A   1      34.802  28.944  26.984  1.00  0.00     0.007 C 
ENDBRANCH   6   9
BRANCH   6  11
ATOM     11  N   UNL A   1      31.783  26.932  25.414  1.00  0.00    -0.214 N 
ATOM     12  N   UNL A   1      31.413  26.411  26.613  1.00  0.00    -0.044 NA
ATOM     13  C   UNL A   1      30.671  26.905  24.584  1.00  0.00     0.152 A 
ATOM     14  N   UNL A   1      30.166  26.007  26.476  1.00  0.00    -0.024 NA
ATOM     15  N   UNL A   1      29.687  26.322  25.243  1.00  0.00    -0.114 NA
BRANCH  13  16
ATOM     16  C   UNL A   1      30.485  27.493  23.231  1.00  0.00     0.082 C 
BRANCH  16  17
ATOM     17  C   UNL A   1      29.186  28.282  23.071  1.00  0.00     0.040 C 
BRANCH  17  18
ATOM     18  C   UNL A   1      29.421  29.707  22.573  1.00  0.00     0.118 C 
ATOM     19  C   UNL A   1      28.820  30.806  23.431  1.00  0.00     0.034 C 
ATOM     20  O   UNL A   1      28.788  29.869  21.288  1.00  0.00    -0.378 OA
ATOM     21  C   UNL A   1      28.784  31.947  22.444  1.00  0.00     0.031 C 
ATOM     22  C   UNL A   1      28.401  31.246  21.155  1.00  0.00     0.160 C 
ENDBRANCH  17  18
ENDBRANCH  16  17
ENDBRANCH  13  16
ENDBRANCH   6  11
ENDBRANCH   3   6
ENDBRANCH   1   2
BRANCH   1  23
ATOM     23  C   UNL A   1      31.275  31.713  26.517  1.00  0.00     0.042 C 
BRANCH  23  24
ATOM     24  C   UNL A   1      32.599  32.344  26.911  1.00  0.00     0.118 C 
BRANCH  24  25
ATOM     25  N   UNL A   1      32.451  33.715  27.391  1.00  0.00    -0.352 N 
ATOM     26  C   UNL A   1      33.082  34.394  28.404  1.00  0.00     0.251 C 
ATOM     27  H   UNL A   1      31.781  34.247  26.904  1.00  0.00     0.163 HD
ATOM     28  O   UNL A   1      32.636  35.475  28.773  1.00  0.00    -0.269 OA
BRANCH  26  29
ATOM     29  C   UNL A   1      34.275  33.824  29.062  1.00  0.00     0.039 A 
ATOM     30  C   UNL A   1      34.107  32.832  30.031  1.00  0.00     0.014 A 
ATOM     31  C   UNL A   1      35.558  34.273  28.743  1.00  0.00     0.014 A 
ATOM     32  C   UNL A   1      35.229  32.246  30.619  1.00  0.00     0.010 A 
ATOM     33  C   UNL A   1      36.670  33.598  29.226  1.00  0.00     0.010 A 
ATOM     34  C   UNL A   1      36.520  32.590  30.184  1.00  0.00    -0.014 A 
BRANCH  34  35
ATOM     35  C   UNL A   1      37.718  31.909  30.731  1.00  0.00     0.031 A 
ATOM     36  C   UNL A   1      38.236  32.260  32.100  1.00  0.00     0.074 A 
ATOM     37  C   UNL A   1      38.364  31.004  29.971  1.00  0.00     0.049 A 
ATOM     38  N   UNL A   1      39.261  31.763  32.745  1.00  0.00    -0.248 NA
ATOM     39  C   UNL A   1      37.536  33.330  32.828  1.00  0.00     0.031 C 
ATOM     40  C   UNL A   1      38.005  30.642  28.597  1.00  0.00     0.029 A 
ATOM     41  N   UNL A   1      39.454  30.218  30.246  1.00  0.00    -0.354 N 
ATOM     42  C   UNL A   1      39.330  32.464  33.943  1.00  0.00     0.074 A 
ATOM     43  C   UNL A   1      38.295  33.472  33.904  1.00  0.00     0.031 C 
ATOM     44  C   UNL A   1      38.825  29.669  28.169  1.00  0.00     0.029 A 
ATOM     45  C   UNL A   1      39.788  29.365  29.221  1.00  0.00     0.049 A 
ATOM     46  H   UNL A   1      39.948  30.261  31.095  1.00  0.00     0.167 HD
ATOM     47  C   UNL A   1      40.157  32.265  34.995  1.00  0.00     0.037 A 
ATOM     48  C   UNL A   1      40.756  28.434  29.146  1.00  0.00     0.037 A 
ATOM     49  C   UNL A   1      41.171  31.244  35.037  1.00  0.00     0.049 A 
ATOM     50  C   UNL A   1      41.649  28.218  30.336  1.00  0.00     0.074 A 
ATOM     51  C   UNL A   1      42.021  30.914  36.077  1.00  0.00     0.029 A 
ATOM     52  N   UNL A   1      41.470  30.388  33.988  1.00  0.00    -0.354 N 
ATOM     53  N   UNL A   1      41.645  28.830  31.496  1.00  0.00    -0.248 NA
ATOM     54  C   UNL A   1      42.671  27.172  30.209  1.00  0.00     0.031 C 
ATOM     55  C   UNL A   1      42.868  29.889  35.639  1.00  0.00     0.029 A 
ATOM     56  C   UNL A   1      42.508  29.545  34.346  1.00  0.00     0.049 A 
ATOM     57  H   UNL A   1      41.011  30.381  33.116  1.00  0.00     0.167 HD
ATOM     58  C   UNL A   1      42.648  28.231  32.244  1.00  0.00     0.074 A 
ATOM     59  C   UNL A   1      43.219  27.189  31.416  1.00  0.00     0.031 C 
ATOM     60  C   UNL A   1      43.067  28.519  33.501  1.00  0.00     0.037 A 
BRANCH  47  61
ATOM     61  C   UNL A   1      39.988  33.162  36.189  1.00  0.00     0.057 A 
ATOM     62  C   UNL A   1      40.709  34.357  36.324  1.00  0.00     0.134 A 
ATOM     63  C   UNL A   1      39.077  32.843  37.203  1.00  0.00     0.134 A 
ATOM     64  F   UNL A   1      41.610  34.717  35.397  1.00  0.00    -0.206 F 
ATOM     65  C   UNL A   1      40.553  35.186  37.438  1.00  0.00     0.040 A 
ATOM     66  C   UNL A   1      38.889  33.678  38.306  1.00  0.00     0.040 A 
ATOM     67  F   UNL A   1      38.351  31.717  37.138  1.00  0.00    -0.206 F 
ATOM     68  C   UNL A   1      39.634  34.851  38.429  1.00  0.00     0.006 A 
ENDBRANCH  47  61
BRANCH  48  69
ATOM     69  C   UNL A   1      40.905  27.612  27.919  1.00  0.00     0.057 A 
ATOM     70  C   UNL A   1      40.256  26.379  27.792  1.00  0.00     0.134 A 
ATOM     71  C   UNL A   1      41.700  28.035  26.846  1.00  0.00     0.134 A 
ATOM     72  F   UNL A   1      39.492  25.912  28.790  1.00  0.00    -0.206 F 
ATOM     73  C   UNL A   1      40.409  25.584  26.654  1.00  0.00     0.040 A 
ATOM     74  C   UNL A   1      41.840  27.264  25.692  1.00  0.00     0.040 A 
ATOM     75  F   UNL A   1      42.337  29.213  26.899  1.00  0.00    -0.206 F 
ATOM     76  C   UNL A   1      41.200  26.029  25.597  1.00  0.00     0.006 A 
ENDBRANCH  48  69
BRANCH  60  77
ATOM     77  C   UNL A   1      44.181  27.678  34.054  1.00  0.00     0.057 A 
ATOM     78  C   UNL A   1      43.937  26.450  34.684  1.00  0.00     0.134 A 
ATOM     79  C   UNL A   1      45.513  28.097  33.949  1.00  0.00     0.134 A 
ATOM     80  F   UNL A   1      42.682  25.997  34.829  1.00  0.00    -0.206 F 
ATOM     81  C   UNL A   1      44.975  25.689  35.224  1.00  0.00     0.040 A 
ATOM     82  C   UNL A   1      46.562  27.330  34.456  1.00  0.00     0.040 A 
ATOM     83  F   UNL A   1      45.817  29.257  33.347  1.00  0.00    -0.206 F 
ATOM     84  C   UNL A   1      46.293  26.127  35.106  1.00  0.00     0.006 A 
ENDBRANCH  60  77
ENDBRANCH  34  35
ENDBRANCH  26  29
ENDBRANCH  24  25
ENDBRANCH  23  24
ENDBRANCH   1  23
TORSDOF 16
ENDMDL
MODEL 2
REMARK VINA RESULT:     -11.2      4.528      9.267
REMARK SMILES CCC(CC)(C(=O)NCCCNC(=O)c1ccc(-c2c3nc(c(-c4c(F)cccc4F)c4ccc([nH]4)c(-c4c(F)cccc4F)c4nc(c(-c5c(F)cccc5F)c5ccc2[nH]5)C=C4)C=C3)cc1)n1nnnc1CC[C@@H]1CCCO1
REMARK SMILES IDX 9 1 8 2 6 3 7 4 3 6 2 7 1 8 4 9 5 10 69 11 70 12 73 13 71 14
REMARK SMILES IDX 72 15 74 16 75 17 76 18 77 19 80 20 78 21 79 22 10 23 11 24
REMARK SMILES IDX 12 25 13 26 14 28 15 29 16 30 68 31 17 32 67 33 18 34 19 35
REMARK SMILES IDX 20 36 61 37 21 38 66 39 60 40 62 41 22 42 65 43 59 44 58 45
REMARK SMILES IDX 23 47 49 48 32 49 48 50 33 51 36 52 47 53 63 54 34 55 35 56
REMARK SMILES IDX 46 58 64 59 37 60 24 61 25 62 30 63 26 64 27 65 29 66 31 67
REMARK SMILES IDX 28 68 50 69 51 70 56 71 52 72 53 73 55 74 57 75 54 76 38 77
REMARK SMILES IDX 39 78 44 79 40 80 41 81 43 82 45 83 42 84
REMARK H PARENT 8 5 12 27 62 46 36 57
REMARK Flexibility Score: inf
ROOT
ATOM      1  C   UNL A   1      36.292  20.814  24.789  1.00  0.00     0.117 C 
ENDROOT
BRANCH   1   2
ATOM      2  N   UNL A   1      35.743  21.345  26.024  1.00  0.00    -0.354 N 
ATOM      3  C   UNL A   1      34.448  21.543  26.417  1.00  0.00     0.248 C 
ATOM      4  O   UNL A   1      34.268  21.477  27.639  1.00  0.00    -0.272 OA
ATOM      5  H   UNL A   1      36.419  21.607  26.692  1.00  0.00     0.163 HD
BRANCH   3   6
ATOM      6  C   UNL A   1      33.263  21.729  25.412  1.00  0.00     0.144 C 
BRANCH   6   7
ATOM      7  C   UNL A   1      33.762  22.348  24.065  1.00  0.00     0.037 C 
ATOM      8  C   UNL A   1      32.708  22.583  22.989  1.00  0.00     0.007 C 
ENDBRANCH   6   7
BRANCH   6   9
ATOM      9  C   UNL A   1      32.519  20.359  25.320  1.00  0.00     0.037 C 
ATOM     10  C   UNL A   1      33.037  19.199  24.486  1.00  0.00     0.007 C 
ENDBRANCH   6   9
BRANCH   6  11
ATOM     11  N   UNL A   1      32.347  22.775  25.986  1.00  0.00    -0.214 N 
ATOM     12  N   UNL A   1      31.185  22.361  26.556  1.00  0.00    -0.044 NA
ATOM     13  C   UNL A   1      32.527  24.111  26.321  1.00  0.00     0.152 A 
ATOM     14  N   UNL A   1      30.650  23.423  27.126  1.00  0.00    -0.024 NA
ATOM     15  N   UNL A   1      31.471  24.501  27.010  1.00  0.00    -0.114 NA
BRANCH  13  16
ATOM     16  C   UNL A   1      33.699  24.995  26.090  1.00  0.00     0.082 C 
BRANCH  16  17
ATOM     17  C   UNL A   1      33.587  25.860  24.835  1.00  0.00     0.040 C 
BRANCH  17  18
ATOM     18  C   UNL A   1      33.296  27.325  25.154  1.00  0.00     0.118 C 
ATOM     19  C   UNL A   1      33.985  27.874  26.390  1.00  0.00     0.034 C 
ATOM     20  O   UNL A   1      31.889  27.477  25.430  1.00  0.00    -0.378 OA
ATOM     21  C   UNL A   1      33.124  29.078  26.682  1.00  0.00     0.031 C 
ATOM     22  C   UNL A   1      31.735  28.568  26.353  1.00  0.00     0.160 C 
ENDBRANCH  17  18
ENDBRANCH  16  17
ENDBRANCH  13  16
ENDBRANCH   6  11
ENDBRANCH   3   6
ENDBRANCH   1   2
BRANCH   1  23
ATOM     23  C   UNL A   1      37.396  19.802  24.990  1.00  0.00     0.042 C 
BRANCH  23  24
ATOM     24  C   UNL A   1      38.613  20.379  25.691  1.00  0.00     0.118 C 
BRANCH  24  25
ATOM     25  N   UNL A   1      39.739  19.450  25.725  1.00  0.00    -0.352 N 
ATOM     26  C   UNL A   1      41.069  19.647  26.005  1.00  0.00     0.251 C 
ATOM     27  H   UNL A   1      39.504  18.518  25.511  1.00  0.00     0.163 HD
ATOM     28  O   UNL A   1      41.875  18.757  25.754  1.00  0.00    -0.269 OA
BRANCH  26  29
ATOM     29  C   UNL A   1      41.535  20.924  26.581  1.00  0.00     0.039 A 
ATOM     30  C   UNL A   1      42.070  21.897  25.733  1.00  0.00     0.014 A 
ATOM     31  C   UNL A   1      41.466  21.162  27.955  1.00  0.00     0.014 A 
ATOM     32  C   UNL A   1      42.460  23.130  26.259  1.00  0.00     0.010 A 
ATOM     33  C   UNL A   1      41.726  22.431  28.454  1.00  0.00     0.010 A 
ATOM     34  C   UNL A   1      42.245  23.424  27.616  1.00  0.00    -0.014 A 
BRANCH  34  35
ATOM     35  C   UNL A   1      42.569  24.761  28.169  1.00  0.00     0.031 A 
ATOM     36  C   UNL A   1      43.985  25.112  28.537  1.00  0.00     0.074 A 
ATOM     37  C   UNL A   1      41.572  25.642  28.380  1.00  0.00     0.049 A 
ATOM     38  N   UNL A   1      44.456  26.233  29.022  1.00  0.00    -0.248 NA
ATOM     39  C   UNL A   1      45.001  24.061  28.371  1.00  0.00     0.031 C 
ATOM     40  C   UNL A   1      40.149  25.385  28.142  1.00  0.00     0.029 A 
ATOM     41  N   UNL A   1      41.602  26.934  28.838  1.00  0.00    -0.354 N 
ATOM     42  C   UNL A   1      45.813  26.015  29.225  1.00  0.00     0.074 A 
ATOM     43  C   UNL A   1      46.077  24.636  28.886  1.00  0.00     0.031 C 
ATOM     44  C   UNL A   1      39.450  26.501  28.403  1.00  0.00     0.029 A 
ATOM     45  C   UNL A   1      40.367  27.537  28.863  1.00  0.00     0.049 A 
ATOM     46  H   UNL A   1      42.429  27.386  29.121  1.00  0.00     0.167 HD
ATOM     47  C   UNL A   1      46.762  26.894  29.626  1.00  0.00     0.037 A 
ATOM     48  C   UNL A   1      40.018  28.790  29.208  1.00  0.00     0.037 A 
ATOM     49  C   UNL A   1      46.496  28.274  29.940  1.00  0.00     0.049 A 
ATOM     50  C   UNL A   1      41.092  29.753  29.629  1.00  0.00     0.074 A 
ATOM     51  C   UNL A   1      47.392  29.266  30.294  1.00  0.00     0.029 A 
ATOM     52  N   UNL A   1      45.236  28.853  29.939  1.00  0.00    -0.354 N 
ATOM     53  N   UNL A   1      42.385  29.557  29.732  1.00  0.00    -0.248 NA
ATOM     54  C   UNL A   1      40.659  31.114  29.968  1.00  0.00     0.031 C 
ATOM     55  C   UNL A   1      46.667  30.435  30.554  1.00  0.00     0.029 A 
ATOM     56  C   UNL A   1      45.327  30.184  30.309  1.00  0.00     0.049 A 
ATOM     57  H   UNL A   1      44.400  28.386  29.709  1.00  0.00     0.167 HD
ATOM     58  C   UNL A   1      42.922  30.774  30.128  1.00  0.00     0.074 A 
ATOM     59  C   UNL A   1      41.818  31.707  30.218  1.00  0.00     0.031 C 
ATOM     60  C   UNL A   1      44.212  31.093  30.400  1.00  0.00     0.037 A 
BRANCH  47  61
ATOM     61  C   UNL A   1      48.173  26.390  29.731  1.00  0.00     0.057 A 
ATOM     62  C   UNL A   1      48.668  25.818  30.912  1.00  0.00     0.134 A 
ATOM     63  C   UNL A   1      49.042  26.452  28.634  1.00  0.00     0.134 A 
ATOM     64  F   UNL A   1      47.895  25.741  32.006  1.00  0.00    -0.206 F 
ATOM     65  C   UNL A   1      49.983  25.356  31.008  1.00  0.00     0.040 A 
ATOM     66  C   UNL A   1      50.348  25.964  28.707  1.00  0.00     0.040 A 
ATOM     67  F   UNL A   1      48.635  26.982  27.472  1.00  0.00    -0.206 F 
ATOM     68  C   UNL A   1      50.824  25.420  29.900  1.00  0.00     0.006 A 
ENDBRANCH  47  61
BRANCH  48  69
ATOM     69  C   UNL A   1      38.597  29.215  29.129  1.00  0.00     0.057 A 
ATOM     70  C   UNL A   1      38.045  29.673  27.928  1.00  0.00     0.134 A 
ATOM     71  C   UNL A   1      37.759  29.177  30.251  1.00  0.00     0.134 A 
ATOM     72  F   UNL A   1      38.800  29.745  26.822  1.00  0.00    -0.206 F 
ATOM     73  C   UNL A   1      36.718  30.101  27.848  1.00  0.00     0.040 A 
ATOM     74  C   UNL A   1      36.424  29.576  30.179  1.00  0.00     0.040 A 
ATOM     75  F   UNL A   1      38.224  28.736  31.429  1.00  0.00    -0.206 F 
ATOM     76  C   UNL A   1      35.902  30.047  28.976  1.00  0.00     0.006 A 
ENDBRANCH  48  69
BRANCH  60  77
ATOM     77  C   UNL A   1      44.489  32.513  30.799  1.00  0.00     0.057 A 
ATOM     78  C   UNL A   1      44.762  33.508  29.851  1.00  0.00     0.134 A 
ATOM     79  C   UNL A   1      44.476  32.892  32.147  1.00  0.00     0.134 A 
ATOM     80  F   UNL A   1      44.802  33.208  28.543  1.00  0.00    -0.206 F 
ATOM     81  C   UNL A   1      45.050  34.819  30.231  1.00  0.00     0.040 A 
ATOM     82  C   UNL A   1      44.731  34.207  32.538  1.00  0.00     0.040 A 
ATOM     83  F   UNL A   1      44.210  31.992  33.107  1.00  0.00    -0.206 F 
ATOM     84  C   UNL A   1      45.030  35.173  31.579  1.00  0.00     0.006 A 
ENDBRANCH  60  77
ENDBRANCH  34  35
ENDBRANCH  26  29
ENDBRANCH  24  25
ENDBRANCH  23  24
ENDBRANCH   1  23
TORSDOF 16
ENDMDL
MODEL 3
REMARK VINA RESULT:     -11.1      5.466     10.218
REMARK SMILES CCC(CC)(C(=O)NCCCNC(=O)c1ccc(-c2c3nc(c(-c4c(F)cccc4F)c4ccc([nH]4)c(-c4c(F)cccc4F)c4nc(c(-c5c(F)cccc5F)c5ccc2[nH]5)C=C4)C=C3)cc1)n1nnnc1CC[C@@H]1CCCO1
REMARK SMILES IDX 9 1 8 2 6 3 7 4 3 6 2 7 1 8 4 9 5 10 69 11 70 12 73 13 71 14
REMARK SMILES IDX 72 15 74 16 75 17 76 18 77 19 80 20 78 21 79 22 10 23 11 24
REMARK SMILES IDX 12 25 13 26 14 28 15 29 16 30 68 31 17 32 67 33 18 34 19 35
REMARK SMILES IDX 20 36 61 37 21 38 66 39 60 40 62 41 22 42 65 43 59 44 58 45
REMARK SMILES IDX 23 47 49 48 32 49 48 50 33 51 36 52 47 53 63 54 34 55 35 56
REMARK SMILES IDX 46 58 64 59 37 60 24 61 25 62 30 63 26 64 27 65 29 66 31 67
REMARK SMILES IDX 28 68 50 69 51 70 56 71 52 72 53 73 55 74 57 75 54 76 38 77
REMARK SMILES IDX 39 78 44 79 40 80 41 81 43 82 45 83 42 84
REMARK H PARENT 8 5 12 27 62 46 36 57
REMARK Flexibility Score: inf
ROOT
ATOM      1  C   UNL A   1      36.577  20.532  24.903  1.00  0.00     0.117 C 
ENDROOT
BRANCH   1   2
ATOM      2  N   UNL A   1      36.976  21.922  24.771  1.00  0.00    -0.354 N 
ATOM      3  C   UNL A   1      36.383  23.071  25.218  1.00  0.00     0.248 C 
ATOM      4  O   UNL A   1      37.170  23.998  25.444  1.00  0.00    -0.272 OA
ATOM      5  H   UNL A   1      37.816  22.060  24.274  1.00  0.00     0.163 HD
BRANCH   3   6
ATOM      6  C   UNL A   1      34.854  23.186  25.529  1.00  0.00     0.144 C 
BRANCH   6   7
ATOM      7  C   UNL A   1      34.357  21.960  26.363  1.00  0.00     0.037 C 
ATOM      8  C   UNL A   1      33.796  22.258  27.748  1.00  0.00     0.007 C 
ENDBRANCH   6   7
BRANCH   6   9
ATOM      9  C   UNL A   1      34.617  24.598  26.151  1.00  0.00     0.037 C 
ATOM     10  C   UNL A   1      33.398  25.446  25.824  1.00  0.00     0.007 C 
ENDBRANCH   6   9
BRANCH   6  11
ATOM     11  N   UNL A   1      34.120  23.069  24.221  1.00  0.00    -0.214 N 
ATOM     12  N   UNL A   1      34.634  23.718  23.143  1.00  0.00    -0.044 NA
ATOM     13  C   UNL A   1      33.133  22.208  23.762  1.00  0.00     0.152 A 
ATOM     14  N   UNL A   1      33.923  23.330  22.101  1.00  0.00    -0.024 NA
ATOM     15  N   UNL A   1      33.012  22.387  22.460  1.00  0.00    -0.114 NA
BRANCH  13  16
ATOM     16  C   UNL A   1      32.372  21.163  24.497  1.00  0.00     0.082 C 
BRANCH  16  17
ATOM     17  C   UNL A   1      32.427  19.782  23.844  1.00  0.00     0.040 C 
BRANCH  17  18
ATOM     18  C   UNL A   1      33.103  18.739  24.731  1.00  0.00     0.118 C 
ATOM     19  C   UNL A   1      34.080  17.815  24.026  1.00  0.00     0.034 C 
ATOM     20  O   UNL A   1      32.100  17.856  25.271  1.00  0.00    -0.378 OA
ATOM     21  C   UNL A   1      34.144  16.670  25.006  1.00  0.00     0.031 C 
ATOM     22  C   UNL A   1      32.707  16.570  25.480  1.00  0.00     0.160 C 
ENDBRANCH  17  18
ENDBRANCH  16  17
ENDBRANCH  13  16
ENDBRANCH   6  11
ENDBRANCH   3   6
ENDBRANCH   1   2
BRANCH   1  23
ATOM     23  C   UNL A   1      37.734  19.564  24.997  1.00  0.00     0.042 C 
BRANCH  23  24
ATOM     24  C   UNL A   1      38.939  20.145  25.715  1.00  0.00     0.118 C 
BRANCH  24  25
ATOM     25  N   UNL A   1      40.042  19.194  25.829  1.00  0.00    -0.352 N 
ATOM     26  C   UNL A   1      41.380  19.382  26.075  1.00  0.00     0.251 C 
ATOM     27  H   UNL A   1      39.781  18.253  25.708  1.00  0.00     0.163 HD
ATOM     28  O   UNL A   1      42.159  18.451  25.904  1.00  0.00    -0.269 OA
BRANCH  26  29
ATOM     29  C   UNL A   1      41.885  20.696  26.520  1.00  0.00     0.039 A 
ATOM     30  C   UNL A   1      42.214  21.658  25.561  1.00  0.00     0.014 A 
ATOM     31  C   UNL A   1      42.054  20.982  27.875  1.00  0.00     0.014 A 
ATOM     32  C   UNL A   1      42.638  22.923  25.970  1.00  0.00     0.010 A 
ATOM     33  C   UNL A   1      42.344  22.277  28.282  1.00  0.00     0.010 A 
ATOM     34  C   UNL A   1      42.658  23.258  27.335  1.00  0.00    -0.014 A 
BRANCH  34  35
ATOM     35  C   UNL A   1      43.017  24.626  27.781  1.00  0.00     0.031 A 
ATOM     36  C   UNL A   1      44.458  25.054  27.846  1.00  0.00     0.074 A 
ATOM     37  C   UNL A   1      42.039  25.466  28.170  1.00  0.00     0.049 A 
ATOM     38  N   UNL A   1      44.958  26.211  28.200  1.00  0.00    -0.248 NA
ATOM     39  C   UNL A   1      45.473  24.046  27.501  1.00  0.00     0.031 C 
ATOM     40  C   UNL A   1      40.612  25.136  28.232  1.00  0.00     0.029 A 
ATOM     41  N   UNL A   1      42.093  26.772  28.584  1.00  0.00    -0.354 N 
ATOM     42  C   UNL A   1      46.338  26.063  28.128  1.00  0.00     0.074 A 
ATOM     43  C   UNL A   1      46.599  24.688  27.773  1.00  0.00     0.031 C 
ATOM     44  C   UNL A   1      39.923  26.226  28.605  1.00  0.00     0.029 A 
ATOM     45  C   UNL A   1      40.859  27.318  28.846  1.00  0.00     0.049 A 
ATOM     46  H   UNL A   1      42.935  27.271  28.683  1.00  0.00     0.167 HD
ATOM     47  C   UNL A   1      47.301  26.998  28.308  1.00  0.00     0.037 A 
ATOM     48  C   UNL A   1      40.522  28.563  29.226  1.00  0.00     0.037 A 
ATOM     49  C   UNL A   1      47.033  28.372  28.640  1.00  0.00     0.049 A 
ATOM     50  C   UNL A   1      41.607  29.588  29.399  1.00  0.00     0.074 A 
ATOM     51  C   UNL A   1      47.928  29.416  28.782  1.00  0.00     0.029 A 
ATOM     52  N   UNL A   1      45.770  28.892  28.881  1.00  0.00    -0.354 N 
ATOM     53  N   UNL A   1      42.903  29.456  29.241  1.00  0.00    -0.248 NA
ATOM     54  C   UNL A   1      41.181  30.938  29.789  1.00  0.00     0.031 C 
ATOM     55  C   UNL A   1      47.211  30.558  29.157  1.00  0.00     0.029 A 
ATOM     56  C   UNL A   1      45.864  30.237  29.195  1.00  0.00     0.049 A 
ATOM     57  H   UNL A   1      44.930  28.380  28.836  1.00  0.00     0.167 HD
ATOM     58  C   UNL A   1      43.445  30.709  29.493  1.00  0.00     0.074 A 
ATOM     59  C   UNL A   1      42.334  31.592  29.784  1.00  0.00     0.031 C 
ATOM     60  C   UNL A   1      44.744  31.096  29.491  1.00  0.00     0.037 A 
BRANCH  47  61
ATOM     61  C   UNL A   1      48.729  26.563  28.137  1.00  0.00     0.057 A 
ATOM     62  C   UNL A   1      49.487  26.074  29.209  1.00  0.00     0.134 A 
ATOM     63  C   UNL A   1      49.347  26.609  26.880  1.00  0.00     0.134 A 
ATOM     64  F   UNL A   1      48.963  26.017  30.443  1.00  0.00    -0.206 F 
ATOM     65  C   UNL A   1      50.816  25.676  29.046  1.00  0.00     0.040 A 
ATOM     66  C   UNL A   1      50.664  26.184  26.698  1.00  0.00     0.040 A 
ATOM     67  F   UNL A   1      48.680  27.061  25.809  1.00  0.00    -0.206 F 
ATOM     68  C   UNL A   1      51.406  25.723  27.785  1.00  0.00     0.006 A 
ENDBRANCH  47  61
BRANCH  48  69
ATOM     69  C   UNL A   1      39.094  28.919  29.428  1.00  0.00     0.057 A 
ATOM     70  C   UNL A   1      38.331  29.465  28.390  1.00  0.00     0.134 A 
ATOM     71  C   UNL A   1      38.460  28.727  30.662  1.00  0.00     0.134 A 
ATOM     72  F   UNL A   1      38.885  29.686  27.189  1.00  0.00    -0.206 F 
ATOM     73  C   UNL A   1      36.996  29.829  28.575  1.00  0.00     0.040 A 
ATOM     74  C   UNL A   1      37.119  29.060  30.854  1.00  0.00     0.040 A 
ATOM     75  F   UNL A   1      39.132  28.196  31.693  1.00  0.00    -0.206 F 
ATOM     76  C   UNL A   1      36.385  29.621  29.810  1.00  0.00     0.006 A 
ENDBRANCH  48  69
BRANCH  60  77
ATOM     77  C   UNL A   1      45.022  32.540  29.794  1.00  0.00     0.057 A 
ATOM     78  C   UNL A   1      45.284  32.985  31.096  1.00  0.00     0.134 A 
ATOM     79  C   UNL A   1      45.036  33.495  28.770  1.00  0.00     0.134 A 
ATOM     80  F   UNL A   1      45.274  32.122  32.125  1.00  0.00    -0.206 F 
ATOM     81  C   UNL A   1      45.510  34.333  31.374  1.00  0.00     0.040 A 
ATOM     82  C   UNL A   1      45.293  34.841  29.031  1.00  0.00     0.040 A 
ATOM     83  F   UNL A   1      44.805  33.135  27.498  1.00  0.00    -0.206 F 
ATOM     84  C   UNL A   1      45.520  35.265  30.338  1.00  0.00     0.006 A 
ENDBRANCH  60  77
ENDBRANCH  34  35
ENDBRANCH  26  29
ENDBRANCH  24  25
ENDBRANCH  23  24
ENDBRANCH   1  23
TORSDOF 16
ENDMDL
