MODEL 1
REMARK VINA RESULT:     -11.9      0.000      0.000
REMARK SMILES O=C(CC1(CC(=O)NNc2ccc([N+](=O)[O-])cc2)CCCC1)NCCCNC(=O)c1ccc(-c2c3nc(c(-c4c(F)cccc4F)c4ccc([nH]4)c(-c4c(F)cccc4F)c4nc(c(-c5c(F)cccc5F)c5ccc2[nH]5)C=C4)C=C3)cc1
REMARK SMILES IDX 1 1 2 2 23 3 3 5 4 6 19 7 22 8 20 9 21 10 5 11 6 12 7 13
REMARK SMILES IDX 8 14 9 16 10 18 11 19 18 20 12 21 17 22 13 23 14 24 15 25
REMARK SMILES IDX 16 26 24 27 25 28 26 29 27 30 28 31 29 33 30 34 31 35 83 36
REMARK SMILES IDX 32 37 82 38 33 39 34 40 35 41 76 42 36 43 81 44 75 45 77 46
REMARK SMILES IDX 37 47 80 48 74 49 73 50 38 52 64 53 47 54 63 55 48 56 51 57
REMARK SMILES IDX 62 58 78 59 49 60 50 61 61 63 79 64 52 65 39 66 40 67 45 68
REMARK SMILES IDX 41 69 42 70 44 71 46 72 43 73 65 74 66 75 71 76 67 77 68 78
REMARK SMILES IDX 70 79 72 80 69 81 53 82 54 83 59 84 55 85 56 86 58 87 60 88
REMARK SMILES IDX 57 89
REMARK H PARENT 23 4 8 15 9 17 27 32 77 51 51 62
REMARK Flexibility Score: inf
ROOT
ATOM      1  O   UNL A   1      36.765  24.114  25.536  1.00  0.00    -0.275 OA
ATOM      2  C   UNL A   1      35.872  23.276  25.608  1.00  0.00     0.220 C 
ATOM      3  N   UNL A   1      36.004  21.983  25.162  1.00  0.00    -0.356 N 
ATOM      4  H   UNL A   1      35.292  21.330  25.358  1.00  0.00     0.163 HD
ENDROOT
BRANCH   2   5
ATOM      5  C   UNL A   1      34.496  23.614  26.149  1.00  0.00     0.107 C 
BRANCH   5   6
ATOM      6  C   UNL A   1      33.623  24.536  25.255  1.00  0.00    -0.012 C 
ATOM      7  C   UNL A   1      33.926  26.051  25.386  1.00  0.00     0.008 C 
ATOM      8  C   UNL A   1      33.937  24.337  23.759  1.00  0.00     0.008 C 
ATOM      9  C   UNL A   1      33.401  26.689  24.101  1.00  0.00     0.001 C 
ATOM     10  C   UNL A   1      33.393  25.578  23.055  1.00  0.00     0.001 C 
BRANCH   6  11
ATOM     11  C   UNL A   1      32.114  24.310  25.582  1.00  0.00     0.109 C 
BRANCH  11  12
ATOM     12  C   UNL A   1      31.809  23.178  26.554  1.00  0.00     0.238 C 
ATOM     13  O   UNL A   1      31.726  23.378  27.768  1.00  0.00    -0.273 OA
ATOM     14  N   UNL A   1      31.602  21.912  26.070  1.00  0.00    -0.270 N 
ATOM     15  H   UNL A   1      31.363  21.200  26.707  1.00  0.00     0.191 HD
BRANCH  14  16
ATOM     16  N   UNL A   1      31.715  21.586  24.729  1.00  0.00    -0.299 N 
ATOM     17  H   UNL A   1      31.413  22.188  24.011  1.00  0.00     0.188 HD
BRANCH  16  18
ATOM     18  C   UNL A   1      32.291  20.332  24.470  1.00  0.00     0.055 A 
ATOM     19  C   UNL A   1      32.187  19.781  23.187  1.00  0.00     0.034 A 
ATOM     20  C   UNL A   1      32.835  19.554  25.501  1.00  0.00     0.034 A 
ATOM     21  C   UNL A   1      32.645  18.488  22.919  1.00  0.00     0.088 A 
ATOM     22  C   UNL A   1      33.289  18.256  25.252  1.00  0.00     0.088 A 
ATOM     23  C   UNL A   1      33.187  17.725  23.959  1.00  0.00     0.269 A 
BRANCH  23  24
ATOM     24  N   UNL A   1      33.626  16.349  23.697  1.00  0.00     0.062 N 
ATOM     25  O   UNL A   1      33.379  15.492  24.558  1.00  0.00    -0.258 OA
ATOM     26  O   UNL A   1      34.224  16.128  22.635  1.00  0.00    -0.258 OA
ENDBRANCH  23  24
ENDBRANCH  16  18
ENDBRANCH  14  16
ENDBRANCH  11  12
ENDBRANCH   6  11
ENDBRANCH   5   6
ENDBRANCH   2   5
BRANCH   3  27
ATOM     27  C   UNL A   1      37.166  21.559  24.408  1.00  0.00     0.117 C 
BRANCH  27  28
ATOM     28  C   UNL A   1      37.829  20.323  24.994  1.00  0.00     0.042 C 
BRANCH  28  29
ATOM     29  C   UNL A   1      39.041  20.607  25.871  1.00  0.00     0.118 C 
BRANCH  29  30
ATOM     30  N   UNL A   1      40.044  19.550  25.847  1.00  0.00    -0.352 N 
ATOM     31  C   UNL A   1      41.386  19.626  26.150  1.00  0.00     0.251 C 
ATOM     32  H   UNL A   1      39.718  18.661  25.579  1.00  0.00     0.163 HD
ATOM     33  O   UNL A   1      42.119  18.661  25.982  1.00  0.00    -0.269 OA
BRANCH  31  34
ATOM     34  C   UNL A   1      41.942  20.903  26.645  1.00  0.00     0.039 A 
ATOM     35  C   UNL A   1      42.424  21.834  25.723  1.00  0.00     0.014 A 
ATOM     36  C   UNL A   1      41.929  21.200  28.011  1.00  0.00     0.014 A 
ATOM     37  C   UNL A   1      42.804  23.106  26.161  1.00  0.00     0.010 A 
ATOM     38  C   UNL A   1      42.238  22.488  28.435  1.00  0.00     0.010 A 
ATOM     39  C   UNL A   1      42.665  23.458  27.513  1.00  0.00    -0.014 A 
BRANCH  39  40
ATOM     40  C   UNL A   1      42.931  24.837  27.995  1.00  0.00     0.031 A 
ATOM     41  C   UNL A   1      44.311  25.221  28.445  1.00  0.00     0.074 A 
ATOM     42  C   UNL A   1      41.912  25.710  28.128  1.00  0.00     0.049 A 
ATOM     43  N   UNL A   1      44.714  26.314  29.043  1.00  0.00    -0.248 NA
ATOM     44  C   UNL A   1      45.376  24.231  28.220  1.00  0.00     0.031 C 
ATOM     45  C   UNL A   1      40.518  25.449  27.762  1.00  0.00     0.029 A 
ATOM     46  N   UNL A   1      41.889  26.988  28.630  1.00  0.00    -0.354 N 
ATOM     47  C   UNL A   1      46.068  26.132  29.288  1.00  0.00     0.074 A 
ATOM     48  C   UNL A   1      46.411  24.809  28.811  1.00  0.00     0.031 C 
ATOM     49  C   UNL A   1      39.779  26.535  28.044  1.00  0.00     0.029 A 
ATOM     50  C   UNL A   1      40.635  27.550  28.649  1.00  0.00     0.049 A 
ATOM     51  H   UNL A   1      42.694  27.456  28.947  1.00  0.00     0.167 HD
ATOM     52  C   UNL A   1      46.949  26.995  29.846  1.00  0.00     0.037 A 
ATOM     53  C   UNL A   1      40.219  28.741  29.119  1.00  0.00     0.037 A 
ATOM     54  C   UNL A   1      46.615  28.322  30.290  1.00  0.00     0.049 A 
ATOM     55  C   UNL A   1      41.216  29.681  29.738  1.00  0.00     0.074 A 
ATOM     56  C   UNL A   1      47.451  29.292  30.814  1.00  0.00     0.029 A 
ATOM     57  N   UNL A   1      45.340  28.866  30.259  1.00  0.00    -0.354 N 
ATOM     58  N   UNL A   1      42.504  29.516  29.918  1.00  0.00    -0.248 NA
ATOM     59  C   UNL A   1      40.704  30.973  30.218  1.00  0.00     0.031 C 
ATOM     60  C   UNL A   1      46.677  30.411  31.132  1.00  0.00     0.029 A 
ATOM     61  C   UNL A   1      45.365  30.154  30.767  1.00  0.00     0.049 A 
ATOM     62  H   UNL A   1      44.537  28.406  29.924  1.00  0.00     0.167 HD
ATOM     63  C   UNL A   1      42.961  30.690  30.501  1.00  0.00     0.074 A 
ATOM     64  C   UNL A   1      41.813  31.563  30.642  1.00  0.00     0.031 C 
ATOM     65  C   UNL A   1      44.219  31.017  30.881  1.00  0.00     0.037 A 
BRANCH  52  66
ATOM     66  C   UNL A   1      48.367  26.528  30.005  1.00  0.00     0.057 A 
ATOM     67  C   UNL A   1      49.347  26.804  29.043  1.00  0.00     0.134 A 
ATOM     68  C   UNL A   1      48.763  25.826  31.149  1.00  0.00     0.134 A 
ATOM     69  F   UNL A   1      49.028  27.462  27.918  1.00  0.00    -0.206 F 
ATOM     70  C   UNL A   1      50.666  26.376  29.201  1.00  0.00     0.040 A 
ATOM     71  C   UNL A   1      50.085  25.416  31.332  1.00  0.00     0.040 A 
ATOM     72  F   UNL A   1      47.877  25.534  32.112  1.00  0.00    -0.206 F 
ATOM     73  C   UNL A   1      51.039  25.686  30.352  1.00  0.00     0.006 A 
ENDBRANCH  52  66
BRANCH  53  74
ATOM     74  C   UNL A   1      38.789  29.123  29.011  1.00  0.00     0.057 A 
ATOM     75  C   UNL A   1      37.942  29.061  30.124  1.00  0.00     0.134 A 
ATOM     76  C   UNL A   1      38.233  29.550  27.800  1.00  0.00     0.134 A 
ATOM     77  F   UNL A   1      38.413  28.640  31.307  1.00  0.00    -0.206 F 
ATOM     78  C   UNL A   1      36.589  29.395  30.033  1.00  0.00     0.040 A 
ATOM     79  C   UNL A   1      36.887  29.910  27.700  1.00  0.00     0.040 A 
ATOM     80  F   UNL A   1      38.993  29.637  26.699  1.00  0.00    -0.206 F 
ATOM     81  C   UNL A   1      36.061  29.826  28.818  1.00  0.00     0.006 A 
ENDBRANCH  53  74
BRANCH  65  82
ATOM     82  C   UNL A   1      44.438  32.391  31.439  1.00  0.00     0.057 A 
ATOM     83  C   UNL A   1      44.733  33.485  30.618  1.00  0.00     0.134 A 
ATOM     84  C   UNL A   1      44.290  32.630  32.812  1.00  0.00     0.134 A 
ATOM     85  F   UNL A   1      44.900  33.319  29.298  1.00  0.00    -0.206 F 
ATOM     86  C   UNL A   1      44.883  34.770  31.144  1.00  0.00     0.040 A 
ATOM     87  C   UNL A   1      44.415  33.913  33.346  1.00  0.00     0.040 A 
ATOM     88  F   UNL A   1      44.001  31.624  33.652  1.00  0.00    -0.206 F 
ATOM     89  C   UNL A   1      44.715  34.987  32.511  1.00  0.00     0.006 A 
ENDBRANCH  65  82
ENDBRANCH  39  40
ENDBRANCH  31  34
ENDBRANCH  29  30
ENDBRANCH  28  29
ENDBRANCH  27  28
ENDBRANCH   3  27
TORSDOF 16
ENDMDL
MODEL 2
REMARK VINA RESULT:     -11.9      4.198      9.094
REMARK SMILES O=C(CC1(CC(=O)NNc2ccc([N+](=O)[O-])cc2)CCCC1)NCCCNC(=O)c1ccc(-c2c3nc(c(-c4c(F)cccc4F)c4ccc([nH]4)c(-c4c(F)cccc4F)c4nc(c(-c5c(F)cccc5F)c5ccc2[nH]5)C=C4)C=C3)cc1
REMARK SMILES IDX 1 1 2 2 23 3 3 5 4 6 19 7 22 8 20 9 21 10 5 11 6 12 7 13
REMARK SMILES IDX 8 14 9 16 10 18 11 19 18 20 12 21 17 22 13 23 14 24 15 25
REMARK SMILES IDX 16 26 24 27 25 28 26 29 27 30 28 31 29 33 30 34 31 35 83 36
REMARK SMILES IDX 32 37 82 38 33 39 34 40 35 41 76 42 36 43 81 44 75 45 77 46
REMARK SMILES IDX 37 47 80 48 74 49 73 50 38 52 64 53 47 54 63 55 48 56 51 57
REMARK SMILES IDX 62 58 78 59 49 60 50 61 61 63 79 64 52 65 39 66 40 67 45 68
REMARK SMILES IDX 41 69 42 70 44 71 46 72 43 73 65 74 66 75 71 76 67 77 68 78
REMARK SMILES IDX 70 79 72 80 69 81 53 82 54 83 59 84 55 85 56 86 58 87 60 88
REMARK SMILES IDX 57 89
REMARK H PARENT 23 4 8 15 9 17 27 32 77 51 51 62
REMARK Flexibility Score: inf
ROOT
ATOM      1  O   UNL A   1      34.239  28.162  26.169  1.00  0.00    -0.275 OA
ATOM      2  C   UNL A   1      33.104  27.711  26.052  1.00  0.00     0.220 C 
ATOM      3  N   UNL A   1      32.021  28.466  25.670  1.00  0.00    -0.356 N 
ATOM      4  H   UNL A   1      31.164  28.019  25.479  1.00  0.00     0.163 HD
ENDROOT
BRANCH   2   5
ATOM      5  C   UNL A   1      32.775  26.268  26.383  1.00  0.00     0.107 C 
BRANCH   5   6
ATOM      6  C   UNL A   1      33.210  25.214  25.328  1.00  0.00    -0.012 C 
ATOM      7  C   UNL A   1      33.380  25.763  23.888  1.00  0.00     0.008 C 
ATOM      8  C   UNL A   1      34.644  24.713  25.587  1.00  0.00     0.008 C 
ATOM      9  C   UNL A   1      34.298  24.771  23.175  1.00  0.00     0.001 C 
ATOM     10  C   UNL A   1      35.103  24.081  24.273  1.00  0.00     0.001 C 
BRANCH   6  11
ATOM     11  C   UNL A   1      32.171  24.051  25.288  1.00  0.00     0.109 C 
BRANCH  11  12
ATOM     12  C   UNL A   1      30.862  24.304  26.027  1.00  0.00     0.238 C 
ATOM     13  O   UNL A   1      30.730  24.014  27.217  1.00  0.00    -0.273 OA
ATOM     14  N   UNL A   1      29.815  24.885  25.360  1.00  0.00    -0.270 N 
ATOM     15  H   UNL A   1      28.992  25.082  25.861  1.00  0.00     0.191 HD
BRANCH  14  16
ATOM     16  N   UNL A   1      29.859  25.207  24.013  1.00  0.00    -0.299 N 
ATOM     17  H   UNL A   1      30.196  24.583  23.330  1.00  0.00     0.188 HD
BRANCH  16  18
ATOM     18  C   UNL A   1      29.390  26.492  23.695  1.00  0.00     0.055 A 
ATOM     19  C   UNL A   1      28.039  26.798  23.901  1.00  0.00     0.034 A 
ATOM     20  C   UNL A   1      30.206  27.423  23.040  1.00  0.00     0.034 A 
ATOM     21  C   UNL A   1      27.509  28.025  23.491  1.00  0.00     0.088 A 
ATOM     22  C   UNL A   1      29.689  28.650  22.616  1.00  0.00     0.088 A 
ATOM     23  C   UNL A   1      28.337  28.945  22.840  1.00  0.00     0.269 A 
BRANCH  23  24
ATOM     24  N   UNL A   1      27.777  30.215  22.363  1.00  0.00     0.062 N 
ATOM     25  O   UNL A   1      27.206  30.940  23.189  1.00  0.00    -0.258 OA
ATOM     26  O   UNL A   1      27.903  30.483  21.159  1.00  0.00    -0.258 OA
ENDBRANCH  23  24
ENDBRANCH  16  18
ENDBRANCH  14  16
ENDBRANCH  11  12
ENDBRANCH   6  11
ENDBRANCH   5   6
ENDBRANCH   2   5
BRANCH   3  27
ATOM     27  C   UNL A   1      32.112  29.907  25.544  1.00  0.00     0.117 C 
BRANCH  27  28
ATOM     28  C   UNL A   1      31.890  30.629  26.863  1.00  0.00     0.042 C 
BRANCH  28  29
ATOM     29  C   UNL A   1      33.011  31.576  27.267  1.00  0.00     0.118 C 
BRANCH  29  30
ATOM     30  N   UNL A   1      32.564  32.936  27.533  1.00  0.00    -0.352 N 
ATOM     31  C   UNL A   1      33.169  33.910  28.297  1.00  0.00     0.251 C 
ATOM     32  H   UNL A   1      31.715  33.195  27.108  1.00  0.00     0.163 HD
ATOM     33  O   UNL A   1      32.609  34.979  28.504  1.00  0.00    -0.269 OA
BRANCH  31  34
ATOM     34  C   UNL A   1      34.491  33.636  28.900  1.00  0.00     0.039 A 
ATOM     35  C   UNL A   1      34.552  32.928  30.102  1.00  0.00     0.014 A 
ATOM     36  C   UNL A   1      35.663  34.025  28.247  1.00  0.00     0.014 A 
ATOM     37  C   UNL A   1      35.793  32.523  30.601  1.00  0.00     0.010 A 
ATOM     38  C   UNL A   1      36.891  33.560  28.706  1.00  0.00     0.010 A 
ATOM     39  C   UNL A   1      36.967  32.792  29.879  1.00  0.00    -0.014 A 
BRANCH  39  40
ATOM     40  C   UNL A   1      38.288  32.264  30.306  1.00  0.00     0.031 A 
ATOM     41  C   UNL A   1      38.794  30.966  29.746  1.00  0.00     0.074 A 
ATOM     42  C   UNL A   1      38.981  32.896  31.275  1.00  0.00     0.049 A 
ATOM     43  N   UNL A   1      39.836  30.259  30.103  1.00  0.00    -0.248 NA
ATOM     44  C   UNL A   1      38.004  30.367  28.658  1.00  0.00     0.031 C 
ATOM     45  C   UNL A   1      38.583  34.144  31.928  1.00  0.00     0.029 A 
ATOM     46  N   UNL A   1      40.159  32.559  31.895  1.00  0.00    -0.354 N 
ATOM     47  C   UNL A   1      39.812  29.123  29.305  1.00  0.00     0.074 A 
ATOM     48  C   UNL A   1      38.631  29.215  28.472  1.00  0.00     0.031 C 
ATOM     49  C   UNL A   1      39.503  34.471  32.850  1.00  0.00     0.029 A 
ATOM     50  C   UNL A   1      40.531  33.437  32.884  1.00  0.00     0.049 A 
ATOM     51  H   UNL A   1      40.686  31.763  31.654  1.00  0.00     0.167 HD
ATOM     52  C   UNL A   1      40.702  28.104  29.258  1.00  0.00     0.037 A 
ATOM     53  C   UNL A   1      41.574  33.403  33.737  1.00  0.00     0.037 A 
ATOM     54  C   UNL A   1      41.893  28.030  30.063  1.00  0.00     0.049 A 
ATOM     55  C   UNL A   1      42.546  32.258  33.668  1.00  0.00     0.074 A 
ATOM     56  C   UNL A   1      42.886  27.067  30.045  1.00  0.00     0.029 A 
ATOM     57  N   UNL A   1      42.252  28.959  31.028  1.00  0.00    -0.354 N 
ATOM     58  N   UNL A   1      42.539  31.215  32.874  1.00  0.00    -0.248 NA
ATOM     59  C   UNL A   1      43.673  32.285  34.613  1.00  0.00     0.031 C 
ATOM     60  C   UNL A   1      43.829  27.394  31.024  1.00  0.00     0.029 A 
ATOM     61  C   UNL A   1      43.445  28.583  31.622  1.00  0.00     0.049 A 
ATOM     62  H   UNL A   1      41.735  29.765  31.256  1.00  0.00     0.167 HD
ATOM     63  C   UNL A   1      43.672  30.481  33.200  1.00  0.00     0.074 A 
ATOM     64  C   UNL A   1      44.346  31.198  34.262  1.00  0.00     0.031 C 
ATOM     65  C   UNL A   1      44.114  29.318  32.663  1.00  0.00     0.037 A 
BRANCH  52  66
ATOM     66  C   UNL A   1      40.421  26.984  28.300  1.00  0.00     0.057 A 
ATOM     67  C   UNL A   1      39.547  25.938  28.625  1.00  0.00     0.134 A 
ATOM     68  C   UNL A   1      41.003  26.970  27.027  1.00  0.00     0.134 A 
ATOM     69  F   UNL A   1      38.968  25.887  29.834  1.00  0.00    -0.206 F 
ATOM     70  C   UNL A   1      39.282  24.904  27.726  1.00  0.00     0.040 A 
ATOM     71  C   UNL A   1      40.724  25.956  26.109  1.00  0.00     0.040 A 
ATOM     72  F   UNL A   1      41.844  27.944  26.651  1.00  0.00    -0.206 F 
ATOM     73  C   UNL A   1      39.866  24.916  26.461  1.00  0.00     0.006 A 
ENDBRANCH  52  66
BRANCH  53  74
ATOM     74  C   UNL A   1      41.763  34.496  34.722  1.00  0.00     0.057 A 
ATOM     75  C   UNL A   1      42.458  35.661  34.378  1.00  0.00     0.134 A 
ATOM     76  C   UNL A   1      41.263  34.403  36.026  1.00  0.00     0.134 A 
ATOM     77  F   UNL A   1      42.978  35.799  33.150  1.00  0.00    -0.206 F 
ATOM     78  C   UNL A   1      42.664  36.689  35.301  1.00  0.00     0.040 A 
ATOM     79  C   UNL A   1      41.442  35.432  36.952  1.00  0.00     0.040 A 
ATOM     80  F   UNL A   1      40.584  33.314  36.415  1.00  0.00    -0.206 F 
ATOM     81  C   UNL A   1      42.150  36.577  36.591  1.00  0.00     0.006 A 
ENDBRANCH  53  74
BRANCH  65  82
ATOM     82  C   UNL A   1      45.412  28.770  33.175  1.00  0.00     0.057 A 
ATOM     83  C   UNL A   1      45.463  27.853  34.231  1.00  0.00     0.134 A 
ATOM     84  C   UNL A   1      46.621  29.120  32.560  1.00  0.00     0.134 A 
ATOM     85  F   UNL A   1      44.341  27.488  34.869  1.00  0.00    -0.206 F 
ATOM     86  C   UNL A   1      46.673  27.310  34.665  1.00  0.00     0.040 A 
ATOM     87  C   UNL A   1      47.834  28.567  32.970  1.00  0.00     0.040 A 
ATOM     88  F   UNL A   1      46.639  29.989  31.538  1.00  0.00    -0.206 F 
ATOM     89  C   UNL A   1      47.863  27.660  34.027  1.00  0.00     0.006 A 
ENDBRANCH  65  82
ENDBRANCH  39  40
ENDBRANCH  31  34
ENDBRANCH  29  30
ENDBRANCH  28  29
ENDBRANCH  27  28
ENDBRANCH   3  27
TORSDOF 16
ENDMDL
MODEL 3
REMARK VINA RESULT:     -11.8      0.934      6.147
REMARK SMILES O=C(CC1(CC(=O)NNc2ccc([N+](=O)[O-])cc2)CCCC1)NCCCNC(=O)c1ccc(-c2c3nc(c(-c4c(F)cccc4F)c4ccc([nH]4)c(-c4c(F)cccc4F)c4nc(c(-c5c(F)cccc5F)c5ccc2[nH]5)C=C4)C=C3)cc1
REMARK SMILES IDX 1 1 2 2 23 3 3 5 4 6 19 7 22 8 20 9 21 10 5 11 6 12 7 13
REMARK SMILES IDX 8 14 9 16 10 18 11 19 18 20 12 21 17 22 13 23 14 24 15 25
REMARK SMILES IDX 16 26 24 27 25 28 26 29 27 30 28 31 29 33 30 34 31 35 83 36
REMARK SMILES IDX 32 37 82 38 33 39 34 40 35 41 76 42 36 43 81 44 75 45 77 46
REMARK SMILES IDX 37 47 80 48 74 49 73 50 38 52 64 53 47 54 63 55 48 56 51 57
REMARK SMILES IDX 62 58 78 59 49 60 50 61 61 63 79 64 52 65 39 66 40 67 45 68
REMARK SMILES IDX 41 69 42 70 44 71 46 72 43 73 65 74 66 75 71 76 67 77 68 78
REMARK SMILES IDX 70 79 72 80 69 81 53 82 54 83 59 84 55 85 56 86 58 87 60 88
REMARK SMILES IDX 57 89
REMARK H PARENT 23 4 8 15 9 17 27 32 77 51 51 62
REMARK Flexibility Score: inf
ROOT
ATOM      1  O   UNL A   1      35.190  21.192  25.595  1.00  0.00    -0.275 OA
ATOM      2  C   UNL A   1      35.593  21.825  24.625  1.00  0.00     0.220 C 
ATOM      3  N   UNL A   1      36.924  21.999  24.331  1.00  0.00    -0.356 N 
ATOM      4  H   UNL A   1      37.178  22.414  23.474  1.00  0.00     0.163 HD
ENDROOT
BRANCH   2   5
ATOM      5  C   UNL A   1      34.645  22.538  23.680  1.00  0.00     0.107 C 
BRANCH   5   6
ATOM      6  C   UNL A   1      33.875  23.748  24.277  1.00  0.00    -0.012 C 
ATOM      7  C   UNL A   1      34.483  24.331  25.578  1.00  0.00     0.008 C 
ATOM      8  C   UNL A   1      33.974  24.987  23.366  1.00  0.00     0.008 C 
ATOM      9  C   UNL A   1      33.953  25.761  25.676  1.00  0.00     0.001 C 
ATOM     10  C   UNL A   1      33.609  26.178  24.249  1.00  0.00     0.001 C 
BRANCH   6  11
ATOM     11  C   UNL A   1      32.398  23.340  24.568  1.00  0.00     0.109 C 
BRANCH  11  12
ATOM     12  C   UNL A   1      32.178  22.484  25.809  1.00  0.00     0.238 C 
ATOM     13  O   UNL A   1      32.068  22.990  26.928  1.00  0.00    -0.273 OA
ATOM     14  N   UNL A   1      32.082  21.122  25.679  1.00  0.00    -0.270 N 
ATOM     15  H   UNL A   1      31.897  20.587  26.484  1.00  0.00     0.191 HD
BRANCH  14  16
ATOM     16  N   UNL A   1      32.234  20.464  24.470  1.00  0.00    -0.299 N 
ATOM     17  H   UNL A   1      32.040  20.893  23.605  1.00  0.00     0.188 HD
BRANCH  16  18
ATOM     18  C   UNL A   1      32.685  19.138  24.570  1.00  0.00     0.055 A 
ATOM     19  C   UNL A   1      32.273  18.354  25.655  1.00  0.00     0.034 A 
ATOM     20  C   UNL A   1      33.652  18.630  23.693  1.00  0.00     0.034 A 
ATOM     21  C   UNL A   1      32.789  17.071  25.853  1.00  0.00     0.088 A 
ATOM     22  C   UNL A   1      34.184  17.351  23.882  1.00  0.00     0.088 A 
ATOM     23  C   UNL A   1      33.753  16.577  24.967  1.00  0.00     0.269 A 
BRANCH  23  24
ATOM     24  N   UNL A   1      34.336  15.249  25.195  1.00  0.00     0.062 N 
ATOM     25  O   UNL A   1      35.567  15.140  25.121  1.00  0.00    -0.258 OA
ATOM     26  O   UNL A   1      33.559  14.314  25.439  1.00  0.00    -0.258 OA
ENDBRANCH  23  24
ENDBRANCH  16  18
ENDBRANCH  14  16
ENDBRANCH  11  12
ENDBRANCH   6  11
ENDBRANCH   5   6
ENDBRANCH   2   5
BRANCH   3  27
ATOM     27  C   UNL A   1      37.962  21.586  25.253  1.00  0.00     0.117 C 
BRANCH  27  28
ATOM     28  C   UNL A   1      38.524  20.211  24.930  1.00  0.00     0.042 C 
BRANCH  28  29
ATOM     29  C   UNL A   1      39.208  19.513  26.098  1.00  0.00     0.118 C 
BRANCH  29  30
ATOM     30  N   UNL A   1      40.523  18.978  25.772  1.00  0.00    -0.352 N 
ATOM     31  C   UNL A   1      41.756  19.582  25.893  1.00  0.00     0.251 C 
ATOM     32  H   UNL A   1      40.533  18.059  25.419  1.00  0.00     0.163 HD
ATOM     33  O   UNL A   1      42.766  19.029  25.478  1.00  0.00    -0.269 OA
BRANCH  31  34
ATOM     34  C   UNL A   1      41.842  20.929  26.496  1.00  0.00     0.039 A 
ATOM     35  C   UNL A   1      41.845  21.048  27.888  1.00  0.00     0.014 A 
ATOM     36  C   UNL A   1      41.982  22.060  25.688  1.00  0.00     0.014 A 
ATOM     37  C   UNL A   1      42.086  22.294  28.473  1.00  0.00     0.010 A 
ATOM     38  C   UNL A   1      42.293  23.285  26.270  1.00  0.00     0.010 A 
ATOM     39  C   UNL A   1      42.363  23.410  27.667  1.00  0.00    -0.014 A 
BRANCH  39  40
ATOM     40  C   UNL A   1      42.755  24.719  28.251  1.00  0.00     0.031 A 
ATOM     41  C   UNL A   1      41.716  25.780  28.478  1.00  0.00     0.074 A 
ATOM     42  C   UNL A   1      44.056  24.991  28.475  1.00  0.00     0.049 A 
ATOM     43  N   UNL A   1      41.873  27.032  28.825  1.00  0.00    -0.248 NA
ATOM     44  C   UNL A   1      40.315  25.387  28.258  1.00  0.00     0.031 C 
ATOM     45  C   UNL A   1      45.167  24.062  28.260  1.00  0.00     0.029 A 
ATOM     46  N   UNL A   1      44.667  26.141  28.912  1.00  0.00    -0.354 N 
ATOM     47  C   UNL A   1      40.598  27.581  28.838  1.00  0.00     0.074 A 
ATOM     48  C   UNL A   1      39.683  26.538  28.427  1.00  0.00     0.031 C 
ATOM     49  C   UNL A   1      46.320  24.675  28.574  1.00  0.00     0.029 A 
ATOM     50  C   UNL A   1      46.036  26.050  28.969  1.00  0.00     0.049 A 
ATOM     51  H   UNL A   1      44.169  26.953  29.161  1.00  0.00     0.167 HD
ATOM     52  C   UNL A   1      40.222  28.837  29.177  1.00  0.00     0.037 A 
ATOM     53  C   UNL A   1      46.961  26.977  29.285  1.00  0.00     0.037 A 
ATOM     54  C   UNL A   1      41.129  29.864  29.618  1.00  0.00     0.049 A 
ATOM     55  C   UNL A   1      46.519  28.365  29.655  1.00  0.00     0.074 A 
ATOM     56  C   UNL A   1      40.837  31.149  30.040  1.00  0.00     0.029 A 
ATOM     57  N   UNL A   1      42.506  29.720  29.695  1.00  0.00    -0.354 N 
ATOM     58  N   UNL A   1      45.306  28.858  29.711  1.00  0.00    -0.248 NA
ATOM     59  C   UNL A   1      47.574  29.328  30.006  1.00  0.00     0.031 C 
ATOM     60  C   UNL A   1      42.040  31.795  30.340  1.00  0.00     0.029 A 
ATOM     61  C   UNL A   1      43.078  30.898  30.145  1.00  0.00     0.049 A 
ATOM     62  H   UNL A   1      43.003  28.902  29.465  1.00  0.00     0.167 HD
ATOM     63  C   UNL A   1      45.447  30.173  30.133  1.00  0.00     0.074 A 
ATOM     64  C   UNL A   1      46.865  30.403  30.322  1.00  0.00     0.031 C 
ATOM     65  C   UNL A   1      44.488  31.105  30.348  1.00  0.00     0.037 A 
BRANCH  52  66
ATOM     66  C   UNL A   1      38.762  29.169  29.087  1.00  0.00     0.057 A 
ATOM     67  C   UNL A   1      38.168  29.560  27.880  1.00  0.00     0.134 A 
ATOM     68  C   UNL A   1      37.935  29.064  30.211  1.00  0.00     0.134 A 
ATOM     69  F   UNL A   1      38.909  29.692  26.769  1.00  0.00    -0.206 F 
ATOM     70  C   UNL A   1      36.807  29.859  27.800  1.00  0.00     0.040 A 
ATOM     71  C   UNL A   1      36.567  29.334  30.138  1.00  0.00     0.040 A 
ATOM     72  F   UNL A   1      38.438  28.690  31.396  1.00  0.00    -0.206 F 
ATOM     73  C   UNL A   1      36.002  29.739  28.930  1.00  0.00     0.006 A 
ENDBRANCH  52  66
BRANCH  53  74
ATOM     74  C   UNL A   1      48.402  26.619  29.281  1.00  0.00     0.057 A 
ATOM     75  C   UNL A   1      48.997  26.020  30.397  1.00  0.00     0.134 A 
ATOM     76  C   UNL A   1      49.217  26.872  28.172  1.00  0.00     0.134 A 
ATOM     77  F   UNL A   1      48.271  25.773  31.497  1.00  0.00    -0.206 F 
ATOM     78  C   UNL A   1      50.355  25.698  30.417  1.00  0.00     0.040 A 
ATOM     79  C   UNL A   1      50.572  26.534  28.170  1.00  0.00     0.040 A 
ATOM     80  F   UNL A   1      48.705  27.438  27.070  1.00  0.00    -0.206 F 
ATOM     81  C   UNL A   1      51.145  25.952  29.298  1.00  0.00     0.006 A 
ENDBRANCH  53  74
BRANCH  65  82
ATOM     82  C   UNL A   1      44.927  32.444  30.861  1.00  0.00     0.057 A 
ATOM     83  C   UNL A   1      45.233  33.502  29.998  1.00  0.00     0.134 A 
ATOM     84  C   UNL A   1      44.982  32.691  32.239  1.00  0.00     0.134 A 
ATOM     85  F   UNL A   1      45.211  33.324  28.669  1.00  0.00    -0.206 F 
ATOM     86  C   UNL A   1      45.590  34.760  30.488  1.00  0.00     0.040 A 
ATOM     87  C   UNL A   1      45.315  33.949  32.741  1.00  0.00     0.040 A 
ATOM     88  F   UNL A   1      44.693  31.719  33.118  1.00  0.00    -0.206 F 
ATOM     89  C   UNL A   1      45.622  34.988  31.864  1.00  0.00     0.006 A 
ENDBRANCH  65  82
ENDBRANCH  39  40
ENDBRANCH  31  34
ENDBRANCH  29  30
ENDBRANCH  28  29
ENDBRANCH  27  28
ENDBRANCH   3  27
TORSDOF 16
ENDMDL
