MODEL 1
REMARK VINA RESULT:     -11.3      0.000      0.000
REMARK SMILES C[C@@H](CNc1cccc(F)c1C(=O)NCCCNC(=O)c1ccc(-c2c3nc(c(-c4c(F)cccc4F)c4ccc([nH]4)c(-c4c(F)cccc4F)c4nc(c(-c5c(F)cccc5F)c5ccc2[nH]5)C=C4)C=C3)cc1)[NH+]1CCCCC1
REMARK SMILES IDX 15 1 14 2 12 3 13 4 11 6 5 7 6 8 7 9 9 10 8 11 10 12 4 13
REMARK SMILES IDX 3 15 2 16 1 17 75 18 76 19 80 20 77 22 79 23 78 24 16 25
REMARK SMILES IDX 17 26 18 27 19 28 20 30 21 31 22 32 74 33 23 34 73 35 24 36
REMARK SMILES IDX 25 37 26 38 67 39 27 40 72 41 66 42 68 43 28 44 71 45 65 46
REMARK SMILES IDX 64 47 29 49 55 50 38 51 54 52 39 53 42 54 53 55 69 56 40 57
REMARK SMILES IDX 41 58 52 60 70 61 43 62 30 63 31 64 36 65 32 66 33 67 35 68
REMARK SMILES IDX 37 69 34 70 56 71 57 72 62 73 58 74 59 75 61 76 63 77 60 78
REMARK SMILES IDX 44 79 45 80 50 81 46 82 47 83 49 84 51 85 48 86
REMARK H PARENT 14 5 4 14 75 21 18 29 68 48 42 59
REMARK Flexibility Score: inf
ROOT
ATOM      1  C   UNL A   1      36.314  20.981  24.842  1.00  0.00     0.118 C 
ENDROOT
BRANCH   1   2
ATOM      2  N   UNL A   1      35.628  21.041  26.121  1.00  0.00    -0.352 N 
ATOM      3  C   UNL A   1      34.799  21.969  26.703  1.00  0.00     0.256 C 
ATOM      4  O   UNL A   1      34.444  21.733  27.861  1.00  0.00    -0.269 OA
ATOM      5  H   UNL A   1      35.793  20.253  26.690  1.00  0.00     0.163 HD
BRANCH   3   6
ATOM      6  C   UNL A   1      34.223  23.150  25.997  1.00  0.00     0.098 A 
ATOM      7  C   UNL A   1      32.814  23.195  25.778  1.00  0.00     0.050 A 
ATOM      8  C   UNL A   1      32.277  24.307  25.107  1.00  0.00     0.027 A 
ATOM      9  C   UNL A   1      33.089  25.333  24.625  1.00  0.00     0.005 A 
ATOM     10  C   UNL A   1      35.009  24.213  25.549  1.00  0.00     0.138 A 
ATOM     11  C   UNL A   1      34.458  25.280  24.840  1.00  0.00     0.040 A 
ATOM     12  F   UNL A   1      36.323  24.271  25.794  1.00  0.00    -0.206 F 
BRANCH   7  13
ATOM     13  N   UNL A   1      31.990  22.119  26.109  1.00  0.00    -0.378 N 
ATOM     14  H   UNL A   1      31.714  22.022  27.049  1.00  0.00     0.160 HD
BRANCH  13  15
ATOM     15  C   UNL A   1      31.509  21.125  25.149  1.00  0.00     0.177 C 
BRANCH  15  16
ATOM     16  C   UNL A   1      32.587  20.637  24.118  1.00  0.00     0.200 C 
ATOM     17  C   UNL A   1      32.114  20.850  22.674  1.00  0.00     0.077 C 
BRANCH  16  18
ATOM     18  N   UNL A   1      33.160  19.263  24.245  1.00  0.00    -0.331 N 
ATOM     19  C   UNL A   1      32.740  18.604  25.489  1.00  0.00     0.262 C 
ATOM     20  C   UNL A   1      32.886  18.413  23.083  1.00  0.00     0.262 C 
ATOM     21  H   UNL A   1      34.172  19.392  24.279  1.00  0.00     0.348 HD
ATOM     22  C   UNL A   1      33.374  17.215  25.640  1.00  0.00     0.062 C 
ATOM     23  C   UNL A   1      33.503  17.020  23.169  1.00  0.00     0.062 C 
ATOM     24  C   UNL A   1      33.059  16.326  24.446  1.00  0.00     0.012 C 
ENDBRANCH  16  18
ENDBRANCH  15  16
ENDBRANCH  13  15
ENDBRANCH   7  13
ENDBRANCH   3   6
ENDBRANCH   1   2
BRANCH   1  25
ATOM     25  C   UNL A   1      37.456  19.966  24.899  1.00  0.00     0.042 C 
BRANCH  25  26
ATOM     26  C   UNL A   1      38.668  20.467  25.680  1.00  0.00     0.118 C 
BRANCH  26  27
ATOM     27  N   UNL A   1      39.732  19.474  25.740  1.00  0.00    -0.352 N 
ATOM     28  C   UNL A   1      41.064  19.634  26.042  1.00  0.00     0.251 C 
ATOM     29  H   UNL A   1      39.457  18.552  25.532  1.00  0.00     0.163 HD
ATOM     30  O   UNL A   1      41.851  18.717  25.832  1.00  0.00    -0.269 OA
BRANCH  28  31
ATOM     31  C   UNL A   1      41.558  20.913  26.603  1.00  0.00     0.039 A 
ATOM     32  C   UNL A   1      42.043  21.889  25.730  1.00  0.00     0.014 A 
ATOM     33  C   UNL A   1      41.568  21.142  27.981  1.00  0.00     0.014 A 
ATOM     34  C   UNL A   1      42.477  23.119  26.233  1.00  0.00     0.010 A 
ATOM     35  C   UNL A   1      41.929  22.394  28.475  1.00  0.00     0.010 A 
ATOM     36  C   UNL A   1      42.387  23.396  27.607  1.00  0.00    -0.014 A 
BRANCH  36  37
ATOM     37  C   UNL A   1      42.754  24.730  28.150  1.00  0.00     0.031 A 
ATOM     38  C   UNL A   1      41.703  25.785  28.355  1.00  0.00     0.074 A 
ATOM     39  C   UNL A   1      44.048  25.009  28.405  1.00  0.00     0.049 A 
ATOM     40  N   UNL A   1      41.844  27.023  28.757  1.00  0.00    -0.248 NA
ATOM     41  C   UNL A   1      40.314  25.411  28.045  1.00  0.00     0.031 C 
ATOM     42  C   UNL A   1      45.165  24.083  28.210  1.00  0.00     0.029 A 
ATOM     43  N   UNL A   1      44.644  26.151  28.879  1.00  0.00    -0.354 N 
ATOM     44  C   UNL A   1      40.570  27.574  28.742  1.00  0.00     0.074 A 
ATOM     45  C   UNL A   1      39.674  26.556  28.238  1.00  0.00     0.031 C 
ATOM     46  C   UNL A   1      46.304  24.682  28.590  1.00  0.00     0.029 A 
ATOM     47  C   UNL A   1      46.007  26.048  29.011  1.00  0.00     0.049 A 
ATOM     48  H   UNL A   1      44.141  26.968  29.101  1.00  0.00     0.167 HD
ATOM     49  C   UNL A   1      40.178  28.808  29.136  1.00  0.00     0.037 A 
ATOM     50  C   UNL A   1      46.920  26.951  29.419  1.00  0.00     0.037 A 
ATOM     51  C   UNL A   1      41.069  29.811  29.658  1.00  0.00     0.049 A 
ATOM     52  C   UNL A   1      46.462  28.323  29.830  1.00  0.00     0.074 A 
ATOM     53  C   UNL A   1      40.758  31.073  30.132  1.00  0.00     0.029 A 
ATOM     54  N   UNL A   1      42.443  29.668  29.772  1.00  0.00    -0.354 N 
ATOM     55  N   UNL A   1      45.246  28.811  29.861  1.00  0.00    -0.248 NA
ATOM     56  C   UNL A   1      47.500  29.270  30.263  1.00  0.00     0.031 C 
ATOM     57  C   UNL A   1      41.948  31.713  30.484  1.00  0.00     0.029 A 
ATOM     58  C   UNL A   1      42.997  30.828  30.286  1.00  0.00     0.049 A 
ATOM     59  H   UNL A   1      42.951  28.861  29.525  1.00  0.00     0.167 HD
ATOM     60  C   UNL A   1      45.368  30.109  30.339  1.00  0.00     0.074 A 
ATOM     61  C   UNL A   1      46.777  30.329  30.597  1.00  0.00     0.031 C 
ATOM     62  C   UNL A   1      44.399  31.034  30.545  1.00  0.00     0.037 A 
BRANCH  49  63
ATOM     63  C   UNL A   1      38.718  29.148  29.035  1.00  0.00     0.057 A 
ATOM     64  C   UNL A   1      38.171  29.611  27.832  1.00  0.00     0.134 A 
ATOM     65  C   UNL A   1      37.871  29.091  30.150  1.00  0.00     0.134 A 
ATOM     66  F   UNL A   1      38.927  29.701  26.728  1.00  0.00    -0.206 F 
ATOM     67  C   UNL A   1      36.838  30.020  27.746  1.00  0.00     0.040 A 
ATOM     68  C   UNL A   1      36.529  29.468  30.068  1.00  0.00     0.040 A 
ATOM     69  F   UNL A   1      38.329  28.647  31.331  1.00  0.00    -0.206 F 
ATOM     70  C   UNL A   1      36.013  29.945  28.865  1.00  0.00     0.006 A 
ENDBRANCH  49  63
BRANCH  50  71
ATOM     71  C   UNL A   1      48.353  26.569  29.487  1.00  0.00     0.057 A 
ATOM     72  C   UNL A   1      49.232  26.819  28.425  1.00  0.00     0.134 A 
ATOM     73  C   UNL A   1      48.871  25.912  30.609  1.00  0.00     0.134 A 
ATOM     74  F   UNL A   1      48.797  27.439  27.318  1.00  0.00    -0.206 F 
ATOM     75  C   UNL A   1      50.567  26.414  28.469  1.00  0.00     0.040 A 
ATOM     76  C   UNL A   1      50.210  25.523  30.677  1.00  0.00     0.040 A 
ATOM     77  F   UNL A   1      48.085  25.659  31.665  1.00  0.00    -0.206 F 
ATOM     78  C   UNL A   1      51.060  25.766  29.599  1.00  0.00     0.006 A 
ENDBRANCH  50  71
BRANCH  62  79
ATOM     79  C   UNL A   1      44.812  32.367  31.098  1.00  0.00     0.057 A 
ATOM     80  C   UNL A   1      45.205  33.403  30.241  1.00  0.00     0.134 A 
ATOM     81  C   UNL A   1      44.908  32.597  32.475  1.00  0.00     0.134 A 
ATOM     82  F   UNL A   1      45.149  33.244  28.909  1.00  0.00    -0.206 F 
ATOM     83  C   UNL A   1      45.698  34.612  30.732  1.00  0.00     0.040 A 
ATOM     84  C   UNL A   1      45.372  33.813  32.981  1.00  0.00     0.040 A 
ATOM     85  F   UNL A   1      44.537  31.649  33.350  1.00  0.00    -0.206 F 
ATOM     86  C   UNL A   1      45.780  34.820  32.108  1.00  0.00     0.006 A 
ENDBRANCH  62  79
ENDBRANCH  36  37
ENDBRANCH  28  31
ENDBRANCH  26  27
ENDBRANCH  25  26
ENDBRANCH   1  25
TORSDOF 14
ENDMDL
MODEL 2
REMARK VINA RESULT:     -11.3      1.380      7.039
REMARK SMILES C[C@@H](CNc1cccc(F)c1C(=O)NCCCNC(=O)c1ccc(-c2c3nc(c(-c4c(F)cccc4F)c4ccc([nH]4)c(-c4c(F)cccc4F)c4nc(c(-c5c(F)cccc5F)c5ccc2[nH]5)C=C4)C=C3)cc1)[NH+]1CCCCC1
REMARK SMILES IDX 15 1 14 2 12 3 13 4 11 6 5 7 6 8 7 9 9 10 8 11 10 12 4 13
REMARK SMILES IDX 3 15 2 16 1 17 75 18 76 19 80 20 77 22 79 23 78 24 16 25
REMARK SMILES IDX 17 26 18 27 19 28 20 30 21 31 22 32 74 33 23 34 73 35 24 36
REMARK SMILES IDX 25 37 26 38 67 39 27 40 72 41 66 42 68 43 28 44 71 45 65 46
REMARK SMILES IDX 64 47 29 49 55 50 38 51 54 52 39 53 42 54 53 55 69 56 40 57
REMARK SMILES IDX 41 58 52 60 70 61 43 62 30 63 31 64 36 65 32 66 33 67 35 68
REMARK SMILES IDX 37 69 34 70 56 71 57 72 62 73 58 74 59 75 61 76 63 77 60 78
REMARK SMILES IDX 44 79 45 80 50 81 46 82 47 83 49 84 51 85 48 86
REMARK H PARENT 14 5 4 14 75 21 18 29 68 48 42 59
REMARK Flexibility Score: inf
ROOT
ATOM      1  C   UNL A   1      37.221  21.018  24.604  1.00  0.00     0.118 C 
ENDROOT
BRANCH   1   2
ATOM      2  N   UNL A   1      36.356  21.272  25.744  1.00  0.00    -0.352 N 
ATOM      3  C   UNL A   1      35.005  21.481  25.874  1.00  0.00     0.256 C 
ATOM      4  O   UNL A   1      34.601  21.748  27.009  1.00  0.00    -0.269 OA
ATOM      5  H   UNL A   1      36.840  21.301  26.602  1.00  0.00     0.163 HD
BRANCH   3   6
ATOM      6  C   UNL A   1      34.010  21.291  24.779  1.00  0.00     0.098 A 
ATOM      7  C   UNL A   1      33.619  22.424  24.005  1.00  0.00     0.050 A 
ATOM      8  C   UNL A   1      32.676  22.239  22.978  1.00  0.00     0.027 A 
ATOM      9  C   UNL A   1      32.098  20.995  22.732  1.00  0.00     0.005 A 
ATOM     10  C   UNL A   1      33.453  20.046  24.480  1.00  0.00     0.138 A 
ATOM     11  C   UNL A   1      32.481  19.900  23.491  1.00  0.00     0.040 A 
ATOM     12  F   UNL A   1      33.836  18.931  25.113  1.00  0.00    -0.206 F 
BRANCH   7  13
ATOM     13  N   UNL A   1      34.060  23.709  24.320  1.00  0.00    -0.378 N 
ATOM     14  H   UNL A   1      34.944  23.802  24.745  1.00  0.00     0.160 HD
BRANCH  13  15
ATOM     15  C   UNL A   1      33.294  24.928  24.061  1.00  0.00     0.177 C 
BRANCH  15  16
ATOM     16  C   UNL A   1      32.216  25.268  25.150  1.00  0.00     0.200 C 
ATOM     17  C   UNL A   1      30.841  25.513  24.514  1.00  0.00     0.077 C 
BRANCH  16  18
ATOM     18  N   UNL A   1      32.489  26.345  26.148  1.00  0.00    -0.331 N 
ATOM     19  C   UNL A   1      33.534  27.270  25.688  1.00  0.00     0.262 C 
ATOM     20  C   UNL A   1      31.287  27.074  26.557  1.00  0.00     0.262 C 
ATOM     21  H   UNL A   1      32.835  25.864  26.979  1.00  0.00     0.348 HD
ATOM     22  C   UNL A   1      33.849  28.342  26.739  1.00  0.00     0.062 C 
ATOM     23  C   UNL A   1      31.534  28.146  27.613  1.00  0.00     0.062 C 
ATOM     24  C   UNL A   1      32.601  29.118  27.136  1.00  0.00     0.012 C 
ENDBRANCH  16  18
ENDBRANCH  15  16
ENDBRANCH  13  15
ENDBRANCH   7  13
ENDBRANCH   3   6
ENDBRANCH   1   2
BRANCH   1  25
ATOM     25  C   UNL A   1      38.123  19.815  24.879  1.00  0.00     0.042 C 
BRANCH  25  26
ATOM     26  C   UNL A   1      39.127  20.060  26.002  1.00  0.00     0.118 C 
BRANCH  26  27
ATOM     27  N   UNL A   1      40.296  19.199  25.893  1.00  0.00    -0.352 N 
ATOM     28  C   UNL A   1      41.630  19.510  26.014  1.00  0.00     0.251 C 
ATOM     29  H   UNL A   1      40.102  18.252  25.702  1.00  0.00     0.163 HD
ATOM     30  O   UNL A   1      42.480  18.693  25.676  1.00  0.00    -0.269 OA
BRANCH  28  31
ATOM     31  C   UNL A   1      42.046  20.833  26.533  1.00  0.00     0.039 A 
ATOM     32  C   UNL A   1      42.420  21.826  25.625  1.00  0.00     0.014 A 
ATOM     33  C   UNL A   1      42.094  21.089  27.906  1.00  0.00     0.014 A 
ATOM     34  C   UNL A   1      42.779  23.095  26.089  1.00  0.00     0.010 A 
ATOM     35  C   UNL A   1      42.378  22.375  28.364  1.00  0.00     0.010 A 
ATOM     36  C   UNL A   1      42.723  23.391  27.461  1.00  0.00    -0.014 A 
BRANCH  36  37
ATOM     37  C   UNL A   1      43.009  24.759  27.966  1.00  0.00     0.031 A 
ATOM     38  C   UNL A   1      44.415  25.168  28.306  1.00  0.00     0.074 A 
ATOM     39  C   UNL A   1      41.989  25.616  28.173  1.00  0.00     0.049 A 
ATOM     40  N   UNL A   1      44.847  26.294  28.816  1.00  0.00    -0.248 NA
ATOM     41  C   UNL A   1      45.474  24.176  28.063  1.00  0.00     0.031 C 
ATOM     42  C   UNL A   1      40.577  25.325  27.919  1.00  0.00     0.029 A 
ATOM     43  N   UNL A   1      41.981  26.905  28.647  1.00  0.00    -0.354 N 
ATOM     44  C   UNL A   1      46.219  26.143  28.962  1.00  0.00     0.074 A 
ATOM     45  C   UNL A   1      46.544  24.798  28.539  1.00  0.00     0.031 C 
ATOM     46  C   UNL A   1      39.845  26.411  28.210  1.00  0.00     0.029 A 
ATOM     47  C   UNL A   1      40.726  27.460  28.714  1.00  0.00     0.049 A 
ATOM     48  H   UNL A   1      42.798  27.385  28.914  1.00  0.00     0.167 HD
ATOM     49  C   UNL A   1      47.129  27.051  29.385  1.00  0.00     0.037 A 
ATOM     50  C   UNL A   1      40.325  28.674  29.138  1.00  0.00     0.037 A 
ATOM     51  C   UNL A   1      46.804  28.396  29.785  1.00  0.00     0.049 A 
ATOM     52  C   UNL A   1      41.353  29.657  29.626  1.00  0.00     0.074 A 
ATOM     53  C   UNL A   1      47.664  29.405  30.179  1.00  0.00     0.029 A 
ATOM     54  N   UNL A   1      45.521  28.917  29.841  1.00  0.00    -0.354 N 
ATOM     55  N   UNL A   1      42.654  29.518  29.706  1.00  0.00    -0.248 NA
ATOM     56  C   UNL A   1      40.861  30.965  30.081  1.00  0.00     0.031 C 
ATOM     57  C   UNL A   1      46.898  30.520  30.526  1.00  0.00     0.029 A 
ATOM     58  C   UNL A   1      45.564  30.226  30.289  1.00  0.00     0.049 A 
ATOM     59  H   UNL A   1      44.701  28.429  29.600  1.00  0.00     0.167 HD
ATOM     60  C   UNL A   1      43.138  30.724  30.195  1.00  0.00     0.074 A 
ATOM     61  C   UNL A   1      41.991  31.589  30.382  1.00  0.00     0.031 C 
ATOM     62  C   UNL A   1      44.417  31.081  30.465  1.00  0.00     0.037 A 
BRANCH  49  63
ATOM     63  C   UNL A   1      48.572  26.633  29.429  1.00  0.00     0.057 A 
ATOM     64  C   UNL A   1      49.123  26.077  30.591  1.00  0.00     0.134 A 
ATOM     65  C   UNL A   1      49.434  26.853  28.347  1.00  0.00     0.134 A 
ATOM     66  F   UNL A   1      48.357  25.848  31.668  1.00  0.00    -0.206 F 
ATOM     67  C   UNL A   1      50.482  25.770  30.679  1.00  0.00     0.040 A 
ATOM     68  C   UNL A   1      50.788  26.522  28.412  1.00  0.00     0.040 A 
ATOM     69  F   UNL A   1      48.969  27.373  27.201  1.00  0.00    -0.206 F 
ATOM     70  C   UNL A   1      51.318  25.989  29.587  1.00  0.00     0.006 A 
ENDBRANCH  49  63
BRANCH  50  71
ATOM     71  C   UNL A   1      38.885  29.032  29.088  1.00  0.00     0.057 A 
ATOM     72  C   UNL A   1      38.292  29.531  27.921  1.00  0.00     0.134 A 
ATOM     73  C   UNL A   1      38.074  28.913  30.222  1.00  0.00     0.134 A 
ATOM     74  F   UNL A   1      39.016  29.675  26.802  1.00  0.00    -0.206 F 
ATOM     75  C   UNL A   1      36.951  29.916  27.889  1.00  0.00     0.040 A 
ATOM     76  C   UNL A   1      36.724  29.271  30.198  1.00  0.00     0.040 A 
ATOM     77  F   UNL A   1      38.578  28.426  31.365  1.00  0.00    -0.206 F 
ATOM     78  C   UNL A   1      36.162  29.783  29.029  1.00  0.00     0.006 A 
ENDBRANCH  50  71
BRANCH  62  79
ATOM     79  C   UNL A   1      44.664  32.473  30.969  1.00  0.00     0.057 A 
ATOM     80  C   UNL A   1      44.905  33.523  30.074  1.00  0.00     0.134 A 
ATOM     81  C   UNL A   1      44.753  32.757  32.337  1.00  0.00     0.134 A 
ATOM     82  F   UNL A   1      44.847  33.315  28.749  1.00  0.00    -0.206 F 
ATOM     83  C   UNL A   1      45.246  34.799  30.519  1.00  0.00     0.040 A 
ATOM     84  C   UNL A   1      45.065  34.038  32.796  1.00  0.00     0.040 A 
ATOM     85  F   UNL A   1      44.523  31.798  33.247  1.00  0.00    -0.206 F 
ATOM     86  C   UNL A   1      45.325  35.061  31.885  1.00  0.00     0.006 A 
ENDBRANCH  62  79
ENDBRANCH  36  37
ENDBRANCH  28  31
ENDBRANCH  26  27
ENDBRANCH  25  26
ENDBRANCH   1  25
TORSDOF 14
ENDMDL
MODEL 3
REMARK VINA RESULT:     -11.3      1.227      3.150
REMARK SMILES C[C@@H](CNc1cccc(F)c1C(=O)NCCCNC(=O)c1ccc(-c2c3nc(c(-c4c(F)cccc4F)c4ccc([nH]4)c(-c4c(F)cccc4F)c4nc(c(-c5c(F)cccc5F)c5ccc2[nH]5)C=C4)C=C3)cc1)[NH+]1CCCCC1
REMARK SMILES IDX 15 1 14 2 12 3 13 4 11 6 5 7 6 8 7 9 9 10 8 11 10 12 4 13
REMARK SMILES IDX 3 15 2 16 1 17 75 18 76 19 80 20 77 22 79 23 78 24 16 25
REMARK SMILES IDX 17 26 18 27 19 28 20 30 21 31 22 32 74 33 23 34 73 35 24 36
REMARK SMILES IDX 25 37 26 38 67 39 27 40 72 41 66 42 68 43 28 44 71 45 65 46
REMARK SMILES IDX 64 47 29 49 55 50 38 51 54 52 39 53 42 54 53 55 69 56 40 57
REMARK SMILES IDX 41 58 52 60 70 61 43 62 30 63 31 64 36 65 32 66 33 67 35 68
REMARK SMILES IDX 37 69 34 70 56 71 57 72 62 73 58 74 59 75 61 76 63 77 60 78
REMARK SMILES IDX 44 79 45 80 50 81 46 82 47 83 49 84 51 85 48 86
REMARK H PARENT 14 5 4 14 75 21 18 29 68 48 42 59
REMARK Flexibility Score: inf
ROOT
ATOM      1  C   UNL A   1      36.568  20.896  24.673  1.00  0.00     0.118 C 
ENDROOT
BRANCH   1   2
ATOM      2  N   UNL A   1      35.492  20.859  25.650  1.00  0.00    -0.352 N 
ATOM      3  C   UNL A   1      34.201  20.389  25.612  1.00  0.00     0.256 C 
ATOM      4  O   UNL A   1      33.519  20.590  26.620  1.00  0.00    -0.269 OA
ATOM      5  H   UNL A   1      35.739  21.252  26.519  1.00  0.00     0.163 HD
BRANCH   3   6
ATOM      6  C   UNL A   1      33.631  19.570  24.504  1.00  0.00     0.098 A 
ATOM      7  C   UNL A   1      32.653  20.161  23.649  1.00  0.00     0.050 A 
ATOM      8  C   UNL A   1      32.114  19.382  22.610  1.00  0.00     0.027 A 
ATOM      9  C   UNL A   1      32.485  18.050  22.427  1.00  0.00     0.005 A 
ATOM     10  C   UNL A   1      34.022  18.250  24.269  1.00  0.00     0.138 A 
ATOM     11  C   UNL A   1      33.434  17.483  23.265  1.00  0.00     0.040 A 
ATOM     12  F   UNL A   1      34.991  17.664  24.982  1.00  0.00    -0.206 F 
BRANCH   7  13
ATOM     13  N   UNL A   1      32.147  21.437  23.894  1.00  0.00    -0.378 N 
ATOM     14  H   UNL A   1      31.949  21.684  24.827  1.00  0.00     0.160 HD
BRANCH  13  15
ATOM     15  C   UNL A   1      31.888  22.433  22.854  1.00  0.00     0.177 C 
BRANCH  15  16
ATOM     16  C   UNL A   1      32.634  23.800  23.057  1.00  0.00     0.200 C 
ATOM     17  C   UNL A   1      34.069  23.583  23.556  1.00  0.00     0.077 C 
BRANCH  16  18
ATOM     18  N   UNL A   1      31.993  24.876  23.870  1.00  0.00    -0.331 N 
ATOM     19  C   UNL A   1      30.544  24.955  23.636  1.00  0.00     0.262 C 
ATOM     20  C   UNL A   1      32.286  24.772  25.302  1.00  0.00     0.262 C 
ATOM     21  H   UNL A   1      32.415  25.748  23.549  1.00  0.00     0.348 HD
ATOM     22  C   UNL A   1      29.899  26.096  24.432  1.00  0.00     0.062 C 
ATOM     23  C   UNL A   1      31.682  25.888  26.147  1.00  0.00     0.062 C 
ATOM     24  C   UNL A   1      30.181  25.965  25.922  1.00  0.00     0.012 C 
ENDBRANCH  16  18
ENDBRANCH  15  16
ENDBRANCH  13  15
ENDBRANCH   7  13
ENDBRANCH   3   6
ENDBRANCH   1   2
BRANCH   1  25
ATOM     25  C   UNL A   1      37.612  19.826  24.993  1.00  0.00     0.042 C 
BRANCH  25  26
ATOM     26  C   UNL A   1      38.848  20.381  25.696  1.00  0.00     0.118 C 
BRANCH  26  27
ATOM     27  N   UNL A   1      39.927  19.405  25.764  1.00  0.00    -0.352 N 
ATOM     28  C   UNL A   1      41.255  19.587  26.066  1.00  0.00     0.251 C 
ATOM     29  H   UNL A   1      39.666  18.478  25.562  1.00  0.00     0.163 HD
ATOM     30  O   UNL A   1      42.057  18.681  25.864  1.00  0.00    -0.269 OA
BRANCH  28  31
ATOM     31  C   UNL A   1      41.729  20.877  26.620  1.00  0.00     0.039 A 
ATOM     32  C   UNL A   1      42.179  21.863  25.738  1.00  0.00     0.014 A 
ATOM     33  C   UNL A   1      41.754  21.107  27.997  1.00  0.00     0.014 A 
ATOM     34  C   UNL A   1      42.593  23.103  26.234  1.00  0.00     0.010 A 
ATOM     35  C   UNL A   1      42.095  22.368  28.485  1.00  0.00     0.010 A 
ATOM     36  C   UNL A   1      42.518  23.379  27.610  1.00  0.00    -0.014 A 
BRANCH  36  37
ATOM     37  C   UNL A   1      42.863  24.721  28.146  1.00  0.00     0.031 A 
ATOM     38  C   UNL A   1      41.796  25.760  28.346  1.00  0.00     0.074 A 
ATOM     39  C   UNL A   1      44.153  25.022  28.400  1.00  0.00     0.049 A 
ATOM     40  N   UNL A   1      41.917  27.002  28.743  1.00  0.00    -0.248 NA
ATOM     41  C   UNL A   1      40.413  25.362  28.038  1.00  0.00     0.031 C 
ATOM     42  C   UNL A   1      45.284  24.113  28.210  1.00  0.00     0.029 A 
ATOM     43  N   UNL A   1      44.730  26.176  28.868  1.00  0.00    -0.354 N 
ATOM     44  C   UNL A   1      40.634  27.532  28.724  1.00  0.00     0.074 A 
ATOM     45  C   UNL A   1      39.755  26.498  28.225  1.00  0.00     0.031 C 
ATOM     46  C   UNL A   1      46.414  24.732  28.587  1.00  0.00     0.029 A 
ATOM     47  C   UNL A   1      46.095  26.095  29.002  1.00  0.00     0.049 A 
ATOM     48  H   UNL A   1      44.214  26.986  29.087  1.00  0.00     0.167 HD
ATOM     49  C   UNL A   1      40.222  28.762  29.113  1.00  0.00     0.037 A 
ATOM     50  C   UNL A   1      46.993  27.015  29.405  1.00  0.00     0.037 A 
ATOM     51  C   UNL A   1      41.097  29.782  29.630  1.00  0.00     0.049 A 
ATOM     52  C   UNL A   1      46.513  28.381  29.809  1.00  0.00     0.074 A 
ATOM     53  C   UNL A   1      40.765  31.040  30.098  1.00  0.00     0.029 A 
ATOM     54  N   UNL A   1      42.473  29.661  29.745  1.00  0.00    -0.354 N 
ATOM     55  N   UNL A   1      45.290  28.850  29.838  1.00  0.00    -0.248 NA
ATOM     56  C   UNL A   1      47.536  29.346  30.237  1.00  0.00     0.031 C 
ATOM     57  C   UNL A   1      41.945  31.702  30.447  1.00  0.00     0.029 A 
ATOM     58  C   UNL A   1      43.008  30.833  30.253  1.00  0.00     0.049 A 
ATOM     59  H   UNL A   1      42.993  28.861  29.501  1.00  0.00     0.167 HD
ATOM     60  C   UNL A   1      45.391  30.152  30.310  1.00  0.00     0.074 A 
ATOM     61  C   UNL A   1      46.795  30.396  30.567  1.00  0.00     0.031 C 
ATOM     62  C   UNL A   1      44.407  31.062  30.511  1.00  0.00     0.037 A 
BRANCH  49  63
ATOM     63  C   UNL A   1      38.757  29.078  29.010  1.00  0.00     0.057 A 
ATOM     64  C   UNL A   1      38.207  29.551  27.812  1.00  0.00     0.134 A 
ATOM     65  C   UNL A   1      37.906  28.988  30.119  1.00  0.00     0.134 A 
ATOM     66  F   UNL A   1      38.967  29.672  26.713  1.00  0.00    -0.206 F 
ATOM     67  C   UNL A   1      36.868  29.938  27.725  1.00  0.00     0.040 A 
ATOM     68  C   UNL A   1      36.558  29.342  30.037  1.00  0.00     0.040 A 
ATOM     69  F   UNL A   1      38.365  28.532  31.295  1.00  0.00    -0.206 F 
ATOM     70  C   UNL A   1      36.039  29.830  28.839  1.00  0.00     0.006 A 
ENDBRANCH  49  63
BRANCH  50  71
ATOM     71  C   UNL A   1      48.432  26.656  29.475  1.00  0.00     0.057 A 
ATOM     72  C   UNL A   1      49.310  26.929  28.418  1.00  0.00     0.134 A 
ATOM     73  C   UNL A   1      48.957  25.999  30.594  1.00  0.00     0.134 A 
ATOM     74  F   UNL A   1      48.869  27.550  27.314  1.00  0.00    -0.206 F 
ATOM     75  C   UNL A   1      50.651  26.545  28.463  1.00  0.00     0.040 A 
ATOM     76  C   UNL A   1      50.302  25.632  30.664  1.00  0.00     0.040 A 
ATOM     77  F   UNL A   1      48.172  25.725  31.645  1.00  0.00    -0.206 F 
ATOM     78  C   UNL A   1      51.151  25.897  29.590  1.00  0.00     0.006 A 
ENDBRANCH  50  71
BRANCH  62  79
ATOM     79  C   UNL A   1      44.798  32.404  31.058  1.00  0.00     0.057 A 
ATOM     80  C   UNL A   1      44.793  32.640  32.439  1.00  0.00     0.134 A 
ATOM     81  C   UNL A   1      45.088  33.487  30.219  1.00  0.00     0.134 A 
ATOM     82  F   UNL A   1      44.511  31.648  33.298  1.00  0.00    -0.206 F 
ATOM     83  C   UNL A   1      45.043  33.907  32.965  1.00  0.00     0.040 A 
ATOM     84  C   UNL A   1      45.369  34.753  30.734  1.00  0.00     0.040 A 
ATOM     85  F   UNL A   1      45.119  33.326  28.887  1.00  0.00    -0.206 F 
ATOM     86  C   UNL A   1      45.335  34.969  32.111  1.00  0.00     0.006 A 
ENDBRANCH  62  79
ENDBRANCH  36  37
ENDBRANCH  28  31
ENDBRANCH  26  27
ENDBRANCH  25  26
ENDBRANCH   1  25
TORSDOF 14
ENDMDL
