MODEL 1
REMARK VINA RESULT:     -13.1      0.000      0.000
REMARK SMILES COC(=O)c1ccc(C)c(NC(=O)[C@H]2CC=CC[C@H]2C(=O)NCCCNC(=O)c2ccc(-c3c4nc(c(-c5c(F)cccc5F)c5ccc([nH]5)c(-c5c(F)cccc5F)c5nc(c(-c6c(F)cccc6F)c6ccc3[nH]6)C=C5)C=C4)cc2)c1
REMARK SMILES IDX 23 1 22 2 20 3 21 4 19 6 14 7 15 8 16 9 18 10 17 11 12 12
REMARK SMILES IDX 11 13 13 15 10 16 5 17 6 18 83 19 7 20 8 21 9 22 3 23 4 24
REMARK SMILES IDX 2 25 1 26 24 27 25 28 26 29 27 30 28 32 29 33 30 34 82 35
REMARK SMILES IDX 31 36 81 37 32 38 33 39 34 40 75 41 35 42 80 43 74 44 76 45
REMARK SMILES IDX 36 46 79 47 73 48 72 49 37 51 63 52 46 53 62 54 47 55 50 56
REMARK SMILES IDX 61 57 77 58 48 59 49 60 60 62 78 63 51 64 38 65 39 66 44 67
REMARK SMILES IDX 40 68 41 69 43 70 45 71 42 72 64 73 65 74 70 75 66 76 67 77
REMARK SMILES IDX 69 78 71 79 68 80 52 81 53 82 58 83 54 84 55 85 57 86 59 87
REMARK SMILES IDX 56 88
REMARK H PARENT 22 5 11 14 26 31 76 50 50 61
REMARK Flexibility Score: inf
ROOT
ATOM      1  C   UNL A   1      31.875  30.103  25.458  1.00  0.00     0.117 C 
ENDROOT
BRANCH   1   2
ATOM      2  N   UNL A   1      33.081  29.765  24.722  1.00  0.00    -0.356 N 
ATOM      3  C   UNL A   1      33.553  28.568  24.286  1.00  0.00     0.224 C 
ATOM      4  O   UNL A   1      34.430  28.607  23.418  1.00  0.00    -0.275 OA
ATOM      5  H   UNL A   1      33.654  30.535  24.501  1.00  0.00     0.163 HD
BRANCH   3   6
ATOM      6  C   UNL A   1      33.088  27.218  24.826  1.00  0.00     0.095 C 
ATOM      7  C   UNL A   1      31.798  26.665  24.170  1.00  0.00     0.095 C 
ATOM      8  C   UNL A   1      31.589  25.151  24.410  1.00  0.00     0.041 C 
ATOM      9  C   UNL A   1      32.831  24.325  24.388  1.00  0.00    -0.030 C 
ATOM     10  C   UNL A   1      34.264  26.247  25.064  1.00  0.00     0.041 C 
ATOM     11  C   UNL A   1      34.036  24.822  24.678  1.00  0.00    -0.030 C 
BRANCH   7  12
ATOM     12  C   UNL A   1      31.568  26.990  22.707  1.00  0.00     0.228 C 
ATOM     13  N   UNL A   1      30.562  27.723  22.166  1.00  0.00    -0.326 N 
ATOM     14  H   UNL A   1      30.669  27.727  21.187  1.00  0.00     0.169 HD
ATOM     15  O   UNL A   1      32.380  26.575  21.864  1.00  0.00    -0.274 OA
BRANCH  13  16
ATOM     16  C   UNL A   1      29.414  28.483  22.498  1.00  0.00     0.044 A 
ATOM     17  C   UNL A   1      28.470  30.771  22.159  1.00  0.00     0.062 A 
ATOM     18  C   UNL A   1      27.464  30.439  23.066  1.00  0.00     0.016 A 
ATOM     19  C   UNL A   1      29.445  29.795  21.921  1.00  0.00     0.042 A 
ATOM     20  C   UNL A   1      27.377  29.159  23.603  1.00  0.00     0.006 A 
ATOM     21  C   UNL A   1      28.299  28.144  23.273  1.00  0.00    -0.027 A 
ATOM     22  C   UNL A   1      27.899  26.780  23.743  1.00  0.00     0.046 C 
BRANCH  17  23
ATOM     23  C   UNL A   1      28.400  32.168  21.611  1.00  0.00     0.337 C 
ATOM     24  O   UNL A   1      28.300  32.281  20.389  1.00  0.00    -0.246 OA
BRANCH  23  25
ATOM     25  O   UNL A   1      28.407  33.310  22.326  1.00  0.00    -0.465 OA
ATOM     26  C   UNL A   1      29.296  33.850  23.309  1.00  0.00     0.282 C 
ENDBRANCH  23  25
ENDBRANCH  17  23
ENDBRANCH  13  16
ENDBRANCH   7  12
ENDBRANCH   3   6
ENDBRANCH   1   2
BRANCH   1  27
ATOM     27  C   UNL A   1      32.099  30.726  26.829  1.00  0.00     0.042 C 
BRANCH  27  28
ATOM     28  C   UNL A   1      33.350  30.251  27.558  1.00  0.00     0.118 C 
BRANCH  28  29
ATOM     29  N   UNL A   1      34.014  31.340  28.282  1.00  0.00    -0.352 N 
ATOM     30  C   UNL A   1      35.296  31.455  28.800  1.00  0.00     0.251 C 
ATOM     31  H   UNL A   1      33.448  32.132  28.427  1.00  0.00     0.163 HD
ATOM     32  O   UNL A   1      35.700  32.533  29.190  1.00  0.00    -0.269 OA
BRANCH  30  33
ATOM     33  C   UNL A   1      36.206  30.287  28.771  1.00  0.00     0.039 A 
ATOM     34  C   UNL A   1      36.449  29.573  29.951  1.00  0.00     0.014 A 
ATOM     35  C   UNL A   1      36.944  30.019  27.634  1.00  0.00     0.014 A 
ATOM     36  C   UNL A   1      37.611  28.809  30.062  1.00  0.00     0.010 A 
ATOM     37  C   UNL A   1      38.147  29.373  27.778  1.00  0.00     0.010 A 
ATOM     38  C   UNL A   1      38.513  28.822  29.004  1.00  0.00    -0.014 A 
BRANCH  38  39
ATOM     39  C   UNL A   1      39.914  28.439  29.097  1.00  0.00     0.031 A 
ATOM     40  C   UNL A   1      40.381  27.117  28.653  1.00  0.00     0.074 A 
ATOM     41  C   UNL A   1      40.800  29.414  29.393  1.00  0.00     0.049 A 
ATOM     42  N   UNL A   1      41.459  26.544  29.070  1.00  0.00    -0.248 NA
ATOM     43  C   UNL A   1      39.644  26.329  27.678  1.00  0.00     0.031 C 
ATOM     44  C   UNL A   1      42.252  29.386  29.263  1.00  0.00     0.029 A 
ATOM     45  N   UNL A   1      40.536  30.615  30.070  1.00  0.00    -0.354 N 
ATOM     46  C   UNL A   1      41.730  25.505  28.204  1.00  0.00     0.074 A 
ATOM     47  C   UNL A   1      40.528  25.361  27.415  1.00  0.00     0.031 C 
ATOM     48  C   UNL A   1      42.772  30.310  30.091  1.00  0.00     0.029 A 
ATOM     49  C   UNL A   1      41.671  30.846  30.876  1.00  0.00     0.049 A 
ATOM     50  H   UNL A   1      39.730  31.176  29.997  1.00  0.00     0.167 HD
ATOM     51  C   UNL A   1      42.997  24.997  28.142  1.00  0.00     0.037 A 
ATOM     52  C   UNL A   1      41.568  30.777  32.235  1.00  0.00     0.037 A 
ATOM     53  C   UNL A   1      43.876  25.671  29.102  1.00  0.00     0.049 A 
ATOM     54  C   UNL A   1      42.418  29.689  32.850  1.00  0.00     0.074 A 
ATOM     55  C   UNL A   1      44.819  26.679  28.956  1.00  0.00     0.029 A 
ATOM     56  N   UNL A   1      43.624  25.571  30.467  1.00  0.00    -0.354 N 
ATOM     57  N   UNL A   1      42.918  28.687  32.181  1.00  0.00    -0.248 NA
ATOM     58  C   UNL A   1      42.754  29.632  34.270  1.00  0.00     0.031 C 
ATOM     59  C   UNL A   1      45.072  27.236  30.234  1.00  0.00     0.029 A 
ATOM     60  C   UNL A   1      44.301  26.555  31.161  1.00  0.00     0.049 A 
ATOM     61  H   UNL A   1      43.043  24.892  30.881  1.00  0.00     0.167 HD
ATOM     62  C   UNL A   1      43.589  27.852  33.033  1.00  0.00     0.074 A 
ATOM     63  C   UNL A   1      43.483  28.503  34.326  1.00  0.00     0.031 C 
ATOM     64  C   UNL A   1      44.160  26.687  32.605  1.00  0.00     0.037 A 
BRANCH  51  65
ATOM     65  C   UNL A   1      43.515  24.133  27.002  1.00  0.00     0.057 A 
ATOM     66  C   UNL A   1      44.084  24.712  25.848  1.00  0.00     0.134 A 
ATOM     67  C   UNL A   1      43.445  22.730  26.954  1.00  0.00     0.134 A 
ATOM     68  F   UNL A   1      44.366  26.019  25.778  1.00  0.00    -0.206 F 
ATOM     69  C   UNL A   1      44.412  23.977  24.699  1.00  0.00     0.040 A 
ATOM     70  C   UNL A   1      43.717  21.986  25.794  1.00  0.00     0.040 A 
ATOM     71  F   UNL A   1      43.188  22.002  28.047  1.00  0.00    -0.206 F 
ATOM     72  C   UNL A   1      44.186  22.611  24.651  1.00  0.00     0.006 A 
ENDBRANCH  51  65
BRANCH  52  73
ATOM     73  C   UNL A   1      40.234  31.217  32.736  1.00  0.00     0.057 A 
ATOM     74  C   UNL A   1      39.317  30.233  33.149  1.00  0.00     0.134 A 
ATOM     75  C   UNL A   1      40.005  32.522  33.183  1.00  0.00     0.134 A 
ATOM     76  F   UNL A   1      39.477  28.957  32.760  1.00  0.00    -0.206 F 
ATOM     77  C   UNL A   1      38.293  30.507  34.060  1.00  0.00     0.040 A 
ATOM     78  C   UNL A   1      38.969  32.811  34.081  1.00  0.00     0.040 A 
ATOM     79  F   UNL A   1      40.844  33.514  32.855  1.00  0.00    -0.206 F 
ATOM     80  C   UNL A   1      38.139  31.796  34.557  1.00  0.00     0.006 A 
ENDBRANCH  52  73
BRANCH  64  81
ATOM     81  C   UNL A   1      44.711  25.600  33.493  1.00  0.00     0.057 A 
ATOM     82  C   UNL A   1      43.934  24.831  34.372  1.00  0.00     0.134 A 
ATOM     83  C   UNL A   1      46.058  25.192  33.373  1.00  0.00     0.134 A 
ATOM     84  F   UNL A   1      42.614  25.028  34.500  1.00  0.00    -0.206 F 
ATOM     85  C   UNL A   1      44.470  23.776  35.123  1.00  0.00     0.040 A 
ATOM     86  C   UNL A   1      46.589  24.106  34.073  1.00  0.00     0.040 A 
ATOM     87  F   UNL A   1      46.913  25.817  32.550  1.00  0.00    -0.206 F 
ATOM     88  C   UNL A   1      45.798  23.402  34.967  1.00  0.00     0.006 A 
ENDBRANCH  64  81
ENDBRANCH  38  39
ENDBRANCH  30  33
ENDBRANCH  28  29
ENDBRANCH  27  28
ENDBRANCH   1  27
TORSDOF 14
ENDMDL
MODEL 2
REMARK VINA RESULT:     -13.1      2.240      4.366
REMARK SMILES COC(=O)c1ccc(C)c(NC(=O)[C@H]2CC=CC[C@H]2C(=O)NCCCNC(=O)c2ccc(-c3c4nc(c(-c5c(F)cccc5F)c5ccc([nH]5)c(-c5c(F)cccc5F)c5nc(c(-c6c(F)cccc6F)c6ccc3[nH]6)C=C5)C=C4)cc2)c1
REMARK SMILES IDX 23 1 22 2 20 3 21 4 19 6 14 7 15 8 16 9 18 10 17 11 12 12
REMARK SMILES IDX 11 13 13 15 10 16 5 17 6 18 83 19 7 20 8 21 9 22 3 23 4 24
REMARK SMILES IDX 2 25 1 26 24 27 25 28 26 29 27 30 28 32 29 33 30 34 82 35
REMARK SMILES IDX 31 36 81 37 32 38 33 39 34 40 75 41 35 42 80 43 74 44 76 45
REMARK SMILES IDX 36 46 79 47 73 48 72 49 37 51 63 52 46 53 62 54 47 55 50 56
REMARK SMILES IDX 61 57 77 58 48 59 49 60 60 62 78 63 51 64 38 65 39 66 44 67
REMARK SMILES IDX 40 68 41 69 43 70 45 71 42 72 64 73 65 74 70 75 66 76 67 77
REMARK SMILES IDX 69 78 71 79 68 80 52 81 53 82 58 83 54 84 55 85 57 86 59 87
REMARK SMILES IDX 56 88
REMARK H PARENT 22 5 11 14 26 31 76 50 50 61
REMARK Flexibility Score: inf
ROOT
ATOM      1  C   UNL A   1      32.344  30.192  27.269  1.00  0.00     0.117 C 
ENDROOT
BRANCH   1   2
ATOM      2  N   UNL A   1      32.817  28.821  27.336  1.00  0.00    -0.356 N 
ATOM      3  C   UNL A   1      32.524  27.738  26.570  1.00  0.00     0.224 C 
ATOM      4  O   UNL A   1      33.303  26.784  26.647  1.00  0.00    -0.275 OA
ATOM      5  H   UNL A   1      33.461  28.647  28.061  1.00  0.00     0.163 HD
BRANCH   3   6
ATOM      6  C   UNL A   1      31.294  27.635  25.671  1.00  0.00     0.095 C 
ATOM      7  C   UNL A   1      31.442  28.317  24.289  1.00  0.00     0.095 C 
ATOM      8  C   UNL A   1      30.388  27.849  23.258  1.00  0.00     0.041 C 
ATOM      9  C   UNL A   1      30.034  26.401  23.323  1.00  0.00    -0.030 C 
ATOM     10  C   UNL A   1      30.639  26.239  25.734  1.00  0.00     0.041 C 
ATOM     11  C   UNL A   1      30.153  25.676  24.439  1.00  0.00    -0.030 C 
BRANCH   7  12
ATOM     12  C   UNL A   1      32.819  28.313  23.654  1.00  0.00     0.228 C 
ATOM     13  N   UNL A   1      33.524  27.245  23.201  1.00  0.00    -0.326 N 
ATOM     14  H   UNL A   1      34.397  27.563  22.875  1.00  0.00     0.169 HD
ATOM     15  O   UNL A   1      33.408  29.395  23.490  1.00  0.00    -0.274 OA
BRANCH  13  16
ATOM     16  C   UNL A   1      33.460  25.842  23.029  1.00  0.00     0.044 A 
ATOM     17  C   UNL A   1      33.993  23.736  24.263  1.00  0.00     0.062 A 
ATOM     18  C   UNL A   1      33.729  23.035  23.086  1.00  0.00     0.016 A 
ATOM     19  C   UNL A   1      33.887  25.130  24.198  1.00  0.00     0.042 A 
ATOM     20  C   UNL A   1      33.264  23.691  21.950  1.00  0.00     0.006 A 
ATOM     21  C   UNL A   1      33.051  25.084  21.925  1.00  0.00    -0.027 A 
ATOM     22  C   UNL A   1      32.315  25.567  20.715  1.00  0.00     0.046 C 
BRANCH  17  23
ATOM     23  C   UNL A   1      34.424  22.889  25.427  1.00  0.00     0.337 C 
ATOM     24  O   UNL A   1      33.751  21.886  25.663  1.00  0.00    -0.246 OA
BRANCH  23  25
ATOM     25  O   UNL A   1      35.491  23.103  26.221  1.00  0.00    -0.465 OA
ATOM     26  C   UNL A   1      36.807  23.615  25.985  1.00  0.00     0.282 C 
ENDBRANCH  23  25
ENDBRANCH  17  23
ENDBRANCH  13  16
ENDBRANCH   7  12
ENDBRANCH   3   6
ENDBRANCH   1   2
BRANCH   1  27
ATOM     27  C   UNL A   1      33.405  31.263  27.486  1.00  0.00     0.042 C 
BRANCH  27  28
ATOM     28  C   UNL A   1      34.844  30.765  27.440  1.00  0.00     0.118 C 
BRANCH  28  29
ATOM     29  N   UNL A   1      35.735  31.576  28.276  1.00  0.00    -0.352 N 
ATOM     30  C   UNL A   1      36.995  31.319  28.797  1.00  0.00     0.251 C 
ATOM     31  H   UNL A   1      35.376  32.461  28.508  1.00  0.00     0.163 HD
ATOM     32  O   UNL A   1      37.640  32.218  29.301  1.00  0.00    -0.269 OA
BRANCH  30  33
ATOM     33  C   UNL A   1      37.596  29.975  28.637  1.00  0.00     0.039 A 
ATOM     34  C   UNL A   1      37.617  29.095  29.725  1.00  0.00     0.014 A 
ATOM     35  C   UNL A   1      38.288  29.665  27.481  1.00  0.00     0.014 A 
ATOM     36  C   UNL A   1      38.554  28.062  29.754  1.00  0.00     0.010 A 
ATOM     37  C   UNL A   1      39.292  28.732  27.556  1.00  0.00     0.010 A 
ATOM     38  C   UNL A   1      39.469  27.973  28.711  1.00  0.00    -0.014 A 
BRANCH  38  39
ATOM     39  C   UNL A   1      40.732  27.251  28.768  1.00  0.00     0.031 A 
ATOM     40  C   UNL A   1      40.804  25.806  28.503  1.00  0.00     0.074 A 
ATOM     41  C   UNL A   1      41.860  27.989  28.849  1.00  0.00     0.049 A 
ATOM     42  N   UNL A   1      41.741  25.031  28.931  1.00  0.00    -0.248 NA
ATOM     43  C   UNL A   1      39.795  25.118  27.714  1.00  0.00     0.031 C 
ATOM     44  C   UNL A   1      43.237  27.563  28.628  1.00  0.00     0.029 A 
ATOM     45  N   UNL A   1      41.977  29.296  29.348  1.00  0.00    -0.354 N 
ATOM     46  C   UNL A   1      41.651  23.852  28.219  1.00  0.00     0.074 A 
ATOM     47  C   UNL A   1      40.375  23.926  27.544  1.00  0.00     0.031 C 
ATOM     48  C   UNL A   1      44.055  28.419  29.265  1.00  0.00     0.029 A 
ATOM     49  C   UNL A   1      43.212  29.325  30.030  1.00  0.00     0.049 A 
ATOM     50  H   UNL A   1      41.334  30.034  29.244  1.00  0.00     0.167 HD
ATOM     51  C   UNL A   1      42.738  23.024  28.151  1.00  0.00     0.037 A 
ATOM     52  C   UNL A   1      43.239  29.466  31.388  1.00  0.00     0.037 A 
ATOM     53  C   UNL A   1      43.853  23.565  28.935  1.00  0.00     0.049 A 
ATOM     54  C   UNL A   1      43.848  28.283  32.105  1.00  0.00     0.074 A 
ATOM     55  C   UNL A   1      44.997  24.260  28.571  1.00  0.00     0.029 A 
ATOM     56  N   UNL A   1      43.728  23.715  30.313  1.00  0.00    -0.354 N 
ATOM     57  N   UNL A   1      44.008  27.106  31.567  1.00  0.00    -0.248 NA
ATOM     58  C   UNL A   1      44.307  28.327  33.491  1.00  0.00     0.031 C 
ATOM     59  C   UNL A   1      45.515  24.894  29.728  1.00  0.00     0.029 A 
ATOM     60  C   UNL A   1      44.700  24.569  30.799  1.00  0.00     0.049 A 
ATOM     61  H   UNL A   1      43.042  23.273  30.864  1.00  0.00     0.167 HD
ATOM     62  C   UNL A   1      44.535  26.243  32.491  1.00  0.00     0.074 A 
ATOM     63  C   UNL A   1      44.731  27.064  33.672  1.00  0.00     0.031 C 
ATOM     64  C   UNL A   1      44.748  24.923  32.211  1.00  0.00     0.037 A 
BRANCH  51  65
ATOM     65  C   UNL A   1      42.900  21.912  27.127  1.00  0.00     0.057 A 
ATOM     66  C   UNL A   1      42.138  20.728  27.209  1.00  0.00     0.134 A 
ATOM     67  C   UNL A   1      43.818  21.921  26.062  1.00  0.00     0.134 A 
ATOM     68  F   UNL A   1      41.116  20.601  28.064  1.00  0.00    -0.206 F 
ATOM     69  C   UNL A   1      42.372  19.605  26.402  1.00  0.00     0.040 A 
ATOM     70  C   UNL A   1      44.102  20.788  25.282  1.00  0.00     0.040 A 
ATOM     71  F   UNL A   1      44.427  23.046  25.670  1.00  0.00    -0.206 F 
ATOM     72  C   UNL A   1      43.389  19.614  25.462  1.00  0.00     0.006 A 
ENDBRANCH  51  65
BRANCH  52  73
ATOM     73  C   UNL A   1      42.117  30.302  31.903  1.00  0.00     0.057 A 
ATOM     74  C   UNL A   1      42.186  31.697  31.725  1.00  0.00     0.134 A 
ATOM     75  C   UNL A   1      40.858  29.762  32.180  1.00  0.00     0.134 A 
ATOM     76  F   UNL A   1      43.363  32.284  31.453  1.00  0.00    -0.206 F 
ATOM     77  C   UNL A   1      41.042  32.500  31.701  1.00  0.00     0.040 A 
ATOM     78  C   UNL A   1      39.708  30.562  32.179  1.00  0.00     0.040 A 
ATOM     79  F   UNL A   1      40.701  28.441  32.340  1.00  0.00    -0.206 F 
ATOM     80  C   UNL A   1      39.792  31.925  31.893  1.00  0.00     0.006 A 
ENDBRANCH  52  73
BRANCH  64  81
ATOM     81  C   UNL A   1      45.099  23.857  33.218  1.00  0.00     0.057 A 
ATOM     82  C   UNL A   1      46.352  23.737  33.836  1.00  0.00     0.134 A 
ATOM     83  C   UNL A   1      44.102  22.984  33.711  1.00  0.00     0.134 A 
ATOM     84  F   UNL A   1      47.359  24.575  33.552  1.00  0.00    -0.206 F 
ATOM     85  C   UNL A   1      46.614  22.780  34.825  1.00  0.00     0.040 A 
ATOM     86  C   UNL A   1      44.337  22.065  34.738  1.00  0.00     0.040 A 
ATOM     87  F   UNL A   1      42.849  23.003  33.234  1.00  0.00    -0.206 F 
ATOM     88  C   UNL A   1      45.604  21.948  35.289  1.00  0.00     0.006 A 
ENDBRANCH  64  81
ENDBRANCH  38  39
ENDBRANCH  30  33
ENDBRANCH  28  29
ENDBRANCH  27  28
ENDBRANCH   1  27
TORSDOF 14
ENDMDL
MODEL 3
REMARK VINA RESULT:     -12.9      2.176      4.179
REMARK SMILES COC(=O)c1ccc(C)c(NC(=O)[C@H]2CC=CC[C@H]2C(=O)NCCCNC(=O)c2ccc(-c3c4nc(c(-c5c(F)cccc5F)c5ccc([nH]5)c(-c5c(F)cccc5F)c5nc(c(-c6c(F)cccc6F)c6ccc3[nH]6)C=C5)C=C4)cc2)c1
REMARK SMILES IDX 23 1 22 2 20 3 21 4 19 6 14 7 15 8 16 9 18 10 17 11 12 12
REMARK SMILES IDX 11 13 13 15 10 16 5 17 6 18 83 19 7 20 8 21 9 22 3 23 4 24
REMARK SMILES IDX 2 25 1 26 24 27 25 28 26 29 27 30 28 32 29 33 30 34 82 35
REMARK SMILES IDX 31 36 81 37 32 38 33 39 34 40 75 41 35 42 80 43 74 44 76 45
REMARK SMILES IDX 36 46 79 47 73 48 72 49 37 51 63 52 46 53 62 54 47 55 50 56
REMARK SMILES IDX 61 57 77 58 48 59 49 60 60 62 78 63 51 64 38 65 39 66 44 67
REMARK SMILES IDX 40 68 41 69 43 70 45 71 42 72 64 73 65 74 70 75 66 76 67 77
REMARK SMILES IDX 69 78 71 79 68 80 52 81 53 82 58 83 54 84 55 85 57 86 59 87
REMARK SMILES IDX 56 88
REMARK H PARENT 22 5 11 14 26 31 76 50 50 61
REMARK Flexibility Score: inf
ROOT
ATOM      1  C   UNL A   1      32.028  30.665  27.020  1.00  0.00     0.117 C 
ENDROOT
BRANCH   1   2
ATOM      2  N   UNL A   1      31.394  30.346  25.753  1.00  0.00    -0.356 N 
ATOM      3  C   UNL A   1      31.602  29.321  24.885  1.00  0.00     0.224 C 
ATOM      4  O   UNL A   1      30.712  29.117  24.054  1.00  0.00    -0.275 OA
ATOM      5  H   UNL A   1      30.693  30.980  25.477  1.00  0.00     0.163 HD
BRANCH   3   6
ATOM      6  C   UNL A   1      32.860  28.457  24.869  1.00  0.00     0.095 C 
ATOM      7  C   UNL A   1      33.028  27.530  26.097  1.00  0.00     0.095 C 
ATOM      8  C   UNL A   1      34.044  26.386  25.868  1.00  0.00     0.041 C 
ATOM      9  C   UNL A   1      34.035  25.791  24.500  1.00  0.00    -0.030 C 
ATOM     10  C   UNL A   1      33.154  27.880  23.467  1.00  0.00     0.041 C 
ATOM     11  C   UNL A   1      33.629  26.465  23.420  1.00  0.00    -0.030 C 
BRANCH   7  12
ATOM     12  C   UNL A   1      31.764  26.976  26.728  1.00  0.00     0.228 C 
ATOM     13  N   UNL A   1      31.038  25.901  26.331  1.00  0.00    -0.326 N 
ATOM     14  H   UNL A   1      30.256  25.816  26.924  1.00  0.00     0.169 HD
ATOM     15  O   UNL A   1      31.310  27.527  27.745  1.00  0.00    -0.274 OA
BRANCH  13  16
ATOM     16  C   UNL A   1      30.995  24.859  25.375  1.00  0.00     0.044 A 
ATOM     17  C   UNL A   1      31.745  22.493  25.087  1.00  0.00     0.062 A 
ATOM     18  C   UNL A   1      31.354  22.581  23.750  1.00  0.00     0.016 A 
ATOM     19  C   UNL A   1      31.590  23.648  25.862  1.00  0.00     0.042 A 
ATOM     20  C   UNL A   1      30.727  23.723  23.261  1.00  0.00     0.006 A 
ATOM     21  C   UNL A   1      30.470  24.844  24.076  1.00  0.00    -0.027 A 
ATOM     22  C   UNL A   1      29.571  25.862  23.448  1.00  0.00     0.046 C 
BRANCH  17  23
ATOM     23  C   UNL A   1      32.347  21.177  25.490  1.00  0.00     0.337 C 
ATOM     24  O   UNL A   1      33.298  21.217  26.270  1.00  0.00    -0.246 OA
BRANCH  23  25
ATOM     25  O   UNL A   1      31.932  19.955  25.104  1.00  0.00    -0.465 OA
ATOM     26  C   UNL A   1      32.589  18.842  24.487  1.00  0.00     0.282 C 
ENDBRANCH  23  25
ENDBRANCH  17  23
ENDBRANCH  13  16
ENDBRANCH   7  12
ENDBRANCH   3   6
ENDBRANCH   1   2
BRANCH   1  27
ATOM     27  C   UNL A   1      33.397  31.325  26.918  1.00  0.00     0.042 C 
BRANCH  27  28
ATOM     28  C   UNL A   1      34.529  30.574  27.607  1.00  0.00     0.118 C 
BRANCH  28  29
ATOM     29  N   UNL A   1      35.404  31.472  28.369  1.00  0.00    -0.352 N 
ATOM     30  C   UNL A   1      36.685  31.301  28.872  1.00  0.00     0.251 C 
ATOM     31  H   UNL A   1      35.011  32.354  28.556  1.00  0.00     0.163 HD
ATOM     32  O   UNL A   1      37.302  32.256  29.304  1.00  0.00    -0.269 OA
BRANCH  30  33
ATOM     33  C   UNL A   1      37.340  29.976  28.779  1.00  0.00     0.039 A 
ATOM     34  C   UNL A   1      37.441  29.175  29.924  1.00  0.00     0.014 A 
ATOM     35  C   UNL A   1      38.001  29.616  27.620  1.00  0.00     0.014 A 
ATOM     36  C   UNL A   1      38.425  28.188  29.984  1.00  0.00     0.010 A 
ATOM     37  C   UNL A   1      39.049  28.735  27.718  1.00  0.00     0.010 A 
ATOM     38  C   UNL A   1      39.303  28.066  28.914  1.00  0.00    -0.014 A 
BRANCH  38  39
ATOM     39  C   UNL A   1      40.598  27.404  28.968  1.00  0.00     0.031 A 
ATOM     40  C   UNL A   1      40.748  25.979  28.638  1.00  0.00     0.074 A 
ATOM     41  C   UNL A   1      41.686  28.191  29.111  1.00  0.00     0.049 A 
ATOM     42  N   UNL A   1      41.713  25.230  29.053  1.00  0.00    -0.248 NA
ATOM     43  C   UNL A   1      39.792  25.280  27.793  1.00  0.00     0.031 C 
ATOM     44  C   UNL A   1      43.087  27.844  28.904  1.00  0.00     0.029 A 
ATOM     45  N   UNL A   1      41.728  29.477  29.672  1.00  0.00    -0.354 N 
ATOM     46  C   UNL A   1      41.698  24.083  28.286  1.00  0.00     0.074 A 
ATOM     47  C   UNL A   1      40.435  24.127  27.584  1.00  0.00     0.031 C 
ATOM     48  C   UNL A   1      43.848  28.707  29.601  1.00  0.00     0.029 A 
ATOM     49  C   UNL A   1      42.944  29.533  30.386  1.00  0.00     0.049 A 
ATOM     50  H   UNL A   1      41.051  30.188  29.587  1.00  0.00     0.167 HD
ATOM     51  C   UNL A   1      42.825  23.313  28.207  1.00  0.00     0.037 A 
ATOM     52  C   UNL A   1      42.933  29.611  31.749  1.00  0.00     0.037 A 
ATOM     53  C   UNL A   1      43.895  23.870  29.042  1.00  0.00     0.049 A 
ATOM     54  C   UNL A   1      43.584  28.426  32.426  1.00  0.00     0.074 A 
ATOM     55  C   UNL A   1      45.010  24.636  28.739  1.00  0.00     0.029 A 
ATOM     56  N   UNL A   1      43.731  23.949  30.422  1.00  0.00    -0.354 N 
ATOM     57  N   UNL A   1      43.815  27.286  31.837  1.00  0.00    -0.248 NA
ATOM     58  C   UNL A   1      44.009  28.427  33.822  1.00  0.00     0.031 C 
ATOM     59  C   UNL A   1      45.470  25.239  29.936  1.00  0.00     0.029 A 
ATOM     60  C   UNL A   1      44.648  24.825  30.970  1.00  0.00     0.049 A 
ATOM     61  H   UNL A   1      43.056  23.448  30.935  1.00  0.00     0.167 HD
ATOM     62  C   UNL A   1      44.363  26.407  32.734  1.00  0.00     0.074 A 
ATOM     63  C   UNL A   1      44.492  27.179  33.955  1.00  0.00     0.031 C 
ATOM     64  C   UNL A   1      44.647  25.114  32.398  1.00  0.00     0.037 A 
BRANCH  51  65
ATOM     65  C   UNL A   1      43.065  22.261  27.136  1.00  0.00     0.057 A 
ATOM     66  C   UNL A   1      42.362  21.038  27.144  1.00  0.00     0.134 A 
ATOM     67  C   UNL A   1      44.005  22.364  26.096  1.00  0.00     0.134 A 
ATOM     68  F   UNL A   1      41.328  20.821  27.968  1.00  0.00    -0.206 F 
ATOM     69  C   UNL A   1      42.669  19.967  26.292  1.00  0.00     0.040 A 
ATOM     70  C   UNL A   1      44.363  21.284  25.272  1.00  0.00     0.040 A 
ATOM     71  F   UNL A   1      44.567  23.534  25.771  1.00  0.00    -0.206 F 
ATOM     72  C   UNL A   1      43.705  20.070  25.380  1.00  0.00     0.006 A 
ENDBRANCH  51  65
BRANCH  52  73
ATOM     73  C   UNL A   1      41.760  30.367  32.274  1.00  0.00     0.057 A 
ATOM     74  C   UNL A   1      40.672  29.640  32.791  1.00  0.00     0.134 A 
ATOM     75  C   UNL A   1      41.852  31.713  32.640  1.00  0.00     0.134 A 
ATOM     76  F   UNL A   1      40.523  28.341  32.485  1.00  0.00    -0.206 F 
ATOM     77  C   UNL A   1      39.788  30.189  33.725  1.00  0.00     0.040 A 
ATOM     78  C   UNL A   1      40.958  32.279  33.559  1.00  0.00     0.040 A 
ATOM     79  F   UNL A   1      42.871  32.471  32.210  1.00  0.00    -0.206 F 
ATOM     80  C   UNL A   1      39.953  31.505  34.138  1.00  0.00     0.006 A 
ENDBRANCH  52  73
BRANCH  64  81
ATOM     81  C   UNL A   1      45.028  24.019  33.363  1.00  0.00     0.057 A 
ATOM     82  C   UNL A   1      44.174  22.974  33.748  1.00  0.00     0.134 A 
ATOM     83  C   UNL A   1      46.357  23.908  33.830  1.00  0.00     0.134 A 
ATOM     84  F   UNL A   1      42.919  22.886  33.285  1.00  0.00    -0.206 F 
ATOM     85  C   UNL A   1      44.591  21.932  34.585  1.00  0.00     0.040 A 
ATOM     86  C   UNL A   1      46.799  22.843  34.619  1.00  0.00     0.040 A 
ATOM     87  F   UNL A   1      47.291  24.819  33.521  1.00  0.00    -0.206 F 
ATOM     88  C   UNL A   1      45.909  21.856  35.015  1.00  0.00     0.006 A 
ENDBRANCH  64  81
ENDBRANCH  38  39
ENDBRANCH  30  33
ENDBRANCH  28  29
ENDBRANCH  27  28
ENDBRANCH   1  27
TORSDOF 14
ENDMDL
