MODEL 1
REMARK VINA RESULT:     -11.8      0.000      0.000
REMARK SMILES NC(=O)c1cc(Cl)ccc1N1CCO[C@@H](CC(=O)NCCCNC(=O)c2ccc(-c3c4nc(c(-c5c(F)cccc5F)c5ccc([nH]5)c(-c5c(F)cccc5F)c5nc(c(-c6c(F)cccc6F)c6ccc3[nH]6)C=C5)C=C4)cc2)C1
REMARK SMILES IDX 20 1 19 2 17 3 18 4 16 6 15 7 11 8 12 9 80 10 13 11 14 12
REMARK SMILES IDX 10 13 4 14 5 15 6 16 9 17 7 18 8 19 2 20 1 21 3 24 21 25
REMARK SMILES IDX 22 26 23 27 24 28 25 30 26 31 27 32 79 33 28 34 78 35 29 36
REMARK SMILES IDX 30 37 31 38 72 39 32 40 77 41 71 42 73 43 33 44 76 45 70 46
REMARK SMILES IDX 69 47 34 49 60 50 43 51 59 52 44 53 47 54 58 55 74 56 45 57
REMARK SMILES IDX 46 58 57 60 75 61 48 62 35 63 36 64 41 65 37 66 38 67 40 68
REMARK SMILES IDX 42 69 39 70 61 71 62 72 67 73 63 74 64 75 66 76 68 77 65 78
REMARK SMILES IDX 49 79 50 80 55 81 51 82 52 83 54 84 56 85 53 86
REMARK H PARENT 19 5 1 22 1 23 23 29 73 48 47 59
REMARK Flexibility Score: inf
ROOT
ATOM      1  C   UNL A   1      35.860  20.438  25.019  1.00  0.00     0.117 C 
ENDROOT
BRANCH   1   2
ATOM      2  N   UNL A   1      34.643  19.635  25.008  1.00  0.00    -0.356 N 
ATOM      3  C   UNL A   1      33.391  19.872  25.500  1.00  0.00     0.222 C 
ATOM      4  O   UNL A   1      32.541  18.996  25.335  1.00  0.00    -0.275 OA
ATOM      5  H   UNL A   1      34.742  18.761  24.565  1.00  0.00     0.163 HD
BRANCH   3   6
ATOM      6  C   UNL A   1      33.056  21.148  26.251  1.00  0.00     0.133 C 
BRANCH   6   7
ATOM      7  C   UNL A   1      32.458  22.224  25.337  1.00  0.00     0.147 C 
ATOM      8  N   UNL A   1      32.798  24.612  24.681  1.00  0.00    -0.366 N 
ATOM      9  C   UNL A   1      32.859  24.237  23.276  1.00  0.00     0.145 C 
ATOM     10  C   UNL A   1      33.092  23.580  25.664  1.00  0.00     0.149 C 
ATOM     11  C   UNL A   1      32.174  22.871  23.079  1.00  0.00     0.182 C 
ATOM     12  O   UNL A   1      32.722  21.868  23.961  1.00  0.00    -0.374 OA
BRANCH   8  13
ATOM     13  C   UNL A   1      32.663  25.900  25.147  1.00  0.00     0.050 A 
ATOM     14  C   UNL A   1      31.470  26.364  25.727  1.00  0.00     0.064 A 
ATOM     15  C   UNL A   1      31.413  27.584  26.412  1.00  0.00     0.036 A 
ATOM     16  C   UNL A   1      32.558  28.366  26.509  1.00  0.00     0.041 A 
ATOM     17  C   UNL A   1      33.782  26.749  25.205  1.00  0.00     0.028 A 
ATOM     18  Cl  UNL A   1      32.517  29.804  27.446  1.00  0.00    -0.084 Cl
ATOM     19  C   UNL A   1      33.738  27.969  25.888  1.00  0.00     0.023 A 
BRANCH  14  20
ATOM     20  C   UNL A   1      30.253  25.528  25.718  1.00  0.00     0.250 C 
ATOM     21  N   UNL A   1      29.528  25.585  24.561  1.00  0.00    -0.366 N 
ATOM     22  H   UNL A   1      28.702  25.057  24.471  1.00  0.00     0.159 HD
ATOM     23  H   UNL A   1      29.833  26.153  23.817  1.00  0.00     0.159 HD
ATOM     24  O   UNL A   1      29.913  24.840  26.668  1.00  0.00    -0.269 OA
ENDBRANCH  14  20
ENDBRANCH   8  13
ENDBRANCH   6   7
ENDBRANCH   3   6
ENDBRANCH   1   2
BRANCH   1  25
ATOM     25  C   UNL A   1      37.132  19.586  24.939  1.00  0.00     0.042 C 
BRANCH  25  26
ATOM     26  C   UNL A   1      38.415  20.290  25.363  1.00  0.00     0.118 C 
BRANCH  26  27
ATOM     27  N   UNL A   1      39.479  19.339  25.623  1.00  0.00    -0.352 N 
ATOM     28  C   UNL A   1      40.790  19.529  25.989  1.00  0.00     0.251 C 
ATOM     29  H   UNL A   1      39.218  18.395  25.520  1.00  0.00     0.163 HD
ATOM     30  O   UNL A   1      41.569  18.584  25.872  1.00  0.00    -0.269 OA
BRANCH  28  31
ATOM     31  C   UNL A   1      41.302  20.825  26.512  1.00  0.00     0.039 A 
ATOM     32  C   UNL A   1      41.158  21.087  27.881  1.00  0.00     0.014 A 
ATOM     33  C   UNL A   1      41.812  21.829  25.687  1.00  0.00     0.014 A 
ATOM     34  C   UNL A   1      41.538  22.325  28.417  1.00  0.00     0.010 A 
ATOM     35  C   UNL A   1      42.269  23.034  26.234  1.00  0.00     0.010 A 
ATOM     36  C   UNL A   1      42.116  23.309  27.601  1.00  0.00    -0.014 A 
BRANCH  36  37
ATOM     37  C   UNL A   1      42.524  24.632  28.153  1.00  0.00     0.031 A 
ATOM     38  C   UNL A   1      41.503  25.726  28.354  1.00  0.00     0.074 A 
ATOM     39  C   UNL A   1      43.820  24.881  28.432  1.00  0.00     0.049 A 
ATOM     40  N   UNL A   1      41.676  26.961  28.755  1.00  0.00    -0.248 NA
ATOM     41  C   UNL A   1      40.104  25.390  28.051  1.00  0.00     0.031 C 
ATOM     42  C   UNL A   1      44.920  23.931  28.266  1.00  0.00     0.029 A 
ATOM     43  N   UNL A   1      44.434  26.020  28.892  1.00  0.00    -0.354 N 
ATOM     44  C   UNL A   1      40.417  27.550  28.737  1.00  0.00     0.074 A 
ATOM     45  C   UNL A   1      39.496  26.552  28.237  1.00  0.00     0.031 C 
ATOM     46  C   UNL A   1      46.073  24.527  28.610  1.00  0.00     0.029 A 
ATOM     47  C   UNL A   1      45.800  25.906  28.999  1.00  0.00     0.049 A 
ATOM     48  H   UNL A   1      43.943  26.842  29.123  1.00  0.00     0.167 HD
ATOM     49  C   UNL A   1      40.052  28.795  29.126  1.00  0.00     0.037 A 
ATOM     50  C   UNL A   1      46.731  26.810  29.361  1.00  0.00     0.037 A 
ATOM     51  C   UNL A   1      40.958  29.784  29.652  1.00  0.00     0.049 A 
ATOM     52  C   UNL A   1      46.306  28.195  29.762  1.00  0.00     0.074 A 
ATOM     53  C   UNL A   1      40.669  31.047  30.138  1.00  0.00     0.029 A 
ATOM     54  N   UNL A   1      42.331  29.620  29.755  1.00  0.00    -0.354 N 
ATOM     55  N   UNL A   1      45.102  28.710  29.809  1.00  0.00    -0.248 NA
ATOM     56  C   UNL A   1      47.371  29.122  30.173  1.00  0.00     0.031 C 
ATOM     57  C   UNL A   1      41.871  31.666  30.493  1.00  0.00     0.029 A 
ATOM     58  C   UNL A   1      42.905  30.770  30.274  1.00  0.00     0.049 A 
ATOM     59  H   UNL A   1      42.823  28.808  29.500  1.00  0.00     0.167 HD
ATOM     60  C   UNL A   1      45.259  30.004  30.287  1.00  0.00     0.074 A 
ATOM     61  C   UNL A   1      46.675  30.195  30.522  1.00  0.00     0.031 C 
ATOM     62  C   UNL A   1      44.314  30.948  30.516  1.00  0.00     0.037 A 
BRANCH  49  63
ATOM     63  C   UNL A   1      38.599  29.164  29.003  1.00  0.00     0.057 A 
ATOM     64  C   UNL A   1      37.727  29.107  30.098  1.00  0.00     0.134 A 
ATOM     65  C   UNL A   1      38.077  29.620  27.787  1.00  0.00     0.134 A 
ATOM     66  F   UNL A   1      38.161  28.672  31.291  1.00  0.00    -0.206 F 
ATOM     67  C   UNL A   1      36.382  29.461  29.981  1.00  0.00     0.040 A 
ATOM     68  C   UNL A   1      36.739  30.004  27.663  1.00  0.00     0.040 A 
ATOM     69  F   UNL A   1      38.858  29.712  26.700  1.00  0.00    -0.206 F 
ATOM     70  C   UNL A   1      35.886  29.917  28.761  1.00  0.00     0.006 A 
ENDBRANCH  49  63
BRANCH  50  71
ATOM     71  C   UNL A   1      48.164  26.424  29.390  1.00  0.00     0.057 A 
ATOM     72  C   UNL A   1      48.980  26.605  28.268  1.00  0.00     0.134 A 
ATOM     73  C   UNL A   1      48.750  25.859  30.530  1.00  0.00     0.134 A 
ATOM     74  F   UNL A   1      48.472  27.123  27.140  1.00  0.00    -0.206 F 
ATOM     75  C   UNL A   1      50.323  26.222  28.270  1.00  0.00     0.040 A 
ATOM     76  C   UNL A   1      50.096  25.493  30.554  1.00  0.00     0.040 A 
ATOM     77  F   UNL A   1      48.024  25.666  31.640  1.00  0.00    -0.206 F 
ATOM     78  C   UNL A   1      50.885  25.668  29.418  1.00  0.00     0.006 A 
ENDBRANCH  50  71
BRANCH  62  79
ATOM     79  C   UNL A   1      44.771  32.259  31.086  1.00  0.00     0.057 A 
ATOM     80  C   UNL A   1      44.868  32.474  32.466  1.00  0.00     0.134 A 
ATOM     81  C   UNL A   1      45.156  33.307  30.239  1.00  0.00     0.134 A 
ATOM     82  F   UNL A   1      44.501  31.515  33.331  1.00  0.00    -0.206 F 
ATOM     83  C   UNL A   1      45.311  33.692  32.984  1.00  0.00     0.040 A 
ATOM     84  C   UNL A   1      45.626  34.519  30.746  1.00  0.00     0.040 A 
ATOM     85  F   UNL A   1      45.096  33.165  28.907  1.00  0.00    -0.206 F 
ATOM     86  C   UNL A   1      45.700  34.716  32.124  1.00  0.00     0.006 A 
ENDBRANCH  62  79
ENDBRANCH  36  37
ENDBRANCH  28  31
ENDBRANCH  26  27
ENDBRANCH  25  26
ENDBRANCH   1  25
TORSDOF 13
ENDMDL
MODEL 2
REMARK VINA RESULT:     -11.6      3.609      8.796
REMARK SMILES NC(=O)c1cc(Cl)ccc1N1CCO[C@@H](CC(=O)NCCCNC(=O)c2ccc(-c3c4nc(c(-c5c(F)cccc5F)c5ccc([nH]5)c(-c5c(F)cccc5F)c5nc(c(-c6c(F)cccc6F)c6ccc3[nH]6)C=C5)C=C4)cc2)C1
REMARK SMILES IDX 20 1 19 2 17 3 18 4 16 6 15 7 11 8 12 9 80 10 13 11 14 12
REMARK SMILES IDX 10 13 4 14 5 15 6 16 9 17 7 18 8 19 2 20 1 21 3 24 21 25
REMARK SMILES IDX 22 26 23 27 24 28 25 30 26 31 27 32 79 33 28 34 78 35 29 36
REMARK SMILES IDX 30 37 31 38 72 39 32 40 77 41 71 42 73 43 33 44 76 45 70 46
REMARK SMILES IDX 69 47 34 49 60 50 43 51 59 52 44 53 47 54 58 55 74 56 45 57
REMARK SMILES IDX 46 58 57 60 75 61 48 62 35 63 36 64 41 65 37 66 38 67 40 68
REMARK SMILES IDX 42 69 39 70 61 71 62 72 67 73 63 74 64 75 66 76 68 77 65 78
REMARK SMILES IDX 49 79 50 80 55 81 51 82 52 83 54 84 56 85 53 86
REMARK H PARENT 19 5 1 22 1 23 23 29 73 48 47 59
REMARK Flexibility Score: inf
ROOT
ATOM      1  C   UNL A   1      31.303  30.103  25.189  1.00  0.00     0.117 C 
ENDROOT
BRANCH   1   2
ATOM      2  N   UNL A   1      30.539  30.069  23.947  1.00  0.00    -0.356 N 
ATOM      3  C   UNL A   1      30.744  29.409  22.769  1.00  0.00     0.222 C 
ATOM      4  O   UNL A   1      29.910  29.567  21.876  1.00  0.00    -0.275 OA
ATOM      5  H   UNL A   1      29.726  30.625  23.960  1.00  0.00     0.163 HD
BRANCH   3   6
ATOM      6  C   UNL A   1      31.965  28.536  22.544  1.00  0.00     0.133 C 
BRANCH   6   7
ATOM      7  C   UNL A   1      31.699  27.062  22.875  1.00  0.00     0.147 C 
ATOM      8  N   UNL A   1      32.555  25.222  24.333  1.00  0.00    -0.366 N 
ATOM      9  C   UNL A   1      31.224  25.013  24.883  1.00  0.00     0.145 C 
ATOM     10  C   UNL A   1      32.840  26.520  23.742  1.00  0.00     0.149 C 
ATOM     11  C   UNL A   1      30.172  25.582  23.912  1.00  0.00     0.182 C 
ATOM     12  O   UNL A   1      30.442  26.961  23.583  1.00  0.00    -0.374 OA
BRANCH   8  13
ATOM     13  C   UNL A   1      33.616  24.359  24.489  1.00  0.00     0.050 A 
ATOM     14  C   UNL A   1      34.013  23.471  23.475  1.00  0.00     0.064 A 
ATOM     15  C   UNL A   1      35.225  22.775  23.543  1.00  0.00     0.036 A 
ATOM     16  C   UNL A   1      36.052  22.950  24.645  1.00  0.00     0.041 A 
ATOM     17  C   UNL A   1      34.444  24.458  25.621  1.00  0.00     0.028 A 
ATOM     18  Cl  UNL A   1      37.590  22.186  24.674  1.00  0.00    -0.084 Cl
ATOM     19  C   UNL A   1      35.659  23.769  25.699  1.00  0.00     0.023 A 
BRANCH  14  20
ATOM     20  C   UNL A   1      33.204  23.318  22.249  1.00  0.00     0.250 C 
ATOM     21  N   UNL A   1      32.247  22.344  22.313  1.00  0.00    -0.366 N 
ATOM     22  H   UNL A   1      31.663  22.176  21.539  1.00  0.00     0.159 HD
ATOM     23  H   UNL A   1      32.141  21.812  23.134  1.00  0.00     0.159 HD
ATOM     24  O   UNL A   1      33.374  24.001  21.251  1.00  0.00    -0.269 OA
ENDBRANCH  14  20
ENDBRANCH   8  13
ENDBRANCH   6   7
ENDBRANCH   3   6
ENDBRANCH   1   2
BRANCH   1  25
ATOM     25  C   UNL A   1      31.081  31.393  25.986  1.00  0.00     0.042 C 
BRANCH  25  26
ATOM     26  C   UNL A   1      32.234  31.806  26.891  1.00  0.00     0.118 C 
BRANCH  26  27
ATOM     27  N   UNL A   1      32.162  33.215  27.229  1.00  0.00    -0.352 N 
ATOM     28  C   UNL A   1      32.919  33.978  28.087  1.00  0.00     0.251 C 
ATOM     29  H   UNL A   1      31.450  33.711  26.764  1.00  0.00     0.163 HD
ATOM     30  O   UNL A   1      32.486  35.080  28.419  1.00  0.00    -0.269 OA
BRANCH  28  31
ATOM     31  C   UNL A   1      34.227  33.522  28.630  1.00  0.00     0.039 A 
ATOM     32  C   UNL A   1      35.385  33.826  27.901  1.00  0.00     0.014 A 
ATOM     33  C   UNL A   1      34.340  32.715  29.764  1.00  0.00     0.014 A 
ATOM     34  C   UNL A   1      36.636  33.347  28.314  1.00  0.00     0.010 A 
ATOM     35  C   UNL A   1      35.598  32.308  30.223  1.00  0.00     0.010 A 
ATOM     36  C   UNL A   1      36.760  32.596  29.493  1.00  0.00    -0.014 A 
BRANCH  36  37
ATOM     37  C   UNL A   1      38.082  32.077  29.946  1.00  0.00     0.031 A 
ATOM     38  C   UNL A   1      38.594  30.746  29.449  1.00  0.00     0.074 A 
ATOM     39  C   UNL A   1      38.813  32.770  30.842  1.00  0.00     0.049 A 
ATOM     40  N   UNL A   1      39.683  30.098  29.781  1.00  0.00    -0.248 NA
ATOM     41  C   UNL A   1      37.763  30.046  28.457  1.00  0.00     0.031 C 
ATOM     42  C   UNL A   1      38.436  34.057  31.429  1.00  0.00     0.029 A 
ATOM     43  N   UNL A   1      40.015  32.476  31.438  1.00  0.00    -0.354 N 
ATOM     44  C   UNL A   1      39.660  28.913  29.054  1.00  0.00     0.074 A 
ATOM     45  C   UNL A   1      38.424  28.908  28.302  1.00  0.00     0.031 C 
ATOM     46  C   UNL A   1      39.381  34.436  32.304  1.00  0.00     0.029 A 
ATOM     47  C   UNL A   1      40.419  33.412  32.359  1.00  0.00     0.049 A 
ATOM     48  H   UNL A   1      40.538  31.669  31.226  1.00  0.00     0.167 HD
ATOM     49  C   UNL A   1      40.591  27.931  28.994  1.00  0.00     0.037 A 
ATOM     50  C   UNL A   1      41.498  33.444  33.165  1.00  0.00     0.037 A 
ATOM     51  C   UNL A   1      41.836  27.942  29.718  1.00  0.00     0.049 A 
ATOM     52  C   UNL A   1      42.505  32.329  33.102  1.00  0.00     0.074 A 
ATOM     53  C   UNL A   1      42.873  27.027  29.666  1.00  0.00     0.029 A 
ATOM     54  N   UNL A   1      42.210  28.918  30.629  1.00  0.00    -0.354 N 
ATOM     55  N   UNL A   1      42.502  31.253  32.354  1.00  0.00    -0.248 NA
ATOM     56  C   UNL A   1      43.673  32.440  33.988  1.00  0.00     0.031 C 
ATOM     57  C   UNL A   1      43.854  27.423  30.580  1.00  0.00     0.029 A 
ATOM     58  C   UNL A   1      43.452  28.613  31.164  1.00  0.00     0.049 A 
ATOM     59  H   UNL A   1      41.674  29.711  30.859  1.00  0.00     0.167 HD
ATOM     60  C   UNL A   1      43.680  30.579  32.651  1.00  0.00     0.074 A 
ATOM     61  C   UNL A   1      44.377  31.371  33.643  1.00  0.00     0.031 C 
ATOM     62  C   UNL A   1      44.143  29.411  32.143  1.00  0.00     0.037 A 
BRANCH  49  63
ATOM     63  C   UNL A   1      40.302  26.752  28.106  1.00  0.00     0.057 A 
ATOM     64  C   UNL A   1      40.875  26.628  26.833  1.00  0.00     0.134 A 
ATOM     65  C   UNL A   1      39.475  25.711  28.544  1.00  0.00     0.134 A 
ATOM     66  F   UNL A   1      41.672  27.593  26.350  1.00  0.00    -0.206 F 
ATOM     67  C   UNL A   1      40.612  25.527  26.017  1.00  0.00     0.040 A 
ATOM     68  C   UNL A   1      39.226  24.591  27.748  1.00  0.00     0.040 A 
ATOM     69  F   UNL A   1      38.902  25.758  29.756  1.00  0.00    -0.206 F 
ATOM     70  C   UNL A   1      39.789  24.500  26.477  1.00  0.00     0.006 A 
ENDBRANCH  49  63
BRANCH  50  71
ATOM     71  C   UNL A   1      41.701  34.590  34.085  1.00  0.00     0.057 A 
ATOM     72  C   UNL A   1      41.246  34.539  35.408  1.00  0.00     0.134 A 
ATOM     73  C   UNL A   1      42.342  35.763  33.668  1.00  0.00     0.134 A 
ATOM     74  F   UNL A   1      40.606  33.450  35.860  1.00  0.00    -0.206 F 
ATOM     75  C   UNL A   1      41.404  35.619  36.278  1.00  0.00     0.040 A 
ATOM     76  C   UNL A   1      42.528  36.841  34.534  1.00  0.00     0.040 A 
ATOM     77  F   UNL A   1      42.809  35.872  32.416  1.00  0.00    -0.206 F 
ATOM     78  C   UNL A   1      42.052  36.773  35.842  1.00  0.00     0.006 A 
ENDBRANCH  50  71
BRANCH  62  79
ATOM     79  C   UNL A   1      45.486  28.937  32.618  1.00  0.00     0.057 A 
ATOM     80  C   UNL A   1      46.675  29.329  31.991  1.00  0.00     0.134 A 
ATOM     81  C   UNL A   1      45.590  28.107  33.742  1.00  0.00     0.134 A 
ATOM     82  F   UNL A   1      46.644  30.111  30.901  1.00  0.00    -0.206 F 
ATOM     83  C   UNL A   1      47.919  28.895  32.454  1.00  0.00     0.040 A 
ATOM     84  C   UNL A   1      46.830  27.690  34.229  1.00  0.00     0.040 A 
ATOM     85  F   UNL A   1      44.491  27.701  34.395  1.00  0.00    -0.206 F 
ATOM     86  C   UNL A   1      47.999  28.079  33.580  1.00  0.00     0.006 A 
ENDBRANCH  62  79
ENDBRANCH  36  37
ENDBRANCH  28  31
ENDBRANCH  26  27
ENDBRANCH  25  26
ENDBRANCH   1  25
TORSDOF 13
ENDMDL
MODEL 3
REMARK VINA RESULT:     -11.5      4.395      8.542
REMARK SMILES NC(=O)c1cc(Cl)ccc1N1CCO[C@@H](CC(=O)NCCCNC(=O)c2ccc(-c3c4nc(c(-c5c(F)cccc5F)c5ccc([nH]5)c(-c5c(F)cccc5F)c5nc(c(-c6c(F)cccc6F)c6ccc3[nH]6)C=C5)C=C4)cc2)C1
REMARK SMILES IDX 20 1 19 2 17 3 18 4 16 6 15 7 11 8 12 9 80 10 13 11 14 12
REMARK SMILES IDX 10 13 4 14 5 15 6 16 9 17 7 18 8 19 2 20 1 21 3 24 21 25
REMARK SMILES IDX 22 26 23 27 24 28 25 30 26 31 27 32 79 33 28 34 78 35 29 36
REMARK SMILES IDX 30 37 31 38 72 39 32 40 77 41 71 42 73 43 33 44 76 45 70 46
REMARK SMILES IDX 69 47 34 49 60 50 43 51 59 52 44 53 47 54 58 55 74 56 45 57
REMARK SMILES IDX 46 58 57 60 75 61 48 62 35 63 36 64 41 65 37 66 38 67 40 68
REMARK SMILES IDX 42 69 39 70 61 71 62 72 67 73 63 74 64 75 66 76 68 77 65 78
REMARK SMILES IDX 49 79 50 80 55 81 51 82 52 83 54 84 56 85 53 86
REMARK H PARENT 19 5 1 22 1 23 23 29 73 48 47 59
REMARK Flexibility Score: inf
ROOT
ATOM      1  C   UNL A   1      31.070  30.245  25.013  1.00  0.00     0.117 C 
ENDROOT
BRANCH   1   2
ATOM      2  N   UNL A   1      30.355  30.125  23.748  1.00  0.00    -0.356 N 
ATOM      3  C   UNL A   1      30.620  29.407  22.616  1.00  0.00     0.222 C 
ATOM      4  O   UNL A   1      29.817  29.497  21.686  1.00  0.00    -0.275 OA
ATOM      5  H   UNL A   1      29.529  30.659  23.700  1.00  0.00     0.163 HD
BRANCH   3   6
ATOM      6  C   UNL A   1      31.869  28.555  22.484  1.00  0.00     0.133 C 
BRANCH   6   7
ATOM      7  C   UNL A   1      31.610  27.082  22.818  1.00  0.00     0.147 C 
ATOM      8  N   UNL A   1      32.469  25.250  24.285  1.00  0.00    -0.366 N 
ATOM      9  C   UNL A   1      31.137  25.036  24.830  1.00  0.00     0.145 C 
ATOM     10  C   UNL A   1      32.750  26.547  23.691  1.00  0.00     0.149 C 
ATOM     11  C   UNL A   1      30.085  25.597  23.854  1.00  0.00     0.182 C 
ATOM     12  O   UNL A   1      30.351  26.977  23.522  1.00  0.00    -0.374 OA
BRANCH   8  13
ATOM     13  C   UNL A   1      33.534  24.392  24.447  1.00  0.00     0.050 A 
ATOM     14  C   UNL A   1      33.953  23.520  23.429  1.00  0.00     0.064 A 
ATOM     15  C   UNL A   1      35.169  22.832  23.507  1.00  0.00     0.036 A 
ATOM     16  C   UNL A   1      35.977  22.999  24.625  1.00  0.00     0.041 A 
ATOM     17  C   UNL A   1      34.343  24.483  25.594  1.00  0.00     0.028 A 
ATOM     18  Cl  UNL A   1      37.520  22.245  24.669  1.00  0.00    -0.084 Cl
ATOM     19  C   UNL A   1      35.561  23.801  25.682  1.00  0.00     0.023 A 
BRANCH  14  20
ATOM     20  C   UNL A   1      33.165  23.376  22.188  1.00  0.00     0.250 C 
ATOM     21  N   UNL A   1      32.299  22.319  22.179  1.00  0.00    -0.366 N 
ATOM     22  H   UNL A   1      31.735  22.151  21.391  1.00  0.00     0.159 HD
ATOM     23  H   UNL A   1      32.239  21.726  22.963  1.00  0.00     0.159 HD
ATOM     24  O   UNL A   1      33.276  24.136  21.239  1.00  0.00    -0.269 OA
ENDBRANCH  14  20
ENDBRANCH   8  13
ENDBRANCH   6   7
ENDBRANCH   3   6
ENDBRANCH   1   2
BRANCH   1  25
ATOM     25  C   UNL A   1      30.924  31.633  25.646  1.00  0.00     0.042 C 
BRANCH  25  26
ATOM     26  C   UNL A   1      31.790  31.883  26.874  1.00  0.00     0.118 C 
BRANCH  26  27
ATOM     27  N   UNL A   1      32.047  33.299  27.061  1.00  0.00    -0.352 N 
ATOM     28  C   UNL A   1      32.994  33.953  27.813  1.00  0.00     0.251 C 
ATOM     29  H   UNL A   1      31.439  33.893  26.564  1.00  0.00     0.163 HD
ATOM     30  O   UNL A   1      32.831  35.152  28.036  1.00  0.00    -0.269 OA
BRANCH  28  31
ATOM     31  C   UNL A   1      34.195  33.272  28.368  1.00  0.00     0.039 A 
ATOM     32  C   UNL A   1      34.070  31.933  28.762  1.00  0.00     0.014 A 
ATOM     33  C   UNL A   1      35.397  33.936  28.618  1.00  0.00     0.014 A 
ATOM     34  C   UNL A   1      35.139  31.265  29.375  1.00  0.00     0.010 A 
ATOM     35  C   UNL A   1      36.491  33.246  29.152  1.00  0.00     0.010 A 
ATOM     36  C   UNL A   1      36.371  31.909  29.562  1.00  0.00    -0.014 A 
BRANCH  36  37
ATOM     37  C   UNL A   1      37.518  31.215  30.213  1.00  0.00     0.031 A 
ATOM     38  C   UNL A   1      37.867  31.501  31.654  1.00  0.00     0.074 A 
ATOM     39  C   UNL A   1      38.285  30.361  29.507  1.00  0.00     0.049 A 
ATOM     40  N   UNL A   1      38.866  31.050  32.372  1.00  0.00    -0.248 NA
ATOM     41  C   UNL A   1      36.982  32.425  32.379  1.00  0.00     0.031 C 
ATOM     42  C   UNL A   1      38.085  30.006  28.101  1.00  0.00     0.029 A 
ATOM     43  N   UNL A   1      39.407  29.655  29.868  1.00  0.00    -0.354 N 
ATOM     44  C   UNL A   1      38.739  31.646  33.622  1.00  0.00     0.074 A 
ATOM     45  C   UNL A   1      37.595  32.530  33.550  1.00  0.00     0.031 C 
ATOM     46  C   UNL A   1      39.053  29.158  27.718  1.00  0.00     0.029 A 
ATOM     47  C   UNL A   1      39.955  28.925  28.841  1.00  0.00     0.049 A 
ATOM     48  H   UNL A   1      39.783  29.669  30.779  1.00  0.00     0.167 HD
ATOM     49  C   UNL A   1      39.485  31.458  34.737  1.00  0.00     0.037 A 
ATOM     50  C   UNL A   1      41.063  28.160  28.800  1.00  0.00     0.037 A 
ATOM     51  C   UNL A   1      40.607  30.559  34.825  1.00  0.00     0.049 A 
ATOM     52  C   UNL A   1      41.893  27.987  30.042  1.00  0.00     0.074 A 
ATOM     53  C   UNL A   1      41.380  30.249  35.931  1.00  0.00     0.029 A 
ATOM     54  N   UNL A   1      41.119  29.829  33.763  1.00  0.00    -0.354 N 
ATOM     55  N   UNL A   1      41.714  28.501  31.235  1.00  0.00    -0.248 NA
ATOM     56  C   UNL A   1      43.072  27.116  29.935  1.00  0.00     0.031 C 
ATOM     57  C   UNL A   1      42.387  29.367  35.528  1.00  0.00     0.029 A 
ATOM     58  C   UNL A   1      42.213  29.089  34.183  1.00  0.00     0.049 A 
ATOM     59  H   UNL A   1      40.758  29.835  32.847  1.00  0.00     0.167 HD
ATOM     60  C   UNL A   1      42.733  27.989  32.027  1.00  0.00     0.074 A 
ATOM     61  C   UNL A   1      43.524  27.119  31.182  1.00  0.00     0.031 C 
ATOM     62  C   UNL A   1      42.988  28.217  33.338  1.00  0.00     0.037 A 
BRANCH  49  63
ATOM     63  C   UNL A   1      39.109  32.240  35.965  1.00  0.00     0.057 A 
ATOM     64  C   UNL A   1      39.564  33.548  36.175  1.00  0.00     0.134 A 
ATOM     65  C   UNL A   1      38.250  31.694  36.927  1.00  0.00     0.134 A 
ATOM     66  F   UNL A   1      40.395  34.129  35.297  1.00  0.00    -0.206 F 
ATOM     67  C   UNL A   1      39.203  34.274  37.312  1.00  0.00     0.040 A 
ATOM     68  C   UNL A   1      37.859  32.419  38.054  1.00  0.00     0.040 A 
ATOM     69  F   UNL A   1      37.767  30.451  36.783  1.00  0.00    -0.206 F 
ATOM     70  C   UNL A   1      38.342  33.711  38.253  1.00  0.00     0.006 A 
ENDBRANCH  49  63
BRANCH  50  71
ATOM     71  C   UNL A   1      41.440  27.471  27.541  1.00  0.00     0.057 A 
ATOM     72  C   UNL A   1      41.037  26.153  27.294  1.00  0.00     0.134 A 
ATOM     73  C   UNL A   1      42.216  28.102  26.561  1.00  0.00     0.134 A 
ATOM     74  F   UNL A   1      40.309  25.488  28.204  1.00  0.00    -0.206 F 
ATOM     75  C   UNL A   1      41.407  25.481  26.128  1.00  0.00     0.040 A 
ATOM     76  C   UNL A   1      42.573  27.451  25.380  1.00  0.00     0.040 A 
ATOM     77  F   UNL A   1      42.627  29.367  26.734  1.00  0.00    -0.206 F 
ATOM     78  C   UNL A   1      42.174  26.134  25.164  1.00  0.00     0.006 A 
ENDBRANCH  50  71
BRANCH  62  79
ATOM     79  C   UNL A   1      44.143  27.483  33.954  1.00  0.00     0.057 A 
ATOM     80  C   UNL A   1      45.427  28.039  34.015  1.00  0.00     0.134 A 
ATOM     81  C   UNL A   1      43.958  26.218  34.528  1.00  0.00     0.134 A 
ATOM     82  F   UNL A   1      45.675  29.240  33.470  1.00  0.00    -0.206 F 
ATOM     83  C   UNL A   1      46.490  27.354  34.606  1.00  0.00     0.040 A 
ATOM     84  C   UNL A   1      45.007  25.537  35.146  1.00  0.00     0.040 A 
ATOM     85  F   UNL A   1      42.752  25.632  34.512  1.00  0.00    -0.206 F 
ATOM     86  C   UNL A   1      46.280  26.102  35.181  1.00  0.00     0.006 A 
ENDBRANCH  62  79
ENDBRANCH  36  37
ENDBRANCH  28  31
ENDBRANCH  26  27
ENDBRANCH  25  26
ENDBRANCH   1  25
TORSDOF 13
ENDMDL
