MODEL 1
REMARK VINA RESULT:     -12.0      0.000      0.000
REMARK SMILES COc1ccc(NS(=O)(=O)c2ccc(Cl)c(C(=O)NCCCNC(=O)c3ccc(-c4c5nc(c(-c6c(F)cccc6F)c6ccc([nH]6)c(-c6c(F)cccc6F)c6nc(c(-c7c(F)cccc7F)c7ccc4[nH]7)C=C6)C=C5)cc3)c2)cc1Cl
REMARK SMILES IDX 20 1 19 2 17 3 18 4 16 6 11 7 12 8 80 9 13 10 14 11 15 12
REMARK SMILES IDX 8 13 9 14 10 15 7 16 6 18 3 19 4 20 82 21 5 22 81 23 83 24
REMARK SMILES IDX 2 25 1 26 21 27 22 28 23 29 24 30 25 32 26 33 27 34 79 35
REMARK SMILES IDX 28 36 78 37 29 38 30 39 31 40 72 41 32 42 77 43 71 44 73 45
REMARK SMILES IDX 33 46 76 47 70 48 69 49 34 51 60 52 43 53 59 54 44 55 47 56
REMARK SMILES IDX 58 57 74 58 45 59 46 60 57 62 75 63 48 64 35 65 36 66 41 67
REMARK SMILES IDX 37 68 38 69 40 70 42 71 39 72 61 73 62 74 67 75 63 76 64 77
REMARK SMILES IDX 66 78 68 79 65 80 49 81 50 82 55 83 51 84 52 85 54 86 56 87
REMARK SMILES IDX 53 88
REMARK H PARENT 19 5 7 17 23 31 73 50 47 61
REMARK Flexibility Score: inf
ROOT
ATOM      1  C   UNL A   1      34.286  29.879  27.278  1.00  0.00     0.118 C 
ENDROOT
BRANCH   1   2
ATOM      2  N   UNL A   1      33.126  29.211  27.848  1.00  0.00    -0.352 N 
ATOM      3  C   UNL A   1      32.204  28.360  27.280  1.00  0.00     0.252 C 
ATOM      4  O   UNL A   1      31.371  27.828  28.013  1.00  0.00    -0.269 OA
ATOM      5  H   UNL A   1      32.976  29.396  28.804  1.00  0.00     0.163 HD
BRANCH   3   6
ATOM      6  C   UNL A   1      32.065  28.195  25.811  1.00  0.00     0.059 A 
ATOM      7  C   UNL A   1      32.361  26.617  23.976  1.00  0.00     0.088 A 
ATOM      8  C   UNL A   1      31.640  27.468  23.135  1.00  0.00     0.024 A 
ATOM      9  C   UNL A   1      32.606  27.000  25.295  1.00  0.00     0.037 A 
ATOM     10  C   UNL A   1      31.219  28.715  23.605  1.00  0.00     0.023 A 
ATOM     11  C   UNL A   1      31.461  29.096  24.933  1.00  0.00     0.053 A 
ATOM     12  Cl  UNL A   1      31.095  30.728  25.356  1.00  0.00    -0.083 Cl
BRANCH   7  13
ATOM     13  S   UNL A   1      32.870  25.046  23.304  1.00  0.00     0.261 S 
ATOM     14  O   UNL A   1      33.964  25.342  22.401  1.00  0.00    -0.201 OA
ATOM     15  O   UNL A   1      31.673  24.380  22.845  1.00  0.00    -0.201 OA
BRANCH  13  16
ATOM     16  N   UNL A   1      33.559  24.159  24.536  1.00  0.00    -0.280 N 
ATOM     17  H   UNL A   1      33.020  24.047  25.352  1.00  0.00     0.180 HD
BRANCH  16  18
ATOM     18  C   UNL A   1      34.845  23.547  24.533  1.00  0.00     0.051 A 
ATOM     19  C   UNL A   1      37.195  22.163  25.172  1.00  0.00     0.137 A 
ATOM     20  C   UNL A   1      36.275  21.610  24.281  1.00  0.00     0.050 A 
ATOM     21  C   UNL A   1      37.010  23.471  25.628  1.00  0.00     0.085 A 
ATOM     22  C   UNL A   1      35.116  22.312  23.942  1.00  0.00     0.030 A 
ATOM     23  C   UNL A   1      35.823  24.146  25.332  1.00  0.00     0.051 A 
ATOM     24  Cl  UNL A   1      38.197  24.301  26.566  1.00  0.00    -0.080 Cl
BRANCH  19  25
ATOM     25  O   UNL A   1      38.249  21.363  25.522  1.00  0.00    -0.495 OA
ATOM     26  C   UNL A   1      38.097  20.026  25.029  1.00  0.00     0.278 C 
ENDBRANCH  19  25
ENDBRANCH  16  18
ENDBRANCH  13  16
ENDBRANCH   7  13
ENDBRANCH   3   6
ENDBRANCH   1   2
BRANCH   1  27
ATOM     27  C   UNL A   1      34.395  31.372  27.574  1.00  0.00     0.042 C 
BRANCH  27  28
ATOM     28  C   UNL A   1      35.499  31.797  28.537  1.00  0.00     0.118 C 
BRANCH  28  29
ATOM     29  N   UNL A   1      35.472  31.117  29.824  1.00  0.00    -0.352 N 
ATOM     30  C   UNL A   1      36.385  30.342  30.496  1.00  0.00     0.251 C 
ATOM     31  H   UNL A   1      34.625  31.237  30.312  1.00  0.00     0.163 HD
ATOM     32  O   UNL A   1      36.042  29.828  31.560  1.00  0.00    -0.269 OA
BRANCH  30  33
ATOM     33  C   UNL A   1      37.745  30.064  29.972  1.00  0.00     0.039 A 
ATOM     34  C   UNL A   1      38.789  29.918  30.897  1.00  0.00     0.014 A 
ATOM     35  C   UNL A   1      38.036  30.000  28.611  1.00  0.00     0.014 A 
ATOM     36  C   UNL A   1      40.087  29.622  30.464  1.00  0.00     0.010 A 
ATOM     37  C   UNL A   1      39.309  29.614  28.182  1.00  0.00     0.010 A 
ATOM     38  C   UNL A   1      40.349  29.414  29.102  1.00  0.00    -0.014 A 
BRANCH  38  39
ATOM     39  C   UNL A   1      41.688  28.977  28.621  1.00  0.00     0.031 A 
ATOM     40  C   UNL A   1      41.931  27.545  28.223  1.00  0.00     0.074 A 
ATOM     41  C   UNL A   1      42.716  29.850  28.622  1.00  0.00     0.049 A 
ATOM     42  N   UNL A   1      43.056  26.950  27.918  1.00  0.00    -0.248 NA
ATOM     43  C   UNL A   1      40.756  26.659  28.194  1.00  0.00     0.031 C 
ATOM     44  C   UNL A   1      42.636  31.255  29.027  1.00  0.00     0.029 A 
ATOM     45  N   UNL A   1      44.038  29.677  28.289  1.00  0.00    -0.354 N 
ATOM     46  C   UNL A   1      42.732  25.618  27.692  1.00  0.00     0.074 A 
ATOM     47  C   UNL A   1      41.311  25.484  27.934  1.00  0.00     0.031 C 
ATOM     48  C   UNL A   1      43.847  31.819  28.904  1.00  0.00     0.029 A 
ATOM     49  C   UNL A   1      44.800  30.809  28.454  1.00  0.00     0.049 A 
ATOM     50  H   UNL A   1      44.405  28.823  27.965  1.00  0.00     0.167 HD
ATOM     51  C   UNL A   1      43.538  24.602  27.300  1.00  0.00     0.037 A 
ATOM     52  C   UNL A   1      46.119  31.012  28.276  1.00  0.00     0.037 A 
ATOM     53  C   UNL A   1      44.943  24.739  27.016  1.00  0.00     0.049 A 
ATOM     54  C   UNL A   1      46.988  29.877  27.813  1.00  0.00     0.074 A 
ATOM     55  C   UNL A   1      45.829  23.778  26.561  1.00  0.00     0.029 A 
ATOM     56  N   UNL A   1      45.664  25.916  27.150  1.00  0.00    -0.354 N 
ATOM     57  N   UNL A   1      46.658  28.632  27.571  1.00  0.00    -0.248 NA
ATOM     58  C   UNL A   1      48.411  30.176  27.594  1.00  0.00     0.031 C 
ATOM     59  C   UNL A   1      47.093  24.365  26.445  1.00  0.00     0.029 A 
ATOM     60  C   UNL A   1      46.986  25.702  26.792  1.00  0.00     0.049 A 
ATOM     61  H   UNL A   1      45.292  26.775  27.454  1.00  0.00     0.167 HD
ATOM     62  C   UNL A   1      47.824  28.005  27.153  1.00  0.00     0.074 A 
ATOM     63  C   UNL A   1      48.867  29.010  27.161  1.00  0.00     0.031 C 
ATOM     64  C   UNL A   1      48.012  26.712  26.798  1.00  0.00     0.037 A 
BRANCH  51  65
ATOM     65  C   UNL A   1      42.915  23.245  27.142  1.00  0.00     0.057 A 
ATOM     66  C   UNL A   1      42.660  22.420  28.244  1.00  0.00     0.134 A 
ATOM     67  C   UNL A   1      42.530  22.776  25.880  1.00  0.00     0.134 A 
ATOM     68  F   UNL A   1      43.013  22.807  29.480  1.00  0.00    -0.206 F 
ATOM     69  C   UNL A   1      42.065  21.166  28.095  1.00  0.00     0.040 A 
ATOM     70  C   UNL A   1      41.912  21.534  25.721  1.00  0.00     0.040 A 
ATOM     71  F   UNL A   1      42.740  23.520  24.783  1.00  0.00    -0.206 F 
ATOM     72  C   UNL A   1      41.684  20.723  26.831  1.00  0.00     0.006 A 
ENDBRANCH  51  65
BRANCH  52  73
ATOM     73  C   UNL A   1      46.698  32.356  28.521  1.00  0.00     0.057 A 
ATOM     74  C   UNL A   1      46.777  33.304  27.494  1.00  0.00     0.134 A 
ATOM     75  C   UNL A   1      47.176  32.728  29.783  1.00  0.00     0.134 A 
ATOM     76  F   UNL A   1      46.353  32.997  26.260  1.00  0.00    -0.206 F 
ATOM     77  C   UNL A   1      47.324  34.569  27.709  1.00  0.00     0.040 A 
ATOM     78  C   UNL A   1      47.704  33.999  30.018  1.00  0.00     0.040 A 
ATOM     79  F   UNL A   1      47.118  31.867  30.810  1.00  0.00    -0.206 F 
ATOM     80  C   UNL A   1      47.784  34.921  28.977  1.00  0.00     0.006 A 
ENDBRANCH  52  73
BRANCH  64  81
ATOM     81  C   UNL A   1      49.389  26.313  26.357  1.00  0.00     0.057 A 
ATOM     82  C   UNL A   1      49.867  26.613  25.076  1.00  0.00     0.134 A 
ATOM     83  C   UNL A   1      50.260  25.663  27.241  1.00  0.00     0.134 A 
ATOM     84  F   UNL A   1      49.076  27.223  24.180  1.00  0.00    -0.206 F 
ATOM     85  C   UNL A   1      51.161  26.265  24.683  1.00  0.00     0.040 A 
ATOM     86  C   UNL A   1      51.562  25.331  26.866  1.00  0.00     0.040 A 
ATOM     87  F   UNL A   1      49.863  25.355  28.484  1.00  0.00    -0.206 F 
ATOM     88  C   UNL A   1      52.014  25.629  25.582  1.00  0.00     0.006 A 
ENDBRANCH  64  81
ENDBRANCH  38  39
ENDBRANCH  30  33
ENDBRANCH  28  29
ENDBRANCH  27  28
ENDBRANCH   1  27
TORSDOF 14
ENDMDL
MODEL 2
REMARK VINA RESULT:     -12.0      5.154      7.556
REMARK SMILES COc1ccc(NS(=O)(=O)c2ccc(Cl)c(C(=O)NCCCNC(=O)c3ccc(-c4c5nc(c(-c6c(F)cccc6F)c6ccc([nH]6)c(-c6c(F)cccc6F)c6nc(c(-c7c(F)cccc7F)c7ccc4[nH]7)C=C6)C=C5)cc3)c2)cc1Cl
REMARK SMILES IDX 20 1 19 2 17 3 18 4 16 6 11 7 12 8 80 9 13 10 14 11 15 12
REMARK SMILES IDX 8 13 9 14 10 15 7 16 6 18 3 19 4 20 82 21 5 22 81 23 83 24
REMARK SMILES IDX 2 25 1 26 21 27 22 28 23 29 24 30 25 32 26 33 27 34 79 35
REMARK SMILES IDX 28 36 78 37 29 38 30 39 31 40 72 41 32 42 77 43 71 44 73 45
REMARK SMILES IDX 33 46 76 47 70 48 69 49 34 51 60 52 43 53 59 54 44 55 47 56
REMARK SMILES IDX 58 57 74 58 45 59 46 60 57 62 75 63 48 64 35 65 36 66 41 67
REMARK SMILES IDX 37 68 38 69 40 70 42 71 39 72 61 73 62 74 67 75 63 76 64 77
REMARK SMILES IDX 66 78 68 79 65 80 49 81 50 82 55 83 51 84 52 85 54 86 56 87
REMARK SMILES IDX 53 88
REMARK H PARENT 19 5 7 17 23 31 73 50 47 61
REMARK Flexibility Score: inf
ROOT
ATOM      1  C   UNL A   1      31.532  30.505  26.318  1.00  0.00     0.118 C 
ENDROOT
BRANCH   1   2
ATOM      2  N   UNL A   1      32.516  30.095  25.327  1.00  0.00    -0.352 N 
ATOM      3  C   UNL A   1      32.427  29.204  24.281  1.00  0.00     0.252 C 
ATOM      4  O   UNL A   1      33.378  29.118  23.505  1.00  0.00    -0.269 OA
ATOM      5  H   UNL A   1      33.395  30.530  25.419  1.00  0.00     0.163 HD
BRANCH   3   6
ATOM      6  C   UNL A   1      31.315  28.228  24.151  1.00  0.00     0.059 A 
ATOM      7  C   UNL A   1      30.388  26.172  25.076  1.00  0.00     0.088 A 
ATOM      8  C   UNL A   1      29.209  26.387  24.360  1.00  0.00     0.024 A 
ATOM      9  C   UNL A   1      31.450  27.067  24.939  1.00  0.00     0.037 A 
ATOM     10  C   UNL A   1      29.123  27.464  23.473  1.00  0.00     0.023 A 
ATOM     11  C   UNL A   1      30.188  28.366  23.340  1.00  0.00     0.053 A 
ATOM     12  Cl  UNL A   1      30.071  29.531  22.072  1.00  0.00    -0.083 Cl
BRANCH   7  13
ATOM     13  S   UNL A   1      30.427  24.775  26.184  1.00  0.00     0.261 S 
ATOM     14  O   UNL A   1      29.153  24.789  26.876  1.00  0.00    -0.201 OA
ATOM     15  O   UNL A   1      31.677  24.847  26.904  1.00  0.00    -0.201 OA
BRANCH  13  16
ATOM     16  N   UNL A   1      30.399  23.387  25.261  1.00  0.00    -0.280 N 
ATOM     17  H   UNL A   1      29.518  23.096  24.931  1.00  0.00     0.180 HD
BRANCH  16  18
ATOM     18  C   UNL A   1      31.514  22.577  24.901  1.00  0.00     0.051 A 
ATOM     19  C   UNL A   1      34.046  21.413  24.615  1.00  0.00     0.137 A 
ATOM     20  C   UNL A   1      33.053  20.762  25.346  1.00  0.00     0.050 A 
ATOM     21  C   UNL A   1      33.726  22.574  23.905  1.00  0.00     0.085 A 
ATOM     22  C   UNL A   1      31.782  21.329  25.467  1.00  0.00     0.030 A 
ATOM     23  C   UNL A   1      32.473  23.167  24.074  1.00  0.00     0.051 A 
ATOM     24  Cl  UNL A   1      34.835  23.327  22.817  1.00  0.00    -0.080 Cl
BRANCH  19  25
ATOM     25  O   UNL A   1      35.286  20.834  24.634  1.00  0.00    -0.495 OA
ATOM     26  C   UNL A   1      36.145  21.436  25.610  1.00  0.00     0.278 C 
ENDBRANCH  19  25
ENDBRANCH  16  18
ENDBRANCH  13  16
ENDBRANCH   7  13
ENDBRANCH   3   6
ENDBRANCH   1   2
BRANCH   1  27
ATOM     27  C   UNL A   1      31.402  32.009  26.532  1.00  0.00     0.042 C 
BRANCH  27  28
ATOM     28  C   UNL A   1      32.656  32.744  26.993  1.00  0.00     0.118 C 
BRANCH  28  29
ATOM     29  N   UNL A   1      32.408  34.053  27.577  1.00  0.00    -0.352 N 
ATOM     30  C   UNL A   1      33.022  34.767  28.578  1.00  0.00     0.251 C 
ATOM     31  H   UNL A   1      31.643  34.524  27.173  1.00  0.00     0.163 HD
ATOM     32  O   UNL A   1      32.529  35.843  28.914  1.00  0.00    -0.269 OA
BRANCH  30  33
ATOM     33  C   UNL A   1      34.222  34.274  29.298  1.00  0.00     0.039 A 
ATOM     34  C   UNL A   1      34.027  33.517  30.463  1.00  0.00     0.014 A 
ATOM     35  C   UNL A   1      35.523  34.578  28.903  1.00  0.00     0.014 A 
ATOM     36  C   UNL A   1      35.120  32.998  31.166  1.00  0.00     0.010 A 
ATOM     37  C   UNL A   1      36.612  33.986  29.549  1.00  0.00     0.010 A 
ATOM     38  C   UNL A   1      36.425  33.183  30.684  1.00  0.00    -0.014 A 
BRANCH  38  39
ATOM     39  C   UNL A   1      37.598  32.542  31.337  1.00  0.00     0.031 A 
ATOM     40  C   UNL A   1      38.311  31.392  30.676  1.00  0.00     0.074 A 
ATOM     41  C   UNL A   1      37.974  32.936  32.571  1.00  0.00     0.049 A 
ATOM     42  N   UNL A   1      39.255  30.620  31.152  1.00  0.00    -0.248 NA
ATOM     43  C   UNL A   1      37.885  31.047  29.311  1.00  0.00     0.031 C 
ATOM     44  C   UNL A   1      37.344  34.005  33.350  1.00  0.00     0.029 A 
ATOM     45  N   UNL A   1      38.967  32.468  33.397  1.00  0.00    -0.354 N 
ATOM     46  C   UNL A   1      39.513  29.681  30.161  1.00  0.00     0.074 A 
ATOM     47  C   UNL A   1      38.599  29.957  29.073  1.00  0.00     0.031 C 
ATOM     48  C   UNL A   1      37.974  34.121  34.529  1.00  0.00     0.029 A 
ATOM     49  C   UNL A   1      39.023  33.110  34.611  1.00  0.00     0.049 A 
ATOM     50  H   UNL A   1      39.581  31.740  33.144  1.00  0.00     0.167 HD
ATOM     51  C   UNL A   1      40.439  28.692  30.147  1.00  0.00     0.037 A 
ATOM     52  C   UNL A   1      39.819  32.903  35.678  1.00  0.00     0.037 A 
ATOM     53  C   UNL A   1      41.379  28.442  31.208  1.00  0.00     0.049 A 
ATOM     54  C   UNL A   1      40.857  31.819  35.628  1.00  0.00     0.074 A 
ATOM     55  C   UNL A   1      42.389  27.497  31.260  1.00  0.00     0.029 A 
ATOM     56  N   UNL A   1      41.431  29.148  32.400  1.00  0.00    -0.354 N 
ATOM     57  N   UNL A   1      41.110  30.963  34.668  1.00  0.00    -0.248 NA
ATOM     58  C   UNL A   1      41.724  31.674  36.807  1.00  0.00     0.031 C 
ATOM     59  C   UNL A   1      43.037  27.613  32.494  1.00  0.00     0.029 A 
ATOM     60  C   UNL A   1      42.453  28.654  33.196  1.00  0.00     0.049 A 
ATOM     61  H   UNL A   1      40.832  29.889  32.645  1.00  0.00     0.167 HD
ATOM     62  C   UNL A   1      42.176  30.193  35.117  1.00  0.00     0.074 A 
ATOM     63  C   UNL A   1      42.530  30.693  36.430  1.00  0.00     0.031 C 
ATOM     64  C   UNL A   1      42.800  29.164  34.497  1.00  0.00     0.037 A 
BRANCH  51  65
ATOM     65  C   UNL A   1      40.490  27.808  28.935  1.00  0.00     0.057 A 
ATOM     66  C   UNL A   1      41.329  28.094  27.851  1.00  0.00     0.134 A 
ATOM     67  C   UNL A   1      39.722  26.639  28.868  1.00  0.00     0.134 A 
ATOM     68  F   UNL A   1      42.082  29.204  27.848  1.00  0.00    -0.206 F 
ATOM     69  C   UNL A   1      41.385  27.261  26.732  1.00  0.00     0.040 A 
ATOM     70  C   UNL A   1      39.789  25.785  27.766  1.00  0.00     0.040 A 
ATOM     71  F   UNL A   1      38.903  26.303  29.876  1.00  0.00    -0.206 F 
ATOM     72  C   UNL A   1      40.618  26.098  26.691  1.00  0.00     0.006 A 
ENDBRANCH  51  65
BRANCH  52  73
ATOM     73  C   UNL A   1      39.674  33.758  36.882  1.00  0.00     0.057 A 
ATOM     74  C   UNL A   1      38.794  33.407  37.912  1.00  0.00     0.134 A 
ATOM     75  C   UNL A   1      40.415  34.935  37.036  1.00  0.00     0.134 A 
ATOM     76  F   UNL A   1      38.044  32.300  37.810  1.00  0.00    -0.206 F 
ATOM     77  C   UNL A   1      38.644  34.204  39.047  1.00  0.00     0.040 A 
ATOM     78  C   UNL A   1      40.292  35.730  38.178  1.00  0.00     0.040 A 
ATOM     79  F   UNL A   1      41.281  35.320  36.088  1.00  0.00    -0.206 F 
ATOM     80  C   UNL A   1      39.399  35.367  39.184  1.00  0.00     0.006 A 
ENDBRANCH  52  73
BRANCH  64  81
ATOM     81  C   UNL A   1      43.952  28.526  35.214  1.00  0.00     0.057 A 
ATOM     82  C   UNL A   1      43.774  27.425  36.059  1.00  0.00     0.134 A 
ATOM     83  C   UNL A   1      45.258  28.992  35.020  1.00  0.00     0.134 A 
ATOM     84  F   UNL A   1      42.545  26.940  36.295  1.00  0.00    -0.206 F 
ATOM     85  C   UNL A   1      44.855  26.817  36.699  1.00  0.00     0.040 A 
ATOM     86  C   UNL A   1      46.349  28.378  35.637  1.00  0.00     0.040 A 
ATOM     87  F   UNL A   1      45.496  30.039  34.217  1.00  0.00    -0.206 F 
ATOM     88  C   UNL A   1      46.148  27.290  36.483  1.00  0.00     0.006 A 
ENDBRANCH  64  81
ENDBRANCH  38  39
ENDBRANCH  30  33
ENDBRANCH  28  29
ENDBRANCH  27  28
ENDBRANCH   1  27
TORSDOF 14
ENDMDL
MODEL 3
REMARK VINA RESULT:     -11.9      4.521      7.974
REMARK SMILES COc1ccc(NS(=O)(=O)c2ccc(Cl)c(C(=O)NCCCNC(=O)c3ccc(-c4c5nc(c(-c6c(F)cccc6F)c6ccc([nH]6)c(-c6c(F)cccc6F)c6nc(c(-c7c(F)cccc7F)c7ccc4[nH]7)C=C6)C=C5)cc3)c2)cc1Cl
REMARK SMILES IDX 20 1 19 2 17 3 18 4 16 6 11 7 12 8 80 9 13 10 14 11 15 12
REMARK SMILES IDX 8 13 9 14 10 15 7 16 6 18 3 19 4 20 82 21 5 22 81 23 83 24
REMARK SMILES IDX 2 25 1 26 21 27 22 28 23 29 24 30 25 32 26 33 27 34 79 35
REMARK SMILES IDX 28 36 78 37 29 38 30 39 31 40 72 41 32 42 77 43 71 44 73 45
REMARK SMILES IDX 33 46 76 47 70 48 69 49 34 51 60 52 43 53 59 54 44 55 47 56
REMARK SMILES IDX 58 57 74 58 45 59 46 60 57 62 75 63 48 64 35 65 36 66 41 67
REMARK SMILES IDX 37 68 38 69 40 70 42 71 39 72 61 73 62 74 67 75 63 76 64 77
REMARK SMILES IDX 66 78 68 79 65 80 49 81 50 82 55 83 51 84 52 85 54 86 56 87
REMARK SMILES IDX 53 88
REMARK H PARENT 19 5 7 17 23 31 73 50 47 61
REMARK Flexibility Score: inf
ROOT
ATOM      1  C   UNL A   1      30.774  30.289  24.758  1.00  0.00     0.118 C 
ENDROOT
BRANCH   1   2
ATOM      2  N   UNL A   1      30.290  30.342  23.387  1.00  0.00    -0.352 N 
ATOM      3  C   UNL A   1      29.835  29.347  22.550  1.00  0.00     0.252 C 
ATOM      4  O   UNL A   1      29.367  29.669  21.459  1.00  0.00    -0.269 OA
ATOM      5  H   UNL A   1      30.287  31.243  22.988  1.00  0.00     0.163 HD
BRANCH   3   6
ATOM      6  C   UNL A   1      30.042  27.904  22.834  1.00  0.00     0.059 A 
ATOM      7  C   UNL A   1      31.690  26.108  22.780  1.00  0.00     0.088 A 
ATOM      8  C   UNL A   1      30.835  25.308  23.540  1.00  0.00     0.024 A 
ATOM      9  C   UNL A   1      31.276  27.384  22.395  1.00  0.00     0.037 A 
ATOM     10  C   UNL A   1      29.556  25.769  23.861  1.00  0.00     0.023 A 
ATOM     11  C   UNL A   1      29.143  27.054  23.479  1.00  0.00     0.053 A 
ATOM     12  Cl  UNL A   1      27.483  27.449  23.734  1.00  0.00    -0.083 Cl
BRANCH   7  13
ATOM     13  S   UNL A   1      33.304  25.451  22.403  1.00  0.00     0.261 S 
ATOM     14  O   UNL A   1      33.993  26.496  21.673  1.00  0.00    -0.201 OA
ATOM     15  O   UNL A   1      33.099  24.141  21.830  1.00  0.00    -0.201 OA
BRANCH  13  16
ATOM     16  N   UNL A   1      34.145  25.302  23.834  1.00  0.00    -0.280 N 
ATOM     17  H   UNL A   1      34.130  26.080  24.437  1.00  0.00     0.180 HD
BRANCH  16  18
ATOM     18  C   UNL A   1      34.885  24.168  24.278  1.00  0.00     0.051 A 
ATOM     19  C   UNL A   1      35.779  21.597  24.937  1.00  0.00     0.137 A 
ATOM     20  C   UNL A   1      36.329  22.273  23.849  1.00  0.00     0.050 A 
ATOM     21  C   UNL A   1      34.889  22.264  25.782  1.00  0.00     0.085 A 
ATOM     22  C   UNL A   1      35.903  23.566  23.536  1.00  0.00     0.030 A 
ATOM     23  C   UNL A   1      34.423  23.534  25.434  1.00  0.00     0.051 A 
ATOM     24  Cl  UNL A   1      34.320  21.573  27.258  1.00  0.00    -0.080 Cl
BRANCH  19  25
ATOM     25  O   UNL A   1      36.184  20.300  25.107  1.00  0.00    -0.495 OA
ATOM     26  C   UNL A   1      37.599  20.152  24.935  1.00  0.00     0.278 C 
ENDBRANCH  19  25
ENDBRANCH  16  18
ENDBRANCH  13  16
ENDBRANCH   7  13
ENDBRANCH   3   6
ENDBRANCH   1   2
BRANCH   1  27
ATOM     27  C   UNL A   1      30.739  31.611  25.518  1.00  0.00     0.042 C 
BRANCH  27  28
ATOM     28  C   UNL A   1      31.753  31.776  26.646  1.00  0.00     0.118 C 
BRANCH  28  29
ATOM     29  N   UNL A   1      31.988  33.154  27.049  1.00  0.00    -0.352 N 
ATOM     30  C   UNL A   1      32.982  33.763  27.776  1.00  0.00     0.251 C 
ATOM     31  H   UNL A   1      31.293  33.777  26.738  1.00  0.00     0.163 HD
ATOM     32  O   UNL A   1      32.870  34.963  28.026  1.00  0.00    -0.269 OA
BRANCH  30  33
ATOM     33  C   UNL A   1      34.156  33.028  28.309  1.00  0.00     0.039 A 
ATOM     34  C   UNL A   1      35.336  33.750  28.539  1.00  0.00     0.014 A 
ATOM     35  C   UNL A   1      34.154  31.653  28.532  1.00  0.00     0.014 A 
ATOM     36  C   UNL A   1      36.465  33.118  29.072  1.00  0.00     0.010 A 
ATOM     37  C   UNL A   1      35.247  31.038  29.148  1.00  0.00     0.010 A 
ATOM     38  C   UNL A   1      36.414  31.763  29.433  1.00  0.00    -0.014 A 
BRANCH  38  39
ATOM     39  C   UNL A   1      37.554  31.092  30.114  1.00  0.00     0.031 A 
ATOM     40  C   UNL A   1      37.858  31.377  31.561  1.00  0.00     0.074 A 
ATOM     41  C   UNL A   1      38.374  30.287  29.408  1.00  0.00     0.049 A 
ATOM     42  N   UNL A   1      38.886  31.002  32.280  1.00  0.00    -0.248 NA
ATOM     43  C   UNL A   1      36.895  32.221  32.285  1.00  0.00     0.031 C 
ATOM     44  C   UNL A   1      38.227  29.959  27.989  1.00  0.00     0.029 A 
ATOM     45  N   UNL A   1      39.509  29.612  29.787  1.00  0.00    -0.354 N 
ATOM     46  C   UNL A   1      38.709  31.587  33.528  1.00  0.00     0.074 A 
ATOM     47  C   UNL A   1      37.497  32.375  33.455  1.00  0.00     0.031 C 
ATOM     48  C   UNL A   1      39.221  29.136  27.621  1.00  0.00     0.029 A 
ATOM     49  C   UNL A   1      40.101  28.911  28.763  1.00  0.00     0.049 A 
ATOM     50  H   UNL A   1      39.867  29.630  30.704  1.00  0.00     0.167 HD
ATOM     51  C   UNL A   1      39.474  31.465  34.640  1.00  0.00     0.037 A 
ATOM     52  C   UNL A   1      41.231  28.178  28.739  1.00  0.00     0.037 A 
ATOM     53  C   UNL A   1      40.657  30.648  34.730  1.00  0.00     0.049 A 
ATOM     54  C   UNL A   1      42.047  28.034  29.992  1.00  0.00     0.074 A 
ATOM     55  C   UNL A   1      41.466  30.420  35.830  1.00  0.00     0.029 A 
ATOM     56  N   UNL A   1      41.192  29.916  33.681  1.00  0.00    -0.354 N 
ATOM     57  N   UNL A   1      41.847  28.567  31.172  1.00  0.00    -0.248 NA
ATOM     58  C   UNL A   1      43.244  27.184  29.911  1.00  0.00     0.031 C 
ATOM     59  C   UNL A   1      42.507  29.571  35.440  1.00  0.00     0.029 A 
ATOM     60  C   UNL A   1      42.325  29.242  34.107  1.00  0.00     0.049 A 
ATOM     61  H   UNL A   1      40.823  29.881  32.769  1.00  0.00     0.167 HD
ATOM     62  C   UNL A   1      42.878  28.102  31.979  1.00  0.00     0.074 A 
ATOM     63  C   UNL A   1      43.694  27.233  31.156  1.00  0.00     0.031 C 
ATOM     64  C   UNL A   1      43.125  28.375  33.282  1.00  0.00     0.037 A 
BRANCH  51  65
ATOM     65  C   UNL A   1      39.048  32.228  35.861  1.00  0.00     0.057 A 
ATOM     66  C   UNL A   1      39.467  33.545  36.088  1.00  0.00     0.134 A 
ATOM     67  C   UNL A   1      38.179  31.654  36.796  1.00  0.00     0.134 A 
ATOM     68  F   UNL A   1      40.308  34.148  35.234  1.00  0.00    -0.206 F 
ATOM     69  C   UNL A   1      39.056  34.256  37.217  1.00  0.00     0.040 A 
ATOM     70  C   UNL A   1      37.741  32.365  37.916  1.00  0.00     0.040 A 
ATOM     71  F   UNL A   1      37.735  30.399  36.635  1.00  0.00    -0.206 F 
ATOM     72  C   UNL A   1      38.185  33.668  38.131  1.00  0.00     0.006 A 
ENDBRANCH  51  65
BRANCH  52  73
ATOM     73  C   UNL A   1      41.647  27.507  27.483  1.00  0.00     0.057 A 
ATOM     74  C   UNL A   1      41.299  26.175  27.229  1.00  0.00     0.134 A 
ATOM     75  C   UNL A   1      42.393  28.179  26.507  1.00  0.00     0.134 A 
ATOM     76  F   UNL A   1      40.603  25.476  28.137  1.00  0.00    -0.206 F 
ATOM     77  C   UNL A   1      41.689  25.530  26.055  1.00  0.00     0.040 A 
ATOM     78  C   UNL A   1      42.770  27.552  25.317  1.00  0.00     0.040 A 
ATOM     79  F   UNL A   1      42.748  29.459  26.689  1.00  0.00    -0.206 F 
ATOM     80  C   UNL A   1      42.422  26.222  25.092  1.00  0.00     0.006 A 
ENDBRANCH  52  73
BRANCH  64  81
ATOM     81  C   UNL A   1      44.308  27.703  33.912  1.00  0.00     0.057 A 
ATOM     82  C   UNL A   1      45.566  28.317  33.955  1.00  0.00     0.134 A 
ATOM     83  C   UNL A   1      44.175  26.450  34.523  1.00  0.00     0.134 A 
ATOM     84  F   UNL A   1      45.760  29.512  33.377  1.00  0.00    -0.206 F 
ATOM     85  C   UNL A   1      46.656  27.699  34.571  1.00  0.00     0.040 A 
ATOM     86  C   UNL A   1      45.252  25.833  35.160  1.00  0.00     0.040 A 
ATOM     87  F   UNL A   1      42.995  25.814  34.521  1.00  0.00    -0.206 F 
ATOM     88  C   UNL A   1      46.498  26.456  35.182  1.00  0.00     0.006 A 
ENDBRANCH  64  81
ENDBRANCH  38  39
ENDBRANCH  30  33
ENDBRANCH  28  29
ENDBRANCH  27  28
ENDBRANCH   1  27
TORSDOF 14
ENDMDL
