MODEL 1
REMARK VINA RESULT:     -11.1      0.000      0.000
REMARK SMILES Cc1cc(NC[C@H](C)[NH+](C)C)cc(C(=O)NCCCNC(=O)c2ccc(-c3c4nc(c(-c5c(F)cccc5F)c5ccc([nH]5)c(-c5c(F)cccc5F)c5nc(c(-c6c(F)cccc6F)c6ccc3[nH]6)C=C5)C=C4)cc2)c1N
REMARK SMILES IDX 17 1 16 2 14 3 15 4 13 6 1 7 2 8 3 9 77 10 4 11 12 12 78 13
REMARK SMILES IDX 5 16 6 18 7 19 8 20 9 21 10 22 11 23 18 25 19 26 20 27 21 28
REMARK SMILES IDX 22 30 23 31 24 32 76 33 25 34 75 35 26 36 27 37 28 38 69 39
REMARK SMILES IDX 29 40 74 41 68 42 70 43 30 44 73 45 67 46 66 47 31 49 57 50
REMARK SMILES IDX 40 51 56 52 41 53 44 54 55 55 71 56 42 57 43 58 54 60 72 61
REMARK SMILES IDX 45 62 32 63 33 64 38 65 34 66 35 67 37 68 39 69 36 70 58 71
REMARK SMILES IDX 59 72 64 73 60 74 61 75 63 76 65 77 62 78 46 79 47 80 52 81
REMARK SMILES IDX 48 82 49 83 51 84 53 85 50 86
REMARK H PARENT 16 5 78 14 78 15 5 17 9 24 20 29 70 48 44 59
REMARK Flexibility Score: inf
ROOT
ATOM      1  C   UNL A   1      37.913  21.743  25.408  1.00  0.00     0.118 C 
ENDROOT
BRANCH   1   2
ATOM      2  N   UNL A   1      37.376  22.395  24.226  1.00  0.00    -0.352 N 
ATOM      3  C   UNL A   1      36.101  22.722  23.821  1.00  0.00     0.253 C 
ATOM      4  O   UNL A   1      36.009  23.304  22.737  1.00  0.00    -0.269 OA
ATOM      5  H   UNL A   1      38.069  22.657  23.577  1.00  0.00     0.163 HD
BRANCH   3   6
ATOM      6  C   UNL A   1      34.869  22.447  24.630  1.00  0.00     0.065 A 
ATOM      7  C   UNL A   1      32.132  24.314  26.547  1.00  0.00     0.046 C 
ATOM      8  C   UNL A   1      32.985  23.219  25.963  1.00  0.00    -0.025 A 
ATOM      9  C   UNL A   1      32.642  21.878  26.227  1.00  0.00     0.031 A 
ATOM     10  C   UNL A   1      34.111  23.516  25.164  1.00  0.00     0.047 A 
ATOM     11  C   UNL A   1      33.372  20.818  25.692  1.00  0.00     0.035 A 
ATOM     12  C   UNL A   1      34.415  21.138  24.825  1.00  0.00     0.041 A 
BRANCH  10  13
ATOM     13  N   UNL A   1      34.540  24.842  25.038  1.00  0.00    -0.398 N 
ATOM     14  H   UNL A   1      35.425  25.039  24.655  1.00  0.00     0.156 HD
ATOM     15  H   UNL A   1      33.957  25.578  25.333  1.00  0.00     0.156 HD
ENDBRANCH  10  13
BRANCH  11  16
ATOM     16  N   UNL A   1      33.049  19.505  26.007  1.00  0.00    -0.379 N 
ATOM     17  H   UNL A   1      33.035  19.223  26.950  1.00  0.00     0.160 HD
BRANCH  16  18
ATOM     18  C   UNL A   1      32.728  18.533  24.959  1.00  0.00     0.177 C 
BRANCH  18  19
ATOM     19  C   UNL A   1      33.906  17.579  24.611  1.00  0.00     0.199 C 
ATOM     20  C   UNL A   1      33.726  17.087  23.162  1.00  0.00     0.077 C 
BRANCH  19  21
ATOM     21  N   UNL A   1      34.145  16.427  25.517  1.00  0.00    -0.336 N 
ATOM     22  C   UNL A   1      33.093  15.416  25.431  1.00  0.00     0.332 C 
ATOM     23  C   UNL A   1      35.456  15.794  25.368  1.00  0.00     0.332 C 
ATOM     24  H   UNL A   1      34.128  16.848  26.445  1.00  0.00     0.347 HD
ENDBRANCH  19  21
ENDBRANCH  18  19
ENDBRANCH  16  18
ENDBRANCH  11  16
ENDBRANCH   3   6
ENDBRANCH   1   2
BRANCH   1  25
ATOM     25  C   UNL A   1      38.726  20.501  25.032  1.00  0.00     0.042 C 
BRANCH  25  26
ATOM     26  C   UNL A   1      39.270  19.748  26.242  1.00  0.00     0.118 C 
BRANCH  26  27
ATOM     27  N   UNL A   1      40.536  19.093  25.946  1.00  0.00    -0.352 N 
ATOM     28  C   UNL A   1      41.810  19.604  25.921  1.00  0.00     0.251 C 
ATOM     29  H   UNL A   1      40.467  18.135  25.729  1.00  0.00     0.163 HD
ATOM     30  O   UNL A   1      42.715  18.945  25.424  1.00  0.00    -0.269 OA
BRANCH  28  31
ATOM     31  C   UNL A   1      42.096  20.944  26.479  1.00  0.00     0.039 A 
ATOM     32  C   UNL A   1      42.122  21.102  27.868  1.00  0.00     0.014 A 
ATOM     33  C   UNL A   1      42.288  22.051  25.648  1.00  0.00     0.014 A 
ATOM     34  C   UNL A   1      42.391  22.355  28.422  1.00  0.00     0.010 A 
ATOM     35  C   UNL A   1      42.622  23.285  26.200  1.00  0.00     0.010 A 
ATOM     36  C   UNL A   1      42.672  23.451  27.592  1.00  0.00    -0.014 A 
BRANCH  36  37
ATOM     37  C   UNL A   1      43.020  24.779  28.157  1.00  0.00     0.031 A 
ATOM     38  C   UNL A   1      41.949  25.807  28.391  1.00  0.00     0.074 A 
ATOM     39  C   UNL A   1      44.311  25.084  28.389  1.00  0.00     0.049 A 
ATOM     40  N   UNL A   1      42.065  27.050  28.781  1.00  0.00    -0.248 NA
ATOM     41  C   UNL A   1      40.562  25.388  28.127  1.00  0.00     0.031 C 
ATOM     42  C   UNL A   1      45.447  24.187  28.162  1.00  0.00     0.029 A 
ATOM     43  N   UNL A   1      44.889  26.241  28.849  1.00  0.00    -0.354 N 
ATOM     44  C   UNL A   1      40.776  27.567  28.788  1.00  0.00     0.074 A 
ATOM     45  C   UNL A   1      39.897  26.517  28.322  1.00  0.00     0.031 C 
ATOM     46  C   UNL A   1      46.582  24.822  28.496  1.00  0.00     0.029 A 
ATOM     47  C   UNL A   1      46.259  26.181  28.921  1.00  0.00     0.049 A 
ATOM     48  H   UNL A   1      44.370  27.038  29.104  1.00  0.00     0.167 HD
ATOM     49  C   UNL A   1      40.361  28.800  29.167  1.00  0.00     0.037 A 
ATOM     50  C   UNL A   1      47.157  27.119  29.275  1.00  0.00     0.037 A 
ATOM     51  C   UNL A   1      41.237  29.834  29.655  1.00  0.00     0.049 A 
ATOM     52  C   UNL A   1      46.671  28.481  29.689  1.00  0.00     0.074 A 
ATOM     53  C   UNL A   1      40.906  31.093  30.123  1.00  0.00     0.029 A 
ATOM     54  N   UNL A   1      42.617  29.724  29.737  1.00  0.00    -0.354 N 
ATOM     55  N   UNL A   1      45.444  28.936  29.751  1.00  0.00    -0.248 NA
ATOM     56  C   UNL A   1      47.696  29.457  30.087  1.00  0.00     0.031 C 
ATOM     57  C   UNL A   1      42.091  31.762  30.449  1.00  0.00     0.029 A 
ATOM     58  C   UNL A   1      43.155  30.903  30.229  1.00  0.00     0.049 A 
ATOM     59  H   UNL A   1      43.137  28.928  29.484  1.00  0.00     0.167 HD
ATOM     60  C   UNL A   1      45.545  30.239  30.219  1.00  0.00     0.074 A 
ATOM     61  C   UNL A   1      46.953  30.498  30.437  1.00  0.00     0.031 C 
ATOM     62  C   UNL A   1      44.558  31.140  30.448  1.00  0.00     0.037 A 
BRANCH  49  63
ATOM     63  C   UNL A   1      38.894  29.100  29.068  1.00  0.00     0.057 A 
ATOM     64  C   UNL A   1      38.042  28.999  30.177  1.00  0.00     0.134 A 
ATOM     65  C   UNL A   1      38.331  29.533  27.860  1.00  0.00     0.134 A 
ATOM     66  F   UNL A   1      38.515  28.581  31.361  1.00  0.00    -0.206 F 
ATOM     67  C   UNL A   1      36.680  29.293  30.082  1.00  0.00     0.040 A 
ATOM     68  C   UNL A   1      36.976  29.854  27.759  1.00  0.00     0.040 A 
ATOM     69  F   UNL A   1      39.090  29.658  26.762  1.00  0.00    -0.206 F 
ATOM     70  C   UNL A   1      36.145  29.728  28.871  1.00  0.00     0.006 A 
ENDBRANCH  49  63
BRANCH  50  71
ATOM     71  C   UNL A   1      48.607  26.799  29.268  1.00  0.00     0.057 A 
ATOM     72  C   UNL A   1      49.213  26.180  30.367  1.00  0.00     0.134 A 
ATOM     73  C   UNL A   1      49.418  27.100  28.169  1.00  0.00     0.134 A 
ATOM     74  F   UNL A   1      48.490  25.882  31.458  1.00  0.00    -0.206 F 
ATOM     75  C   UNL A   1      50.578  25.889  30.381  1.00  0.00     0.040 A 
ATOM     76  C   UNL A   1      50.779  26.792  28.159  1.00  0.00     0.040 A 
ATOM     77  F   UNL A   1      48.896  27.685  27.081  1.00  0.00    -0.206 F 
ATOM     78  C   UNL A   1      51.364  26.191  29.271  1.00  0.00     0.006 A 
ENDBRANCH  50  71
BRANCH  62  79
ATOM     79  C   UNL A   1      44.963  32.478  30.994  1.00  0.00     0.057 A 
ATOM     80  C   UNL A   1      45.235  33.567  30.157  1.00  0.00     0.134 A 
ATOM     81  C   UNL A   1      45.034  32.689  32.378  1.00  0.00     0.134 A 
ATOM     82  F   UNL A   1      45.198  33.426  28.824  1.00  0.00    -0.206 F 
ATOM     83  C   UNL A   1      45.582  34.815  30.677  1.00  0.00     0.040 A 
ATOM     84  C   UNL A   1      45.354  33.939  32.909  1.00  0.00     0.040 A 
ATOM     85  F   UNL A   1      44.777  31.689  33.234  1.00  0.00    -0.206 F 
ATOM     86  C   UNL A   1      45.633  35.005  32.057  1.00  0.00     0.006 A 
ENDBRANCH  62  79
ENDBRANCH  36  37
ENDBRANCH  28  31
ENDBRANCH  26  27
ENDBRANCH  25  26
ENDBRANCH   1  25
TORSDOF 15
ENDMDL
MODEL 2
REMARK VINA RESULT:     -11.1      0.376      6.448
REMARK SMILES Cc1cc(NC[C@H](C)[NH+](C)C)cc(C(=O)NCCCNC(=O)c2ccc(-c3c4nc(c(-c5c(F)cccc5F)c5ccc([nH]5)c(-c5c(F)cccc5F)c5nc(c(-c6c(F)cccc6F)c6ccc3[nH]6)C=C5)C=C4)cc2)c1N
REMARK SMILES IDX 17 1 16 2 14 3 15 4 13 6 1 7 2 8 3 9 77 10 4 11 12 12 78 13
REMARK SMILES IDX 5 16 6 18 7 19 8 20 9 21 10 22 11 23 18 25 19 26 20 27 21 28
REMARK SMILES IDX 22 30 23 31 24 32 76 33 25 34 75 35 26 36 27 37 28 38 69 39
REMARK SMILES IDX 29 40 74 41 68 42 70 43 30 44 73 45 67 46 66 47 31 49 57 50
REMARK SMILES IDX 40 51 56 52 41 53 44 54 55 55 71 56 42 57 43 58 54 60 72 61
REMARK SMILES IDX 45 62 32 63 33 64 38 65 34 66 35 67 37 68 39 69 36 70 58 71
REMARK SMILES IDX 59 72 64 73 60 74 61 75 63 76 65 77 62 78 46 79 47 80 52 81
REMARK SMILES IDX 48 82 49 83 51 84 53 85 50 86
REMARK H PARENT 16 5 78 14 78 15 5 17 9 24 20 29 70 48 44 59
REMARK Flexibility Score: inf
ROOT
ATOM      1  C   UNL A   1      37.903  21.734  25.430  1.00  0.00     0.118 C 
ENDROOT
BRANCH   1   2
ATOM      2  N   UNL A   1      37.385  22.389  24.240  1.00  0.00    -0.352 N 
ATOM      3  C   UNL A   1      36.117  22.718  23.815  1.00  0.00     0.253 C 
ATOM      4  O   UNL A   1      36.042  23.301  22.731  1.00  0.00    -0.269 OA
ATOM      5  H   UNL A   1      38.089  22.652  23.603  1.00  0.00     0.163 HD
BRANCH   3   6
ATOM      6  C   UNL A   1      34.872  22.441  24.603  1.00  0.00     0.065 A 
ATOM      7  C   UNL A   1      32.106  24.306  26.481  1.00  0.00     0.046 C 
ATOM      8  C   UNL A   1      32.968  23.212  25.908  1.00  0.00    -0.025 A 
ATOM      9  C   UNL A   1      32.620  21.870  26.164  1.00  0.00     0.031 A 
ATOM     10  C   UNL A   1      34.106  23.510  25.128  1.00  0.00     0.047 A 
ATOM     11  C   UNL A   1      33.357  20.811  25.637  1.00  0.00     0.035 A 
ATOM     12  C   UNL A   1      34.414  21.133  24.788  1.00  0.00     0.041 A 
BRANCH  10  13
ATOM     13  N   UNL A   1      34.538  24.836  25.013  1.00  0.00    -0.398 N 
ATOM     14  H   UNL A   1      34.524  25.429  25.798  1.00  0.00     0.156 HD
ATOM     15  H   UNL A   1      34.857  25.176  24.146  1.00  0.00     0.156 HD
ENDBRANCH  10  13
BRANCH  11  16
ATOM     16  N   UNL A   1      33.028  19.497  25.944  1.00  0.00    -0.379 N 
ATOM     17  H   UNL A   1      32.979  19.219  26.887  1.00  0.00     0.160 HD
BRANCH  16  18
ATOM     18  C   UNL A   1      32.752  18.520  24.888  1.00  0.00     0.177 C 
BRANCH  18  19
ATOM     19  C   UNL A   1      33.948  17.574  24.586  1.00  0.00     0.199 C 
ATOM     20  C   UNL A   1      33.809  17.055  23.142  1.00  0.00     0.077 C 
BRANCH  19  21
ATOM     21  N   UNL A   1      34.178  16.441  25.517  1.00  0.00    -0.336 N 
ATOM     22  C   UNL A   1      33.132  15.422  25.432  1.00  0.00     0.332 C 
ATOM     23  C   UNL A   1      35.493  15.812  25.403  1.00  0.00     0.332 C 
ATOM     24  H   UNL A   1      34.142  16.879  26.437  1.00  0.00     0.347 HD
ENDBRANCH  19  21
ENDBRANCH  18  19
ENDBRANCH  16  18
ENDBRANCH  11  16
ENDBRANCH   3   6
ENDBRANCH   1   2
BRANCH   1  25
ATOM     25  C   UNL A   1      38.746  20.510  25.063  1.00  0.00     0.042 C 
BRANCH  25  26
ATOM     26  C   UNL A   1      39.294  19.770  26.279  1.00  0.00     0.118 C 
BRANCH  26  27
ATOM     27  N   UNL A   1      40.544  19.089  25.979  1.00  0.00    -0.352 N 
ATOM     28  C   UNL A   1      41.827  19.577  25.933  1.00  0.00     0.251 C 
ATOM     29  H   UNL A   1      40.457  18.129  25.776  1.00  0.00     0.163 HD
ATOM     30  O   UNL A   1      42.715  18.896  25.435  1.00  0.00    -0.269 OA
BRANCH  28  31
ATOM     31  C   UNL A   1      42.142  20.920  26.469  1.00  0.00     0.039 A 
ATOM     32  C   UNL A   1      42.544  21.921  25.580  1.00  0.00     0.014 A 
ATOM     33  C   UNL A   1      42.095  21.183  27.841  1.00  0.00     0.014 A 
ATOM     34  C   UNL A   1      42.847  23.197  26.058  1.00  0.00     0.010 A 
ATOM     35  C   UNL A   1      42.332  22.473  28.310  1.00  0.00     0.010 A 
ATOM     36  C   UNL A   1      42.716  23.491  27.424  1.00  0.00    -0.014 A 
BRANCH  36  37
ATOM     37  C   UNL A   1      42.974  24.856  27.948  1.00  0.00     0.031 A 
ATOM     38  C   UNL A   1      44.357  25.252  28.382  1.00  0.00     0.074 A 
ATOM     39  C   UNL A   1      41.946  25.713  28.103  1.00  0.00     0.049 A 
ATOM     40  N   UNL A   1      44.761  26.356  28.956  1.00  0.00    -0.248 NA
ATOM     41  C   UNL A   1      45.427  24.263  28.165  1.00  0.00     0.031 C 
ATOM     42  C   UNL A   1      40.550  25.432  27.760  1.00  0.00     0.029 A 
ATOM     43  N   UNL A   1      41.913  26.989  28.608  1.00  0.00    -0.354 N 
ATOM     44  C   UNL A   1      46.120  26.188  29.187  1.00  0.00     0.074 A 
ATOM     45  C   UNL A   1      46.465  24.858  28.732  1.00  0.00     0.031 C 
ATOM     46  C   UNL A   1      39.801  26.507  28.051  1.00  0.00     0.029 A 
ATOM     47  C   UNL A   1      40.653  27.536  28.638  1.00  0.00     0.049 A 
ATOM     48  H   UNL A   1      42.716  27.466  28.919  1.00  0.00     0.167 HD
ATOM     49  C   UNL A   1      47.004  27.069  29.714  1.00  0.00     0.037 A 
ATOM     50  C   UNL A   1      40.230  28.728  29.100  1.00  0.00     0.037 A 
ATOM     51  C   UNL A   1      46.662  28.400  30.141  1.00  0.00     0.049 A 
ATOM     52  C   UNL A   1      41.231  29.687  29.682  1.00  0.00     0.074 A 
ATOM     53  C   UNL A   1      47.497  29.390  30.628  1.00  0.00     0.029 A 
ATOM     54  N   UNL A   1      45.379  28.927  30.130  1.00  0.00    -0.354 N 
ATOM     55  N   UNL A   1      42.524  29.538  29.837  1.00  0.00    -0.248 NA
ATOM     56  C   UNL A   1      40.714  30.982  30.149  1.00  0.00     0.031 C 
ATOM     57  C   UNL A   1      46.713  30.502  30.953  1.00  0.00     0.029 A 
ATOM     58  C   UNL A   1      45.397  30.221  30.624  1.00  0.00     0.049 A 
ATOM     59  H   UNL A   1      44.576  28.451  29.819  1.00  0.00     0.167 HD
ATOM     60  C   UNL A   1      42.979  30.726  30.393  1.00  0.00     0.074 A 
ATOM     61  C   UNL A   1      41.826  31.591  30.537  1.00  0.00     0.031 C 
ATOM     62  C   UNL A   1      44.240  31.071  30.752  1.00  0.00     0.037 A 
BRANCH  49  63
ATOM     63  C   UNL A   1      48.430  26.621  29.858  1.00  0.00     0.057 A 
ATOM     64  C   UNL A   1      49.390  26.878  28.869  1.00  0.00     0.134 A 
ATOM     65  C   UNL A   1      48.859  25.958  31.016  1.00  0.00     0.134 A 
ATOM     66  F   UNL A   1      49.044  27.498  27.731  1.00  0.00    -0.206 F 
ATOM     67  C   UNL A   1      50.717  26.470  29.015  1.00  0.00     0.040 A 
ATOM     68  C   UNL A   1      50.189  25.569  31.185  1.00  0.00     0.040 A 
ATOM     69  F   UNL A   1      47.994  25.687  32.004  1.00  0.00    -0.206 F 
ATOM     70  C   UNL A   1      51.121  25.820  30.179  1.00  0.00     0.006 A 
ENDBRANCH  49  63
BRANCH  50  71
ATOM     71  C   UNL A   1      38.792  29.087  29.017  1.00  0.00     0.057 A 
ATOM     72  C   UNL A   1      38.233  29.552  27.821  1.00  0.00     0.134 A 
ATOM     73  C   UNL A   1      37.944  28.973  30.124  1.00  0.00     0.134 A 
ATOM     74  F   UNL A   1      39.000  29.698  26.729  1.00  0.00    -0.206 F 
ATOM     75  C   UNL A   1      36.887  29.910  27.733  1.00  0.00     0.040 A 
ATOM     76  C   UNL A   1      36.590  29.304  30.044  1.00  0.00     0.040 A 
ATOM     77  F   UNL A   1      38.416  28.525  31.297  1.00  0.00    -0.206 F 
ATOM     78  C   UNL A   1      36.060  29.780  28.847  1.00  0.00     0.006 A 
ENDBRANCH  50  71
BRANCH  62  79
ATOM     79  C   UNL A   1      44.446  32.452  31.301  1.00  0.00     0.057 A 
ATOM     80  C   UNL A   1      44.412  32.713  32.677  1.00  0.00     0.134 A 
ATOM     81  C   UNL A   1      44.729  33.523  30.444  1.00  0.00     0.134 A 
ATOM     82  F   UNL A   1      44.133  31.733  33.548  1.00  0.00    -0.206 F 
ATOM     83  C   UNL A   1      44.634  33.996  33.179  1.00  0.00     0.040 A 
ATOM     84  C   UNL A   1      44.978  34.805  30.937  1.00  0.00     0.040 A 
ATOM     85  F   UNL A   1      44.784  33.338  29.117  1.00  0.00    -0.206 F 
ATOM     86  C   UNL A   1      44.927  35.044  32.308  1.00  0.00     0.006 A 
ENDBRANCH  62  79
ENDBRANCH  36  37
ENDBRANCH  28  31
ENDBRANCH  26  27
ENDBRANCH  25  26
ENDBRANCH   1  25
TORSDOF 15
ENDMDL
MODEL 3
REMARK VINA RESULT:     -10.9      0.506      1.793
REMARK SMILES Cc1cc(NC[C@H](C)[NH+](C)C)cc(C(=O)NCCCNC(=O)c2ccc(-c3c4nc(c(-c5c(F)cccc5F)c5ccc([nH]5)c(-c5c(F)cccc5F)c5nc(c(-c6c(F)cccc6F)c6ccc3[nH]6)C=C5)C=C4)cc2)c1N
REMARK SMILES IDX 17 1 16 2 14 3 15 4 13 6 1 7 2 8 3 9 77 10 4 11 12 12 78 13
REMARK SMILES IDX 5 16 6 18 7 19 8 20 9 21 10 22 11 23 18 25 19 26 20 27 21 28
REMARK SMILES IDX 22 30 23 31 24 32 76 33 25 34 75 35 26 36 27 37 28 38 69 39
REMARK SMILES IDX 29 40 74 41 68 42 70 43 30 44 73 45 67 46 66 47 31 49 57 50
REMARK SMILES IDX 40 51 56 52 41 53 44 54 55 55 71 56 42 57 43 58 54 60 72 61
REMARK SMILES IDX 45 62 32 63 33 64 38 65 34 66 35 67 37 68 39 69 36 70 58 71
REMARK SMILES IDX 59 72 64 73 60 74 61 75 63 76 65 77 62 78 46 79 47 80 52 81
REMARK SMILES IDX 48 82 49 83 51 84 53 85 50 86
REMARK H PARENT 16 5 78 14 78 15 5 17 9 24 20 29 70 48 44 59
REMARK Flexibility Score: inf
ROOT
ATOM      1  C   UNL A   1      37.930  22.868  25.776  1.00  0.00     0.118 C 
ENDROOT
BRANCH   1   2
ATOM      2  N   UNL A   1      37.416  23.032  24.426  1.00  0.00    -0.352 N 
ATOM      3  C   UNL A   1      36.156  22.948  23.876  1.00  0.00     0.253 C 
ATOM      4  O   UNL A   1      36.077  23.170  22.665  1.00  0.00    -0.269 OA
ATOM      5  H   UNL A   1      38.114  23.247  23.766  1.00  0.00     0.163 HD
BRANCH   3   6
ATOM      6  C   UNL A   1      34.916  22.648  24.664  1.00  0.00     0.065 A 
ATOM      7  C   UNL A   1      32.033  24.460  26.413  1.00  0.00     0.046 C 
ATOM      8  C   UNL A   1      32.957  23.384  25.907  1.00  0.00    -0.025 A 
ATOM      9  C   UNL A   1      32.676  22.041  26.228  1.00  0.00     0.031 A 
ATOM     10  C   UNL A   1      34.090  23.701  25.125  1.00  0.00     0.047 A 
ATOM     11  C   UNL A   1      33.474  20.996  25.765  1.00  0.00     0.035 A 
ATOM     12  C   UNL A   1      34.524  21.328  24.911  1.00  0.00     0.041 A 
BRANCH  10  13
ATOM     13  N   UNL A   1      34.454  25.040  24.945  1.00  0.00    -0.398 N 
ATOM     14  H   UNL A   1      35.405  25.296  24.947  1.00  0.00     0.156 HD
ATOM     15  H   UNL A   1      33.760  25.726  24.817  1.00  0.00     0.156 HD
ENDBRANCH  10  13
BRANCH  11  16
ATOM     16  N   UNL A   1      33.208  19.685  26.136  1.00  0.00    -0.379 N 
ATOM     17  H   UNL A   1      33.332  19.413  27.074  1.00  0.00     0.160 HD
BRANCH  16  18
ATOM     18  C   UNL A   1      32.748  18.699  25.155  1.00  0.00     0.177 C 
BRANCH  18  19
ATOM     19  C   UNL A   1      33.856  17.708  24.698  1.00  0.00     0.199 C 
ATOM     20  C   UNL A   1      33.584  17.310  23.235  1.00  0.00     0.077 C 
BRANCH  19  21
ATOM     21  N   UNL A   1      34.074  16.496  25.526  1.00  0.00    -0.336 N 
ATOM     22  C   UNL A   1      33.000  15.515  25.382  1.00  0.00     0.332 C 
ATOM     23  C   UNL A   1      35.370  15.846  25.330  1.00  0.00     0.332 C 
ATOM     24  H   UNL A   1      34.070  16.857  26.480  1.00  0.00     0.347 HD
ENDBRANCH  19  21
ENDBRANCH  18  19
ENDBRANCH  16  18
ENDBRANCH  11  16
ENDBRANCH   3   6
ENDBRANCH   1   2
BRANCH   1  25
ATOM     25  C   UNL A   1      38.119  21.388  26.118  1.00  0.00     0.042 C 
BRANCH  25  26
ATOM     26  C   UNL A   1      38.659  20.565  24.953  1.00  0.00     0.118 C 
BRANCH  26  27
ATOM     27  N   UNL A   1      39.553  19.510  25.406  1.00  0.00    -0.352 N 
ATOM     28  C   UNL A   1      40.771  19.595  26.034  1.00  0.00     0.251 C 
ATOM     29  H   UNL A   1      39.237  18.594  25.235  1.00  0.00     0.163 HD
ATOM     30  O   UNL A   1      41.474  18.595  26.126  1.00  0.00    -0.269 OA
BRANCH  28  31
ATOM     31  C   UNL A   1      41.245  20.881  26.591  1.00  0.00     0.039 A 
ATOM     32  C   UNL A   1      41.832  21.811  25.727  1.00  0.00     0.014 A 
ATOM     33  C   UNL A   1      41.163  21.155  27.959  1.00  0.00     0.014 A 
ATOM     34  C   UNL A   1      42.288  23.034  26.225  1.00  0.00     0.010 A 
ATOM     35  C   UNL A   1      41.555  22.401  28.443  1.00  0.00     0.010 A 
ATOM     36  C   UNL A   1      42.127  23.349  27.583  1.00  0.00    -0.014 A 
BRANCH  36  37
ATOM     37  C   UNL A   1      42.548  24.666  28.124  1.00  0.00     0.031 A 
ATOM     38  C   UNL A   1      41.533  25.752  28.350  1.00  0.00     0.074 A 
ATOM     39  C   UNL A   1      43.855  24.908  28.341  1.00  0.00     0.049 A 
ATOM     40  N   UNL A   1      41.717  26.994  28.718  1.00  0.00    -0.248 NA
ATOM     41  C   UNL A   1      40.124  25.402  28.103  1.00  0.00     0.031 C 
ATOM     42  C   UNL A   1      44.941  23.950  28.120  1.00  0.00     0.029 A 
ATOM     43  N   UNL A   1      44.496  26.040  28.778  1.00  0.00    -0.354 N 
ATOM     44  C   UNL A   1      40.456  27.577  28.727  1.00  0.00     0.074 A 
ATOM     45  C   UNL A   1      39.520  26.566  28.285  1.00  0.00     0.031 C 
ATOM     46  C   UNL A   1      46.110  24.531  28.435  1.00  0.00     0.029 A 
ATOM     47  C   UNL A   1      45.862  25.911  28.840  1.00  0.00     0.049 A 
ATOM     48  H   UNL A   1      44.020  26.867  29.024  1.00  0.00     0.167 HD
ATOM     49  C   UNL A   1      40.109  28.835  29.089  1.00  0.00     0.037 A 
ATOM     50  C   UNL A   1      46.809  26.807  29.173  1.00  0.00     0.037 A 
ATOM     51  C   UNL A   1      41.040  29.829  29.554  1.00  0.00     0.049 A 
ATOM     52  C   UNL A   1      46.398  28.198  29.569  1.00  0.00     0.074 A 
ATOM     53  C   UNL A   1      40.779  31.111  30.004  1.00  0.00     0.029 A 
ATOM     54  N   UNL A   1      42.414  29.650  29.628  1.00  0.00    -0.354 N 
ATOM     55  N   UNL A   1      45.196  28.717  29.633  1.00  0.00    -0.248 NA
ATOM     56  C   UNL A   1      47.475  29.126  29.944  1.00  0.00     0.031 C 
ATOM     57  C   UNL A   1      41.999  31.723  30.310  1.00  0.00     0.029 A 
ATOM     58  C   UNL A   1      43.015  30.807  30.096  1.00  0.00     0.049 A 
ATOM     59  H   UNL A   1      42.890  28.824  29.383  1.00  0.00     0.167 HD
ATOM     60  C   UNL A   1      45.368  30.020  30.079  1.00  0.00     0.074 A 
ATOM     61  C   UNL A   1      46.789  30.209  30.283  1.00  0.00     0.031 C 
ATOM     62  C   UNL A   1      44.432  30.975  30.301  1.00  0.00     0.037 A 
BRANCH  49  63
ATOM     63  C   UNL A   1      38.658  29.209  28.997  1.00  0.00     0.057 A 
ATOM     64  C   UNL A   1      38.078  29.630  27.793  1.00  0.00     0.134 A 
ATOM     65  C   UNL A   1      37.820  29.108  30.116  1.00  0.00     0.134 A 
ATOM     66  F   UNL A   1      38.826  29.758  26.686  1.00  0.00    -0.206 F 
ATOM     67  C   UNL A   1      36.724  29.963  27.711  1.00  0.00     0.040 A 
ATOM     68  C   UNL A   1      36.460  29.413  30.040  1.00  0.00     0.040 A 
ATOM     69  F   UNL A   1      38.308  28.704  31.298  1.00  0.00    -0.206 F 
ATOM     70  C   UNL A   1      35.910  29.848  28.835  1.00  0.00     0.006 A 
ENDBRANCH  49  63
BRANCH  50  71
ATOM     71  C   UNL A   1      48.240  26.412  29.160  1.00  0.00     0.057 A 
ATOM     72  C   UNL A   1      49.035  26.616  28.027  1.00  0.00     0.134 A 
ATOM     73  C   UNL A   1      48.847  25.824  30.276  1.00  0.00     0.134 A 
ATOM     74  F   UNL A   1      48.505  27.159  26.920  1.00  0.00    -0.206 F 
ATOM     75  C   UNL A   1      50.377  26.233  27.995  1.00  0.00     0.040 A 
ATOM     76  C   UNL A   1      50.194  25.459  30.268  1.00  0.00     0.040 A 
ATOM     77  F   UNL A   1      48.142  25.610  31.397  1.00  0.00    -0.206 F 
ATOM     78  C   UNL A   1      50.961  25.658  29.122  1.00  0.00     0.006 A 
ENDBRANCH  50  71
BRANCH  62  79
ATOM     79  C   UNL A   1      44.909  32.298  30.823  1.00  0.00     0.057 A 
ATOM     80  C   UNL A   1      45.042  32.547  32.195  1.00  0.00     0.134 A 
ATOM     81  C   UNL A   1      45.285  33.318  29.939  1.00  0.00     0.134 A 
ATOM     82  F   UNL A   1      44.686  31.617  33.092  1.00  0.00    -0.206 F 
ATOM     83  C   UNL A   1      45.515  33.772  32.669  1.00  0.00     0.040 A 
ATOM     84  C   UNL A   1      45.783  34.536  30.401  1.00  0.00     0.040 A 
ATOM     85  F   UNL A   1      45.189  33.140  28.613  1.00  0.00    -0.206 F 
ATOM     86  C   UNL A   1      45.895  34.767  31.770  1.00  0.00     0.006 A 
ENDBRANCH  62  79
ENDBRANCH  36  37
ENDBRANCH  28  31
ENDBRANCH  26  27
ENDBRANCH  25  26
ENDBRANCH   1  25
TORSDOF 15
ENDMDL
