MODEL 1
REMARK VINA RESULT:     -10.5      0.000      0.000
REMARK SMILES C=C(c1ccccc1)[C@@H](C(=O)NCCCNC(=O)c1ccc(-c2c3nc(c(-c4c(F)cccc4F)c4ccc([nH]4)c(-c4c(F)cccc4F)c4nc(c(-c5c(F)cccc5F)c5ccc2[nH]5)C=C4)C=C3)cc1)S(C)(=O)=O
REMARK SMILES IDX 14 1 13 2 12 3 10 4 11 5 9 7 2 8 1 9 3 10 4 11 8 12 5 13
REMARK SMILES IDX 7 14 6 15 73 16 74 17 75 18 76 19 15 20 16 21 17 22 18 24
REMARK SMILES IDX 19 25 20 26 72 27 21 28 71 29 22 30 23 31 24 32 65 33 25 34
REMARK SMILES IDX 70 35 64 36 66 37 26 38 69 39 63 40 62 41 27 43 53 44 36 45
REMARK SMILES IDX 52 46 37 47 40 48 51 49 67 50 38 51 39 52 50 54 68 55 41 56
REMARK SMILES IDX 28 57 29 58 34 59 30 60 31 61 33 62 35 63 32 64 54 65 55 66
REMARK SMILES IDX 60 67 56 68 57 69 59 70 61 71 58 72 42 73 43 74 48 75 44 76
REMARK SMILES IDX 45 77 47 78 49 79 46 80
REMARK H PARENT 12 6 16 23 66 42 40 53
REMARK Flexibility Score: inf
ROOT
ATOM      1  C   UNL A   1      33.658  28.430  25.563  1.00  0.00     0.042 C 
ENDROOT
BRANCH   1   2
ATOM      2  C   UNL A   1      33.828  27.028  24.979  1.00  0.00     0.117 C 
BRANCH   2   3
ATOM      3  N   UNL A   1      32.550  26.352  24.855  1.00  0.00    -0.355 N 
ATOM      4  C   UNL A   1      32.242  25.022  24.984  1.00  0.00     0.242 C 
ATOM      5  O   UNL A   1      31.121  24.691  24.599  1.00  0.00    -0.273 OA
ATOM      6  H   UNL A   1      31.787  26.939  24.648  1.00  0.00     0.163 HD
BRANCH   4   7
ATOM      7  C   UNL A   1      33.269  24.060  25.582  1.00  0.00     0.227 C 
BRANCH   7   8
ATOM      8  C   UNL A   1      34.133  23.378  24.523  1.00  0.00    -0.020 C 
ATOM      9  C   UNL A   1      33.686  23.110  23.280  1.00  0.00     0.015 C 
BRANCH   8  10
ATOM     10  C   UNL A   1      35.550  23.064  24.875  1.00  0.00    -0.021 A 
ATOM     11  C   UNL A   1      36.114  21.802  24.634  1.00  0.00     0.008 A 
ATOM     12  C   UNL A   1      36.342  24.004  25.560  1.00  0.00     0.008 A 
ATOM     13  C   UNL A   1      37.403  21.484  25.079  1.00  0.00     0.001 A 
ATOM     14  C   UNL A   1      37.624  23.685  26.018  1.00  0.00     0.001 A 
ATOM     15  C   UNL A   1      38.152  22.421  25.781  1.00  0.00     0.000 A 
ENDBRANCH   8  10
ENDBRANCH   7   8
BRANCH   7  16
ATOM     16  S   UNL A   1      32.401  22.855  26.618  1.00  0.00     0.163 S 
ATOM     17  C   UNL A   1      33.633  22.260  27.750  1.00  0.00     0.159 C 
ATOM     18  O   UNL A   1      31.448  23.578  27.448  1.00  0.00    -0.228 OA
ATOM     19  O   UNL A   1      31.982  21.697  25.852  1.00  0.00    -0.228 OA
ENDBRANCH   7  16
ENDBRANCH   4   7
ENDBRANCH   2   3
ENDBRANCH   1   2
BRANCH   1  20
ATOM     20  C   UNL A   1      33.841  28.511  27.075  1.00  0.00     0.118 C 
BRANCH  20  21
ATOM     21  N   UNL A   1      33.745  29.873  27.573  1.00  0.00    -0.352 N 
ATOM     22  C   UNL A   1      34.630  30.628  28.297  1.00  0.00     0.251 C 
ATOM     23  H   UNL A   1      32.901  30.330  27.354  1.00  0.00     0.163 HD
ATOM     24  O   UNL A   1      34.245  31.689  28.781  1.00  0.00    -0.269 OA
BRANCH  22  25
ATOM     25  C   UNL A   1      36.028  30.191  28.515  1.00  0.00     0.039 A 
ATOM     26  C   UNL A   1      36.917  30.254  27.435  1.00  0.00     0.014 A 
ATOM     27  C   UNL A   1      36.461  29.656  29.731  1.00  0.00     0.014 A 
ATOM     28  C   UNL A   1      38.235  29.820  27.586  1.00  0.00     0.010 A 
ATOM     29  C   UNL A   1      37.801  29.303  29.907  1.00  0.00     0.010 A 
ATOM     30  C   UNL A   1      38.698  29.364  28.831  1.00  0.00    -0.014 A 
BRANCH  30  31
ATOM     31  C   UNL A   1      40.110  28.936  29.003  1.00  0.00     0.031 A 
ATOM     32  C   UNL A   1      41.128  29.869  29.604  1.00  0.00     0.074 A 
ATOM     33  C   UNL A   1      40.488  27.710  28.591  1.00  0.00     0.049 A 
ATOM     34  N   UNL A   1      42.402  29.667  29.834  1.00  0.00    -0.248 NA
ATOM     35  C   UNL A   1      40.661  31.214  29.974  1.00  0.00     0.031 C 
ATOM     36  C   UNL A   1      39.613  26.729  27.946  1.00  0.00     0.029 A 
ATOM     37  N   UNL A   1      41.704  27.078  28.654  1.00  0.00    -0.354 N 
ATOM     38  C   UNL A   1      42.887  30.856  30.362  1.00  0.00     0.074 A 
ATOM     39  C   UNL A   1      41.786  31.794  30.365  1.00  0.00     0.031 C 
ATOM     40  C   UNL A   1      40.311  25.610  27.701  1.00  0.00     0.029 A 
ATOM     41  C   UNL A   1      41.690  25.804  28.138  1.00  0.00     0.049 A 
ATOM     42  H   UNL A   1      42.510  27.496  29.032  1.00  0.00     0.167 HD
ATOM     43  C   UNL A   1      44.129  31.137  30.825  1.00  0.00     0.037 A 
ATOM     44  C   UNL A   1      42.676  24.895  28.028  1.00  0.00     0.037 A 
ATOM     45  C   UNL A   1      45.221  30.196  30.838  1.00  0.00     0.049 A 
ATOM     46  C   UNL A   1      44.046  25.228  28.552  1.00  0.00     0.074 A 
ATOM     47  C   UNL A   1      46.499  30.365  31.341  1.00  0.00     0.029 A 
ATOM     48  N   UNL A   1      45.164  28.912  30.315  1.00  0.00    -0.354 N 
ATOM     49  N   UNL A   1      44.468  26.331  29.121  1.00  0.00    -0.248 NA
ATOM     50  C   UNL A   1      45.071  24.183  28.431  1.00  0.00     0.031 C 
ATOM     51  C   UNL A   1      47.232  29.203  31.074  1.00  0.00     0.029 A 
ATOM     52  C   UNL A   1      46.393  28.287  30.461  1.00  0.00     0.049 A 
ATOM     53  H   UNL A   1      44.369  28.505  29.902  1.00  0.00     0.167 HD
ATOM     54  C   UNL A   1      45.798  26.104  29.449  1.00  0.00     0.074 A 
ATOM     55  C   UNL A   1      46.104  24.750  29.036  1.00  0.00     0.031 C 
ATOM     56  C   UNL A   1      46.687  26.939  30.042  1.00  0.00     0.037 A 
BRANCH  43  57
ATOM     57  C   UNL A   1      44.375  32.522  31.355  1.00  0.00     0.057 A 
ATOM     58  C   UNL A   1      44.827  33.563  30.532  1.00  0.00     0.134 A 
ATOM     59  C   UNL A   1      44.129  32.828  32.700  1.00  0.00     0.134 A 
ATOM     60  F   UNL A   1      45.093  33.339  29.235  1.00  0.00    -0.206 F 
ATOM     61  C   UNL A   1      45.055  34.846  31.032  1.00  0.00     0.040 A 
ATOM     62  C   UNL A   1      44.322  34.116  33.205  1.00  0.00     0.040 A 
ATOM     63  F   UNL A   1      43.686  31.884  33.544  1.00  0.00    -0.206 F 
ATOM     64  C   UNL A   1      44.796  35.127  32.371  1.00  0.00     0.006 A 
ENDBRANCH  43  57
BRANCH  44  65
ATOM     65  C   UNL A   1      42.398  23.569  27.418  1.00  0.00     0.057 A 
ATOM     66  C   UNL A   1      42.495  23.373  26.035  1.00  0.00     0.134 A 
ATOM     67  C   UNL A   1      42.024  22.470  28.200  1.00  0.00     0.134 A 
ATOM     68  F   UNL A   1      42.833  24.391  25.231  1.00  0.00    -0.206 F 
ATOM     69  C   UNL A   1      42.208  22.138  25.450  1.00  0.00     0.040 A 
ATOM     70  C   UNL A   1      41.761  21.223  27.631  1.00  0.00     0.040 A 
ATOM     71  F   UNL A   1      41.923  22.588  29.532  1.00  0.00    -0.206 F 
ATOM     72  C   UNL A   1      41.844  21.058  26.251  1.00  0.00     0.006 A 
ENDBRANCH  44  65
BRANCH  56  73
ATOM     73  C   UNL A   1      48.063  26.398  30.309  1.00  0.00     0.057 A 
ATOM     74  C   UNL A   1      49.096  26.492  29.368  1.00  0.00     0.134 A 
ATOM     75  C   UNL A   1      48.361  25.782  31.532  1.00  0.00     0.134 A 
ATOM     76  F   UNL A   1      48.876  27.059  28.171  1.00  0.00    -0.206 F 
ATOM     77  C   UNL A   1      50.362  25.960  29.617  1.00  0.00     0.040 A 
ATOM     78  C   UNL A   1      49.631  25.277  31.806  1.00  0.00     0.040 A 
ATOM     79  F   UNL A   1      47.422  25.669  32.485  1.00  0.00    -0.206 F 
ATOM     80  C   UNL A   1      50.635  25.355  30.843  1.00  0.00     0.006 A 
ENDBRANCH  56  73
ENDBRANCH  30  31
ENDBRANCH  22  25
ENDBRANCH  20  21
ENDBRANCH   1  20
TORSDOF 13
ENDMDL
MODEL 2
REMARK VINA RESULT:     -10.4      3.989      7.143
REMARK SMILES C=C(c1ccccc1)[C@@H](C(=O)NCCCNC(=O)c1ccc(-c2c3nc(c(-c4c(F)cccc4F)c4ccc([nH]4)c(-c4c(F)cccc4F)c4nc(c(-c5c(F)cccc5F)c5ccc2[nH]5)C=C4)C=C3)cc1)S(C)(=O)=O
REMARK SMILES IDX 14 1 13 2 12 3 10 4 11 5 9 7 2 8 1 9 3 10 4 11 8 12 5 13
REMARK SMILES IDX 7 14 6 15 73 16 74 17 75 18 76 19 15 20 16 21 17 22 18 24
REMARK SMILES IDX 19 25 20 26 72 27 21 28 71 29 22 30 23 31 24 32 65 33 25 34
REMARK SMILES IDX 70 35 64 36 66 37 26 38 69 39 63 40 62 41 27 43 53 44 36 45
REMARK SMILES IDX 52 46 37 47 40 48 51 49 67 50 38 51 39 52 50 54 68 55 41 56
REMARK SMILES IDX 28 57 29 58 34 59 30 60 31 61 33 62 35 63 32 64 54 65 55 66
REMARK SMILES IDX 60 67 56 68 57 69 59 70 61 71 58 72 42 73 43 74 48 75 44 76
REMARK SMILES IDX 45 77 47 78 49 79 46 80
REMARK H PARENT 12 6 16 23 66 42 40 53
REMARK Flexibility Score: inf
ROOT
ATOM      1  C   UNL A   1      34.160  34.446  27.989  1.00  0.00     0.042 C 
ENDROOT
BRANCH   1   2
ATOM      2  C   UNL A   1      33.857  35.023  29.371  1.00  0.00     0.117 C 
BRANCH   2   3
ATOM      3  N   UNL A   1      33.675  33.970  30.352  1.00  0.00    -0.355 N 
ATOM      4  C   UNL A   1      34.211  33.834  31.606  1.00  0.00     0.242 C 
ATOM      5  O   UNL A   1      34.072  32.730  32.132  1.00  0.00    -0.273 OA
ATOM      6  H   UNL A   1      33.073  33.242  30.073  1.00  0.00     0.163 HD
BRANCH   4   7
ATOM      7  C   UNL A   1      34.919  35.020  32.261  1.00  0.00     0.227 C 
BRANCH   7   8
ATOM      8  C   UNL A   1      35.892  34.598  33.361  1.00  0.00    -0.020 C 
ATOM      9  C   UNL A   1      35.482  34.177  34.574  1.00  0.00     0.015 C 
BRANCH   8  10
ATOM     10  C   UNL A   1      37.350  34.595  33.039  1.00  0.00    -0.021 A 
ATOM     11  C   UNL A   1      37.821  34.517  31.719  1.00  0.00     0.008 A 
ATOM     12  C   UNL A   1      38.309  34.569  34.068  1.00  0.00     0.008 A 
ATOM     13  C   UNL A   1      39.187  34.393  31.439  1.00  0.00     0.001 A 
ATOM     14  C   UNL A   1      39.674  34.430  33.793  1.00  0.00     0.001 A 
ATOM     15  C   UNL A   1      40.111  34.338  32.476  1.00  0.00     0.000 A 
ENDBRANCH   8  10
ENDBRANCH   7   8
BRANCH   7  16
ATOM     16  S   UNL A   1      33.668  36.175  32.878  1.00  0.00     0.163 S 
ATOM     17  C   UNL A   1      33.593  37.458  31.653  1.00  0.00     0.159 C 
ATOM     18  O   UNL A   1      32.372  35.514  32.809  1.00  0.00    -0.228 OA
ATOM     19  O   UNL A   1      34.100  36.826  34.100  1.00  0.00    -0.228 OA
ENDBRANCH   7  16
ENDBRANCH   4   7
ENDBRANCH   2   3
ENDBRANCH   1   2
BRANCH   1  20
ATOM     20  C   UNL A   1      34.979  33.160  28.008  1.00  0.00     0.118 C 
BRANCH  20  21
ATOM     21  N   UNL A   1      34.190  31.994  27.645  1.00  0.00    -0.352 N 
ATOM     22  C   UNL A   1      34.534  30.671  27.554  1.00  0.00     0.251 C 
ATOM     23  H   UNL A   1      33.250  32.188  27.429  1.00  0.00     0.163 HD
ATOM     24  O   UNL A   1      33.746  29.889  27.029  1.00  0.00    -0.269 OA
BRANCH  22  25
ATOM     25  C   UNL A   1      35.832  30.168  28.062  1.00  0.00     0.039 A 
ATOM     26  C   UNL A   1      35.885  29.685  29.374  1.00  0.00     0.014 A 
ATOM     27  C   UNL A   1      37.004  30.229  27.304  1.00  0.00     0.014 A 
ATOM     28  C   UNL A   1      37.095  29.233  29.906  1.00  0.00     0.010 A 
ATOM     29  C   UNL A   1      38.194  29.698  27.805  1.00  0.00     0.010 A 
ATOM     30  C   UNL A   1      38.256  29.211  29.118  1.00  0.00    -0.014 A 
BRANCH  30  31
ATOM     31  C   UNL A   1      39.536  28.696  29.670  1.00  0.00     0.031 A 
ATOM     32  C   UNL A   1      40.150  29.319  30.896  1.00  0.00     0.074 A 
ATOM     33  C   UNL A   1      40.165  27.678  29.051  1.00  0.00     0.049 A 
ATOM     34  N   UNL A   1      41.257  28.999  31.520  1.00  0.00    -0.248 NA
ATOM     35  C   UNL A   1      39.443  30.466  31.485  1.00  0.00     0.031 C 
ATOM     36  C   UNL A   1      39.704  27.020  27.826  1.00  0.00     0.029 A 
ATOM     37  N   UNL A   1      41.326  27.017  29.364  1.00  0.00    -0.354 N 
ATOM     38  C   UNL A   1      41.382  29.908  32.563  1.00  0.00     0.074 A 
ATOM     39  C   UNL A   1      40.271  30.828  32.454  1.00  0.00     0.031 C 
ATOM     40  C   UNL A   1      40.554  26.031  27.511  1.00  0.00     0.029 A 
ATOM     41  C   UNL A   1      41.638  26.006  28.487  1.00  0.00     0.049 A 
ATOM     42  H   UNL A   1      41.882  27.245  30.143  1.00  0.00     0.167 HD
ATOM     43  C   UNL A   1      42.321  29.960  33.538  1.00  0.00     0.037 A 
ATOM     44  C   UNL A   1      42.681  25.155  28.470  1.00  0.00     0.037 A 
ATOM     45  C   UNL A   1      43.418  29.033  33.656  1.00  0.00     0.049 A 
ATOM     46  C   UNL A   1      43.710  25.230  29.564  1.00  0.00     0.074 A 
ATOM     47  C   UNL A   1      44.388  28.965  34.642  1.00  0.00     0.029 A 
ATOM     48  N   UNL A   1      43.695  28.017  32.753  1.00  0.00    -0.354 N 
ATOM     49  N   UNL A   1      43.770  26.047  30.588  1.00  0.00    -0.248 NA
ATOM     50  C   UNL A   1      44.807  24.255  29.506  1.00  0.00     0.031 C 
ATOM     51  C   UNL A   1      45.283  27.942  34.306  1.00  0.00     0.029 A 
ATOM     52  C   UNL A   1      44.836  27.333  33.145  1.00  0.00     0.049 A 
ATOM     53  H   UNL A   1      43.161  27.811  31.953  1.00  0.00     0.167 HD
ATOM     54  C   UNL A   1      44.894  25.667  31.310  1.00  0.00     0.074 A 
ATOM     55  C   UNL A   1      45.471  24.533  30.619  1.00  0.00     0.031 C 
ATOM     56  C   UNL A   1      45.403  26.207  32.445  1.00  0.00     0.037 A 
BRANCH  43  57
ATOM     57  C   UNL A   1      42.205  31.061  34.555  1.00  0.00     0.057 A 
ATOM     58  C   UNL A   1      41.437  30.920  35.719  1.00  0.00     0.134 A 
ATOM     59  C   UNL A   1      42.896  32.268  34.384  1.00  0.00     0.134 A 
ATOM     60  F   UNL A   1      40.742  29.794  35.943  1.00  0.00    -0.206 F 
ATOM     61  C   UNL A   1      41.334  31.948  36.658  1.00  0.00     0.040 A 
ATOM     62  C   UNL A   1      42.826  33.292  35.331  1.00  0.00     0.040 A 
ATOM     63  F   UNL A   1      43.658  32.470  33.298  1.00  0.00    -0.206 F 
ATOM     64  C   UNL A   1      42.036  33.136  36.468  1.00  0.00     0.006 A 
ENDBRANCH  43  57
BRANCH  44  65
ATOM     65  C   UNL A   1      42.792  24.140  27.391  1.00  0.00     0.057 A 
ATOM     66  C   UNL A   1      42.287  22.845  27.560  1.00  0.00     0.134 A 
ATOM     67  C   UNL A   1      43.411  24.437  26.170  1.00  0.00     0.134 A 
ATOM     68  F   UNL A   1      41.699  22.494  28.713  1.00  0.00    -0.206 F 
ATOM     69  C   UNL A   1      42.413  21.876  26.563  1.00  0.00     0.040 A 
ATOM     70  C   UNL A   1      43.518  23.485  25.155  1.00  0.00     0.040 A 
ATOM     71  F   UNL A   1      43.906  25.662  25.941  1.00  0.00    -0.206 F 
ATOM     72  C   UNL A   1      43.027  22.197  25.354  1.00  0.00     0.006 A 
ENDBRANCH  44  65
BRANCH  56  73
ATOM     73  C   UNL A   1      46.625  25.553  33.028  1.00  0.00     0.057 A 
ATOM     74  C   UNL A   1      46.539  24.528  33.979  1.00  0.00     0.134 A 
ATOM     75  C   UNL A   1      47.906  25.949  32.621  1.00  0.00     0.134 A 
ATOM     76  F   UNL A   1      45.343  24.109  34.421  1.00  0.00    -0.206 F 
ATOM     77  C   UNL A   1      47.681  23.948  34.532  1.00  0.00     0.040 A 
ATOM     78  C   UNL A   1      49.054  25.353  33.142  1.00  0.00     0.040 A 
ATOM     79  F   UNL A   1      48.062  26.916  31.704  1.00  0.00    -0.206 F 
ATOM     80  C   UNL A   1      48.944  24.357  34.109  1.00  0.00     0.006 A 
ENDBRANCH  56  73
ENDBRANCH  30  31
ENDBRANCH  22  25
ENDBRANCH  20  21
ENDBRANCH   1  20
TORSDOF 13
ENDMDL
MODEL 3
REMARK VINA RESULT:     -10.3      1.927      2.529
REMARK SMILES C=C(c1ccccc1)[C@@H](C(=O)NCCCNC(=O)c1ccc(-c2c3nc(c(-c4c(F)cccc4F)c4ccc([nH]4)c(-c4c(F)cccc4F)c4nc(c(-c5c(F)cccc5F)c5ccc2[nH]5)C=C4)C=C3)cc1)S(C)(=O)=O
REMARK SMILES IDX 14 1 13 2 12 3 10 4 11 5 9 7 2 8 1 9 3 10 4 11 8 12 5 13
REMARK SMILES IDX 7 14 6 15 73 16 74 17 75 18 76 19 15 20 16 21 17 22 18 24
REMARK SMILES IDX 19 25 20 26 72 27 21 28 71 29 22 30 23 31 24 32 65 33 25 34
REMARK SMILES IDX 70 35 64 36 66 37 26 38 69 39 63 40 62 41 27 43 53 44 36 45
REMARK SMILES IDX 52 46 37 47 40 48 51 49 67 50 38 51 39 52 50 54 68 55 41 56
REMARK SMILES IDX 28 57 29 58 34 59 30 60 31 61 33 62 35 63 32 64 54 65 55 66
REMARK SMILES IDX 60 67 56 68 57 69 59 70 61 71 58 72 42 73 43 74 48 75 44 76
REMARK SMILES IDX 45 77 47 78 49 79 46 80
REMARK H PARENT 12 6 16 23 66 42 40 53
REMARK Flexibility Score: inf
ROOT
ATOM      1  C   UNL A   1      33.655  28.372  24.952  1.00  0.00     0.042 C 
ENDROOT
BRANCH   1   2
ATOM      2  C   UNL A   1      33.791  26.921  24.490  1.00  0.00     0.117 C 
BRANCH   2   3
ATOM      3  N   UNL A   1      32.512  26.236  24.527  1.00  0.00    -0.355 N 
ATOM      4  C   UNL A   1      32.222  24.933  24.840  1.00  0.00     0.242 C 
ATOM      5  O   UNL A   1      31.083  24.557  24.566  1.00  0.00    -0.273 OA
ATOM      6  H   UNL A   1      31.735  26.793  24.292  1.00  0.00     0.163 HD
BRANCH   4   7
ATOM      7  C   UNL A   1      33.289  24.054  25.493  1.00  0.00     0.227 C 
BRANCH   7   8
ATOM      8  C   UNL A   1      34.177  23.341  24.475  1.00  0.00    -0.020 C 
ATOM      9  C   UNL A   1      33.752  23.016  23.238  1.00  0.00     0.015 C 
BRANCH   8  10
ATOM     10  C   UNL A   1      35.593  23.062  24.860  1.00  0.00    -0.021 A 
ATOM     11  C   UNL A   1      36.192  21.813  24.637  1.00  0.00     0.008 A 
ATOM     12  C   UNL A   1      36.347  24.025  25.557  1.00  0.00     0.008 A 
ATOM     13  C   UNL A   1      37.478  21.528  25.112  1.00  0.00     0.001 A 
ATOM     14  C   UNL A   1      37.626  23.738  26.045  1.00  0.00     0.001 A 
ATOM     15  C   UNL A   1      38.189  22.486  25.825  1.00  0.00     0.000 A 
ENDBRANCH   8  10
ENDBRANCH   7   8
BRANCH   7  16
ATOM     16  S   UNL A   1      32.472  22.883  26.607  1.00  0.00     0.163 S 
ATOM     17  C   UNL A   1      33.761  22.314  27.689  1.00  0.00     0.159 C 
ATOM     18  O   UNL A   1      31.567  23.633  27.465  1.00  0.00    -0.228 OA
ATOM     19  O   UNL A   1      32.010  21.706  25.898  1.00  0.00    -0.228 OA
ENDBRANCH   7  16
ENDBRANCH   4   7
ENDBRANCH   2   3
ENDBRANCH   1   2
BRANCH   1  20
ATOM     20  C   UNL A   1      33.646  28.554  26.466  1.00  0.00     0.118 C 
BRANCH  20  21
ATOM     21  N   UNL A   1      33.558  29.951  26.857  1.00  0.00    -0.352 N 
ATOM     22  C   UNL A   1      34.358  30.707  27.672  1.00  0.00     0.251 C 
ATOM     23  H   UNL A   1      32.794  30.436  26.470  1.00  0.00     0.163 HD
ATOM     24  O   UNL A   1      33.970  31.819  28.018  1.00  0.00    -0.269 OA
BRANCH  22  25
ATOM     25  C   UNL A   1      35.670  30.211  28.151  1.00  0.00     0.039 A 
ATOM     26  C   UNL A   1      35.738  29.658  29.435  1.00  0.00     0.014 A 
ATOM     27  C   UNL A   1      36.838  30.343  27.396  1.00  0.00     0.014 A 
ATOM     28  C   UNL A   1      36.960  29.210  29.940  1.00  0.00     0.010 A 
ATOM     29  C   UNL A   1      38.042  29.816  27.866  1.00  0.00     0.010 A 
ATOM     30  C   UNL A   1      38.121  29.260  29.151  1.00  0.00    -0.014 A 
BRANCH  30  31
ATOM     31  C   UNL A   1      39.414  28.749  29.673  1.00  0.00     0.031 A 
ATOM     32  C   UNL A   1      40.057  29.376  30.882  1.00  0.00     0.074 A 
ATOM     33  C   UNL A   1      40.029  27.730  29.041  1.00  0.00     0.049 A 
ATOM     34  N   UNL A   1      41.180  29.060  31.479  1.00  0.00    -0.248 NA
ATOM     35  C   UNL A   1      39.363  30.524  31.484  1.00  0.00     0.031 C 
ATOM     36  C   UNL A   1      39.539  27.068  27.830  1.00  0.00     0.029 A 
ATOM     37  N   UNL A   1      41.198  27.072  29.327  1.00  0.00    -0.354 N 
ATOM     38  C   UNL A   1      41.328  29.973  32.516  1.00  0.00     0.074 A 
ATOM     39  C   UNL A   1      40.213  30.890  32.432  1.00  0.00     0.031 C 
ATOM     40  C   UNL A   1      40.383  26.080  27.497  1.00  0.00     0.029 A 
ATOM     41  C   UNL A   1      41.491  26.059  28.446  1.00  0.00     0.049 A 
ATOM     42  H   UNL A   1      41.774  27.303  30.092  1.00  0.00     0.167 HD
ATOM     43  C   UNL A   1      42.291  30.029  33.467  1.00  0.00     0.037 A 
ATOM     44  C   UNL A   1      42.535  25.210  28.405  1.00  0.00     0.037 A 
ATOM     45  C   UNL A   1      43.392  29.104  33.561  1.00  0.00     0.049 A 
ATOM     46  C   UNL A   1      43.590  25.290  29.474  1.00  0.00     0.074 A 
ATOM     47  C   UNL A   1      44.387  29.040  34.523  1.00  0.00     0.029 A 
ATOM     48  N   UNL A   1      43.649  28.085  32.654  1.00  0.00    -0.354 N 
ATOM     49  N   UNL A   1      43.674  26.109  30.493  1.00  0.00    -0.248 NA
ATOM     50  C   UNL A   1      44.687  24.316  29.392  1.00  0.00     0.031 C 
ATOM     51  C   UNL A   1      45.275  28.018  34.168  1.00  0.00     0.029 A 
ATOM     52  C   UNL A   1      44.800  27.405  33.020  1.00  0.00     0.049 A 
ATOM     53  H   UNL A   1      43.096  27.877  31.868  1.00  0.00     0.167 HD
ATOM     54  C   UNL A   1      44.816  25.734  31.189  1.00  0.00     0.074 A 
ATOM     55  C   UNL A   1      45.378  24.598  30.487  1.00  0.00     0.031 C 
ATOM     56  C   UNL A   1      45.352  26.278  32.310  1.00  0.00     0.037 A 
BRANCH  43  57
ATOM     57  C   UNL A   1      42.199  31.133  34.483  1.00  0.00     0.057 A 
ATOM     58  C   UNL A   1      42.821  32.375  34.291  1.00  0.00     0.134 A 
ATOM     59  C   UNL A   1      41.454  30.963  35.658  1.00  0.00     0.134 A 
ATOM     60  F   UNL A   1      43.559  32.602  33.193  1.00  0.00    -0.206 F 
ATOM     61  C   UNL A   1      42.731  33.394  35.240  1.00  0.00     0.040 A 
ATOM     62  C   UNL A   1      41.330  31.987  36.600  1.00  0.00     0.040 A 
ATOM     63  F   UNL A   1      40.824  29.805  35.905  1.00  0.00    -0.206 F 
ATOM     64  C   UNL A   1      41.978  33.203  36.397  1.00  0.00     0.006 A 
ENDBRANCH  43  57
BRANCH  44  65
ATOM     65  C   UNL A   1      42.621  24.191  27.328  1.00  0.00     0.057 A 
ATOM     66  C   UNL A   1      43.334  24.441  26.149  1.00  0.00     0.134 A 
ATOM     67  C   UNL A   1      41.988  22.948  27.447  1.00  0.00     0.134 A 
ATOM     68  F   UNL A   1      43.947  25.619  25.968  1.00  0.00    -0.206 F 
ATOM     69  C   UNL A   1      43.396  23.501  25.119  1.00  0.00     0.040 A 
ATOM     70  C   UNL A   1      42.065  21.988  26.437  1.00  0.00     0.040 A 
ATOM     71  F   UNL A   1      41.298  22.642  28.556  1.00  0.00    -0.206 F 
ATOM     72  C   UNL A   1      42.763  22.268  25.265  1.00  0.00     0.006 A 
ENDBRANCH  44  65
BRANCH  56  73
ATOM     73  C   UNL A   1      46.589  25.627  32.864  1.00  0.00     0.057 A 
ATOM     74  C   UNL A   1      46.528  24.609  33.824  1.00  0.00     0.134 A 
ATOM     75  C   UNL A   1      47.859  26.019  32.420  1.00  0.00     0.134 A 
ATOM     76  F   UNL A   1      45.344  24.194  34.302  1.00  0.00    -0.206 F 
ATOM     77  C   UNL A   1      47.685  24.033  34.351  1.00  0.00     0.040 A 
ATOM     78  C   UNL A   1      49.020  25.427  32.914  1.00  0.00     0.040 A 
ATOM     79  F   UNL A   1      47.990  26.980  31.493  1.00  0.00    -0.206 F 
ATOM     80  C   UNL A   1      48.936  24.438  33.891  1.00  0.00     0.006 A 
ENDBRANCH  56  73
ENDBRANCH  30  31
ENDBRANCH  22  25
ENDBRANCH  20  21
ENDBRANCH   1  20
TORSDOF 13
ENDMDL
