MODEL 1
REMARK VINA RESULT:     -13.0      0.000      0.000
REMARK SMILES Cc1nn(C(C)C)c(C)c1S(=O)(=O)Nc1cccc(C(=O)NCCCNC(=O)c2ccc(-c3c4nc(c(-c5c(F)cccc5F)c5ccc([nH]5)c(-c5c(F)cccc5F)c5nc(c(-c6c(F)cccc6F)c6ccc3[nH]6)C=C5)C=C4)cc2)c1C
REMARK SMILES IDX 23 1 22 2 20 3 21 4 19 6 15 7 16 8 83 9 17 10 84 11 18 12
REMARK SMILES IDX 14 13 11 15 12 16 13 17 10 18 1 19 2 20 3 21 4 22 8 23 9 24
REMARK SMILES IDX 5 25 6 26 7 27 24 28 25 29 26 30 27 31 28 33 29 34 30 35
REMARK SMILES IDX 82 36 31 37 81 38 32 39 33 40 34 41 75 42 35 43 80 44 74 45
REMARK SMILES IDX 76 46 36 47 79 48 73 49 72 50 37 52 63 53 46 54 62 55 47 56
REMARK SMILES IDX 50 57 61 58 77 59 48 60 49 61 60 63 78 64 51 65 38 66 39 67
REMARK SMILES IDX 44 68 40 69 41 70 43 71 45 72 42 73 64 74 65 75 70 76 66 77
REMARK SMILES IDX 67 78 69 79 71 80 68 81 52 82 53 83 58 84 54 85 55 86 57 87
REMARK SMILES IDX 59 88 56 89
REMARK H PARENT 22 5 14 14 26 32 76 51 50 62
REMARK Flexibility Score: inf
ROOT
ATOM      1  C   UNL A   1      31.808  30.543  26.142  1.00  0.00     0.118 C 
ENDROOT
BRANCH   1   2
ATOM      2  N   UNL A   1      32.492  30.067  24.947  1.00  0.00    -0.352 N 
ATOM      3  C   UNL A   1      32.368  28.922  24.190  1.00  0.00     0.251 C 
ATOM      4  O   UNL A   1      33.145  28.787  23.248  1.00  0.00    -0.269 OA
ATOM      5  H   UNL A   1      33.180  30.687  24.613  1.00  0.00     0.163 HD
BRANCH   3   6
ATOM      6  C   UNL A   1      31.339  27.872  24.470  1.00  0.00     0.044 A 
ATOM      7  C   UNL A   1      30.501  25.932  25.683  1.00  0.00     0.053 A 
ATOM      8  C   UNL A   1      29.377  25.882  24.860  1.00  0.00     0.027 A 
ATOM      9  C   UNL A   1      31.433  27.001  25.580  1.00  0.00    -0.014 A 
ATOM     10  C   UNL A   1      29.232  26.807  23.838  1.00  0.00     0.003 A 
ATOM     11  C   UNL A   1      32.519  27.101  26.627  1.00  0.00     0.047 C 
ATOM     12  C   UNL A   1      30.214  27.775  23.642  1.00  0.00     0.014 A 
BRANCH   7  13
ATOM     13  N   UNL A   1      30.771  24.933  26.664  1.00  0.00    -0.279 N 
ATOM     14  H   UNL A   1      30.538  25.136  27.598  1.00  0.00     0.180 HD
BRANCH  13  15
ATOM     15  S   UNL A   1      31.455  23.443  26.341  1.00  0.00     0.265 S 
ATOM     16  O   UNL A   1      30.662  22.792  25.315  1.00  0.00    -0.201 OA
ATOM     17  O   UNL A   1      31.614  22.816  27.634  1.00  0.00    -0.201 OA
BRANCH  15  18
ATOM     18  C   UNL A   1      33.051  23.439  25.687  1.00  0.00     0.131 A 
ATOM     19  C   UNL A   1      32.951  24.674  23.335  1.00  0.00     0.070 C 
ATOM     20  C   UNL A   1      33.559  23.922  24.455  1.00  0.00     0.080 A 
ATOM     21  N   UNL A   1      34.857  23.615  24.316  1.00  0.00    -0.176 NA
ATOM     22  N   UNL A   1      35.202  23.025  25.471  1.00  0.00    -0.266 N 
ATOM     23  C   UNL A   1      34.157  22.910  26.347  1.00  0.00     0.056 A 
ATOM     24  C   UNL A   1      34.295  22.334  27.711  1.00  0.00     0.068 C 
BRANCH  22  25
ATOM     25  C   UNL A   1      36.585  22.585  25.650  1.00  0.00     0.101 C 
ATOM     26  C   UNL A   1      37.082  21.835  24.414  1.00  0.00     0.033 C 
ATOM     27  C   UNL A   1      37.508  23.753  26.000  1.00  0.00     0.033 C 
ENDBRANCH  22  25
ENDBRANCH  15  18
ENDBRANCH  13  15
ENDBRANCH   7  13
ENDBRANCH   3   6
ENDBRANCH   1   2
BRANCH   1  28
ATOM     28  C   UNL A   1      32.670  31.520  26.942  1.00  0.00     0.042 C 
BRANCH  28  29
ATOM     29  C   UNL A   1      33.807  30.882  27.724  1.00  0.00     0.118 C 
BRANCH  29  30
ATOM     30  N   UNL A   1      34.387  31.732  28.753  1.00  0.00    -0.352 N 
ATOM     31  C   UNL A   1      35.536  31.537  29.506  1.00  0.00     0.251 C 
ATOM     32  H   UNL A   1      33.894  32.564  28.942  1.00  0.00     0.163 HD
ATOM     33  O   UNL A   1      35.867  32.361  30.337  1.00  0.00    -0.269 OA
BRANCH  31  34
ATOM     34  C   UNL A   1      36.437  30.399  29.179  1.00  0.00     0.039 A 
ATOM     35  C   UNL A   1      36.596  29.407  30.155  1.00  0.00     0.014 A 
ATOM     36  C   UNL A   1      37.277  30.428  28.072  1.00  0.00     0.014 A 
ATOM     37  C   UNL A   1      37.759  28.644  30.164  1.00  0.00     0.010 A 
ATOM     38  C   UNL A   1      38.482  29.765  28.142  1.00  0.00     0.010 A 
ATOM     39  C   UNL A   1      38.750  28.933  29.231  1.00  0.00    -0.014 A 
BRANCH  39  40
ATOM     40  C   UNL A   1      40.129  28.486  29.360  1.00  0.00     0.031 A 
ATOM     41  C   UNL A   1      40.523  27.163  28.846  1.00  0.00     0.074 A 
ATOM     42  C   UNL A   1      41.050  29.335  29.867  1.00  0.00     0.049 A 
ATOM     43  N   UNL A   1      41.595  26.541  29.197  1.00  0.00    -0.248 NA
ATOM     44  C   UNL A   1      39.677  26.387  27.947  1.00  0.00     0.031 C 
ATOM     45  C   UNL A   1      42.503  29.208  29.815  1.00  0.00     0.029 A 
ATOM     46  N   UNL A   1      40.826  30.408  30.744  1.00  0.00    -0.354 N 
ATOM     47  C   UNL A   1      41.736  25.452  28.366  1.00  0.00     0.074 A 
ATOM     48  C   UNL A   1      40.455  25.325  27.722  1.00  0.00     0.031 C 
ATOM     49  C   UNL A   1      43.037  29.935  30.808  1.00  0.00     0.029 A 
ATOM     50  C   UNL A   1      41.935  30.424  31.618  1.00  0.00     0.049 A 
ATOM     51  H   UNL A   1      40.056  31.022  30.747  1.00  0.00     0.167 HD
ATOM     52  C   UNL A   1      42.975  24.897  28.230  1.00  0.00     0.037 A 
ATOM     53  C   UNL A   1      41.788  30.186  32.955  1.00  0.00     0.037 A 
ATOM     54  C   UNL A   1      43.879  25.411  29.267  1.00  0.00     0.049 A 
ATOM     55  C   UNL A   1      42.568  28.991  33.451  1.00  0.00     0.074 A 
ATOM     56  C   UNL A   1      44.907  26.339  29.256  1.00  0.00     0.029 A 
ATOM     57  N   UNL A   1      43.583  25.170  30.608  1.00  0.00    -0.354 N 
ATOM     58  N   UNL A   1      43.021  28.045  32.676  1.00  0.00    -0.248 NA
ATOM     59  C   UNL A   1      42.884  28.759  34.858  1.00  0.00     0.031 C 
ATOM     60  C   UNL A   1      45.168  26.719  30.599  1.00  0.00     0.029 A 
ATOM     61  C   UNL A   1      44.326  25.997  31.428  1.00  0.00     0.049 A 
ATOM     62  H   UNL A   1      42.933  24.502  30.927  1.00  0.00     0.167 HD
ATOM     63  C   UNL A   1      43.643  27.087  33.435  1.00  0.00     0.074 A 
ATOM     64  C   UNL A   1      43.551  27.593  34.792  1.00  0.00     0.031 C 
ATOM     65  C   UNL A   1      44.164  25.953  32.878  1.00  0.00     0.037 A 
BRANCH  52  66
ATOM     66  C   UNL A   1      43.459  24.096  27.026  1.00  0.00     0.057 A 
ATOM     67  C   UNL A   1      44.046  24.761  25.927  1.00  0.00     0.134 A 
ATOM     68  C   UNL A   1      43.284  22.715  26.812  1.00  0.00     0.134 A 
ATOM     69  F   UNL A   1      44.331  26.070  25.966  1.00  0.00    -0.206 F 
ATOM     70  C   UNL A   1      44.359  24.124  24.714  1.00  0.00     0.040 A 
ATOM     71  C   UNL A   1      43.607  22.062  25.611  1.00  0.00     0.040 A 
ATOM     72  F   UNL A   1      42.785  21.893  27.733  1.00  0.00    -0.206 F 
ATOM     73  C   UNL A   1      44.130  22.770  24.547  1.00  0.00     0.006 A 
ENDBRANCH  52  66
BRANCH  53  74
ATOM     74  C   UNL A   1      40.476  30.638  33.488  1.00  0.00     0.057 A 
ATOM     75  C   UNL A   1      40.295  32.008  33.747  1.00  0.00     0.134 A 
ATOM     76  C   UNL A   1      39.324  29.857  33.367  1.00  0.00     0.134 A 
ATOM     77  F   UNL A   1      41.361  32.815  33.877  1.00  0.00    -0.206 F 
ATOM     78  C   UNL A   1      39.029  32.597  33.760  1.00  0.00     0.040 A 
ATOM     79  C   UNL A   1      38.048  30.435  33.392  1.00  0.00     0.040 A 
ATOM     80  F   UNL A   1      39.412  28.545  33.098  1.00  0.00    -0.206 F 
ATOM     81  C   UNL A   1      37.900  31.813  33.546  1.00  0.00     0.006 A 
ENDBRANCH  53  74
BRANCH  65  82
ATOM     82  C   UNL A   1      44.641  24.731  33.630  1.00  0.00     0.057 A 
ATOM     83  C   UNL A   1      45.983  24.341  33.744  1.00  0.00     0.134 A 
ATOM     84  C   UNL A   1      43.736  23.975  34.411  1.00  0.00     0.134 A 
ATOM     85  F   UNL A   1      46.970  25.032  33.158  1.00  0.00    -0.206 F 
ATOM     86  C   UNL A   1      46.389  23.247  34.523  1.00  0.00     0.040 A 
ATOM     87  C   UNL A   1      44.135  22.918  35.235  1.00  0.00     0.040 A 
ATOM     88  F   UNL A   1      42.421  24.245  34.427  1.00  0.00    -0.206 F 
ATOM     89  C   UNL A   1      45.466  22.539  35.282  1.00  0.00     0.006 A 
ENDBRANCH  65  82
ENDBRANCH  39  40
ENDBRANCH  31  34
ENDBRANCH  29  30
ENDBRANCH  28  29
ENDBRANCH   1  28
TORSDOF 14
ENDMDL
MODEL 2
REMARK VINA RESULT:     -12.8      3.601      8.965
REMARK SMILES Cc1nn(C(C)C)c(C)c1S(=O)(=O)Nc1cccc(C(=O)NCCCNC(=O)c2ccc(-c3c4nc(c(-c5c(F)cccc5F)c5ccc([nH]5)c(-c5c(F)cccc5F)c5nc(c(-c6c(F)cccc6F)c6ccc3[nH]6)C=C5)C=C4)cc2)c1C
REMARK SMILES IDX 23 1 22 2 20 3 21 4 19 6 15 7 16 8 83 9 17 10 84 11 18 12
REMARK SMILES IDX 14 13 11 15 12 16 13 17 10 18 1 19 2 20 3 21 4 22 8 23 9 24
REMARK SMILES IDX 5 25 6 26 7 27 24 28 25 29 26 30 27 31 28 33 29 34 30 35
REMARK SMILES IDX 82 36 31 37 81 38 32 39 33 40 34 41 75 42 35 43 80 44 74 45
REMARK SMILES IDX 76 46 36 47 79 48 73 49 72 50 37 52 63 53 46 54 62 55 47 56
REMARK SMILES IDX 50 57 61 58 77 59 48 60 49 61 60 63 78 64 51 65 38 66 39 67
REMARK SMILES IDX 44 68 40 69 41 70 43 71 45 72 42 73 64 74 65 75 70 76 66 77
REMARK SMILES IDX 67 78 69 79 71 80 68 81 52 82 53 83 58 84 54 85 55 86 57 87
REMARK SMILES IDX 59 88 56 89
REMARK H PARENT 22 5 14 14 26 32 76 51 50 62
REMARK Flexibility Score: inf
ROOT
ATOM      1  C   UNL A   1      37.075  21.210  25.025  1.00  0.00     0.118 C 
ENDROOT
BRANCH   1   2
ATOM      2  N   UNL A   1      36.152  21.454  26.126  1.00  0.00    -0.352 N 
ATOM      3  C   UNL A   1      34.806  21.746  26.171  1.00  0.00     0.251 C 
ATOM      4  O   UNL A   1      34.316  21.952  27.278  1.00  0.00    -0.269 OA
ATOM      5  H   UNL A   1      36.573  21.398  27.014  1.00  0.00     0.163 HD
BRANCH   3   6
ATOM      6  C   UNL A   1      33.948  21.811  24.946  1.00  0.00     0.044 A 
ATOM      7  C   UNL A   1      32.941  22.996  23.071  1.00  0.00     0.053 A 
ATOM      8  C   UNL A   1      32.240  21.849  22.701  1.00  0.00     0.027 A 
ATOM      9  C   UNL A   1      33.898  22.959  24.121  1.00  0.00    -0.014 A 
ATOM     10  C   UNL A   1      32.375  20.691  23.449  1.00  0.00     0.003 A 
ATOM     11  C   UNL A   1      34.760  24.181  24.341  1.00  0.00     0.047 C 
ATOM     12  C   UNL A   1      33.207  20.686  24.566  1.00  0.00     0.014 A 
BRANCH   7  13
ATOM     13  N   UNL A   1      32.744  24.250  22.421  1.00  0.00    -0.279 N 
ATOM     14  H   UNL A   1      33.388  24.509  21.723  1.00  0.00     0.180 HD
BRANCH  13  15
ATOM     15  S   UNL A   1      31.499  25.312  22.760  1.00  0.00     0.265 S 
ATOM     16  O   UNL A   1      30.328  24.537  23.124  1.00  0.00    -0.201 OA
ATOM     17  O   UNL A   1      31.447  26.203  21.622  1.00  0.00    -0.201 OA
BRANCH  15  18
ATOM     18  C   UNL A   1      31.718  26.375  24.100  1.00  0.00     0.131 A 
ATOM     19  C   UNL A   1      29.974  25.662  25.975  1.00  0.00     0.070 C 
ATOM     20  C   UNL A   1      31.038  26.471  25.340  1.00  0.00     0.080 A 
ATOM     21  N   UNL A   1      31.477  27.520  26.050  1.00  0.00    -0.176 NA
ATOM     22  N   UNL A   1      32.480  28.038  25.325  1.00  0.00    -0.266 N 
ATOM     23  C   UNL A   1      32.687  27.373  24.146  1.00  0.00     0.056 A 
ATOM     24  C   UNL A   1      33.770  27.727  23.190  1.00  0.00     0.068 C 
BRANCH  22  25
ATOM     25  C   UNL A   1      33.198  29.200  25.846  1.00  0.00     0.101 C 
ATOM     26  C   UNL A   1      32.222  30.249  26.379  1.00  0.00     0.033 C 
ATOM     27  C   UNL A   1      34.222  28.802  26.910  1.00  0.00     0.033 C 
ENDBRANCH  22  25
ENDBRANCH  15  18
ENDBRANCH  13  15
ENDBRANCH   7  13
ENDBRANCH   3   6
ENDBRANCH   1   2
BRANCH   1  28
ATOM     28  C   UNL A   1      38.532  21.204  25.493  1.00  0.00     0.042 C 
BRANCH  28  29
ATOM     29  C   UNL A   1      39.009  22.503  26.123  1.00  0.00     0.118 C 
BRANCH  29  30
ATOM     30  N   UNL A   1      40.455  22.643  26.201  1.00  0.00    -0.352 N 
ATOM     31  C   UNL A   1      41.214  23.774  26.470  1.00  0.00     0.251 C 
ATOM     32  H   UNL A   1      40.969  21.818  26.038  1.00  0.00     0.163 HD
ATOM     33  O   UNL A   1      42.427  23.704  26.486  1.00  0.00    -0.269 OA
BRANCH  31  34
ATOM     34  C   UNL A   1      40.530  25.026  26.892  1.00  0.00     0.039 A 
ATOM     35  C   UNL A   1      40.770  26.176  26.131  1.00  0.00     0.014 A 
ATOM     36  C   UNL A   1      39.882  25.125  28.118  1.00  0.00     0.014 A 
ATOM     37  C   UNL A   1      40.628  27.425  26.725  1.00  0.00     0.010 A 
ATOM     38  C   UNL A   1      39.854  26.348  28.752  1.00  0.00     0.010 A 
ATOM     39  C   UNL A   1      40.302  27.485  28.076  1.00  0.00    -0.014 A 
BRANCH  39  40
ATOM     40  C   UNL A   1      40.486  28.674  28.895  1.00  0.00     0.031 A 
ATOM     41  C   UNL A   1      39.412  29.678  28.983  1.00  0.00     0.074 A 
ATOM     42  C   UNL A   1      41.608  28.792  29.638  1.00  0.00     0.049 A 
ATOM     43  N   UNL A   1      39.585  30.890  29.385  1.00  0.00    -0.248 NA
ATOM     44  C   UNL A   1      38.050  29.413  28.532  1.00  0.00     0.031 C 
ATOM     45  C   UNL A   1      41.860  29.731  30.728  1.00  0.00     0.029 A 
ATOM     46  N   UNL A   1      42.856  28.199  29.395  1.00  0.00    -0.354 N 
ATOM     47  C   UNL A   1      38.342  31.461  29.535  1.00  0.00     0.074 A 
ATOM     48  C   UNL A   1      37.448  30.560  28.854  1.00  0.00     0.031 C 
ATOM     49  C   UNL A   1      43.185  29.879  30.873  1.00  0.00     0.029 A 
ATOM     50  C   UNL A   1      43.817  29.159  29.781  1.00  0.00     0.049 A 
ATOM     51  H   UNL A   1      43.026  27.300  29.032  1.00  0.00     0.167 HD
ATOM     52  C   UNL A   1      38.224  32.551  30.348  1.00  0.00     0.037 A 
ATOM     53  C   UNL A   1      44.665  29.719  28.869  1.00  0.00     0.037 A 
ATOM     54  C   UNL A   1      39.551  33.089  30.674  1.00  0.00     0.049 A 
ATOM     55  C   UNL A   1      44.541  31.221  28.761  1.00  0.00     0.074 A 
ATOM     56  C   UNL A   1      40.348  33.029  31.804  1.00  0.00     0.029 A 
ATOM     57  N   UNL A   1      40.364  33.564  29.645  1.00  0.00    -0.354 N 
ATOM     58  N   UNL A   1      43.502  31.896  29.171  1.00  0.00    -0.248 NA
ATOM     59  C   UNL A   1      45.563  32.078  28.167  1.00  0.00     0.031 C 
ATOM     60  C   UNL A   1      41.669  33.390  31.428  1.00  0.00     0.029 A 
ATOM     61  C   UNL A   1      41.667  33.703  30.078  1.00  0.00     0.049 A 
ATOM     62  H   UNL A   1      40.051  33.771  28.735  1.00  0.00     0.167 HD
ATOM     63  C   UNL A   1      43.678  33.226  28.889  1.00  0.00     0.074 A 
ATOM     64  C   UNL A   1      44.994  33.291  28.283  1.00  0.00     0.031 C 
ATOM     65  C   UNL A   1      42.714  34.155  29.167  1.00  0.00     0.037 A 
BRANCH  52  66
ATOM     66  C   UNL A   1      36.950  32.986  31.065  1.00  0.00     0.057 A 
ATOM     67  C   UNL A   1      36.676  32.512  32.366  1.00  0.00     0.134 A 
ATOM     68  C   UNL A   1      35.902  33.755  30.520  1.00  0.00     0.134 A 
ATOM     69  F   UNL A   1      37.576  31.803  33.061  1.00  0.00    -0.206 F 
ATOM     70  C   UNL A   1      35.452  32.724  33.026  1.00  0.00     0.040 A 
ATOM     71  C   UNL A   1      34.681  33.987  31.173  1.00  0.00     0.040 A 
ATOM     72  F   UNL A   1      35.968  34.330  29.320  1.00  0.00    -0.206 F 
ATOM     73  C   UNL A   1      34.443  33.455  32.426  1.00  0.00     0.006 A 
ENDBRANCH  52  66
BRANCH  53  74
ATOM     74  C   UNL A   1      45.009  28.802  27.751  1.00  0.00     0.057 A 
ATOM     75  C   UNL A   1      45.976  27.806  27.976  1.00  0.00     0.134 A 
ATOM     76  C   UNL A   1      44.162  28.629  26.654  1.00  0.00     0.134 A 
ATOM     77  F   UNL A   1      46.824  27.912  29.012  1.00  0.00    -0.206 F 
ATOM     78  C   UNL A   1      46.015  26.631  27.221  1.00  0.00     0.040 A 
ATOM     79  C   UNL A   1      44.202  27.461  25.881  1.00  0.00     0.040 A 
ATOM     80  F   UNL A   1      43.200  29.525  26.385  1.00  0.00    -0.206 F 
ATOM     81  C   UNL A   1      45.101  26.440  26.191  1.00  0.00     0.006 A 
ENDBRANCH  53  74
BRANCH  65  82
ATOM     82  C   UNL A   1      42.692  35.586  28.681  1.00  0.00     0.057 A 
ATOM     83  C   UNL A   1      43.018  36.699  29.470  1.00  0.00     0.134 A 
ATOM     84  C   UNL A   1      42.477  35.873  27.312  1.00  0.00     0.134 A 
ATOM     85  F   UNL A   1      43.363  36.573  30.758  1.00  0.00    -0.206 F 
ATOM     86  C   UNL A   1      43.067  38.003  28.954  1.00  0.00     0.040 A 
ATOM     87  C   UNL A   1      42.579  37.160  26.776  1.00  0.00     0.040 A 
ATOM     88  F   UNL A   1      42.183  34.908  26.428  1.00  0.00    -0.206 F 
ATOM     89  C   UNL A   1      42.859  38.236  27.601  1.00  0.00     0.006 A 
ENDBRANCH  65  82
ENDBRANCH  39  40
ENDBRANCH  31  34
ENDBRANCH  29  30
ENDBRANCH  28  29
ENDBRANCH   1  28
TORSDOF 14
ENDMDL
MODEL 3
REMARK VINA RESULT:     -12.8      1.684      2.173
REMARK SMILES Cc1nn(C(C)C)c(C)c1S(=O)(=O)Nc1cccc(C(=O)NCCCNC(=O)c2ccc(-c3c4nc(c(-c5c(F)cccc5F)c5ccc([nH]5)c(-c5c(F)cccc5F)c5nc(c(-c6c(F)cccc6F)c6ccc3[nH]6)C=C5)C=C4)cc2)c1C
REMARK SMILES IDX 23 1 22 2 20 3 21 4 19 6 15 7 16 8 83 9 17 10 84 11 18 12
REMARK SMILES IDX 14 13 11 15 12 16 13 17 10 18 1 19 2 20 3 21 4 22 8 23 9 24
REMARK SMILES IDX 5 25 6 26 7 27 24 28 25 29 26 30 27 31 28 33 29 34 30 35
REMARK SMILES IDX 82 36 31 37 81 38 32 39 33 40 34 41 75 42 35 43 80 44 74 45
REMARK SMILES IDX 76 46 36 47 79 48 73 49 72 50 37 52 63 53 46 54 62 55 47 56
REMARK SMILES IDX 50 57 61 58 77 59 48 60 49 61 60 63 78 64 51 65 38 66 39 67
REMARK SMILES IDX 44 68 40 69 41 70 43 71 45 72 42 73 64 74 65 75 70 76 66 77
REMARK SMILES IDX 67 78 69 79 71 80 68 81 52 82 53 83 58 84 54 85 55 86 57 87
REMARK SMILES IDX 59 88 56 89
REMARK H PARENT 22 5 14 14 26 32 76 51 50 62
REMARK Flexibility Score: inf
ROOT
ATOM      1  C   UNL A   1      31.862  29.987  25.679  1.00  0.00     0.118 C 
ENDROOT
BRANCH   1   2
ATOM      2  N   UNL A   1      32.811  29.874  24.580  1.00  0.00    -0.352 N 
ATOM      3  C   UNL A   1      33.252  28.805  23.830  1.00  0.00     0.251 C 
ATOM      4  O   UNL A   1      34.118  29.031  22.988  1.00  0.00    -0.269 OA
ATOM      5  H   UNL A   1      33.219  30.732  24.321  1.00  0.00     0.163 HD
BRANCH   3   6
ATOM      6  C   UNL A   1      32.717  27.417  24.001  1.00  0.00     0.044 A 
ATOM      7  C   UNL A   1      32.677  25.231  25.075  1.00  0.00     0.053 A 
ATOM      8  C   UNL A   1      31.697  24.793  24.185  1.00  0.00     0.027 A 
ATOM      9  C   UNL A   1      33.109  26.586  25.075  1.00  0.00    -0.014 A 
ATOM     10  C   UNL A   1      31.235  25.649  23.198  1.00  0.00     0.003 A 
ATOM     11  C   UNL A   1      34.024  27.040  26.189  1.00  0.00     0.047 C 
ATOM     12  C   UNL A   1      31.755  26.937  23.104  1.00  0.00     0.014 A 
BRANCH   7  13
ATOM     13  N   UNL A   1      33.285  24.360  26.026  1.00  0.00    -0.279 N 
ATOM     14  H   UNL A   1      33.080  24.508  26.977  1.00  0.00     0.180 HD
BRANCH  13  15
ATOM     15  S   UNL A   1      34.320  23.106  25.640  1.00  0.00     0.265 S 
ATOM     16  O   UNL A   1      35.170  22.849  26.787  1.00  0.00    -0.201 OA
ATOM     17  O   UNL A   1      34.912  23.485  24.376  1.00  0.00    -0.201 OA
BRANCH  15  18
ATOM     18  C   UNL A   1      33.604  21.572  25.310  1.00  0.00     0.131 A 
ATOM     19  C   UNL A   1      30.966  21.884  25.421  1.00  0.00     0.070 C 
ATOM     20  C   UNL A   1      32.248  21.159  25.279  1.00  0.00     0.080 A 
ATOM     21  N   UNL A   1      32.152  19.837  25.076  1.00  0.00    -0.176 NA
ATOM     22  N   UNL A   1      33.414  19.419  24.892  1.00  0.00    -0.266 N 
ATOM     23  C   UNL A   1      34.333  20.428  25.000  1.00  0.00     0.056 A 
ATOM     24  C   UNL A   1      35.792  20.227  24.792  1.00  0.00     0.068 C 
BRANCH  22  25
ATOM     25  C   UNL A   1      33.652  18.003  24.618  1.00  0.00     0.101 C 
ATOM     26  C   UNL A   1      32.912  17.121  25.625  1.00  0.00     0.033 C 
ATOM     27  C   UNL A   1      33.284  17.635  23.180  1.00  0.00     0.033 C 
ENDBRANCH  22  25
ENDBRANCH  15  18
ENDBRANCH  13  15
ENDBRANCH   7  13
ENDBRANCH   3   6
ENDBRANCH   1   2
BRANCH   1  28
ATOM     28  C   UNL A   1      32.373  30.915  26.782  1.00  0.00     0.042 C 
BRANCH  28  29
ATOM     29  C   UNL A   1      33.624  30.433  27.498  1.00  0.00     0.118 C 
BRANCH  29  30
ATOM     30  N   UNL A   1      34.273  31.437  28.328  1.00  0.00    -0.352 N 
ATOM     31  C   UNL A   1      35.478  31.364  29.012  1.00  0.00     0.251 C 
ATOM     32  H   UNL A   1      33.786  32.289  28.417  1.00  0.00     0.163 HD
ATOM     33  O   UNL A   1      35.863  32.311  29.671  1.00  0.00    -0.269 OA
BRANCH  31  34
ATOM     34  C   UNL A   1      36.363  30.186  28.805  1.00  0.00     0.039 A 
ATOM     35  C   UNL A   1      36.564  29.336  29.899  1.00  0.00     0.014 A 
ATOM     36  C   UNL A   1      37.152  30.058  27.668  1.00  0.00     0.014 A 
ATOM     37  C   UNL A   1      37.726  28.574  29.961  1.00  0.00     0.010 A 
ATOM     38  C   UNL A   1      38.360  29.403  27.775  1.00  0.00     0.010 A 
ATOM     39  C   UNL A   1      38.675  28.726  28.955  1.00  0.00    -0.014 A 
BRANCH  39  40
ATOM     40  C   UNL A   1      40.058  28.292  29.083  1.00  0.00     0.031 A 
ATOM     41  C   UNL A   1      40.452  26.950  28.621  1.00  0.00     0.074 A 
ATOM     42  C   UNL A   1      40.981  29.167  29.541  1.00  0.00     0.049 A 
ATOM     43  N   UNL A   1      41.533  26.348  28.983  1.00  0.00    -0.248 NA
ATOM     44  C   UNL A   1      39.598  26.131  27.768  1.00  0.00     0.031 C 
ATOM     45  C   UNL A   1      42.435  29.044  29.473  1.00  0.00     0.029 A 
ATOM     46  N   UNL A   1      40.764  30.275  30.373  1.00  0.00    -0.354 N 
ATOM     47  C   UNL A   1      41.668  25.226  28.197  1.00  0.00     0.074 A 
ATOM     48  C   UNL A   1      40.378  25.065  27.578  1.00  0.00     0.031 C 
ATOM     49  C   UNL A   1      42.978  29.816  30.426  1.00  0.00     0.029 A 
ATOM     50  C   UNL A   1      41.885  30.334  31.230  1.00  0.00     0.049 A 
ATOM     51  H   UNL A   1      39.991  30.884  30.362  1.00  0.00     0.167 HD
ATOM     52  C   UNL A   1      42.908  24.672  28.068  1.00  0.00     0.037 A 
ATOM     53  C   UNL A   1      41.758  30.152  32.578  1.00  0.00     0.037 A 
ATOM     54  C   UNL A   1      43.823  25.234  29.069  1.00  0.00     0.049 A 
ATOM     55  C   UNL A   1      42.552  28.984  33.114  1.00  0.00     0.074 A 
ATOM     56  C   UNL A   1      44.846  26.166  29.003  1.00  0.00     0.029 A 
ATOM     57  N   UNL A   1      43.548  25.050  30.423  1.00  0.00    -0.354 N 
ATOM     58  N   UNL A   1      42.998  28.007  32.374  1.00  0.00    -0.248 NA
ATOM     59  C   UNL A   1      42.888  28.814  34.525  1.00  0.00     0.031 C 
ATOM     60  C   UNL A   1      45.124  26.604  30.325  1.00  0.00     0.029 A 
ATOM     61  C   UNL A   1      44.297  25.915  31.196  1.00  0.00     0.049 A 
ATOM     62  H   UNL A   1      42.906  24.393  30.779  1.00  0.00     0.167 HD
ATOM     63  C   UNL A   1      43.636  27.086  33.164  1.00  0.00     0.074 A 
ATOM     64  C   UNL A   1      43.561  27.649  34.499  1.00  0.00     0.031 C 
ATOM     65  C   UNL A   1      44.156  25.932  32.649  1.00  0.00     0.037 A 
BRANCH  52  66
ATOM     66  C   UNL A   1      43.380  23.823  26.892  1.00  0.00     0.057 A 
ATOM     67  C   UNL A   1      43.096  22.440  26.862  1.00  0.00     0.134 A 
ATOM     68  C   UNL A   1      44.203  24.246  25.830  1.00  0.00     0.134 A 
ATOM     69  F   UNL A   1      42.290  21.867  27.767  1.00  0.00    -0.206 F 
ATOM     70  C   UNL A   1      43.637  21.559  25.910  1.00  0.00     0.040 A 
ATOM     71  C   UNL A   1      44.738  23.379  24.863  1.00  0.00     0.040 A 
ATOM     72  F   UNL A   1      44.561  25.515  25.646  1.00  0.00    -0.206 F 
ATOM     73  C   UNL A   1      44.472  22.024  24.910  1.00  0.00     0.006 A 
ENDBRANCH  52  66
BRANCH  53  74
ATOM     74  C   UNL A   1      40.451  30.620  33.110  1.00  0.00     0.057 A 
ATOM     75  C   UNL A   1      40.245  32.004  33.258  1.00  0.00     0.134 A 
ATOM     76  C   UNL A   1      39.314  29.808  33.089  1.00  0.00     0.134 A 
ATOM     77  F   UNL A   1      41.295  32.841  33.288  1.00  0.00    -0.206 F 
ATOM     78  C   UNL A   1      38.966  32.565  33.259  1.00  0.00     0.040 A 
ATOM     79  C   UNL A   1      38.026  30.359  33.104  1.00  0.00     0.040 A 
ATOM     80  F   UNL A   1      39.426  28.480  32.930  1.00  0.00    -0.206 F 
ATOM     81  C   UNL A   1      37.851  31.742  33.145  1.00  0.00     0.006 A 
ENDBRANCH  53  74
BRANCH  65  82
ATOM     82  C   UNL A   1      44.650  24.746  33.446  1.00  0.00     0.057 A 
ATOM     83  C   UNL A   1      45.997  24.373  33.564  1.00  0.00     0.134 A 
ATOM     84  C   UNL A   1      43.758  24.013  34.264  1.00  0.00     0.134 A 
ATOM     85  F   UNL A   1      46.973  25.048  32.943  1.00  0.00    -0.206 F 
ATOM     86  C   UNL A   1      46.419  23.315  34.383  1.00  0.00     0.040 A 
ATOM     87  C   UNL A   1      44.174  22.995  35.126  1.00  0.00     0.040 A 
ATOM     88  F   UNL A   1      42.442  24.272  34.280  1.00  0.00    -0.206 F 
ATOM     89  C   UNL A   1      45.509  22.630  35.178  1.00  0.00     0.006 A 
ENDBRANCH  65  82
ENDBRANCH  39  40
ENDBRANCH  31  34
ENDBRANCH  29  30
ENDBRANCH  28  29
ENDBRANCH   1  28
TORSDOF 14
ENDMDL
