MODEL 1
REMARK VINA RESULT:     -12.2      0.000      0.000
REMARK SMILES CC1(C)CCC[C@@H]1NC(=O)CC1(C(=O)NCCCNC(=O)c2ccc(-c3c4nc(c(-c5c(F)cccc5F)c5ccc([nH]5)c(-c5c(F)cccc5F)c5nc(c(-c6c(F)cccc6F)c6ccc3[nH]6)C=C5)C=C4)cc2)CCCCC1
REMARK SMILES IDX 16 1 15 2 13 3 14 4 12 6 76 7 80 8 77 9 79 10 78 11 11 12
REMARK SMILES IDX 9 13 8 14 10 16 7 17 1 18 2 19 3 20 4 21 5 22 6 23 17 24
REMARK SMILES IDX 18 25 19 26 20 27 21 29 22 30 23 31 75 32 24 33 74 34 25 35
REMARK SMILES IDX 26 36 27 37 68 38 28 39 73 40 67 41 69 42 29 43 72 44 66 45
REMARK SMILES IDX 65 46 30 48 56 49 39 50 55 51 40 52 43 53 54 54 70 55 41 56
REMARK SMILES IDX 42 57 53 59 71 60 44 61 31 62 32 63 37 64 33 65 34 66 36 67
REMARK SMILES IDX 38 68 35 69 57 70 58 71 63 72 59 73 60 74 62 75 64 76 61 77
REMARK SMILES IDX 45 78 46 79 51 80 47 81 48 82 50 83 52 84 49 85
REMARK H PARENT 15 5 8 15 19 28 69 47 43 58
REMARK Flexibility Score: inf
ROOT
ATOM      1  C   UNL A   1      31.496  30.719  26.247  1.00  0.00     0.117 C 
ENDROOT
BRANCH   1   2
ATOM      2  N   UNL A   1      30.977  30.343  24.960  1.00  0.00    -0.356 N 
ATOM      3  C   UNL A   1      31.218  29.368  24.067  1.00  0.00     0.226 C 
ATOM      4  O   UNL A   1      30.601  29.587  23.011  1.00  0.00    -0.274 OA
ATOM      5  H   UNL A   1      30.265  30.953  24.657  1.00  0.00     0.163 HD
BRANCH   3   6
ATOM      6  C   UNL A   1      32.090  28.076  24.245  1.00  0.00     0.058 C 
ATOM      7  C   UNL A   1      31.490  27.175  25.367  1.00  0.00     0.017 C 
ATOM      8  C   UNL A   1      33.604  28.150  24.534  1.00  0.00     0.017 C 
ATOM      9  C   UNL A   1      31.973  27.417  26.809  1.00  0.00     0.001 C 
ATOM     10  C   UNL A   1      34.040  28.666  25.878  1.00  0.00     0.001 C 
ATOM     11  C   UNL A   1      33.432  27.850  27.004  1.00  0.00     0.000 C 
BRANCH   6  12
ATOM     12  C   UNL A   1      31.926  27.334  22.844  1.00  0.00     0.117 C 
BRANCH  12  13
ATOM     13  C   UNL A   1      33.155  26.645  22.269  1.00  0.00     0.221 C 
ATOM     14  N   UNL A   1      33.517  25.361  22.517  1.00  0.00    -0.353 N 
ATOM     15  H   UNL A   1      34.275  25.077  21.957  1.00  0.00     0.163 HD
ATOM     16  O   UNL A   1      33.888  27.277  21.498  1.00  0.00    -0.275 OA
BRANCH  14  17
ATOM     17  C   UNL A   1      33.062  24.289  23.411  1.00  0.00     0.087 C 
ATOM     18  C   UNL A   1      34.540  24.736  25.460  1.00  0.00     0.013 C 
ATOM     19  C   UNL A   1      34.210  23.765  24.327  1.00  0.00    -0.015 C 
ATOM     20  C   UNL A   1      35.509  23.434  23.551  1.00  0.00     0.013 C 
ATOM     21  C   UNL A   1      33.598  22.466  24.883  1.00  0.00     0.008 C 
ATOM     22  C   UNL A   1      32.857  21.842  23.711  1.00  0.00     0.003 C 
ATOM     23  C   UNL A   1      32.615  22.983  22.725  1.00  0.00     0.025 C 
ENDBRANCH  14  17
ENDBRANCH  12  13
ENDBRANCH   6  12
ENDBRANCH   3   6
ENDBRANCH   1   2
BRANCH   1  24
ATOM     24  C   UNL A   1      31.385  32.217  26.469  1.00  0.00     0.042 C 
BRANCH  24  25
ATOM     25  C   UNL A   1      32.588  32.771  27.207  1.00  0.00     0.118 C 
BRANCH  25  26
ATOM     26  N   UNL A   1      32.394  34.172  27.570  1.00  0.00    -0.352 N 
ATOM     27  C   UNL A   1      32.972  34.914  28.571  1.00  0.00     0.251 C 
ATOM     28  H   UNL A   1      31.748  34.662  27.011  1.00  0.00     0.163 HD
ATOM     29  O   UNL A   1      32.480  35.984  28.906  1.00  0.00    -0.269 OA
BRANCH  27  30
ATOM     30  C   UNL A   1      34.186  34.410  29.245  1.00  0.00     0.039 A 
ATOM     31  C   UNL A   1      34.074  33.760  30.477  1.00  0.00     0.014 A 
ATOM     32  C   UNL A   1      35.439  34.593  28.659  1.00  0.00     0.014 A 
ATOM     33  C   UNL A   1      35.218  33.236  31.084  1.00  0.00     0.010 A 
ATOM     34  C   UNL A   1      36.550  33.964  29.196  1.00  0.00     0.010 A 
ATOM     35  C   UNL A   1      36.458  33.302  30.429  1.00  0.00    -0.014 A 
BRANCH  35  36
ATOM     36  C   UNL A   1      37.698  32.747  31.021  1.00  0.00     0.031 A 
ATOM     37  C   UNL A   1      38.347  31.551  30.376  1.00  0.00     0.074 A 
ATOM     38  C   UNL A   1      38.181  33.250  32.173  1.00  0.00     0.049 A 
ATOM     39  N   UNL A   1      39.330  30.806  30.811  1.00  0.00    -0.248 NA
ATOM     40  C   UNL A   1      37.785  31.106  29.087  1.00  0.00     0.031 C 
ATOM     41  C   UNL A   1      37.616  34.381  32.911  1.00  0.00     0.029 A 
ATOM     42  N   UNL A   1      39.253  32.860  32.935  1.00  0.00    -0.354 N 
ATOM     43  C   UNL A   1      39.483  29.798  29.867  1.00  0.00     0.074 A 
ATOM     44  C   UNL A   1      38.450  29.982  28.873  1.00  0.00     0.031 C 
ATOM     45  C   UNL A   1      38.359  34.607  34.007  1.00  0.00     0.029 A 
ATOM     46  C   UNL A   1      39.418  33.607  34.077  1.00  0.00     0.049 A 
ATOM     47  H   UNL A   1      39.847  32.115  32.689  1.00  0.00     0.167 HD
ATOM     48  C   UNL A   1      40.421  28.823  29.816  1.00  0.00     0.037 A 
ATOM     49  C   UNL A   1      40.316  33.484  35.073  1.00  0.00     0.037 A 
ATOM     50  C   UNL A   1      41.469  28.672  30.787  1.00  0.00     0.049 A 
ATOM     51  C   UNL A   1      41.341  32.384  34.997  1.00  0.00     0.074 A 
ATOM     52  C   UNL A   1      42.499  27.749  30.805  1.00  0.00     0.029 A 
ATOM     53  N   UNL A   1      41.623  29.473  31.908  1.00  0.00    -0.354 N 
ATOM     54  N   UNL A   1      41.505  31.467  34.074  1.00  0.00    -0.248 NA
ATOM     55  C   UNL A   1      42.310  32.303  36.099  1.00  0.00     0.031 C 
ATOM     56  C   UNL A   1      43.252  27.964  31.962  1.00  0.00     0.029 A 
ATOM     57  C   UNL A   1      42.727  29.057  32.633  1.00  0.00     0.049 A 
ATOM     58  H   UNL A   1      41.036  30.224  32.152  1.00  0.00     0.167 HD
ATOM     59  C   UNL A   1      42.618  30.733  34.460  1.00  0.00     0.074 A 
ATOM     60  C   UNL A   1      43.094  31.314  35.698  1.00  0.00     0.031 C 
ATOM     61  C   UNL A   1      43.200  29.674  33.845  1.00  0.00     0.037 A 
BRANCH  48  62
ATOM     62  C   UNL A   1      40.364  27.860  28.665  1.00  0.00     0.057 A 
ATOM     63  C   UNL A   1      41.062  28.092  27.472  1.00  0.00     0.134 A 
ATOM     64  C   UNL A   1      39.639  26.667  28.766  1.00  0.00     0.134 A 
ATOM     65  F   UNL A   1      41.764  29.224  27.304  1.00  0.00    -0.206 F 
ATOM     66  C   UNL A   1      41.022  27.184  26.413  1.00  0.00     0.040 A 
ATOM     67  C   UNL A   1      39.617  25.735  27.726  1.00  0.00     0.040 A 
ATOM     68  F   UNL A   1      38.950  26.379  29.881  1.00  0.00    -0.206 F 
ATOM     69  C   UNL A   1      40.305  25.996  26.543  1.00  0.00     0.006 A 
ENDBRANCH  48  62
BRANCH  49  70
ATOM     70  C   UNL A   1      40.303  34.429  36.221  1.00  0.00     0.057 A 
ATOM     71  C   UNL A   1      39.577  34.143  37.383  1.00  0.00     0.134 A 
ATOM     72  C   UNL A   1      40.986  35.650  36.174  1.00  0.00     0.134 A 
ATOM     73  F   UNL A   1      38.890  32.995  37.483  1.00  0.00    -0.206 F 
ATOM     74  C   UNL A   1      39.499  35.049  38.441  1.00  0.00     0.040 A 
ATOM     75  C   UNL A   1      40.942  36.554  37.238  1.00  0.00     0.040 A 
ATOM     76  F   UNL A   1      41.712  35.982  35.096  1.00  0.00    -0.206 F 
ATOM     77  C   UNL A   1      40.185  36.260  38.371  1.00  0.00     0.006 A 
ENDBRANCH  49  70
BRANCH  61  78
ATOM     78  C   UNL A   1      44.452  29.120  34.456  1.00  0.00     0.057 A 
ATOM     79  C   UNL A   1      44.427  28.090  35.405  1.00  0.00     0.134 A 
ATOM     80  C   UNL A   1      45.706  29.587  34.040  1.00  0.00     0.134 A 
ATOM     81  F   UNL A   1      43.259  27.606  35.853  1.00  0.00    -0.206 F 
ATOM     82  C   UNL A   1      45.605  27.559  35.933  1.00  0.00     0.040 A 
ATOM     83  C   UNL A   1      46.890  29.044  34.537  1.00  0.00     0.040 A 
ATOM     84  F   UNL A   1      45.799  30.565  33.125  1.00  0.00    -0.206 F 
ATOM     85  C   UNL A   1      46.841  28.029  35.491  1.00  0.00     0.006 A 
ENDBRANCH  61  78
ENDBRANCH  35  36
ENDBRANCH  27  30
ENDBRANCH  25  26
ENDBRANCH  24  25
ENDBRANCH   1  24
TORSDOF 13
ENDMDL
MODEL 2
REMARK VINA RESULT:     -12.1      5.256     10.305
REMARK SMILES CC1(C)CCC[C@@H]1NC(=O)CC1(C(=O)NCCCNC(=O)c2ccc(-c3c4nc(c(-c5c(F)cccc5F)c5ccc([nH]5)c(-c5c(F)cccc5F)c5nc(c(-c6c(F)cccc6F)c6ccc3[nH]6)C=C5)C=C4)cc2)CCCCC1
REMARK SMILES IDX 16 1 15 2 13 3 14 4 12 6 76 7 80 8 77 9 79 10 78 11 11 12
REMARK SMILES IDX 9 13 8 14 10 16 7 17 1 18 2 19 3 20 4 21 5 22 6 23 17 24
REMARK SMILES IDX 18 25 19 26 20 27 21 29 22 30 23 31 75 32 24 33 74 34 25 35
REMARK SMILES IDX 26 36 27 37 68 38 28 39 73 40 67 41 69 42 29 43 72 44 66 45
REMARK SMILES IDX 65 46 30 48 56 49 39 50 55 51 40 52 43 53 54 54 70 55 41 56
REMARK SMILES IDX 42 57 53 59 71 60 44 61 31 62 32 63 37 64 33 65 34 66 36 67
REMARK SMILES IDX 38 68 35 69 57 70 58 71 63 72 59 73 60 74 62 75 64 76 61 77
REMARK SMILES IDX 45 78 46 79 51 80 47 81 48 82 50 83 52 84 49 85
REMARK H PARENT 15 5 8 15 19 28 69 47 43 58
REMARK Flexibility Score: inf
ROOT
ATOM      1  C   UNL A   1      36.863  20.595  24.820  1.00  0.00     0.117 C 
ENDROOT
BRANCH   1   2
ATOM      2  N   UNL A   1      35.527  20.096  25.001  1.00  0.00    -0.356 N 
ATOM      3  C   UNL A   1      34.329  20.627  25.306  1.00  0.00     0.226 C 
ATOM      4  O   UNL A   1      33.498  19.727  25.511  1.00  0.00    -0.274 OA
ATOM      5  H   UNL A   1      35.475  19.122  24.867  1.00  0.00     0.163 HD
BRANCH   3   6
ATOM      6  C   UNL A   1      33.921  22.140  25.371  1.00  0.00     0.058 C 
ATOM      7  C   UNL A   1      34.043  22.790  23.960  1.00  0.00     0.017 C 
ATOM      8  C   UNL A   1      34.604  23.125  26.344  1.00  0.00     0.017 C 
ATOM      9  C   UNL A   1      35.398  23.413  23.577  1.00  0.00     0.001 C 
ATOM     10  C   UNL A   1      36.039  23.493  26.083  1.00  0.00     0.001 C 
ATOM     11  C   UNL A   1      36.212  24.078  24.694  1.00  0.00     0.000 C 
BRANCH   6  12
ATOM     12  C   UNL A   1      32.383  22.082  25.782  1.00  0.00     0.117 C 
BRANCH  12  13
ATOM     13  C   UNL A   1      31.893  23.093  26.808  1.00  0.00     0.221 C 
ATOM     14  N   UNL A   1      31.458  24.346  26.521  1.00  0.00    -0.353 N 
ATOM     15  H   UNL A   1      31.076  24.794  27.311  1.00  0.00     0.163 HD
ATOM     16  O   UNL A   1      31.862  22.767  28.001  1.00  0.00    -0.275 OA
BRANCH  14  17
ATOM     17  C   UNL A   1      31.412  25.202  25.329  1.00  0.00     0.087 C 
ATOM     18  C   UNL A   1      33.595  26.518  25.619  1.00  0.00     0.013 C 
ATOM     19  C   UNL A   1      32.070  26.593  25.582  1.00  0.00    -0.015 C 
ATOM     20  C   UNL A   1      31.567  27.281  26.875  1.00  0.00     0.013 C 
ATOM     21  C   UNL A   1      31.593  27.393  24.355  1.00  0.00     0.008 C 
ATOM     22  C   UNL A   1      30.149  26.966  24.140  1.00  0.00     0.003 C 
ATOM     23  C   UNL A   1      30.008  25.624  24.855  1.00  0.00     0.025 C 
ENDBRANCH  14  17
ENDBRANCH  12  13
ENDBRANCH   6  12
ENDBRANCH   3   6
ENDBRANCH   1   2
BRANCH   1  24
ATOM     24  C   UNL A   1      37.895  19.515  25.097  1.00  0.00     0.042 C 
BRANCH  24  25
ATOM     25  C   UNL A   1      39.142  20.078  25.751  1.00  0.00     0.118 C 
BRANCH  25  26
ATOM     26  N   UNL A   1      40.180  19.059  25.887  1.00  0.00    -0.352 N 
ATOM     27  C   UNL A   1      41.541  19.195  26.006  1.00  0.00     0.251 C 
ATOM     28  H   UNL A   1      39.853  18.130  25.896  1.00  0.00     0.163 HD
ATOM     29  O   UNL A   1      42.274  18.232  25.822  1.00  0.00    -0.269 OA
BRANCH  27  30
ATOM     30  C   UNL A   1      42.116  20.511  26.350  1.00  0.00     0.039 A 
ATOM     31  C   UNL A   1      42.533  21.372  25.332  1.00  0.00     0.014 A 
ATOM     32  C   UNL A   1      42.253  20.887  27.687  1.00  0.00     0.014 A 
ATOM     33  C   UNL A   1      43.024  22.638  25.661  1.00  0.00     0.010 A 
ATOM     34  C   UNL A   1      42.617  22.185  28.005  1.00  0.00     0.010 A 
ATOM     35  C   UNL A   1      43.034  23.067  26.997  1.00  0.00    -0.014 A 
BRANCH  35  36
ATOM     36  C   UNL A   1      43.529  24.405  27.397  1.00  0.00     0.031 A 
ATOM     37  C   UNL A   1      42.542  25.444  27.859  1.00  0.00     0.074 A 
ATOM     38  C   UNL A   1      44.833  24.713  27.259  1.00  0.00     0.049 A 
ATOM     39  N   UNL A   1      42.727  26.717  28.095  1.00  0.00    -0.248 NA
ATOM     40  C   UNL A   1      41.147  25.000  28.037  1.00  0.00     0.031 C 
ATOM     41  C   UNL A   1      45.877  23.803  26.784  1.00  0.00     0.029 A 
ATOM     42  N   UNL A   1      45.499  25.890  27.489  1.00  0.00    -0.354 N 
ATOM     43  C   UNL A   1      41.475  27.224  28.421  1.00  0.00     0.074 A 
ATOM     44  C   UNL A   1      40.526  26.142  28.285  1.00  0.00     0.031 C 
ATOM     45  C   UNL A   1      47.055  24.449  26.780  1.00  0.00     0.029 A 
ATOM     46  C   UNL A   1      46.842  25.829  27.200  1.00  0.00     0.049 A 
ATOM     47  H   UNL A   1      45.058  26.702  27.828  1.00  0.00     0.167 HD
ATOM     48  C   UNL A   1      41.149  28.473  28.828  1.00  0.00     0.037 A 
ATOM     49  C   UNL A   1      47.786  26.787  27.254  1.00  0.00     0.037 A 
ATOM     50  C   UNL A   1      42.105  29.532  28.999  1.00  0.00     0.049 A 
ATOM     51  C   UNL A   1      47.394  28.170  27.699  1.00  0.00     0.074 A 
ATOM     52  C   UNL A   1      41.890  30.821  29.453  1.00  0.00     0.029 A 
ATOM     53  N   UNL A   1      43.461  29.418  28.732  1.00  0.00    -0.354 N 
ATOM     54  N   UNL A   1      46.216  28.625  28.051  1.00  0.00    -0.248 NA
ATOM     55  C   UNL A   1      48.465  29.176  27.759  1.00  0.00     0.031 C 
ATOM     56  C   UNL A   1      43.111  31.501  29.418  1.00  0.00     0.029 A 
ATOM     57  C   UNL A   1      44.094  30.619  28.999  1.00  0.00     0.049 A 
ATOM     58  H   UNL A   1      43.906  28.605  28.401  1.00  0.00     0.167 HD
ATOM     59  C   UNL A   1      46.412  29.950  28.417  1.00  0.00     0.074 A 
ATOM     60  C   UNL A   1      47.823  30.226  28.249  1.00  0.00     0.031 C 
ATOM     61  C   UNL A   1      45.506  30.859  28.856  1.00  0.00     0.037 A 
BRANCH  48  62
ATOM     62  C   UNL A   1      39.706  28.753  29.132  1.00  0.00     0.057 A 
ATOM     63  C   UNL A   1      39.181  28.607  30.423  1.00  0.00     0.134 A 
ATOM     64  C   UNL A   1      38.841  29.216  28.133  1.00  0.00     0.134 A 
ATOM     65  F   UNL A   1      39.951  28.152  31.424  1.00  0.00    -0.206 F 
ATOM     66  C   UNL A   1      37.843  28.888  30.705  1.00  0.00     0.040 A 
ATOM     67  C   UNL A   1      37.509  29.532  28.409  1.00  0.00     0.040 A 
ATOM     68  F   UNL A   1      39.278  29.383  26.876  1.00  0.00    -0.206 F 
ATOM     69  C   UNL A   1      37.005  29.362  29.696  1.00  0.00     0.006 A 
ENDBRANCH  48  62
BRANCH  49  70
ATOM     70  C   UNL A   1      49.195  26.478  26.894  1.00  0.00     0.057 A 
ATOM     71  C   UNL A   1      49.676  26.706  25.599  1.00  0.00     0.134 A 
ATOM     72  C   UNL A   1      50.084  25.919  27.819  1.00  0.00     0.134 A 
ATOM     73  F   UNL A   1      48.868  27.226  24.662  1.00  0.00    -0.206 F 
ATOM     74  C   UNL A   1      50.974  26.359  25.226  1.00  0.00     0.040 A 
ATOM     75  C   UNL A   1      51.397  25.594  27.469  1.00  0.00     0.040 A 
ATOM     76  F   UNL A   1      49.693  25.686  29.081  1.00  0.00    -0.206 F 
ATOM     77  C   UNL A   1      51.840  25.801  26.164  1.00  0.00     0.006 A 
ENDBRANCH  49  70
BRANCH  61  78
ATOM     78  C   UNL A   1      46.020  32.211  29.254  1.00  0.00     0.057 A 
ATOM     79  C   UNL A   1      46.477  32.483  30.549  1.00  0.00     0.134 A 
ATOM     80  C   UNL A   1      46.113  33.237  28.304  1.00  0.00     0.134 A 
ATOM     81  F   UNL A   1      46.406  31.547  31.507  1.00  0.00    -0.206 F 
ATOM     82  C   UNL A   1      46.990  33.735  30.891  1.00  0.00     0.040 A 
ATOM     83  C   UNL A   1      46.652  34.482  28.625  1.00  0.00     0.040 A 
ATOM     84  F   UNL A   1      45.702  33.036  27.043  1.00  0.00    -0.206 F 
ATOM     85  C   UNL A   1      47.088  34.735  29.924  1.00  0.00     0.006 A 
ENDBRANCH  61  78
ENDBRANCH  35  36
ENDBRANCH  27  30
ENDBRANCH  25  26
ENDBRANCH  24  25
ENDBRANCH   1  24
TORSDOF 13
ENDMDL
MODEL 3
REMARK VINA RESULT:     -12.0      4.327      9.191
REMARK SMILES CC1(C)CCC[C@@H]1NC(=O)CC1(C(=O)NCCCNC(=O)c2ccc(-c3c4nc(c(-c5c(F)cccc5F)c5ccc([nH]5)c(-c5c(F)cccc5F)c5nc(c(-c6c(F)cccc6F)c6ccc3[nH]6)C=C5)C=C4)cc2)CCCCC1
REMARK SMILES IDX 16 1 15 2 13 3 14 4 12 6 76 7 80 8 77 9 79 10 78 11 11 12
REMARK SMILES IDX 9 13 8 14 10 16 7 17 1 18 2 19 3 20 4 21 5 22 6 23 17 24
REMARK SMILES IDX 18 25 19 26 20 27 21 29 22 30 23 31 75 32 24 33 74 34 25 35
REMARK SMILES IDX 26 36 27 37 68 38 28 39 73 40 67 41 69 42 29 43 72 44 66 45
REMARK SMILES IDX 65 46 30 48 56 49 39 50 55 51 40 52 43 53 54 54 70 55 41 56
REMARK SMILES IDX 42 57 53 59 71 60 44 61 31 62 32 63 37 64 33 65 34 66 36 67
REMARK SMILES IDX 38 68 35 69 57 70 58 71 63 72 59 73 60 74 62 75 64 76 61 77
REMARK SMILES IDX 45 78 46 79 51 80 47 81 48 82 50 83 52 84 49 85
REMARK H PARENT 15 5 8 15 19 28 69 47 43 58
REMARK Flexibility Score: inf
ROOT
ATOM      1  C   UNL A   1      36.799  20.406  24.593  1.00  0.00     0.117 C 
ENDROOT
BRANCH   1   2
ATOM      2  N   UNL A   1      35.459  19.997  24.918  1.00  0.00    -0.356 N 
ATOM      3  C   UNL A   1      34.327  20.612  25.304  1.00  0.00     0.226 C 
ATOM      4  O   UNL A   1      33.468  19.773  25.625  1.00  0.00    -0.274 OA
ATOM      5  H   UNL A   1      35.340  19.023  24.835  1.00  0.00     0.163 HD
BRANCH   3   6
ATOM      6  C   UNL A   1      34.013  22.148  25.335  1.00  0.00     0.058 C 
ATOM      7  C   UNL A   1      34.163  22.755  23.907  1.00  0.00     0.017 C 
ATOM      8  C   UNL A   1      34.763  23.113  26.278  1.00  0.00     0.017 C 
ATOM      9  C   UNL A   1      35.550  23.284  23.499  1.00  0.00     0.001 C 
ATOM     10  C   UNL A   1      36.215  23.385  25.999  1.00  0.00     0.001 C 
ATOM     11  C   UNL A   1      36.413  23.925  24.594  1.00  0.00     0.000 C 
BRANCH   6  12
ATOM     12  C   UNL A   1      32.477  22.195  25.757  1.00  0.00     0.117 C 
BRANCH  12  13
ATOM     13  C   UNL A   1      32.075  23.196  26.830  1.00  0.00     0.221 C 
ATOM     14  N   UNL A   1      31.665  24.468  26.595  1.00  0.00    -0.353 N 
ATOM     15  H   UNL A   1      31.341  24.908  27.414  1.00  0.00     0.163 HD
ATOM     16  O   UNL A   1      32.100  22.843  28.016  1.00  0.00    -0.275 OA
BRANCH  14  17
ATOM     17  C   UNL A   1      31.581  25.352  25.427  1.00  0.00     0.087 C 
ATOM     18  C   UNL A   1      33.825  26.582  25.614  1.00  0.00     0.013 C 
ATOM     19  C   UNL A   1      32.304  26.713  25.670  1.00  0.00    -0.015 C 
ATOM     20  C   UNL A   1      31.903  27.388  27.005  1.00  0.00     0.013 C 
ATOM     21  C   UNL A   1      31.786  27.557  24.491  1.00  0.00     0.008 C 
ATOM     22  C   UNL A   1      30.317  27.187  24.353  1.00  0.00     0.003 C 
ATOM     23  C   UNL A   1      30.168  25.836  25.046  1.00  0.00     0.025 C 
ENDBRANCH  14  17
ENDBRANCH  12  13
ENDBRANCH   6  12
ENDBRANCH   3   6
ENDBRANCH   1   2
BRANCH   1  24
ATOM     24  C   UNL A   1      37.816  19.384  25.072  1.00  0.00     0.042 C 
BRANCH  24  25
ATOM     25  C   UNL A   1      38.943  20.031  25.853  1.00  0.00     0.118 C 
BRANCH  25  26
ATOM     26  N   UNL A   1      40.108  19.153  25.937  1.00  0.00    -0.352 N 
ATOM     27  C   UNL A   1      41.435  19.461  26.112  1.00  0.00     0.251 C 
ATOM     28  H   UNL A   1      39.911  18.192  25.855  1.00  0.00     0.163 HD
ATOM     29  O   UNL A   1      42.296  18.625  25.871  1.00  0.00    -0.269 OA
BRANCH  27  30
ATOM     30  C   UNL A   1      41.816  20.806  26.586  1.00  0.00     0.039 A 
ATOM     31  C   UNL A   1      42.331  21.739  25.683  1.00  0.00     0.014 A 
ATOM     32  C   UNL A   1      41.674  21.139  27.934  1.00  0.00     0.014 A 
ATOM     33  C   UNL A   1      42.638  23.028  26.125  1.00  0.00     0.010 A 
ATOM     34  C   UNL A   1      41.857  22.450  28.343  1.00  0.00     0.010 A 
ATOM     35  C   UNL A   1      42.367  23.403  27.450  1.00  0.00    -0.014 A 
BRANCH  35  36
ATOM     36  C   UNL A   1      42.658  24.761  27.965  1.00  0.00     0.031 A 
ATOM     37  C   UNL A   1      44.061  25.097  28.399  1.00  0.00     0.074 A 
ATOM     38  C   UNL A   1      41.659  25.650  28.131  1.00  0.00     0.049 A 
ATOM     39  N   UNL A   1      44.504  26.155  29.028  1.00  0.00    -0.248 NA
ATOM     40  C   UNL A   1      45.099  24.085  28.125  1.00  0.00     0.031 C 
ATOM     41  C   UNL A   1      40.254  25.426  27.786  1.00  0.00     0.029 A 
ATOM     42  N   UNL A   1      41.674  26.919  28.651  1.00  0.00    -0.354 N 
ATOM     43  C   UNL A   1      45.857  25.922  29.246  1.00  0.00     0.074 A 
ATOM     44  C   UNL A   1      46.149  24.598  28.746  1.00  0.00     0.031 C 
ATOM     45  C   UNL A   1      39.547  26.528  28.082  1.00  0.00     0.029 A 
ATOM     46  C   UNL A   1      40.435  27.515  28.685  1.00  0.00     0.049 A 
ATOM     47  H   UNL A   1      42.493  27.362  28.970  1.00  0.00     0.167 HD
ATOM     48  C   UNL A   1      46.780  26.751  29.785  1.00  0.00     0.037 A 
ATOM     49  C   UNL A   1      40.062  28.716  29.166  1.00  0.00     0.037 A 
ATOM     50  C   UNL A   1      46.489  28.082  30.242  1.00  0.00     0.049 A 
ATOM     51  C   UNL A   1      41.108  29.614  29.771  1.00  0.00     0.074 A 
ATOM     52  C   UNL A   1      47.359  29.024  30.760  1.00  0.00     0.029 A 
ATOM     53  N   UNL A   1      45.229  28.661  30.224  1.00  0.00    -0.354 N 
ATOM     54  N   UNL A   1      42.393  29.402  29.927  1.00  0.00    -0.248 NA
ATOM     55  C   UNL A   1      40.654  30.922  30.265  1.00  0.00     0.031 C 
ATOM     56  C   UNL A   1      46.616  30.159  31.098  1.00  0.00     0.029 A 
ATOM     57  C   UNL A   1      45.296  29.945  30.736  1.00  0.00     0.049 A 
ATOM     58  H   UNL A   1      44.410  28.224  29.898  1.00  0.00     0.167 HD
ATOM     59  C   UNL A   1      42.905  30.562  30.492  1.00  0.00     0.074 A 
ATOM     60  C   UNL A   1      41.794  31.478  30.647  1.00  0.00     0.031 C 
ATOM     61  C   UNL A   1      44.181  30.849  30.848  1.00  0.00     0.037 A 
BRANCH  48  62
ATOM     62  C   UNL A   1      48.191  26.248  29.892  1.00  0.00     0.057 A 
ATOM     63  C   UNL A   1      48.659  25.601  31.044  1.00  0.00     0.134 A 
ATOM     64  C   UNL A   1      49.079  26.373  28.817  1.00  0.00     0.134 A 
ATOM     65  F   UNL A   1      47.865  25.462  32.117  1.00  0.00    -0.206 F 
ATOM     66  C   UNL A   1      49.965  25.118  31.132  1.00  0.00     0.040 A 
ATOM     67  C   UNL A   1      50.378  25.865  28.880  1.00  0.00     0.040 A 
ATOM     68  F   UNL A   1      48.696  26.978  27.683  1.00  0.00    -0.206 F 
ATOM     69  C   UNL A   1      50.826  25.241  30.042  1.00  0.00     0.006 A 
ENDBRANCH  48  62
BRANCH  49  70
ATOM     70  C   UNL A   1      38.644  29.153  29.086  1.00  0.00     0.057 A 
ATOM     71  C   UNL A   1      38.102  29.630  27.886  1.00  0.00     0.134 A 
ATOM     72  C   UNL A   1      37.805  29.137  30.207  1.00  0.00     0.134 A 
ATOM     73  F   UNL A   1      38.859  29.685  26.780  1.00  0.00    -0.206 F 
ATOM     74  C   UNL A   1      36.793  30.108  27.811  1.00  0.00     0.040 A 
ATOM     75  C   UNL A   1      36.484  29.583  30.140  1.00  0.00     0.040 A 
ATOM     76  F   UNL A   1      38.256  28.680  31.385  1.00  0.00    -0.206 F 
ATOM     77  C   UNL A   1      35.979  30.083  28.941  1.00  0.00     0.006 A 
ENDBRANCH  49  70
BRANCH  61  78
ATOM     78  C   UNL A   1      44.461  32.227  31.372  1.00  0.00     0.057 A 
ATOM     79  C   UNL A   1      44.444  32.523  32.740  1.00  0.00     0.134 A 
ATOM     80  C   UNL A   1      44.813  33.257  30.490  1.00  0.00     0.134 A 
ATOM     81  F   UNL A   1      44.104  31.583  33.636  1.00  0.00    -0.206 F 
ATOM     82  C   UNL A   1      44.747  33.801  33.212  1.00  0.00     0.040 A 
ATOM     83  C   UNL A   1      45.148  34.529  30.950  1.00  0.00     0.040 A 
ATOM     84  F   UNL A   1      44.859  33.035  29.167  1.00  0.00    -0.206 F 
ATOM     85  C   UNL A   1      45.110  34.805  32.316  1.00  0.00     0.006 A 
ENDBRANCH  61  78
ENDBRANCH  35  36
ENDBRANCH  27  30
ENDBRANCH  25  26
ENDBRANCH  24  25
ENDBRANCH   1  24
TORSDOF 13
ENDMDL
