MODEL 1
REMARK VINA RESULT:     -10.8      0.000      0.000
REMARK SMILES CCC(CC)Oc1ccc(OC)cc1/C=C/C(=O)NCCCNC(=O)c1ccc(-c2c3nc(c(-c4c(F)cccc4F)c4ccc([nH]4)c(-c4c(F)cccc4F)c4nc(c(-c5c(F)cccc5F)c5ccc2[nH]5)C=C4)C=C3)cc1
REMARK SMILES IDX 20 1 19 2 17 3 18 4 16 6 15 7 14 8 7 9 8 10 9 11 13 12 10 13
REMARK SMILES IDX 6 14 3 15 2 16 1 17 4 18 5 19 11 20 12 21 21 22 22 23 23 24
REMARK SMILES IDX 24 25 25 27 26 28 27 29 79 30 28 31 78 32 29 33 30 34 31 35
REMARK SMILES IDX 72 36 32 37 77 38 71 39 73 40 33 41 76 42 70 43 69 44 34 46
REMARK SMILES IDX 60 47 43 48 59 49 44 50 47 51 58 52 74 53 45 54 46 55 57 57
REMARK SMILES IDX 75 58 48 59 35 60 36 61 41 62 37 63 38 64 40 65 42 66 39 67
REMARK SMILES IDX 61 68 62 69 67 70 63 71 64 72 66 73 68 74 65 75 49 76 50 77
REMARK SMILES IDX 55 78 51 79 52 80 54 81 56 82 53 83
REMARK H PARENT 19 5 23 26 73 45 47 56
REMARK Flexibility Score: inf
ROOT
ATOM      1  C   UNL A   1      32.255  26.781  26.178  1.00  0.00     0.118 C 
ENDROOT
BRANCH   1   2
ATOM      2  N   UNL A   1      31.354  25.749  26.635  1.00  0.00    -0.352 N 
ATOM      3  C   UNL A   1      31.500  24.403  26.645  1.00  0.00     0.244 C 
ATOM      4  O   UNL A   1      30.684  23.712  27.251  1.00  0.00    -0.270 OA
ATOM      5  H   UNL A   1      30.498  26.077  26.997  1.00  0.00     0.163 HD
BRANCH   3   6
ATOM      6  C   UNL A   1      32.658  23.745  26.007  1.00  0.00     0.072 C 
ATOM      7  C   UNL A   1      32.710  22.447  25.660  1.00  0.00     0.018 C 
BRANCH   7   8
ATOM      8  C   UNL A   1      33.987  21.778  25.324  1.00  0.00     0.020 A 
ATOM      9  C   UNL A   1      34.077  20.451  24.875  1.00  0.00     0.127 A 
ATOM     10  C   UNL A   1      35.324  19.821  24.783  1.00  0.00     0.051 A 
ATOM     11  C   UNL A   1      36.497  20.533  25.032  1.00  0.00     0.050 A 
ATOM     12  C   UNL A   1      35.189  22.472  25.591  1.00  0.00     0.058 A 
ATOM     13  C   UNL A   1      36.436  21.871  25.412  1.00  0.00     0.119 A 
BRANCH   9  14
ATOM     14  O   UNL A   1      32.980  19.674  24.643  1.00  0.00    -0.490 OA
BRANCH  14  15
ATOM     15  C   UNL A   1      33.189  18.260  24.407  1.00  0.00     0.172 C 
BRANCH  15  16
ATOM     16  C   UNL A   1      32.528  17.469  25.536  1.00  0.00     0.042 C 
ATOM     17  C   UNL A   1      33.042  16.058  25.748  1.00  0.00     0.008 C 
ENDBRANCH  15  16
BRANCH  15  18
ATOM     18  C   UNL A   1      32.941  17.699  22.990  1.00  0.00     0.042 C 
ATOM     19  C   UNL A   1      32.153  18.578  22.024  1.00  0.00     0.008 C 
ENDBRANCH  15  18
ENDBRANCH  14  15
ENDBRANCH   9  14
BRANCH  13  20
ATOM     20  O   UNL A   1      37.646  22.474  25.618  1.00  0.00    -0.497 OA
ATOM     21  C   UNL A   1      37.609  23.817  26.091  1.00  0.00     0.278 C 
ENDBRANCH  13  20
ENDBRANCH   7   8
ENDBRANCH   3   6
ENDBRANCH   1   2
BRANCH   1  22
ATOM     22  C   UNL A   1      32.315  27.946  27.160  1.00  0.00     0.042 C 
BRANCH  22  23
ATOM     23  C   UNL A   1      33.689  28.592  27.219  1.00  0.00     0.118 C 
BRANCH  23  24
ATOM     24  N   UNL A   1      33.706  29.946  27.753  1.00  0.00    -0.352 N 
ATOM     25  C   UNL A   1      34.767  30.637  28.306  1.00  0.00     0.251 C 
ATOM     26  H   UNL A   1      32.850  30.433  27.717  1.00  0.00     0.163 HD
ATOM     27  O   UNL A   1      34.602  31.766  28.748  1.00  0.00    -0.269 OA
BRANCH  25  28
ATOM     28  C   UNL A   1      36.092  29.980  28.412  1.00  0.00     0.039 A 
ATOM     29  C   UNL A   1      36.985  30.078  27.340  1.00  0.00     0.014 A 
ATOM     30  C   UNL A   1      36.479  29.327  29.582  1.00  0.00     0.014 A 
ATOM     31  C   UNL A   1      38.295  29.611  27.485  1.00  0.00     0.010 A 
ATOM     32  C   UNL A   1      37.806  28.962  29.761  1.00  0.00     0.010 A 
ATOM     33  C   UNL A   1      38.732  29.101  28.716  1.00  0.00    -0.014 A 
BRANCH  33  34
ATOM     34  C   UNL A   1      40.139  28.690  28.958  1.00  0.00     0.031 A 
ATOM     35  C   UNL A   1      41.119  29.689  29.508  1.00  0.00     0.074 A 
ATOM     36  C   UNL A   1      40.567  27.474  28.564  1.00  0.00     0.049 A 
ATOM     37  N   UNL A   1      42.422  29.615  29.595  1.00  0.00    -0.248 NA
ATOM     38  C   UNL A   1      40.558  30.968  29.973  1.00  0.00     0.031 C 
ATOM     39  C   UNL A   1      39.734  26.432  27.961  1.00  0.00     0.029 A 
ATOM     40  N   UNL A   1      41.823  26.920  28.589  1.00  0.00    -0.354 N 
ATOM     41  C   UNL A   1      42.837  30.852  30.072  1.00  0.00     0.074 A 
ATOM     42  C   UNL A   1      41.654  31.672  30.209  1.00  0.00     0.031 C 
ATOM     43  C   UNL A   1      40.497  25.360  27.690  1.00  0.00     0.029 A 
ATOM     44  C   UNL A   1      41.878  25.655  28.058  1.00  0.00     0.049 A 
ATOM     45  H   UNL A   1      42.610  27.387  28.954  1.00  0.00     0.167 HD
ATOM     46  C   UNL A   1      44.089  31.263  30.387  1.00  0.00     0.037 A 
ATOM     47  C   UNL A   1      42.927  24.829  27.876  1.00  0.00     0.037 A 
ATOM     48  C   UNL A   1      45.254  30.424  30.309  1.00  0.00     0.049 A 
ATOM     49  C   UNL A   1      44.298  25.281  28.291  1.00  0.00     0.074 A 
ATOM     50  C   UNL A   1      46.554  30.713  30.681  1.00  0.00     0.029 A 
ATOM     51  N   UNL A   1      45.252  29.118  29.839  1.00  0.00    -0.354 N 
ATOM     52  N   UNL A   1      44.672  26.436  28.786  1.00  0.00    -0.248 NA
ATOM     53  C   UNL A   1      45.392  24.314  28.127  1.00  0.00     0.031 C 
ATOM     54  C   UNL A   1      47.345  29.591  30.414  1.00  0.00     0.029 A 
ATOM     55  C   UNL A   1      46.530  28.590  29.908  1.00  0.00     0.049 A 
ATOM     56  H   UNL A   1      44.460  28.639  29.505  1.00  0.00     0.167 HD
ATOM     57  C   UNL A   1      46.037  26.327  29.018  1.00  0.00     0.074 A 
ATOM     58  C   UNL A   1      46.424  24.991  28.615  1.00  0.00     0.031 C 
ATOM     59  C   UNL A   1      46.891  27.251  29.519  1.00  0.00     0.037 A 
BRANCH  46  60
ATOM     60  C   UNL A   1      44.248  32.681  30.849  1.00  0.00     0.057 A 
ATOM     61  C   UNL A   1      44.496  33.729  29.951  1.00  0.00     0.134 A 
ATOM     62  C   UNL A   1      44.160  33.005  32.208  1.00  0.00     0.134 A 
ATOM     63  F   UNL A   1      44.608  33.485  28.636  1.00  0.00    -0.206 F 
ATOM     64  C   UNL A   1      44.694  35.039  30.393  1.00  0.00     0.040 A 
ATOM     65  C   UNL A   1      44.325  34.316  32.659  1.00  0.00     0.040 A 
ATOM     66  F   UNL A   1      43.918  32.053  33.121  1.00  0.00    -0.206 F 
ATOM     67  C   UNL A   1      44.605  35.335  31.751  1.00  0.00     0.006 A 
ENDBRANCH  46  60
BRANCH  47  68
ATOM     68  C   UNL A   1      42.709  23.478  27.306  1.00  0.00     0.057 A 
ATOM     69  C   UNL A   1      42.847  23.249  25.932  1.00  0.00     0.134 A 
ATOM     70  C   UNL A   1      42.380  22.383  28.113  1.00  0.00     0.134 A 
ATOM     71  F   UNL A   1      43.145  24.263  25.107  1.00  0.00    -0.206 F 
ATOM     72  C   UNL A   1      42.656  21.983  25.378  1.00  0.00     0.040 A 
ATOM     73  C   UNL A   1      42.205  21.106  27.575  1.00  0.00     0.040 A 
ATOM     74  F   UNL A   1      42.242  22.535  29.438  1.00  0.00    -0.206 F 
ATOM     75  C   UNL A   1      42.339  20.904  26.203  1.00  0.00     0.006 A 
ENDBRANCH  47  68
BRANCH  59  76
ATOM     76  C   UNL A   1      48.320  26.837  29.705  1.00  0.00     0.057 A 
ATOM     77  C   UNL A   1      48.742  26.132  30.839  1.00  0.00     0.134 A 
ATOM     78  C   UNL A   1      49.268  27.098  28.709  1.00  0.00     0.134 A 
ATOM     79  F   UNL A   1      47.882  25.863  31.831  1.00  0.00    -0.206 F 
ATOM     80  C   UNL A   1      50.065  25.712  30.980  1.00  0.00     0.040 A 
ATOM     81  C   UNL A   1      50.590  26.665  28.830  1.00  0.00     0.040 A 
ATOM     82  F   UNL A   1      48.923  27.764  27.596  1.00  0.00    -0.206 F 
ATOM     83  C   UNL A   1      50.991  25.971  29.970  1.00  0.00     0.006 A 
ENDBRANCH  59  76
ENDBRANCH  33  34
ENDBRANCH  25  28
ENDBRANCH  23  24
ENDBRANCH  22  23
ENDBRANCH   1  22
TORSDOF 16
ENDMDL
MODEL 2
REMARK VINA RESULT:     -10.8      4.150      8.205
REMARK SMILES CCC(CC)Oc1ccc(OC)cc1/C=C/C(=O)NCCCNC(=O)c1ccc(-c2c3nc(c(-c4c(F)cccc4F)c4ccc([nH]4)c(-c4c(F)cccc4F)c4nc(c(-c5c(F)cccc5F)c5ccc2[nH]5)C=C4)C=C3)cc1
REMARK SMILES IDX 20 1 19 2 17 3 18 4 16 6 15 7 14 8 7 9 8 10 9 11 13 12 10 13
REMARK SMILES IDX 6 14 3 15 2 16 1 17 4 18 5 19 11 20 12 21 21 22 22 23 23 24
REMARK SMILES IDX 24 25 25 27 26 28 27 29 79 30 28 31 78 32 29 33 30 34 31 35
REMARK SMILES IDX 72 36 32 37 77 38 71 39 73 40 33 41 76 42 70 43 69 44 34 46
REMARK SMILES IDX 60 47 43 48 59 49 44 50 47 51 58 52 74 53 45 54 46 55 57 57
REMARK SMILES IDX 75 58 48 59 35 60 36 61 41 62 37 63 38 64 40 65 42 66 39 67
REMARK SMILES IDX 61 68 62 69 67 70 63 71 64 72 66 73 68 74 65 75 49 76 50 77
REMARK SMILES IDX 55 78 51 79 52 80 54 81 56 82 53 83
REMARK H PARENT 19 5 23 26 73 45 47 56
REMARK Flexibility Score: inf
ROOT
ATOM      1  C   UNL A   1      31.829  30.108  26.655  1.00  0.00     0.118 C 
ENDROOT
BRANCH   1   2
ATOM      2  N   UNL A   1      33.053  29.897  27.392  1.00  0.00    -0.352 N 
ATOM      3  C   UNL A   1      34.082  29.049  27.152  1.00  0.00     0.244 C 
ATOM      4  O   UNL A   1      35.119  29.159  27.803  1.00  0.00    -0.270 OA
ATOM      5  H   UNL A   1      33.156  30.458  28.195  1.00  0.00     0.163 HD
BRANCH   3   6
ATOM      6  C   UNL A   1      34.020  28.040  26.074  1.00  0.00     0.072 C 
ATOM      7  C   UNL A   1      33.450  26.828  26.188  1.00  0.00     0.018 C 
BRANCH   7   8
ATOM      8  C   UNL A   1      33.694  25.754  25.199  1.00  0.00     0.020 A 
ATOM      9  C   UNL A   1      32.904  25.554  24.056  1.00  0.00     0.127 A 
ATOM     10  C   UNL A   1      33.063  24.397  23.284  1.00  0.00     0.051 A 
ATOM     11  C   UNL A   1      34.075  23.483  23.577  1.00  0.00     0.050 A 
ATOM     12  C   UNL A   1      34.700  24.804  25.487  1.00  0.00     0.058 A 
ATOM     13  C   UNL A   1      34.917  23.697  24.665  1.00  0.00     0.119 A 
BRANCH   9  14
ATOM     14  O   UNL A   1      31.871  26.378  23.718  1.00  0.00    -0.490 OA
BRANCH  14  15
ATOM     15  C   UNL A   1      31.994  27.156  22.503  1.00  0.00     0.172 C 
BRANCH  15  16
ATOM     16  C   UNL A   1      30.907  28.231  22.493  1.00  0.00     0.042 C 
ATOM     17  C   UNL A   1      29.710  27.974  23.388  1.00  0.00     0.008 C 
ENDBRANCH  15  16
BRANCH  15  18
ATOM     18  C   UNL A   1      33.394  27.644  22.072  1.00  0.00     0.042 C 
ATOM     19  C   UNL A   1      33.946  28.878  22.779  1.00  0.00     0.008 C 
ENDBRANCH  15  18
ENDBRANCH  14  15
ENDBRANCH   9  14
BRANCH  13  20
ATOM     20  O   UNL A   1      35.881  22.746  24.851  1.00  0.00    -0.497 OA
ATOM     21  C   UNL A   1      36.763  22.519  23.755  1.00  0.00     0.278 C 
ENDBRANCH  13  20
ENDBRANCH   7   8
ENDBRANCH   3   6
ENDBRANCH   1   2
BRANCH   1  22
ATOM     22  C   UNL A   1      31.324  31.538  26.809  1.00  0.00     0.042 C 
BRANCH  22  23
ATOM     23  C   UNL A   1      32.427  32.569  26.637  1.00  0.00     0.118 C 
BRANCH  23  24
ATOM     24  N   UNL A   1      32.217  33.816  27.359  1.00  0.00    -0.352 N 
ATOM     25  C   UNL A   1      33.007  34.383  28.339  1.00  0.00     0.251 C 
ATOM     26  H   UNL A   1      31.406  34.320  27.117  1.00  0.00     0.163 HD
ATOM     27  O   UNL A   1      32.664  35.427  28.879  1.00  0.00    -0.269 OA
BRANCH  25  28
ATOM     28  C   UNL A   1      34.243  33.689  28.776  1.00  0.00     0.039 A 
ATOM     29  C   UNL A   1      35.483  34.281  28.510  1.00  0.00     0.014 A 
ATOM     30  C   UNL A   1      34.182  32.498  29.497  1.00  0.00     0.014 A 
ATOM     31  C   UNL A   1      36.645  33.729  29.057  1.00  0.00     0.010 A 
ATOM     32  C   UNL A   1      35.320  32.013  30.127  1.00  0.00     0.010 A 
ATOM     33  C   UNL A   1      36.566  32.623  29.917  1.00  0.00    -0.014 A 
BRANCH  33  34
ATOM     34  C   UNL A   1      37.754  32.062  30.609  1.00  0.00     0.031 A 
ATOM     35  C   UNL A   1      38.568  30.992  29.935  1.00  0.00     0.074 A 
ATOM     36  C   UNL A   1      38.024  32.409  31.884  1.00  0.00     0.049 A 
ATOM     37  N   UNL A   1      39.501  30.219  30.430  1.00  0.00    -0.248 NA
ATOM     38  C   UNL A   1      38.249  30.719  28.524  1.00  0.00     0.031 C 
ATOM     39  C   UNL A   1      37.277  33.389  32.675  1.00  0.00     0.029 A 
ATOM     40  N   UNL A   1      38.988  31.952  32.746  1.00  0.00    -0.354 N 
ATOM     41  C   UNL A   1      39.838  29.339  29.410  1.00  0.00     0.074 A 
ATOM     42  C   UNL A   1      38.979  29.640  28.287  1.00  0.00     0.031 C 
ATOM     43  C   UNL A   1      37.822  33.472  33.900  1.00  0.00     0.029 A 
ATOM     44  C   UNL A   1      38.925  32.522  33.995  1.00  0.00     0.049 A 
ATOM     45  H   UNL A   1      39.662  31.280  32.494  1.00  0.00     0.167 HD
ATOM     46  C   UNL A   1      40.793  28.377  29.402  1.00  0.00     0.037 A 
ATOM     47  C   UNL A   1      39.666  32.295  35.096  1.00  0.00     0.037 A 
ATOM     48  C   UNL A   1      41.688  28.124  30.498  1.00  0.00     0.049 A 
ATOM     49  C   UNL A   1      40.762  31.268  35.046  1.00  0.00     0.074 A 
ATOM     50  C   UNL A   1      42.743  27.231  30.564  1.00  0.00     0.029 A 
ATOM     51  N   UNL A   1      41.641  28.781  31.719  1.00  0.00    -0.354 N 
ATOM     52  N   UNL A   1      41.104  30.474  34.061  1.00  0.00    -0.248 NA
ATOM     53  C   UNL A   1      41.578  31.110  36.258  1.00  0.00     0.031 C 
ATOM     54  C   UNL A   1      43.320  27.331  31.834  1.00  0.00     0.029 A 
ATOM     55  C   UNL A   1      42.646  28.311  32.547  1.00  0.00     0.049 A 
ATOM     56  H   UNL A   1      40.989  29.478  31.962  1.00  0.00     0.167 HD
ATOM     57  C   UNL A   1      42.190  29.741  34.522  1.00  0.00     0.074 A 
ATOM     58  C   UNL A   1      42.453  30.190  35.874  1.00  0.00     0.031 C 
ATOM     59  C   UNL A   1      42.903  28.784  33.883  1.00  0.00     0.037 A 
BRANCH  46  60
ATOM     60  C   UNL A   1      40.911  27.541  28.162  1.00  0.00     0.057 A 
ATOM     61  C   UNL A   1      41.709  27.932  27.078  1.00  0.00     0.134 A 
ATOM     62  C   UNL A   1      40.215  26.332  28.046  1.00  0.00     0.134 A 
ATOM     63  F   UNL A   1      42.391  29.087  27.119  1.00  0.00    -0.206 F 
ATOM     64  C   UNL A   1      41.775  27.174  25.908  1.00  0.00     0.040 A 
ATOM     65  C   UNL A   1      40.297  25.549  26.892  1.00  0.00     0.040 A 
ATOM     66  F   UNL A   1      39.438  25.893  29.048  1.00  0.00    -0.206 F 
ATOM     67  C   UNL A   1      41.069  25.977  25.814  1.00  0.00     0.006 A 
ENDBRANCH  46  60
BRANCH  47  68
ATOM     68  C   UNL A   1      39.416  33.084  36.327  1.00  0.00     0.057 A 
ATOM     69  C   UNL A   1      40.057  34.310  36.535  1.00  0.00     0.134 A 
ATOM     70  C   UNL A   1      38.522  32.648  37.311  1.00  0.00     0.134 A 
ATOM     71  F   UNL A   1      40.937  34.772  35.634  1.00  0.00    -0.206 F 
ATOM     72  C   UNL A   1      39.828  35.072  37.681  1.00  0.00     0.040 A 
ATOM     73  C   UNL A   1      38.267  33.408  38.455  1.00  0.00     0.040 A 
ATOM     74  F   UNL A   1      37.869  31.485  37.167  1.00  0.00    -0.206 F 
ATOM     75  C   UNL A   1      38.924  34.623  38.644  1.00  0.00     0.006 A 
ENDBRANCH  47  68
BRANCH  59  76
ATOM     76  C   UNL A   1      44.066  28.187  34.618  1.00  0.00     0.057 A 
ATOM     77  C   UNL A   1      45.337  28.772  34.587  1.00  0.00     0.134 A 
ATOM     78  C   UNL A   1      43.893  27.046  35.410  1.00  0.00     0.134 A 
ATOM     79  F   UNL A   1      45.567  29.860  33.837  1.00  0.00    -0.206 F 
ATOM     80  C   UNL A   1      46.401  28.234  35.311  1.00  0.00     0.040 A 
ATOM     81  C   UNL A   1      44.945  26.510  36.155  1.00  0.00     0.040 A 
ATOM     82  F   UNL A   1      42.697  26.442  35.486  1.00  0.00    -0.206 F 
ATOM     83  C   UNL A   1      46.204  27.104  36.105  1.00  0.00     0.006 A 
ENDBRANCH  59  76
ENDBRANCH  33  34
ENDBRANCH  25  28
ENDBRANCH  23  24
ENDBRANCH  22  23
ENDBRANCH   1  22
TORSDOF 16
ENDMDL
MODEL 3
REMARK VINA RESULT:     -10.7      2.339      3.472
REMARK SMILES CCC(CC)Oc1ccc(OC)cc1/C=C/C(=O)NCCCNC(=O)c1ccc(-c2c3nc(c(-c4c(F)cccc4F)c4ccc([nH]4)c(-c4c(F)cccc4F)c4nc(c(-c5c(F)cccc5F)c5ccc2[nH]5)C=C4)C=C3)cc1
REMARK SMILES IDX 20 1 19 2 17 3 18 4 16 6 15 7 14 8 7 9 8 10 9 11 13 12 10 13
REMARK SMILES IDX 6 14 3 15 2 16 1 17 4 18 5 19 11 20 12 21 21 22 22 23 23 24
REMARK SMILES IDX 24 25 25 27 26 28 27 29 79 30 28 31 78 32 29 33 30 34 31 35
REMARK SMILES IDX 72 36 32 37 77 38 71 39 73 40 33 41 76 42 70 43 69 44 34 46
REMARK SMILES IDX 60 47 43 48 59 49 44 50 47 51 58 52 74 53 45 54 46 55 57 57
REMARK SMILES IDX 75 58 48 59 35 60 36 61 41 62 37 63 38 64 40 65 42 66 39 67
REMARK SMILES IDX 61 68 62 69 67 70 63 71 64 72 66 73 68 74 65 75 49 76 50 77
REMARK SMILES IDX 55 78 51 79 52 80 54 81 56 82 53 83
REMARK H PARENT 19 5 23 26 73 45 47 56
REMARK Flexibility Score: inf
ROOT
ATOM      1  C   UNL A   1      32.960  29.654  25.940  1.00  0.00     0.118 C 
ENDROOT
BRANCH   1   2
ATOM      2  N   UNL A   1      33.477  29.108  24.706  1.00  0.00    -0.352 N 
ATOM      3  C   UNL A   1      33.774  27.829  24.374  1.00  0.00     0.244 C 
ATOM      4  O   UNL A   1      34.029  27.554  23.203  1.00  0.00    -0.270 OA
ATOM      5  H   UNL A   1      33.639  29.770  23.996  1.00  0.00     0.163 HD
BRANCH   3   6
ATOM      6  C   UNL A   1      33.726  26.738  25.369  1.00  0.00     0.072 C 
ATOM      7  C   UNL A   1      34.256  25.515  25.194  1.00  0.00     0.018 C 
BRANCH   7   8
ATOM      8  C   UNL A   1      33.906  24.379  26.077  1.00  0.00     0.020 A 
ATOM      9  C   UNL A   1      34.808  23.363  26.433  1.00  0.00     0.127 A 
ATOM     10  C   UNL A   1      34.352  22.216  27.093  1.00  0.00     0.051 A 
ATOM     11  C   UNL A   1      33.021  22.114  27.499  1.00  0.00     0.050 A 
ATOM     12  C   UNL A   1      32.559  24.243  26.481  1.00  0.00     0.058 A 
ATOM     13  C   UNL A   1      32.124  23.141  27.218  1.00  0.00     0.119 A 
BRANCH   9  14
ATOM     14  O   UNL A   1      36.116  23.368  26.046  1.00  0.00    -0.490 OA
BRANCH  14  15
ATOM     15  C   UNL A   1      36.667  22.143  25.504  1.00  0.00     0.172 C 
BRANCH  15  16
ATOM     16  C   UNL A   1      36.223  22.006  24.047  1.00  0.00     0.042 C 
ATOM     17  C   UNL A   1      36.610  23.146  23.124  1.00  0.00     0.008 C 
ENDBRANCH  15  16
BRANCH  15  18
ATOM     18  C   UNL A   1      38.153  21.818  25.763  1.00  0.00     0.042 C 
ATOM     19  C   UNL A   1      39.003  22.915  26.396  1.00  0.00     0.008 C 
ENDBRANCH  15  18
ENDBRANCH  14  15
ENDBRANCH   9  14
BRANCH  13  20
ATOM     20  O   UNL A   1      30.850  22.941  27.673  1.00  0.00    -0.497 OA
ATOM     21  C   UNL A   1      29.838  22.811  26.679  1.00  0.00     0.278 C 
ENDBRANCH  13  20
ENDBRANCH   7   8
ENDBRANCH   3   6
ENDBRANCH   1   2
BRANCH   1  22
ATOM     22  C   UNL A   1      33.972  30.577  26.608  1.00  0.00     0.042 C 
BRANCH  22  23
ATOM     23  C   UNL A   1      34.687  29.915  27.775  1.00  0.00     0.118 C 
BRANCH  23  24
ATOM     24  N   UNL A   1      34.807  30.741  28.968  1.00  0.00    -0.352 N 
ATOM     25  C   UNL A   1      35.904  30.906  29.789  1.00  0.00     0.251 C 
ATOM     26  H   UNL A   1      34.001  31.247  29.222  1.00  0.00     0.163 HD
ATOM     27  O   UNL A   1      35.827  31.613  30.785  1.00  0.00    -0.269 OA
BRANCH  25  28
ATOM     28  C   UNL A   1      37.159  30.174  29.491  1.00  0.00     0.039 A 
ATOM     29  C   UNL A   1      37.680  30.222  28.193  1.00  0.00     0.014 A 
ATOM     30  C   UNL A   1      37.854  29.499  30.493  1.00  0.00     0.014 A 
ATOM     31  C   UNL A   1      38.942  29.681  27.932  1.00  0.00     0.010 A 
ATOM     32  C   UNL A   1      39.149  29.058  30.258  1.00  0.00     0.010 A 
ATOM     33  C   UNL A   1      39.711  29.145  28.975  1.00  0.00    -0.014 A 
BRANCH  33  34
ATOM     34  C   UNL A   1      41.098  28.653  28.776  1.00  0.00     0.031 A 
ATOM     35  C   UNL A   1      42.242  29.629  28.806  1.00  0.00     0.074 A 
ATOM     36  C   UNL A   1      41.321  27.367  28.438  1.00  0.00     0.049 A 
ATOM     37  N   UNL A   1      43.490  29.461  28.450  1.00  0.00    -0.248 NA
ATOM     38  C   UNL A   1      41.923  30.998  29.247  1.00  0.00     0.031 C 
ATOM     39  C   UNL A   1      40.294  26.331  28.314  1.00  0.00     0.029 A 
ATOM     40  N   UNL A   1      42.486  26.721  28.110  1.00  0.00    -0.354 N 
ATOM     41  C   UNL A   1      44.086  30.710  28.572  1.00  0.00     0.074 A 
ATOM     42  C   UNL A   1      43.055  31.633  28.988  1.00  0.00     0.031 C 
ATOM     43  C   UNL A   1      40.878  25.175  27.955  1.00  0.00     0.029 A 
ATOM     44  C   UNL A   1      42.308  25.400  27.780  1.00  0.00     0.049 A 
ATOM     45  H   UNL A   1      43.366  27.163  28.111  1.00  0.00     0.167 HD
ATOM     46  C   UNL A   1      45.382  31.053  28.375  1.00  0.00     0.037 A 
ATOM     47  C   UNL A   1      43.198  24.475  27.369  1.00  0.00     0.037 A 
ATOM     48  C   UNL A   1      46.417  30.118  28.023  1.00  0.00     0.049 A 
ATOM     49  C   UNL A   1      44.643  24.861  27.218  1.00  0.00     0.074 A 
ATOM     50  C   UNL A   1      47.774  30.345  27.880  1.00  0.00     0.029 A 
ATOM     51  N   UNL A   1      46.206  28.770  27.776  1.00  0.00    -0.354 N 
ATOM     52  N   UNL A   1      45.205  26.035  27.383  1.00  0.00    -0.248 NA
ATOM     53  C   UNL A   1      45.577  23.796  26.830  1.00  0.00     0.031 C 
ATOM     54  C   UNL A   1      48.382  29.138  27.522  1.00  0.00     0.029 A 
ATOM     55  C   UNL A   1      47.409  28.152  27.477  1.00  0.00     0.049 A 
ATOM     56  H   UNL A   1      45.332  28.319  27.807  1.00  0.00     0.167 HD
ATOM     57  C   UNL A   1      46.560  25.844  27.145  1.00  0.00     0.074 A 
ATOM     58  C   UNL A   1      46.735  24.441  26.831  1.00  0.00     0.031 C 
ATOM     59  C   UNL A   1      47.565  26.750  27.185  1.00  0.00     0.037 A 
BRANCH  46  60
ATOM     60  C   UNL A   1      45.741  32.500  28.545  1.00  0.00     0.057 A 
ATOM     61  C   UNL A   1      45.691  33.405  27.476  1.00  0.00     0.134 A 
ATOM     62  C   UNL A   1      46.147  32.994  29.790  1.00  0.00     0.134 A 
ATOM     63  F   UNL A   1      45.325  32.994  26.253  1.00  0.00    -0.206 F 
ATOM     64  C   UNL A   1      46.075  34.739  27.630  1.00  0.00     0.040 A 
ATOM     65  C   UNL A   1      46.503  34.333  29.963  1.00  0.00     0.040 A 
ATOM     66  F   UNL A   1      46.210  32.185  30.858  1.00  0.00    -0.206 F 
ATOM     67  C   UNL A   1      46.479  35.206  28.878  1.00  0.00     0.006 A 
ENDBRANCH  46  60
BRANCH  47  68
ATOM     68  C   UNL A   1      42.749  23.086  27.109  1.00  0.00     0.057 A 
ATOM     69  C   UNL A   1      42.651  22.597  25.801  1.00  0.00     0.134 A 
ATOM     70  C   UNL A   1      42.428  22.210  28.152  1.00  0.00     0.134 A 
ATOM     71  F   UNL A   1      42.931  23.396  24.761  1.00  0.00    -0.206 F 
ATOM     72  C   UNL A   1      42.241  21.291  25.537  1.00  0.00     0.040 A 
ATOM     73  C   UNL A   1      42.034  20.893  27.903  1.00  0.00     0.040 A 
ATOM     74  F   UNL A   1      42.510  22.615  29.428  1.00  0.00    -0.206 F 
ATOM     75  C   UNL A   1      41.936  20.432  26.591  1.00  0.00     0.006 A 
ENDBRANCH  47  68
BRANCH  59  76
ATOM     76  C   UNL A   1      48.954  26.247  26.926  1.00  0.00     0.057 A 
ATOM     77  C   UNL A   1      49.567  26.383  25.675  1.00  0.00     0.134 A 
ATOM     78  C   UNL A   1      49.704  25.674  27.960  1.00  0.00     0.134 A 
ATOM     79  F   UNL A   1      48.896  26.914  24.643  1.00  0.00    -0.206 F 
ATOM     80  C   UNL A   1      50.876  25.954  25.459  1.00  0.00     0.040 A 
ATOM     81  C   UNL A   1      51.021  25.259  27.761  1.00  0.00     0.040 A 
ATOM     82  F   UNL A   1      49.174  25.523  29.184  1.00  0.00    -0.206 F 
ATOM     83  C   UNL A   1      51.610  25.397  26.506  1.00  0.00     0.006 A 
ENDBRANCH  59  76
ENDBRANCH  33  34
ENDBRANCH  25  28
ENDBRANCH  23  24
ENDBRANCH  22  23
ENDBRANCH   1  22
TORSDOF 16
ENDMDL
