MODEL 1
REMARK VINA RESULT:     -11.8      0.000      0.000
REMARK SMILES CC1(C)CCN(S(=O)(=O)c2ccc(O)c(C(=O)NCCCNC(=O)c3ccc(-c4c5nc(c(-c6c(F)cccc6F)c6ccc([nH]6)c(-c6c(F)cccc6F)c6nc(c(-c7c(F)cccc7F)c7ccc4[nH]7)C=C6)C=C5)cc3)c2)C1
REMARK SMILES IDX 20 1 19 2 18 3 16 4 17 5 15 7 10 8 11 9 79 10 12 11 13 12
REMARK SMILES IDX 7 13 8 14 9 15 6 16 1 17 2 18 3 19 4 20 80 21 5 22 14 23
REMARK SMILES IDX 21 25 22 26 23 27 24 29 25 30 26 31 78 32 27 33 77 34 28 35
REMARK SMILES IDX 29 36 30 37 71 38 31 39 76 40 70 41 72 42 32 43 75 44 69 45
REMARK SMILES IDX 68 46 33 48 59 49 42 50 58 51 43 52 46 53 57 54 73 55 44 56
REMARK SMILES IDX 45 57 56 59 74 60 47 61 34 62 35 63 40 64 36 65 37 66 39 67
REMARK SMILES IDX 41 68 38 69 60 70 61 71 66 72 62 73 63 74 65 75 67 76 64 77
REMARK SMILES IDX 48 78 49 79 54 80 50 81 51 82 53 83 55 84 52 85
REMARK H PARENT 18 6 14 24 22 28 72 47 46 58
REMARK Flexibility Score: inf
ROOT
ATOM      1  C   UNL A   1      35.146  33.286  27.944  1.00  0.00     0.042 C 
ENDROOT
BRANCH   1   2
ATOM      2  C   UNL A   1      35.230  34.749  28.386  1.00  0.00     0.118 C 
BRANCH   2   3
ATOM      3  N   UNL A   1      33.931  35.388  28.347  1.00  0.00    -0.352 N 
ATOM      4  C   UNL A   1      33.133  35.945  29.309  1.00  0.00     0.255 C 
ATOM      5  O   UNL A   1      32.071  36.426  28.901  1.00  0.00    -0.269 OA
ATOM      6  H   UNL A   1      33.543  35.429  27.444  1.00  0.00     0.163 HD
BRANCH   4   7
ATOM      7  C   UNL A   1      33.433  36.054  30.775  1.00  0.00     0.082 A 
ATOM      8  C   UNL A   1      34.427  34.857  32.671  1.00  0.00     0.083 A 
ATOM      9  C   UNL A   1      34.411  36.026  33.429  1.00  0.00     0.025 A 
ATOM     10  C   UNL A   1      33.942  34.869  31.357  1.00  0.00     0.039 A 
ATOM     11  C   UNL A   1      33.863  37.184  32.898  1.00  0.00     0.048 A 
ATOM     12  C   UNL A   1      33.398  37.206  31.577  1.00  0.00     0.128 A 
BRANCH   8  13
ATOM     13  S   UNL A   1      35.264  33.424  33.316  1.00  0.00     0.243 S 
ATOM     14  O   UNL A   1      34.761  32.275  32.589  1.00  0.00    -0.207 OA
ATOM     15  O   UNL A   1      35.208  33.474  34.755  1.00  0.00    -0.207 OA
BRANCH  13  16
ATOM     16  N   UNL A   1      36.897  33.638  32.861  1.00  0.00    -0.197 NA
ATOM     17  C   UNL A   1      39.705  34.178  31.504  1.00  0.00     0.012 C 
ATOM     18  C   UNL A   1      38.462  33.407  31.035  1.00  0.00    -0.020 C 
ATOM     19  C   UNL A   1      38.512  33.246  29.513  1.00  0.00     0.012 C 
ATOM     20  C   UNL A   1      38.328  32.061  31.745  1.00  0.00     0.024 C 
ATOM     21  C   UNL A   1      37.167  34.101  31.471  1.00  0.00     0.109 C 
ATOM     22  C   UNL A   1      37.740  32.424  33.105  1.00  0.00     0.103 C 
ENDBRANCH  13  16
ENDBRANCH   8  13
BRANCH  12  23
ATOM     23  O   UNL A   1      32.989  38.418  31.115  1.00  0.00    -0.507 OA
ATOM     24  H   UNL A   1      32.727  39.085  31.719  1.00  0.00     0.293 HD
ENDBRANCH  12  23
ENDBRANCH   4   7
ENDBRANCH   2   3
ENDBRANCH   1   2
BRANCH   1  25
ATOM     25  C   UNL A   1      34.950  32.294  29.081  1.00  0.00     0.118 C 
BRANCH  25  26
ATOM     26  N   UNL A   1      34.427  31.024  28.612  1.00  0.00    -0.352 N 
ATOM     27  C   UNL A   1      35.078  29.883  28.220  1.00  0.00     0.251 C 
ATOM     28  H   UNL A   1      33.445  30.974  28.566  1.00  0.00     0.163 HD
ATOM     29  O   UNL A   1      34.439  29.008  27.638  1.00  0.00    -0.269 OA
BRANCH  27  30
ATOM     30  C   UNL A   1      36.524  29.673  28.479  1.00  0.00     0.039 A 
ATOM     31  C   UNL A   1      37.425  29.941  27.442  1.00  0.00     0.014 A 
ATOM     32  C   UNL A   1      37.001  29.124  29.674  1.00  0.00     0.014 A 
ATOM     33  C   UNL A   1      38.786  29.669  27.601  1.00  0.00     0.010 A 
ATOM     34  C   UNL A   1      38.370  28.923  29.861  1.00  0.00     0.010 A 
ATOM     35  C   UNL A   1      39.272  29.160  28.815  1.00  0.00    -0.014 A 
BRANCH  35  36
ATOM     36  C   UNL A   1      40.706  28.807  28.966  1.00  0.00     0.031 A 
ATOM     37  C   UNL A   1      41.203  27.455  28.525  1.00  0.00     0.074 A 
ATOM     38  C   UNL A   1      41.563  29.694  29.507  1.00  0.00     0.049 A 
ATOM     39  N   UNL A   1      42.416  26.964  28.567  1.00  0.00    -0.248 NA
ATOM     40  C   UNL A   1      40.200  26.522  27.988  1.00  0.00     0.031 C 
ATOM     41  C   UNL A   1      41.200  31.017  30.017  1.00  0.00     0.029 A 
ATOM     42  N   UNL A   1      42.916  29.615  29.718  1.00  0.00    -0.354 N 
ATOM     43  C   UNL A   1      42.317  25.666  28.080  1.00  0.00     0.074 A 
ATOM     44  C   UNL A   1      40.920  25.428  27.795  1.00  0.00     0.031 C 
ATOM     45  C   UNL A   1      42.308  31.637  30.454  1.00  0.00     0.029 A 
ATOM     46  C   UNL A   1      43.453  30.749  30.274  1.00  0.00     0.049 A 
ATOM     47  H   UNL A   1      43.451  28.820  29.491  1.00  0.00     0.167 HD
ATOM     48  C   UNL A   1      43.302  24.761  27.866  1.00  0.00     0.037 A 
ATOM     49  C   UNL A   1      44.728  31.044  30.592  1.00  0.00     0.037 A 
ATOM     50  C   UNL A   1      44.698  25.009  28.117  1.00  0.00     0.049 A 
ATOM     51  C   UNL A   1      45.810  30.041  30.303  1.00  0.00     0.074 A 
ATOM     52  C   UNL A   1      45.779  24.174  27.891  1.00  0.00     0.029 A 
ATOM     53  N   UNL A   1      45.205  26.186  28.643  1.00  0.00    -0.354 N 
ATOM     54  N   UNL A   1      45.706  28.839  29.789  1.00  0.00    -0.248 NA
ATOM     55  C   UNL A   1      47.186  30.444  30.623  1.00  0.00     0.031 C 
ATOM     56  C   UNL A   1      46.939  24.838  28.304  1.00  0.00     0.029 A 
ATOM     57  C   UNL A   1      46.583  26.100  28.752  1.00  0.00     0.049 A 
ATOM     58  H   UNL A   1      44.666  26.968  28.901  1.00  0.00     0.167 HD
ATOM     59  C   UNL A   1      47.005  28.354  29.696  1.00  0.00     0.074 A 
ATOM     60  C   UNL A   1      47.878  29.397  30.194  1.00  0.00     0.031 C 
ATOM     61  C   UNL A   1      47.436  27.153  29.240  1.00  0.00     0.037 A 
BRANCH  48  62
ATOM     62  C   UNL A   1      42.900  23.420  27.325  1.00  0.00     0.057 A 
ATOM     63  C   UNL A   1      42.963  23.128  25.955  1.00  0.00     0.134 A 
ATOM     64  C   UNL A   1      42.462  22.403  28.182  1.00  0.00     0.134 A 
ATOM     65  F   UNL A   1      43.360  24.064  25.080  1.00  0.00    -0.206 F 
ATOM     66  C   UNL A   1      42.578  21.883  25.456  1.00  0.00     0.040 A 
ATOM     67  C   UNL A   1      42.099  21.145  27.697  1.00  0.00     0.040 A 
ATOM     68  F   UNL A   1      42.382  22.613  29.505  1.00  0.00    -0.206 F 
ATOM     69  C   UNL A   1      42.149  20.885  26.328  1.00  0.00     0.006 A 
ENDBRANCH  48  62
BRANCH  49  70
ATOM     70  C   UNL A   1      45.059  32.368  31.172  1.00  0.00     0.057 A 
ATOM     71  C   UNL A   1      45.048  32.572  32.557  1.00  0.00     0.134 A 
ATOM     72  C   UNL A   1      45.387  33.460  30.361  1.00  0.00     0.134 A 
ATOM     73  F   UNL A   1      44.724  31.567  33.383  1.00  0.00    -0.206 F 
ATOM     74  C   UNL A   1      45.334  33.818  33.115  1.00  0.00     0.040 A 
ATOM     75  C   UNL A   1      45.697  34.707  30.906  1.00  0.00     0.040 A 
ATOM     76  F   UNL A   1      45.422  33.327  29.027  1.00  0.00    -0.206 F 
ATOM     77  C   UNL A   1      45.664  34.890  32.288  1.00  0.00     0.006 A 
ENDBRANCH  49  70
BRANCH  61  78
ATOM     78  C   UNL A   1      48.917  26.923  29.223  1.00  0.00     0.057 A 
ATOM     79  C   UNL A   1      49.576  26.267  30.270  1.00  0.00     0.134 A 
ATOM     80  C   UNL A   1      49.690  27.354  28.138  1.00  0.00     0.134 A 
ATOM     81  F   UNL A   1      48.891  25.844  31.344  1.00  0.00    -0.206 F 
ATOM     82  C   UNL A   1      50.958  26.071  30.250  1.00  0.00     0.040 A 
ATOM     83  C   UNL A   1      51.069  27.142  28.096  1.00  0.00     0.040 A 
ATOM     84  F   UNL A   1      49.119  27.982  27.099  1.00  0.00    -0.206 F 
ATOM     85  C   UNL A   1      51.707  26.507  29.159  1.00  0.00     0.006 A 
ENDBRANCH  61  78
ENDBRANCH  35  36
ENDBRANCH  27  30
ENDBRANCH  25  26
ENDBRANCH   1  25
TORSDOF 13
ENDMDL
MODEL 2
REMARK VINA RESULT:     -11.7      0.482      6.152
REMARK SMILES CC1(C)CCN(S(=O)(=O)c2ccc(O)c(C(=O)NCCCNC(=O)c3ccc(-c4c5nc(c(-c6c(F)cccc6F)c6ccc([nH]6)c(-c6c(F)cccc6F)c6nc(c(-c7c(F)cccc7F)c7ccc4[nH]7)C=C6)C=C5)cc3)c2)C1
REMARK SMILES IDX 20 1 19 2 18 3 16 4 17 5 15 7 10 8 11 9 79 10 12 11 13 12
REMARK SMILES IDX 7 13 8 14 9 15 6 16 1 17 2 18 3 19 4 20 80 21 5 22 14 23
REMARK SMILES IDX 21 25 22 26 23 27 24 29 25 30 26 31 78 32 27 33 77 34 28 35
REMARK SMILES IDX 29 36 30 37 71 38 31 39 76 40 70 41 72 42 32 43 75 44 69 45
REMARK SMILES IDX 68 46 33 48 59 49 42 50 58 51 43 52 46 53 57 54 73 55 44 56
REMARK SMILES IDX 45 57 56 59 74 60 47 61 34 62 35 63 40 64 36 65 37 66 39 67
REMARK SMILES IDX 41 68 38 69 60 70 61 71 66 72 62 73 63 74 65 75 67 76 64 77
REMARK SMILES IDX 48 78 49 79 54 80 50 81 51 82 53 83 55 84 52 85
REMARK H PARENT 18 6 14 24 22 28 72 47 46 58
REMARK Flexibility Score: inf
ROOT
ATOM      1  C   UNL A   1      35.081  33.352  27.951  1.00  0.00     0.042 C 
ENDROOT
BRANCH   1   2
ATOM      2  C   UNL A   1      35.150  34.820  28.379  1.00  0.00     0.118 C 
BRANCH   2   3
ATOM      3  N   UNL A   1      33.839  35.435  28.370  1.00  0.00    -0.352 N 
ATOM      4  C   UNL A   1      33.052  35.976  29.351  1.00  0.00     0.255 C 
ATOM      5  O   UNL A   1      31.973  36.438  28.967  1.00  0.00    -0.269 OA
ATOM      6  H   UNL A   1      33.431  35.471  27.476  1.00  0.00     0.163 HD
BRANCH   4   7
ATOM      7  C   UNL A   1      33.382  36.087  30.811  1.00  0.00     0.082 A 
ATOM      8  C   UNL A   1      34.401  34.887  32.692  1.00  0.00     0.083 A 
ATOM      9  C   UNL A   1      34.412  36.058  33.445  1.00  0.00     0.025 A 
ATOM     10  C   UNL A   1      33.891  34.898  31.387  1.00  0.00     0.039 A 
ATOM     11  C   UNL A   1      33.865  37.220  32.920  1.00  0.00     0.048 A 
ATOM     12  C   UNL A   1      33.375  37.242  31.609  1.00  0.00     0.128 A 
BRANCH   8  13
ATOM     13  S   UNL A   1      35.237  33.447  33.325  1.00  0.00     0.243 S 
ATOM     14  O   UNL A   1      34.732  32.305  32.589  1.00  0.00    -0.207 OA
ATOM     15  O   UNL A   1      35.181  33.487  34.765  1.00  0.00    -0.207 OA
BRANCH  13  16
ATOM     16  N   UNL A   1      36.870  33.663  32.872  1.00  0.00    -0.197 NA
ATOM     17  C   UNL A   1      39.678  34.236  31.527  1.00  0.00     0.012 C 
ATOM     18  C   UNL A   1      38.421  33.509  31.025  1.00  0.00    -0.020 C 
ATOM     19  C   UNL A   1      38.460  33.429  29.497  1.00  0.00     0.012 C 
ATOM     20  C   UNL A   1      38.272  32.129  31.664  1.00  0.00     0.024 C 
ATOM     21  C   UNL A   1      37.139  34.196  31.507  1.00  0.00     0.109 C 
ATOM     22  C   UNL A   1      37.697  32.427  33.044  1.00  0.00     0.103 C 
ENDBRANCH  13  16
ENDBRANCH   8  13
BRANCH  12  23
ATOM     23  O   UNL A   1      32.968  38.457  31.151  1.00  0.00    -0.507 OA
ATOM     24  H   UNL A   1      32.142  38.806  31.420  1.00  0.00     0.293 HD
ENDBRANCH  12  23
ENDBRANCH   4   7
ENDBRANCH   2   3
ENDBRANCH   1   2
BRANCH   1  25
ATOM     25  C   UNL A   1      34.837  32.373  29.090  1.00  0.00     0.118 C 
BRANCH  25  26
ATOM     26  N   UNL A   1      34.282  31.118  28.619  1.00  0.00    -0.352 N 
ATOM     27  C   UNL A   1      34.904  29.968  28.206  1.00  0.00     0.251 C 
ATOM     28  H   UNL A   1      33.299  31.087  28.591  1.00  0.00     0.163 HD
ATOM     29  O   UNL A   1      34.238  29.111  27.629  1.00  0.00    -0.269 OA
BRANCH  27  30
ATOM     30  C   UNL A   1      36.350  29.728  28.437  1.00  0.00     0.039 A 
ATOM     31  C   UNL A   1      37.235  29.975  27.381  1.00  0.00     0.014 A 
ATOM     32  C   UNL A   1      36.839  29.173  29.624  1.00  0.00     0.014 A 
ATOM     33  C   UNL A   1      38.593  29.674  27.514  1.00  0.00     0.010 A 
ATOM     34  C   UNL A   1      38.207  28.943  29.784  1.00  0.00     0.010 A 
ATOM     35  C   UNL A   1      39.092  29.158  28.720  1.00  0.00    -0.014 A 
BRANCH  35  36
ATOM     36  C   UNL A   1      40.522  28.776  28.843  1.00  0.00     0.031 A 
ATOM     37  C   UNL A   1      41.511  29.735  29.454  1.00  0.00     0.074 A 
ATOM     38  C   UNL A   1      40.937  27.575  28.399  1.00  0.00     0.049 A 
ATOM     39  N   UNL A   1      42.796  29.582  29.656  1.00  0.00    -0.248 NA
ATOM     40  C   UNL A   1      40.992  31.046  29.872  1.00  0.00     0.031 C 
ATOM     41  C   UNL A   1      40.089  26.576  27.746  1.00  0.00     0.029 A 
ATOM     42  N   UNL A   1      42.177  26.990  28.431  1.00  0.00    -0.354 N 
ATOM     43  C   UNL A   1      43.238  30.780  30.206  1.00  0.00     0.074 A 
ATOM     44  C   UNL A   1      42.096  31.666  30.260  1.00  0.00     0.031 C 
ATOM     45  C   UNL A   1      40.829  25.490  27.466  1.00  0.00     0.029 A 
ATOM     46  C   UNL A   1      42.203  25.724  27.901  1.00  0.00     0.049 A 
ATOM     47  H   UNL A   1      42.974  27.436  28.801  1.00  0.00     0.167 HD
ATOM     48  C   UNL A   1      44.476  31.107  30.647  1.00  0.00     0.037 A 
ATOM     49  C   UNL A   1      43.218  24.846  27.789  1.00  0.00     0.037 A 
ATOM     50  C   UNL A   1      45.605  30.214  30.625  1.00  0.00     0.049 A 
ATOM     51  C   UNL A   1      44.572  25.214  28.328  1.00  0.00     0.074 A 
ATOM     52  C   UNL A   1      46.890  30.433  31.090  1.00  0.00     0.029 A 
ATOM     53  N   UNL A   1      45.578  28.925  30.116  1.00  0.00    -0.354 N 
ATOM     54  N   UNL A   1      44.960  26.330  28.897  1.00  0.00    -0.248 NA
ATOM     55  C   UNL A   1      45.624  24.194  28.224  1.00  0.00     0.031 C 
ATOM     56  C   UNL A   1      47.649  29.284  30.840  1.00  0.00     0.029 A 
ATOM     57  C   UNL A   1      46.825  28.337  30.253  1.00  0.00     0.049 A 
ATOM     58  H   UNL A   1      44.791  28.491  29.717  1.00  0.00     0.167 HD
ATOM     59  C   UNL A   1      46.290  26.135  29.245  1.00  0.00     0.074 A 
ATOM     60  C   UNL A   1      46.637  24.789  28.836  1.00  0.00     0.031 C 
ATOM     61  C   UNL A   1      47.148  26.993  29.849  1.00  0.00     0.037 A 
BRANCH  48  62
ATOM     62  C   UNL A   1      44.667  32.489  31.200  1.00  0.00     0.057 A 
ATOM     63  C   UNL A   1      45.059  33.561  30.386  1.00  0.00     0.134 A 
ATOM     64  C   UNL A   1      44.440  32.757  32.555  1.00  0.00     0.134 A 
ATOM     65  F   UNL A   1      45.306  33.367  29.082  1.00  0.00    -0.206 F 
ATOM     66  C   UNL A   1      45.245  34.843  30.907  1.00  0.00     0.040 A 
ATOM     67  C   UNL A   1      44.598  34.040  33.083  1.00  0.00     0.040 A 
ATOM     68  F   UNL A   1      44.059  31.778  33.390  1.00  0.00    -0.206 F 
ATOM     69  C   UNL A   1      45.009  35.086  32.258  1.00  0.00     0.006 A 
ENDBRANCH  48  62
BRANCH  49  70
ATOM     70  C   UNL A   1      42.980  23.512  27.186  1.00  0.00     0.057 A 
ATOM     71  C   UNL A   1      42.515  22.444  27.962  1.00  0.00     0.134 A 
ATOM     72  C   UNL A   1      43.216  23.271  25.828  1.00  0.00     0.134 A 
ATOM     73  F   UNL A   1      42.288  22.612  29.273  1.00  0.00    -0.206 F 
ATOM     74  C   UNL A   1      42.310  21.177  27.414  1.00  0.00     0.040 A 
ATOM     75  C   UNL A   1      42.994  22.014  25.262  1.00  0.00     0.040 A 
ATOM     76  F   UNL A   1      43.655  24.255  25.031  1.00  0.00    -0.206 F 
ATOM     77  C   UNL A   1      42.546  20.961  26.058  1.00  0.00     0.006 A 
ENDBRANCH  49  70
BRANCH  61  78
ATOM     78  C   UNL A   1      48.528  26.485  30.138  1.00  0.00     0.057 A 
ATOM     79  C   UNL A   1      48.833  25.802  31.323  1.00  0.00     0.134 A 
ATOM     80  C   UNL A   1      49.562  26.670  29.211  1.00  0.00     0.134 A 
ATOM     81  F   UNL A   1      47.889  25.606  32.255  1.00  0.00    -0.206 F 
ATOM     82  C   UNL A   1      50.125  25.346  31.588  1.00  0.00     0.040 A 
ATOM     83  C   UNL A   1      50.852  26.197  29.455  1.00  0.00     0.040 A 
ATOM     84  F   UNL A   1      49.334  27.308  28.054  1.00  0.00    -0.206 F 
ATOM     85  C   UNL A   1      51.138  25.541  30.650  1.00  0.00     0.006 A 
ENDBRANCH  61  78
ENDBRANCH  35  36
ENDBRANCH  27  30
ENDBRANCH  25  26
ENDBRANCH   1  25
TORSDOF 13
ENDMDL
MODEL 3
REMARK VINA RESULT:     -11.3      4.644      9.632
REMARK SMILES CC1(C)CCN(S(=O)(=O)c2ccc(O)c(C(=O)NCCCNC(=O)c3ccc(-c4c5nc(c(-c6c(F)cccc6F)c6ccc([nH]6)c(-c6c(F)cccc6F)c6nc(c(-c7c(F)cccc7F)c7ccc4[nH]7)C=C6)C=C5)cc3)c2)C1
REMARK SMILES IDX 20 1 19 2 18 3 16 4 17 5 15 7 10 8 11 9 79 10 12 11 13 12
REMARK SMILES IDX 7 13 8 14 9 15 6 16 1 17 2 18 3 19 4 20 80 21 5 22 14 23
REMARK SMILES IDX 21 25 22 26 23 27 24 29 25 30 26 31 78 32 27 33 77 34 28 35
REMARK SMILES IDX 29 36 30 37 71 38 31 39 76 40 70 41 72 42 32 43 75 44 69 45
REMARK SMILES IDX 68 46 33 48 59 49 42 50 58 51 43 52 46 53 57 54 73 55 44 56
REMARK SMILES IDX 45 57 56 59 74 60 47 61 34 62 35 63 40 64 36 65 37 66 39 67
REMARK SMILES IDX 41 68 38 69 60 70 61 71 66 72 62 73 63 74 65 75 67 76 64 77
REMARK SMILES IDX 48 78 49 79 54 80 50 81 51 82 53 83 55 84 52 85
REMARK H PARENT 18 6 14 24 22 28 72 47 46 58
REMARK Flexibility Score: inf
ROOT
ATOM      1  C   UNL A   1      38.074  19.774  24.930  1.00  0.00     0.042 C 
ENDROOT
BRANCH   1   2
ATOM      2  C   UNL A   1      37.105  20.928  24.657  1.00  0.00     0.118 C 
BRANCH   2   3
ATOM      3  N   UNL A   1      37.581  22.166  25.238  1.00  0.00    -0.352 N 
ATOM      4  C   UNL A   1      36.947  23.271  25.738  1.00  0.00     0.255 C 
ATOM      5  O   UNL A   1      37.690  24.152  26.181  1.00  0.00    -0.269 OA
ATOM      6  H   UNL A   1      38.562  22.224  25.282  1.00  0.00     0.163 HD
BRANCH   4   7
ATOM      7  C   UNL A   1      35.465  23.494  25.827  1.00  0.00     0.082 A 
ATOM      8  C   UNL A   1      33.557  24.499  24.659  1.00  0.00     0.083 A 
ATOM      9  C   UNL A   1      32.675  23.841  25.514  1.00  0.00     0.025 A 
ATOM     10  C   UNL A   1      34.938  24.329  24.812  1.00  0.00     0.039 A 
ATOM     11  C   UNL A   1      33.172  23.064  26.550  1.00  0.00     0.048 A 
ATOM     12  C   UNL A   1      34.552  22.874  26.693  1.00  0.00     0.128 A 
BRANCH   8  13
ATOM     13  S   UNL A   1      32.901  25.370  23.251  1.00  0.00     0.243 S 
ATOM     14  O   UNL A   1      31.688  24.685  22.853  1.00  0.00    -0.207 OA
ATOM     15  O   UNL A   1      33.974  25.587  22.312  1.00  0.00    -0.207 OA
BRANCH  13  16
ATOM     16  N   UNL A   1      32.445  26.898  23.864  1.00  0.00    -0.197 NA
ATOM     17  C   UNL A   1      32.083  29.689  25.313  1.00  0.00     0.012 C 
ATOM     18  C   UNL A   1      32.458  28.295  25.836  1.00  0.00    -0.020 C 
ATOM     19  C   UNL A   1      33.137  28.433  27.202  1.00  0.00     0.012 C 
ATOM     20  C   UNL A   1      31.246  27.366  25.894  1.00  0.00     0.024 C 
ATOM     21  C   UNL A   1      33.358  27.543  24.849  1.00  0.00     0.109 C 
ATOM     22  C   UNL A   1      31.067  26.911  24.450  1.00  0.00     0.103 C 
ENDBRANCH  13  16
ENDBRANCH   8  13
BRANCH  12  23
ATOM     23  O   UNL A   1      34.930  22.002  27.668  1.00  0.00    -0.507 OA
ATOM     24  H   UNL A   1      34.649  22.137  28.551  1.00  0.00     0.293 HD
ENDBRANCH  12  23
ENDBRANCH   4   7
ENDBRANCH   2   3
ENDBRANCH   1   2
BRANCH   1  25
ATOM     25  C   UNL A   1      39.084  20.047  26.035  1.00  0.00     0.118 C 
BRANCH  25  26
ATOM     26  N   UNL A   1      40.294  19.263  25.872  1.00  0.00    -0.352 N 
ATOM     27  C   UNL A   1      41.612  19.635  25.931  1.00  0.00     0.251 C 
ATOM     28  H   UNL A   1      40.144  18.307  25.689  1.00  0.00     0.163 HD
ATOM     29  O   UNL A   1      42.467  18.847  25.531  1.00  0.00    -0.269 OA
BRANCH  27  30
ATOM     30  C   UNL A   1      42.034  20.955  26.463  1.00  0.00     0.039 A 
ATOM     31  C   UNL A   1      42.055  21.129  27.851  1.00  0.00     0.014 A 
ATOM     32  C   UNL A   1      42.308  22.046  25.632  1.00  0.00     0.014 A 
ATOM     33  C   UNL A   1      42.351  22.379  28.401  1.00  0.00     0.010 A 
ATOM     34  C   UNL A   1      42.678  23.276  26.181  1.00  0.00     0.010 A 
ATOM     35  C   UNL A   1      42.669  23.464  27.570  1.00  0.00    -0.014 A 
BRANCH  35  36
ATOM     36  C   UNL A   1      42.920  24.809  28.147  1.00  0.00     0.031 A 
ATOM     37  C   UNL A   1      44.320  25.224  28.517  1.00  0.00     0.074 A 
ATOM     38  C   UNL A   1      41.892  25.655  28.349  1.00  0.00     0.049 A 
ATOM     39  N   UNL A   1      44.742  26.355  29.023  1.00  0.00    -0.248 NA
ATOM     40  C   UNL A   1      45.383  24.228  28.311  1.00  0.00     0.031 C 
ATOM     41  C   UNL A   1      40.485  25.357  28.078  1.00  0.00     0.029 A 
ATOM     42  N   UNL A   1      41.874  26.940  28.829  1.00  0.00    -0.354 N 
ATOM     43  C   UNL A   1      46.110  26.199  29.212  1.00  0.00     0.074 A 
ATOM     44  C   UNL A   1      46.440  24.849  28.812  1.00  0.00     0.031 C 
ATOM     45  C   UNL A   1      39.744  26.439  28.368  1.00  0.00     0.029 A 
ATOM     46  C   UNL A   1      40.620  27.497  28.864  1.00  0.00     0.049 A 
ATOM     47  H   UNL A   1      42.685  27.418  29.122  1.00  0.00     0.167 HD
ATOM     48  C   UNL A   1      47.016  27.104  29.655  1.00  0.00     0.037 A 
ATOM     49  C   UNL A   1      40.223  28.727  29.241  1.00  0.00     0.037 A 
ATOM     50  C   UNL A   1      46.694  28.459  30.021  1.00  0.00     0.049 A 
ATOM     51  C   UNL A   1      41.252  29.729  29.686  1.00  0.00     0.074 A 
ATOM     52  C   UNL A   1      47.546  29.467  30.439  1.00  0.00     0.029 A 
ATOM     53  N   UNL A   1      45.416  28.996  30.003  1.00  0.00    -0.354 N 
ATOM     54  N   UNL A   1      42.550  29.583  29.804  1.00  0.00    -0.248 NA
ATOM     55  C   UNL A   1      40.762  31.070  30.033  1.00  0.00     0.031 C 
ATOM     56  C   UNL A   1      46.779  30.609  30.698  1.00  0.00     0.029 A 
ATOM     57  C   UNL A   1      45.455  30.321  30.405  1.00  0.00     0.049 A 
ATOM     58  H   UNL A   1      44.602  28.508  29.743  1.00  0.00     0.167 HD
ATOM     59  C   UNL A   1      43.034  30.820  30.210  1.00  0.00     0.074 A 
ATOM     60  C   UNL A   1      41.892  31.707  30.303  1.00  0.00     0.031 C 
ATOM     61  C   UNL A   1      44.309  31.190  30.481  1.00  0.00     0.037 A 
BRANCH  48  62
ATOM     62  C   UNL A   1      48.444  26.654  29.760  1.00  0.00     0.057 A 
ATOM     63  C   UNL A   1      49.362  26.870  28.723  1.00  0.00     0.134 A 
ATOM     64  C   UNL A   1      48.912  26.016  30.914  1.00  0.00     0.134 A 
ATOM     65  F   UNL A   1      48.973  27.464  27.584  1.00  0.00    -0.206 F 
ATOM     66  C   UNL A   1      50.687  26.442  28.820  1.00  0.00     0.040 A 
ATOM     67  C   UNL A   1      50.241  25.606  31.034  1.00  0.00     0.040 A 
ATOM     68  F   UNL A   1      48.088  25.783  31.947  1.00  0.00    -0.206 F 
ATOM     69  C   UNL A   1      51.132  25.812  29.981  1.00  0.00     0.006 A 
ENDBRANCH  48  62
BRANCH  49  70
ATOM     70  C   UNL A   1      38.789  29.099  29.164  1.00  0.00     0.057 A 
ATOM     71  C   UNL A   1      37.966  29.033  30.294  1.00  0.00     0.134 A 
ATOM     72  C   UNL A   1      38.207  29.521  27.964  1.00  0.00     0.134 A 
ATOM     73  F   UNL A   1      38.465  28.619  31.468  1.00  0.00    -0.206 F 
ATOM     74  C   UNL A   1      36.610  29.356  30.231  1.00  0.00     0.040 A 
ATOM     75  C   UNL A   1      36.857  29.868  27.891  1.00  0.00     0.040 A 
ATOM     76  F   UNL A   1      38.945  29.612  26.848  1.00  0.00    -0.206 F 
ATOM     77  C   UNL A   1      36.053  29.779  29.026  1.00  0.00     0.006 A 
ENDBRANCH  49  70
BRANCH  61  78
ATOM     78  C   UNL A   1      44.537  32.621  30.864  1.00  0.00     0.057 A 
ATOM     79  C   UNL A   1      44.472  33.050  32.196  1.00  0.00     0.134 A 
ATOM     80  C   UNL A   1      44.836  33.579  29.887  1.00  0.00     0.134 A 
ATOM     81  F   UNL A   1      44.176  32.182  33.175  1.00  0.00    -0.206 F 
ATOM     82  C   UNL A   1      44.672  34.388  32.540  1.00  0.00     0.040 A 
ATOM     83  C   UNL A   1      45.061  34.915  30.222  1.00  0.00     0.040 A 
ATOM     84  F   UNL A   1      44.920  33.232  28.594  1.00  0.00    -0.206 F 
ATOM     85  C   UNL A   1      44.970  35.324  31.551  1.00  0.00     0.006 A 
ENDBRANCH  61  78
ENDBRANCH  35  36
ENDBRANCH  27  30
ENDBRANCH  25  26
ENDBRANCH   1  25
TORSDOF 13
ENDMDL
