MODEL 1
REMARK VINA RESULT:     -11.9      0.000      0.000
REMARK SMILES C[C@@H](C(=O)NCCCNC(=O)c1ccc(-c2c3nc(c(-c4c(F)cccc4F)c4ccc([nH]4)c(-c4c(F)cccc4F)c4nc(c(-c5c(F)cccc5F)c5ccc2[nH]5)C=C4)C=C3)cc1)N1C(=O)/C(=C/c2ccc(N(C)C)cc2)SC1=S
REMARK SMILES IDX 6 1 5 2 3 3 4 4 2 6 1 7 66 8 67 9 81 10 68 11 69 12 80 13
REMARK SMILES IDX 82 14 70 15 71 16 72 17 79 18 73 19 78 20 74 21 75 22 76 23
REMARK SMILES IDX 77 24 7 25 8 26 9 27 10 28 11 30 12 31 13 32 65 33 14 34
REMARK SMILES IDX 64 35 15 36 16 37 17 38 58 39 18 40 63 41 57 42 59 43 19 44
REMARK SMILES IDX 62 45 56 46 55 47 20 49 46 50 29 51 45 52 30 53 33 54 44 55
REMARK SMILES IDX 60 56 31 57 32 58 43 60 61 61 34 62 21 63 22 64 27 65 23 66
REMARK SMILES IDX 24 67 26 68 28 69 25 70 47 71 48 72 53 73 49 74 50 75 52 76
REMARK SMILES IDX 54 77 51 78 35 79 36 80 41 81 37 82 38 83 40 84 42 85 39 86
REMARK H PARENT 5 5 9 29 59 48 33 59
REMARK Flexibility Score: inf
ROOT
ATOM      1  C   UNL A   1      35.922  21.652  24.656  1.00  0.00     0.117 C 
ENDROOT
BRANCH   1   2
ATOM      2  N   UNL A   1      34.544  21.186  24.595  1.00  0.00    -0.354 N 
ATOM      3  C   UNL A   1      33.468  21.541  25.363  1.00  0.00     0.242 C 
ATOM      4  O   UNL A   1      32.457  20.839  25.308  1.00  0.00    -0.273 OA
ATOM      5  H   UNL A   1      34.359  20.518  23.897  1.00  0.00     0.163 HD
BRANCH   3   6
ATOM      6  C   UNL A   1      33.574  22.766  26.296  1.00  0.00     0.178 C 
ATOM      7  C   UNL A   1      33.272  22.214  27.698  1.00  0.00     0.042 C 
BRANCH   6   8
ATOM      8  N   UNL A   1      32.667  23.853  25.848  1.00  0.00    -0.281 N 
ATOM      9  C   UNL A   1      33.048  24.722  24.845  1.00  0.00     0.266 C 
ATOM     10  C   UNL A   1      31.310  23.898  26.132  1.00  0.00     0.149 C 
ATOM     11  O   UNL A   1      34.047  24.641  24.134  1.00  0.00    -0.268 OA
ATOM     12  C   UNL A   1      32.019  25.762  24.620  1.00  0.00     0.081 C 
ATOM     13  S   UNL A   1      30.631  25.420  25.554  1.00  0.00    -0.054 SA
ATOM     14  S   UNL A   1      30.343  22.736  26.843  1.00  0.00    -0.052 S 
ATOM     15  C   UNL A   1      32.240  26.775  23.772  1.00  0.00     0.029 C 
BRANCH  15  16
ATOM     16  C   UNL A   1      31.346  27.906  23.545  1.00  0.00    -0.024 A 
ATOM     17  C   UNL A   1      31.364  29.014  24.383  1.00  0.00     0.010 A 
ATOM     18  C   UNL A   1      30.419  27.859  22.509  1.00  0.00     0.010 A 
ATOM     19  C   UNL A   1      30.461  30.070  24.177  1.00  0.00     0.026 A 
ATOM     20  C   UNL A   1      29.518  28.913  22.321  1.00  0.00     0.026 A 
ATOM     21  C   UNL A   1      29.505  30.053  23.146  1.00  0.00     0.036 A 
BRANCH  21  22
ATOM     22  N   UNL A   1      28.581  31.075  22.959  1.00  0.00    -0.378 N 
ATOM     23  C   UNL A   1      27.391  31.217  23.787  1.00  0.00     0.143 C 
ATOM     24  C   UNL A   1      28.908  32.210  22.100  1.00  0.00     0.143 C 
ENDBRANCH  21  22
ENDBRANCH  15  16
ENDBRANCH   6   8
ENDBRANCH   3   6
ENDBRANCH   1   2
BRANCH   1  25
ATOM     25  C   UNL A   1      36.884  20.500  24.947  1.00  0.00     0.042 C 
BRANCH  25  26
ATOM     26  C   UNL A   1      38.242  20.948  25.478  1.00  0.00     0.118 C 
BRANCH  26  27
ATOM     27  N   UNL A   1      39.202  19.859  25.534  1.00  0.00    -0.352 N 
ATOM     28  C   UNL A   1      40.520  19.883  25.922  1.00  0.00     0.251 C 
ATOM     29  H   UNL A   1      38.860  18.979  25.256  1.00  0.00     0.163 HD
ATOM     30  O   UNL A   1      41.230  18.900  25.735  1.00  0.00    -0.269 OA
BRANCH  28  31
ATOM     31  C   UNL A   1      41.095  21.100  26.538  1.00  0.00     0.039 A 
ATOM     32  C   UNL A   1      41.699  22.051  25.712  1.00  0.00     0.014 A 
ATOM     33  C   UNL A   1      41.053  21.299  27.921  1.00  0.00     0.014 A 
ATOM     34  C   UNL A   1      42.201  23.233  26.262  1.00  0.00     0.010 A 
ATOM     35  C   UNL A   1      41.498  22.503  28.462  1.00  0.00     0.010 A 
ATOM     36  C   UNL A   1      42.072  23.484  27.637  1.00  0.00    -0.014 A 
BRANCH  36  37
ATOM     37  C   UNL A   1      42.513  24.770  28.233  1.00  0.00     0.031 A 
ATOM     38  C   UNL A   1      41.519  25.869  28.484  1.00  0.00     0.074 A 
ATOM     39  C   UNL A   1      43.823  24.980  28.468  1.00  0.00     0.049 A 
ATOM     40  N   UNL A   1      41.728  27.094  28.893  1.00  0.00    -0.248 NA
ATOM     41  C   UNL A   1      40.105  25.557  28.217  1.00  0.00     0.031 C 
ATOM     42  C   UNL A   1      44.892  24.010  28.226  1.00  0.00     0.029 A 
ATOM     43  N   UNL A   1      44.480  26.089  28.940  1.00  0.00    -0.354 N 
ATOM     44  C   UNL A   1      40.481  27.706  28.908  1.00  0.00     0.074 A 
ATOM     45  C   UNL A   1      39.524  26.727  28.441  1.00  0.00     0.031 C 
ATOM     46  C   UNL A   1      46.070  24.564  28.558  1.00  0.00     0.029 A 
ATOM     47  C   UNL A   1      45.845  25.937  28.997  1.00  0.00     0.049 A 
ATOM     48  H   UNL A   1      44.018  26.914  29.213  1.00  0.00     0.167 HD
ATOM     49  C   UNL A   1      40.163  28.965  29.291  1.00  0.00     0.037 A 
ATOM     50  C   UNL A   1      46.808  26.811  29.345  1.00  0.00     0.037 A 
ATOM     51  C   UNL A   1      41.110  29.924  29.798  1.00  0.00     0.049 A 
ATOM     52  C   UNL A   1      46.425  28.203  29.763  1.00  0.00     0.074 A 
ATOM     53  C   UNL A   1      40.866  31.189  30.305  1.00  0.00     0.029 A 
ATOM     54  N   UNL A   1      42.480  29.727  29.856  1.00  0.00    -0.354 N 
ATOM     55  N   UNL A   1      45.234  28.741  29.850  1.00  0.00    -0.248 NA
ATOM     56  C   UNL A   1      47.523  29.111  30.130  1.00  0.00     0.031 C 
ATOM     57  C   UNL A   1      42.093  31.773  30.632  1.00  0.00     0.029 A 
ATOM     58  C   UNL A   1      43.097  30.858  30.362  1.00  0.00     0.049 A 
ATOM     59  H   UNL A   1      42.945  28.904  29.579  1.00  0.00     0.167 HD
ATOM     60  C   UNL A   1      45.435  30.039  30.299  1.00  0.00     0.074 A 
ATOM     61  C   UNL A   1      46.862  30.206  30.480  1.00  0.00     0.031 C 
ATOM     62  C   UNL A   1      44.518  31.007  30.540  1.00  0.00     0.037 A 
BRANCH  49  63
ATOM     63  C   UNL A   1      38.728  29.385  29.182  1.00  0.00     0.057 A 
ATOM     64  C   UNL A   1      38.157  29.752  27.958  1.00  0.00     0.134 A 
ATOM     65  C   UNL A   1      37.893  29.364  30.308  1.00  0.00     0.134 A 
ATOM     66  F   UNL A   1      38.905  29.801  26.846  1.00  0.00    -0.206 F 
ATOM     67  C   UNL A   1      36.809  30.102  27.860  1.00  0.00     0.040 A 
ATOM     68  C   UNL A   1      36.540  29.690  30.217  1.00  0.00     0.040 A 
ATOM     69  F   UNL A   1      38.378  29.014  31.509  1.00  0.00    -0.206 F 
ATOM     70  C   UNL A   1      35.995  30.065  28.990  1.00  0.00     0.006 A 
ENDBRANCH  49  63
BRANCH  50  71
ATOM     71  C   UNL A   1      48.233  26.400  29.313  1.00  0.00     0.057 A 
ATOM     72  C   UNL A   1      49.020  26.615  28.177  1.00  0.00     0.134 A 
ATOM     73  C   UNL A   1      48.836  25.769  30.408  1.00  0.00     0.134 A 
ATOM     74  F   UNL A   1      48.490  27.195  27.090  1.00  0.00    -0.206 F 
ATOM     75  C   UNL A   1      50.352  26.201  28.122  1.00  0.00     0.040 A 
ATOM     76  C   UNL A   1      50.173  25.371  30.376  1.00  0.00     0.040 A 
ATOM     77  F   UNL A   1      48.136  25.540  31.529  1.00  0.00    -0.206 F 
ATOM     78  C   UNL A   1      50.933  25.581  29.226  1.00  0.00     0.006 A 
ENDBRANCH  50  71
BRANCH  62  79
ATOM     79  C   UNL A   1      45.026  32.323  31.046  1.00  0.00     0.057 A 
ATOM     80  C   UNL A   1      45.344  33.370  30.175  1.00  0.00     0.134 A 
ATOM     81  C   UNL A   1      45.153  32.560  32.421  1.00  0.00     0.134 A 
ATOM     82  F   UNL A   1      45.257  33.200  28.847  1.00  0.00    -0.206 F 
ATOM     83  C   UNL A   1      45.784  34.606  30.653  1.00  0.00     0.040 A 
ATOM     84  C   UNL A   1      45.572  33.796  32.911  1.00  0.00     0.040 A 
ATOM     85  F   UNL A   1      44.858  31.597  33.307  1.00  0.00    -0.206 F 
ATOM     86  C   UNL A   1      45.892  34.824  32.025  1.00  0.00     0.006 A 
ENDBRANCH  62  79
ENDBRANCH  36  37
ENDBRANCH  28  31
ENDBRANCH  26  27
ENDBRANCH  25  26
ENDBRANCH   1  25
TORSDOF 13
ENDMDL
MODEL 2
REMARK VINA RESULT:     -11.9      4.213      9.557
REMARK SMILES C[C@@H](C(=O)NCCCNC(=O)c1ccc(-c2c3nc(c(-c4c(F)cccc4F)c4ccc([nH]4)c(-c4c(F)cccc4F)c4nc(c(-c5c(F)cccc5F)c5ccc2[nH]5)C=C4)C=C3)cc1)N1C(=O)/C(=C/c2ccc(N(C)C)cc2)SC1=S
REMARK SMILES IDX 6 1 5 2 3 3 4 4 2 6 1 7 66 8 67 9 81 10 68 11 69 12 80 13
REMARK SMILES IDX 82 14 70 15 71 16 72 17 79 18 73 19 78 20 74 21 75 22 76 23
REMARK SMILES IDX 77 24 7 25 8 26 9 27 10 28 11 30 12 31 13 32 65 33 14 34
REMARK SMILES IDX 64 35 15 36 16 37 17 38 58 39 18 40 63 41 57 42 59 43 19 44
REMARK SMILES IDX 62 45 56 46 55 47 20 49 46 50 29 51 45 52 30 53 33 54 44 55
REMARK SMILES IDX 60 56 31 57 32 58 43 60 61 61 34 62 21 63 22 64 27 65 23 66
REMARK SMILES IDX 24 67 26 68 28 69 25 70 47 71 48 72 53 73 49 74 50 75 52 76
REMARK SMILES IDX 54 77 51 78 35 79 36 80 41 81 37 82 38 83 40 84 42 85 39 86
REMARK H PARENT 5 5 9 29 59 48 33 59
REMARK Flexibility Score: inf
ROOT
ATOM      1  C   UNL A   1      31.573  29.900  25.985  1.00  0.00     0.117 C 
ENDROOT
BRANCH   1   2
ATOM      2  N   UNL A   1      31.040  29.474  24.699  1.00  0.00    -0.354 N 
ATOM      3  C   UNL A   1      31.701  29.028  23.585  1.00  0.00     0.242 C 
ATOM      4  O   UNL A   1      31.076  28.964  22.525  1.00  0.00    -0.273 OA
ATOM      5  H   UNL A   1      30.061  29.511  24.618  1.00  0.00     0.163 HD
BRANCH   3   6
ATOM      6  C   UNL A   1      33.199  28.670  23.685  1.00  0.00     0.178 C 
ATOM      7  C   UNL A   1      33.768  28.992  22.294  1.00  0.00     0.042 C 
BRANCH   6   8
ATOM      8  N   UNL A   1      33.379  27.261  24.118  1.00  0.00    -0.281 N 
ATOM      9  C   UNL A   1      33.598  26.261  23.190  1.00  0.00     0.266 C 
ATOM     10  C   UNL A   1      33.661  26.879  25.420  1.00  0.00     0.149 C 
ATOM     11  O   UNL A   1      33.807  26.398  21.988  1.00  0.00    -0.268 OA
ATOM     12  C   UNL A   1      33.673  24.934  23.844  1.00  0.00     0.081 C 
ATOM     13  S   UNL A   1      33.644  25.118  25.542  1.00  0.00    -0.054 SA
ATOM     14  S   UNL A   1      34.039  27.831  26.740  1.00  0.00    -0.052 S 
ATOM     15  C   UNL A   1      33.764  23.814  23.116  1.00  0.00     0.029 C 
BRANCH  15  16
ATOM     16  C   UNL A   1      33.744  22.453  23.641  1.00  0.00    -0.024 A 
ATOM     17  C   UNL A   1      34.855  21.913  24.277  1.00  0.00     0.010 A 
ATOM     18  C   UNL A   1      32.619  21.656  23.456  1.00  0.00     0.010 A 
ATOM     19  C   UNL A   1      34.832  20.584  24.731  1.00  0.00     0.026 A 
ATOM     20  C   UNL A   1      32.614  20.330  23.904  1.00  0.00     0.026 A 
ATOM     21  C   UNL A   1      33.717  19.747  24.555  1.00  0.00     0.036 A 
BRANCH  21  22
ATOM     22  N   UNL A   1      33.700  18.418  24.964  1.00  0.00    -0.378 N 
ATOM     23  C   UNL A   1      32.575  17.832  25.681  1.00  0.00     0.143 C 
ATOM     24  C   UNL A   1      34.694  17.481  24.449  1.00  0.00     0.143 C 
ENDBRANCH  21  22
ENDBRANCH  15  16
ENDBRANCH   6   8
ENDBRANCH   3   6
ENDBRANCH   1   2
BRANCH   1  25
ATOM     25  C   UNL A   1      31.459  31.414  26.159  1.00  0.00     0.042 C 
BRANCH  25  26
ATOM     26  C   UNL A   1      32.619  32.037  26.927  1.00  0.00     0.118 C 
BRANCH  26  27
ATOM     27  N   UNL A   1      32.373  33.427  27.272  1.00  0.00    -0.352 N 
ATOM     28  C   UNL A   1      32.994  34.210  28.215  1.00  0.00     0.251 C 
ATOM     29  H   UNL A   1      31.660  33.870  26.759  1.00  0.00     0.163 HD
ATOM     30  O   UNL A   1      32.534  35.313  28.493  1.00  0.00    -0.269 OA
BRANCH  28  31
ATOM     31  C   UNL A   1      34.201  33.718  28.916  1.00  0.00     0.039 A 
ATOM     32  C   UNL A   1      34.048  32.784  29.944  1.00  0.00     0.014 A 
ATOM     33  C   UNL A   1      35.475  34.183  28.576  1.00  0.00     0.014 A 
ATOM     34  C   UNL A   1      35.175  32.263  30.585  1.00  0.00     0.010 A 
ATOM     35  C   UNL A   1      36.601  33.619  29.173  1.00  0.00     0.010 A 
ATOM     36  C   UNL A   1      36.462  32.651  30.180  1.00  0.00    -0.014 A 
BRANCH  36  37
ATOM     37  C   UNL A   1      37.676  32.045  30.781  1.00  0.00     0.031 A 
ATOM     38  C   UNL A   1      38.420  30.960  30.054  1.00  0.00     0.074 A 
ATOM     39  C   UNL A   1      38.060  32.412  32.019  1.00  0.00     0.049 A 
ATOM     40  N   UNL A   1      39.432  30.236  30.462  1.00  0.00    -0.248 NA
ATOM     41  C   UNL A   1      37.950  30.626  28.700  1.00  0.00     0.031 C 
ATOM     42  C   UNL A   1      37.397  33.422  32.846  1.00  0.00     0.029 A 
ATOM     43  N   UNL A   1      39.088  31.959  32.808  1.00  0.00    -0.354 N 
ATOM     44  C   UNL A   1      39.702  29.348  29.430  1.00  0.00     0.074 A 
ATOM     45  C   UNL A   1      38.731  29.602  28.388  1.00  0.00     0.031 C 
ATOM     46  C   UNL A   1      38.039  33.517  34.022  1.00  0.00     0.029 A 
ATOM     47  C   UNL A   1      39.131  32.549  34.049  1.00  0.00     0.049 A 
ATOM     48  H   UNL A   1      39.733  31.276  32.514  1.00  0.00     0.167 HD
ATOM     49  C   UNL A   1      40.681  28.415  29.353  1.00  0.00     0.037 A 
ATOM     50  C   UNL A   1      39.945  32.322  35.096  1.00  0.00     0.037 A 
ATOM     51  C   UNL A   1      41.673  28.193  30.371  1.00  0.00     0.049 A 
ATOM     52  C   UNL A   1      41.021  31.279  34.983  1.00  0.00     0.074 A 
ATOM     53  C   UNL A   1      42.764  27.340  30.339  1.00  0.00     0.029 A 
ATOM     54  N   UNL A   1      41.693  28.822  31.606  1.00  0.00    -0.354 N 
ATOM     55  N   UNL A   1      41.315  30.503  33.970  1.00  0.00    -0.248 NA
ATOM     56  C   UNL A   1      41.877  31.078  36.163  1.00  0.00     0.031 C 
ATOM     57  C   UNL A   1      43.420  27.424  31.571  1.00  0.00     0.029 A 
ATOM     58  C   UNL A   1      42.760  28.354  32.355  1.00  0.00     0.049 A 
ATOM     59  H   UNL A   1      41.046  29.501  31.905  1.00  0.00     0.167 HD
ATOM     60  C   UNL A   1      42.399  29.738  34.379  1.00  0.00     0.074 A 
ATOM     61  C   UNL A   1      42.721  30.151  35.729  1.00  0.00     0.031 C 
ATOM     62  C   UNL A   1      43.069  28.778  33.696  1.00  0.00     0.037 A 
BRANCH  49  63
ATOM     63  C   UNL A   1      40.733  27.560  28.122  1.00  0.00     0.057 A 
ATOM     64  C   UNL A   1      41.484  27.928  26.999  1.00  0.00     0.134 A 
ATOM     65  C   UNL A   1      40.069  26.327  28.084  1.00  0.00     0.134 A 
ATOM     66  F   UNL A   1      42.134  29.101  26.970  1.00  0.00    -0.206 F 
ATOM     67  C   UNL A   1      41.559  27.107  25.874  1.00  0.00     0.040 A 
ATOM     68  C   UNL A   1      40.155  25.488  26.973  1.00  0.00     0.040 A 
ATOM     69  F   UNL A   1      39.338  25.914  29.131  1.00  0.00    -0.206 F 
ATOM     70  C   UNL A   1      40.899  25.879  25.861  1.00  0.00     0.006 A 
ENDBRANCH  49  63
BRANCH  50  71
ATOM     71  C   UNL A   1      39.778  33.098  36.350  1.00  0.00     0.057 A 
ATOM     72  C   UNL A   1      38.900  32.670  37.351  1.00  0.00     0.134 A 
ATOM     73  C   UNL A   1      40.477  34.291  36.570  1.00  0.00     0.134 A 
ATOM     74  F   UNL A   1      38.187  31.546  37.187  1.00  0.00    -0.206 F 
ATOM     75  C   UNL A   1      38.708  33.409  38.519  1.00  0.00     0.040 A 
ATOM     76  C   UNL A   1      40.312  35.028  37.743  1.00  0.00     0.040 A 
ATOM     77  F   UNL A   1      41.338  34.752  35.650  1.00  0.00    -0.206 F 
ATOM     78  C   UNL A   1      39.419  34.589  38.720  1.00  0.00     0.006 A 
ENDBRANCH  50  71
BRANCH  62  79
ATOM     79  C   UNL A   1      44.227  28.126  34.387  1.00  0.00     0.057 A 
ATOM     80  C   UNL A   1      44.075  26.939  35.112  1.00  0.00     0.134 A 
ATOM     81  C   UNL A   1      45.516  28.666  34.287  1.00  0.00     0.134 A 
ATOM     82  F   UNL A   1      42.863  26.380  35.255  1.00  0.00    -0.206 F 
ATOM     83  C   UNL A   1      45.164  26.316  35.724  1.00  0.00     0.040 A 
ATOM     84  C   UNL A   1      46.614  28.042  34.878  1.00  0.00     0.040 A 
ATOM     85  F   UNL A   1      45.727  29.800  33.601  1.00  0.00    -0.206 F 
ATOM     86  C   UNL A   1      46.439  26.864  35.602  1.00  0.00     0.006 A 
ENDBRANCH  62  79
ENDBRANCH  36  37
ENDBRANCH  28  31
ENDBRANCH  26  27
ENDBRANCH  25  26
ENDBRANCH   1  25
TORSDOF 13
ENDMDL
MODEL 3
REMARK VINA RESULT:     -11.8      3.944      9.407
REMARK SMILES C[C@@H](C(=O)NCCCNC(=O)c1ccc(-c2c3nc(c(-c4c(F)cccc4F)c4ccc([nH]4)c(-c4c(F)cccc4F)c4nc(c(-c5c(F)cccc5F)c5ccc2[nH]5)C=C4)C=C3)cc1)N1C(=O)/C(=C/c2ccc(N(C)C)cc2)SC1=S
REMARK SMILES IDX 6 1 5 2 3 3 4 4 2 6 1 7 66 8 67 9 81 10 68 11 69 12 80 13
REMARK SMILES IDX 82 14 70 15 71 16 72 17 79 18 73 19 78 20 74 21 75 22 76 23
REMARK SMILES IDX 77 24 7 25 8 26 9 27 10 28 11 30 12 31 13 32 65 33 14 34
REMARK SMILES IDX 64 35 15 36 16 37 17 38 58 39 18 40 63 41 57 42 59 43 19 44
REMARK SMILES IDX 62 45 56 46 55 47 20 49 46 50 29 51 45 52 30 53 33 54 44 55
REMARK SMILES IDX 60 56 31 57 32 58 43 60 61 61 34 62 21 63 22 64 27 65 23 66
REMARK SMILES IDX 24 67 26 68 28 69 25 70 47 71 48 72 53 73 49 74 50 75 52 76
REMARK SMILES IDX 54 77 51 78 35 79 36 80 41 81 37 82 38 83 40 84 42 85 39 86
REMARK H PARENT 5 5 9 29 59 48 33 59
REMARK Flexibility Score: inf
ROOT
ATOM      1  C   UNL A   1      31.644  29.901  25.961  1.00  0.00     0.117 C 
ENDROOT
BRANCH   1   2
ATOM      2  N   UNL A   1      31.091  29.475  24.683  1.00  0.00    -0.354 N 
ATOM      3  C   UNL A   1      31.733  29.007  23.568  1.00  0.00     0.242 C 
ATOM      4  O   UNL A   1      31.097  28.947  22.514  1.00  0.00    -0.273 OA
ATOM      5  H   UNL A   1      30.112  29.532  24.611  1.00  0.00     0.163 HD
BRANCH   3   6
ATOM      6  C   UNL A   1      33.224  28.620  23.658  1.00  0.00     0.178 C 
ATOM      7  C   UNL A   1      33.792  28.937  22.266  1.00  0.00     0.042 C 
BRANCH   6   8
ATOM      8  N   UNL A   1      33.379  27.206  24.084  1.00  0.00    -0.281 N 
ATOM      9  C   UNL A   1      33.577  26.205  23.151  1.00  0.00     0.266 C 
ATOM     10  C   UNL A   1      33.659  26.812  25.383  1.00  0.00     0.149 C 
ATOM     11  O   UNL A   1      33.784  26.344  21.949  1.00  0.00    -0.268 OA
ATOM     12  C   UNL A   1      33.629  24.875  23.799  1.00  0.00     0.081 C 
ATOM     13  S   UNL A   1      33.609  25.052  25.497  1.00  0.00    -0.054 SA
ATOM     14  S   UNL A   1      34.060  27.751  26.706  1.00  0.00    -0.052 S 
ATOM     15  C   UNL A   1      33.696  23.757  23.065  1.00  0.00     0.029 C 
BRANCH  15  16
ATOM     16  C   UNL A   1      33.652  22.394  23.584  1.00  0.00    -0.024 A 
ATOM     17  C   UNL A   1      34.689  21.887  24.358  1.00  0.00     0.010 A 
ATOM     18  C   UNL A   1      32.586  21.562  23.257  1.00  0.00     0.010 A 
ATOM     19  C   UNL A   1      34.651  20.557  24.805  1.00  0.00     0.026 A 
ATOM     20  C   UNL A   1      32.566  20.235  23.701  1.00  0.00     0.026 A 
ATOM     21  C   UNL A   1      33.595  19.685  24.488  1.00  0.00     0.036 A 
BRANCH  21  22
ATOM     22  N   UNL A   1      33.568  18.355  24.893  1.00  0.00    -0.378 N 
ATOM     23  C   UNL A   1      32.504  17.809  25.725  1.00  0.00     0.143 C 
ATOM     24  C   UNL A   1      34.463  17.383  24.272  1.00  0.00     0.143 C 
ENDBRANCH  21  22
ENDBRANCH  15  16
ENDBRANCH   6   8
ENDBRANCH   3   6
ENDBRANCH   1   2
BRANCH   1  25
ATOM     25  C   UNL A   1      31.449  31.402  26.177  1.00  0.00     0.042 C 
BRANCH  25  26
ATOM     26  C   UNL A   1      32.553  32.056  27.000  1.00  0.00     0.118 C 
BRANCH  26  27
ATOM     27  N   UNL A   1      32.266  33.448  27.306  1.00  0.00    -0.352 N 
ATOM     28  C   UNL A   1      32.909  34.296  28.175  1.00  0.00     0.251 C 
ATOM     29  H   UNL A   1      31.502  33.838  26.823  1.00  0.00     0.163 HD
ATOM     30  O   UNL A   1      32.418  35.389  28.439  1.00  0.00    -0.269 OA
BRANCH  28  31
ATOM     31  C   UNL A   1      34.179  33.886  28.815  1.00  0.00     0.039 A 
ATOM     32  C   UNL A   1      34.128  33.123  29.984  1.00  0.00     0.014 A 
ATOM     33  C   UNL A   1      35.414  34.262  28.278  1.00  0.00     0.014 A 
ATOM     34  C   UNL A   1      35.311  32.677  30.578  1.00  0.00     0.010 A 
ATOM     35  C   UNL A   1      36.592  33.767  28.834  1.00  0.00     0.010 A 
ATOM     36  C   UNL A   1      36.552  32.967  29.987  1.00  0.00    -0.014 A 
BRANCH  36  37
ATOM     37  C   UNL A   1      37.818  32.428  30.545  1.00  0.00     0.031 A 
ATOM     38  C   UNL A   1      38.437  31.190  29.961  1.00  0.00     0.074 A 
ATOM     39  C   UNL A   1      38.364  33.006  31.632  1.00  0.00     0.049 A 
ATOM     40  N   UNL A   1      39.474  30.509  30.378  1.00  0.00    -0.248 NA
ATOM     41  C   UNL A   1      37.790  30.627  28.765  1.00  0.00     0.031 C 
ATOM     42  C   UNL A   1      37.837  34.187  32.318  1.00  0.00     0.029 A 
ATOM     43  N   UNL A   1      39.473  32.663  32.366  1.00  0.00    -0.354 N 
ATOM     44  C   UNL A   1      39.590  29.428  29.515  1.00  0.00     0.074 A 
ATOM     45  C   UNL A   1      38.501  29.525  28.567  1.00  0.00     0.031 C 
ATOM     46  C   UNL A   1      38.624  34.473  33.368  1.00  0.00     0.029 A 
ATOM     47  C   UNL A   1      39.687  33.477  33.453  1.00  0.00     0.049 A 
ATOM     48  H   UNL A   1      40.059  31.907  32.135  1.00  0.00     0.167 HD
ATOM     49  C   UNL A   1      40.528  28.452  29.505  1.00  0.00     0.037 A 
ATOM     50  C   UNL A   1      40.623  33.416  34.419  1.00  0.00     0.037 A 
ATOM     51  C   UNL A   1      41.636  28.380  30.421  1.00  0.00     0.049 A 
ATOM     52  C   UNL A   1      41.650  32.319  34.384  1.00  0.00     0.074 A 
ATOM     53  C   UNL A   1      42.693  27.485  30.426  1.00  0.00     0.029 A 
ATOM     54  N   UNL A   1      41.828  29.232  31.497  1.00  0.00    -0.354 N 
ATOM     55  N   UNL A   1      41.793  31.350  33.514  1.00  0.00    -0.248 NA
ATOM     56  C   UNL A   1      42.643  32.306  35.469  1.00  0.00     0.031 C 
ATOM     57  C   UNL A   1      43.502  27.772  31.529  1.00  0.00     0.029 A 
ATOM     58  C   UNL A   1      42.969  28.865  32.190  1.00  0.00     0.049 A 
ATOM     59  H   UNL A   1      41.240  29.986  31.733  1.00  0.00     0.167 HD
ATOM     60  C   UNL A   1      42.902  30.627  33.932  1.00  0.00     0.074 A 
ATOM     61  C   UNL A   1      43.402  31.274  35.126  1.00  0.00     0.031 C 
ATOM     62  C   UNL A   1      43.456  29.522  33.374  1.00  0.00     0.037 A 
BRANCH  49  63
ATOM     63  C   UNL A   1      40.403  27.376  28.468  1.00  0.00     0.057 A 
ATOM     64  C   UNL A   1      39.609  26.241  28.674  1.00  0.00     0.134 A 
ATOM     65  C   UNL A   1      41.039  27.507  27.227  1.00  0.00     0.134 A 
ATOM     66  F   UNL A   1      38.983  26.052  29.844  1.00  0.00    -0.206 F 
ATOM     67  C   UNL A   1      39.467  25.264  27.687  1.00  0.00     0.040 A 
ATOM     68  C   UNL A   1      40.886  26.548  26.225  1.00  0.00     0.040 A 
ATOM     69  F   UNL A   1      41.807  28.575  26.965  1.00  0.00    -0.206 F 
ATOM     70  C   UNL A   1      40.101  25.420  26.455  1.00  0.00     0.006 A 
ENDBRANCH  49  63
BRANCH  50  71
ATOM     71  C   UNL A   1      40.635  34.424  35.507  1.00  0.00     0.057 A 
ATOM     72  C   UNL A   1      41.315  35.637  35.358  1.00  0.00     0.134 A 
ATOM     73  C   UNL A   1      39.983  34.194  36.724  1.00  0.00     0.134 A 
ATOM     74  F   UNL A   1      41.976  35.904  34.222  1.00  0.00    -0.206 F 
ATOM     75  C   UNL A   1      41.363  36.579  36.386  1.00  0.00     0.040 A 
ATOM     76  C   UNL A   1      40.003  35.136  37.753  1.00  0.00     0.040 A 
ATOM     77  F   UNL A   1      39.308  33.052  36.926  1.00  0.00    -0.206 F 
ATOM     78  C   UNL A   1      40.701  36.331  37.587  1.00  0.00     0.006 A 
ENDBRANCH  50  71
BRANCH  62  79
ATOM     79  C   UNL A   1      44.677  28.959  34.036  1.00  0.00     0.057 A 
ATOM     80  C   UNL A   1      45.961  29.415  33.717  1.00  0.00     0.134 A 
ATOM     81  C   UNL A   1      44.564  27.984  35.035  1.00  0.00     0.134 A 
ATOM     82  F   UNL A   1      46.136  30.338  32.758  1.00  0.00    -0.206 F 
ATOM     83  C   UNL A   1      47.093  28.912  34.360  1.00  0.00     0.040 A 
ATOM     84  C   UNL A   1      45.685  27.489  35.699  1.00  0.00     0.040 A 
ATOM     85  F   UNL A   1      43.360  27.510  35.389  1.00  0.00    -0.206 F 
ATOM     86  C   UNL A   1      46.956  27.951  35.360  1.00  0.00     0.006 A 
ENDBRANCH  62  79
ENDBRANCH  36  37
ENDBRANCH  28  31
ENDBRANCH  26  27
ENDBRANCH  25  26
ENDBRANCH   1  25
TORSDOF 13
ENDMDL
