MODEL 1
REMARK VINA RESULT:     -14.0      0.000      0.000
REMARK SMILES O=C(NCCCNC(=O)[C@H]1[C@H]2CC[C@H](C2)[C@@H]1C(=O)Nc1sc2c(c1C(=O)NC1CCCCC1)CCCC2)c1ccc(-c2c3nc(c(-c4c(F)cccc4F)c4ccc([nH]4)c(-c4c(F)cccc4F)c4nc(c(-c5c(F)cccc5F)c5ccc2[nH]5)C=C4)C=C3)cc1
REMARK SMILES IDX 6 1 5 2 4 3 3 4 1 5 2 6 38 8 39 9 91 10 40 11 90 12 41 13
REMARK SMILES IDX 42 14 43 15 84 16 44 17 89 18 83 19 85 20 45 21 88 22 82 23
REMARK SMILES IDX 81 24 46 26 72 27 55 28 71 29 56 30 59 31 70 32 86 33 57 34
REMARK SMILES IDX 58 35 69 37 87 38 60 39 47 40 48 41 53 42 49 43 50 44 52 45
REMARK SMILES IDX 54 46 51 47 73 48 74 49 79 50 75 51 76 52 78 53 80 54 77 55
REMARK SMILES IDX 61 56 62 57 67 58 63 59 64 60 66 61 68 62 65 63 7 64 8 65
REMARK SMILES IDX 9 67 10 68 11 69 16 70 12 71 15 72 14 73 13 74 17 75 18 76
REMARK SMILES IDX 19 77 20 79 21 80 24 81 22 82 23 83 37 84 34 85 36 86 35 87
REMARK SMILES IDX 25 88 26 89 27 90 28 92 29 93 33 94 30 95 32 96 31 97
REMARK H PARENT 3 7 85 25 59 36 7 66 19 78 27 91
REMARK Flexibility Score: inf
ROOT
ATOM      1  C   UNL A   1      36.876  23.209  24.859  1.00  0.00     0.117 C 
ENDROOT
BRANCH   1   2
ATOM      2  C   UNL A   1      37.810  22.867  25.995  1.00  0.00     0.042 C 
BRANCH   2   3
ATOM      3  C   UNL A   1      38.602  24.085  26.412  1.00  0.00     0.118 C 
BRANCH   3   4
ATOM      4  N   UNL A   1      40.023  23.941  26.080  1.00  0.00    -0.352 N 
ATOM      5  O   UNL A   1      42.142  24.637  25.734  1.00  0.00    -0.269 OA
ATOM      6  C   UNL A   1      41.081  24.767  26.348  1.00  0.00     0.251 C 
ATOM      7  H   UNL A   1      40.252  23.120  25.587  1.00  0.00     0.163 HD
BRANCH   6   8
ATOM      8  C   UNL A   1      40.943  25.811  27.375  1.00  0.00     0.039 A 
ATOM      9  C   UNL A   1      40.110  25.580  28.468  1.00  0.00     0.014 A 
ATOM     10  C   UNL A   1      41.644  27.014  27.265  1.00  0.00     0.014 A 
ATOM     11  C   UNL A   1      39.799  26.614  29.326  1.00  0.00     0.010 A 
ATOM     12  C   UNL A   1      41.459  28.002  28.233  1.00  0.00     0.010 A 
ATOM     13  C   UNL A   1      40.515  27.816  29.254  1.00  0.00    -0.014 A 
BRANCH  13  14
ATOM     14  C   UNL A   1      40.324  28.799  30.341  1.00  0.00     0.031 A 
ATOM     15  C   UNL A   1      39.247  29.834  30.272  1.00  0.00     0.074 A 
ATOM     16  C   UNL A   1      41.137  28.713  31.412  1.00  0.00     0.049 A 
ATOM     17  N   UNL A   1      38.960  30.775  31.134  1.00  0.00    -0.248 NA
ATOM     18  C   UNL A   1      38.385  29.826  29.081  1.00  0.00     0.031 C 
ATOM     19  C   UNL A   1      42.224  27.739  31.568  1.00  0.00     0.029 A 
ATOM     20  N   UNL A   1      41.172  29.431  32.575  1.00  0.00    -0.354 N 
ATOM     21  C   UNL A   1      37.908  31.490  30.579  1.00  0.00     0.074 A 
ATOM     22  C   UNL A   1      37.619  30.887  29.294  1.00  0.00     0.031 C 
ATOM     23  C   UNL A   1      42.785  27.889  32.773  1.00  0.00     0.029 A 
ATOM     24  C   UNL A   1      42.166  29.029  33.433  1.00  0.00     0.049 A 
ATOM     25  H   UNL A   1      40.547  30.164  32.778  1.00  0.00     0.167 HD
ATOM     26  C   UNL A   1      37.250  32.552  31.102  1.00  0.00     0.037 A 
ATOM     27  C   UNL A   1      42.569  29.546  34.605  1.00  0.00     0.037 A 
ATOM     28  C   UNL A   1      37.556  33.130  32.386  1.00  0.00     0.049 A 
ATOM     29  C   UNL A   1      41.846  30.741  35.142  1.00  0.00     0.074 A 
ATOM     30  C   UNL A   1      36.928  34.182  33.029  1.00  0.00     0.029 A 
ATOM     31  N   UNL A   1      38.588  32.714  33.216  1.00  0.00    -0.354 N 
ATOM     32  N   UNL A   1      40.830  31.388  34.625  1.00  0.00    -0.248 NA
ATOM     33  C   UNL A   1      42.325  31.282  36.417  1.00  0.00     0.031 C 
ATOM     34  C   UNL A   1      37.618  34.441  34.218  1.00  0.00     0.029 A 
ATOM     35  C   UNL A   1      38.636  33.509  34.351  1.00  0.00     0.049 A 
ATOM     36  H   UNL A   1      39.197  31.964  33.028  1.00  0.00     0.167 HD
ATOM     37  C   UNL A   1      40.536  32.407  35.517  1.00  0.00     0.074 A 
ATOM     38  C   UNL A   1      41.471  32.276  36.618  1.00  0.00     0.031 C 
ATOM     39  C   UNL A   1      39.580  33.364  35.432  1.00  0.00     0.037 A 
BRANCH  26  40
ATOM     40  C   UNL A   1      36.170  33.178  30.266  1.00  0.00     0.057 A 
ATOM     41  C   UNL A   1      34.808  32.972  30.523  1.00  0.00     0.134 A 
ATOM     42  C   UNL A   1      36.501  34.017  29.193  1.00  0.00     0.134 A 
ATOM     43  F   UNL A   1      34.418  32.170  31.525  1.00  0.00    -0.206 F 
ATOM     44  C   UNL A   1      33.817  33.550  29.725  1.00  0.00     0.040 A 
ATOM     45  C   UNL A   1      35.520  34.623  28.406  1.00  0.00     0.040 A 
ATOM     46  F   UNL A   1      37.786  34.263  28.891  1.00  0.00    -0.206 F 
ATOM     47  C   UNL A   1      34.173  34.384  28.666  1.00  0.00     0.006 A 
ENDBRANCH  26  40
BRANCH  27  48
ATOM     48  C   UNL A   1      43.732  28.948  35.304  1.00  0.00     0.057 A 
ATOM     49  C   UNL A   1      43.569  27.949  36.267  1.00  0.00     0.134 A 
ATOM     50  C   UNL A   1      45.043  29.329  34.983  1.00  0.00     0.134 A 
ATOM     51  F   UNL A   1      42.340  27.547  36.620  1.00  0.00    -0.206 F 
ATOM     52  C   UNL A   1      44.666  27.357  36.895  1.00  0.00     0.040 A 
ATOM     53  C   UNL A   1      46.149  28.724  35.580  1.00  0.00     0.040 A 
ATOM     54  F   UNL A   1      45.267  30.270  34.053  1.00  0.00    -0.206 F 
ATOM     55  C   UNL A   1      45.960  27.738  36.545  1.00  0.00     0.006 A 
ENDBRANCH  27  48
BRANCH  39  56
ATOM     56  C   UNL A   1      39.484  34.327  36.578  1.00  0.00     0.057 A 
ATOM     57  C   UNL A   1      38.798  34.008  37.756  1.00  0.00     0.134 A 
ATOM     58  C   UNL A   1      40.115  35.576  36.511  1.00  0.00     0.134 A 
ATOM     59  F   UNL A   1      38.158  32.835  37.876  1.00  0.00    -0.206 F 
ATOM     60  C   UNL A   1      38.727  34.907  38.822  1.00  0.00     0.040 A 
ATOM     61  C   UNL A   1      40.076  36.469  37.582  1.00  0.00     0.040 A 
ATOM     62  F   UNL A   1      40.792  35.940  35.412  1.00  0.00    -0.206 F 
ATOM     63  C   UNL A   1      39.375  36.138  38.739  1.00  0.00     0.006 A 
ENDBRANCH  39  56
ENDBRANCH  13  14
ENDBRANCH   6   8
ENDBRANCH   3   4
ENDBRANCH   2   3
ENDBRANCH   1   2
BRANCH   1  64
ATOM     64  N   UNL A   1      35.919  24.239  25.203  1.00  0.00    -0.356 N 
ATOM     65  C   UNL A   1      34.652  24.490  24.774  1.00  0.00     0.224 C 
ATOM     66  H   UNL A   1      36.247  24.881  25.873  1.00  0.00     0.163 HD
ATOM     67  O   UNL A   1      34.048  25.383  25.372  1.00  0.00    -0.275 OA
BRANCH  65  68
ATOM     68  C   UNL A   1      34.043  23.798  23.552  1.00  0.00     0.094 C 
ATOM     69  C   UNL A   1      33.551  22.342  23.771  1.00  0.00     0.002 C 
ATOM     70  C   UNL A   1      32.731  24.501  23.077  1.00  0.00     0.094 C 
ATOM     71  C   UNL A   1      32.578  22.219  24.945  1.00  0.00     0.005 C 
ATOM     72  C   UNL A   1      32.609  22.148  22.620  1.00  0.00     0.009 C 
ATOM     73  C   UNL A   1      31.731  23.332  22.973  1.00  0.00     0.002 C 
ATOM     74  C   UNL A   1      31.314  22.904  24.401  1.00  0.00     0.005 C 
BRANCH  70  75
ATOM     75  C   UNL A   1      32.825  25.495  21.895  1.00  0.00     0.229 C 
ATOM     76  O   UNL A   1      33.014  25.015  20.764  1.00  0.00    -0.274 OA
ATOM     77  N   UNL A   1      32.628  26.841  21.922  1.00  0.00    -0.317 N 
ATOM     78  H   UNL A   1      32.461  27.238  21.036  1.00  0.00     0.170 HD
BRANCH  77  79
ATOM     79  C   UNL A   1      32.617  27.752  22.949  1.00  0.00     0.108 A 
ATOM     80  S   UNL A   1      34.018  28.697  23.195  1.00  0.00    -0.122 S 
ATOM     81  C   UNL A   1      31.522  28.306  23.626  1.00  0.00     0.078 A 
ATOM     82  C   UNL A   1      33.416  29.093  24.736  1.00  0.00     0.011 A 
ATOM     83  C   UNL A   1      32.029  29.144  24.713  1.00  0.00    -0.019 A 
ATOM     84  C   UNL A   1      34.294  29.376  25.915  1.00  0.00     0.047 C 
ATOM     85  C   UNL A   1      31.319  29.904  25.799  1.00  0.00     0.037 C 
ATOM     86  C   UNL A   1      33.421  29.445  27.174  1.00  0.00     0.006 C 
ATOM     87  C   UNL A   1      32.252  30.404  26.924  1.00  0.00     0.005 C 
BRANCH  81  88
ATOM     88  C   UNL A   1      30.180  27.927  23.157  1.00  0.00     0.254 C 
ATOM     89  O   UNL A   1      29.834  26.741  23.205  1.00  0.00    -0.269 OA
ATOM     90  N   UNL A   1      29.197  28.793  22.762  1.00  0.00    -0.349 N 
ATOM     91  H   UNL A   1      28.317  28.354  22.699  1.00  0.00     0.164 HD
BRANCH  90  92
ATOM     92  C   UNL A   1      29.136  30.200  22.411  1.00  0.00     0.082 C 
ATOM     93  C   UNL A   1      28.165  30.432  21.235  1.00  0.00     0.025 C 
ATOM     94  C   UNL A   1      28.701  31.125  23.553  1.00  0.00     0.025 C 
ATOM     95  C   UNL A   1      28.167  31.894  20.775  1.00  0.00     0.002 C 
ATOM     96  C   UNL A   1      28.896  32.576  23.109  1.00  0.00     0.002 C 
ATOM     97  C   UNL A   1      28.002  32.897  21.918  1.00  0.00     0.000 C 
ENDBRANCH  90  92
ENDBRANCH  81  88
ENDBRANCH  77  79
ENDBRANCH  70  75
ENDBRANCH  65  68
ENDBRANCH   1  64
TORSDOF 14
ENDMDL
MODEL 2
REMARK VINA RESULT:     -13.6      0.486      5.790
REMARK SMILES O=C(NCCCNC(=O)[C@H]1[C@H]2CC[C@H](C2)[C@@H]1C(=O)Nc1sc2c(c1C(=O)NC1CCCCC1)CCCC2)c1ccc(-c2c3nc(c(-c4c(F)cccc4F)c4ccc([nH]4)c(-c4c(F)cccc4F)c4nc(c(-c5c(F)cccc5F)c5ccc2[nH]5)C=C4)C=C3)cc1
REMARK SMILES IDX 6 1 5 2 4 3 3 4 1 5 2 6 38 8 39 9 91 10 40 11 90 12 41 13
REMARK SMILES IDX 42 14 43 15 84 16 44 17 89 18 83 19 85 20 45 21 88 22 82 23
REMARK SMILES IDX 81 24 46 26 72 27 55 28 71 29 56 30 59 31 70 32 86 33 57 34
REMARK SMILES IDX 58 35 69 37 87 38 60 39 47 40 48 41 53 42 49 43 50 44 52 45
REMARK SMILES IDX 54 46 51 47 73 48 74 49 79 50 75 51 76 52 78 53 80 54 77 55
REMARK SMILES IDX 61 56 62 57 67 58 63 59 64 60 66 61 68 62 65 63 7 64 8 65
REMARK SMILES IDX 9 67 10 68 11 69 16 70 12 71 15 72 14 73 13 74 17 75 18 76
REMARK SMILES IDX 19 77 20 79 21 80 24 81 22 82 23 83 37 84 34 85 36 86 35 87
REMARK SMILES IDX 25 88 26 89 27 90 28 92 29 93 33 94 30 95 32 96 31 97
REMARK H PARENT 3 7 85 25 59 36 7 66 19 78 27 91
REMARK Flexibility Score: inf
ROOT
ATOM      1  C   UNL A   1      36.946  23.094  24.758  1.00  0.00     0.117 C 
ENDROOT
BRANCH   1   2
ATOM      2  C   UNL A   1      37.819  22.659  25.910  1.00  0.00     0.042 C 
BRANCH   2   3
ATOM      3  C   UNL A   1      38.692  23.801  26.373  1.00  0.00     0.118 C 
BRANCH   3   4
ATOM      4  N   UNL A   1      40.094  23.595  25.994  1.00  0.00    -0.352 N 
ATOM      5  O   UNL A   1      42.226  24.199  25.563  1.00  0.00    -0.269 OA
ATOM      6  C   UNL A   1      41.194  24.382  26.212  1.00  0.00     0.251 C 
ATOM      7  H   UNL A   1      40.272  22.758  25.507  1.00  0.00     0.163 HD
BRANCH   6   8
ATOM      8  C   UNL A   1      41.134  25.447  27.225  1.00  0.00     0.039 A 
ATOM      9  C   UNL A   1      40.374  25.244  28.376  1.00  0.00     0.014 A 
ATOM     10  C   UNL A   1      41.835  26.640  27.044  1.00  0.00     0.014 A 
ATOM     11  C   UNL A   1      40.130  26.297  29.232  1.00  0.00     0.010 A 
ATOM     12  C   UNL A   1      41.725  27.648  28.003  1.00  0.00     0.010 A 
ATOM     13  C   UNL A   1      40.849  27.490  29.089  1.00  0.00    -0.014 A 
BRANCH  13  14
ATOM     14  C   UNL A   1      40.741  28.496  30.167  1.00  0.00     0.031 A 
ATOM     15  C   UNL A   1      41.679  28.490  31.332  1.00  0.00     0.074 A 
ATOM     16  C   UNL A   1      39.786  29.439  30.049  1.00  0.00     0.049 A 
ATOM     17  N   UNL A   1      41.707  29.292  32.365  1.00  0.00    -0.248 NA
ATOM     18  C   UNL A   1      42.713  27.444  31.354  1.00  0.00     0.031 C 
ATOM     19  C   UNL A   1      38.817  29.524  28.949  1.00  0.00     0.029 A 
ATOM     20  N   UNL A   1      39.478  30.511  30.840  1.00  0.00    -0.354 N 
ATOM     21  C   UNL A   1      42.737  28.833  33.174  1.00  0.00     0.074 A 
ATOM     22  C   UNL A   1      43.298  27.667  32.523  1.00  0.00     0.031 C 
ATOM     23  C   UNL A   1      38.059  30.613  29.110  1.00  0.00     0.029 A 
ATOM     24  C   UNL A   1      38.419  31.247  30.370  1.00  0.00     0.049 A 
ATOM     25  H   UNL A   1      39.967  30.734  31.665  1.00  0.00     0.167 HD
ATOM     26  C   UNL A   1      43.166  29.344  34.352  1.00  0.00     0.037 A 
ATOM     27  C   UNL A   1      37.774  32.293  30.912  1.00  0.00     0.037 A 
ATOM     28  C   UNL A   1      42.591  30.509  34.976  1.00  0.00     0.049 A 
ATOM     29  C   UNL A   1      38.249  32.816  32.232  1.00  0.00     0.074 A 
ATOM     30  C   UNL A   1      42.974  31.136  36.148  1.00  0.00     0.029 A 
ATOM     31  N   UNL A   1      41.500  31.214  34.485  1.00  0.00    -0.354 N 
ATOM     32  N   UNL A   1      39.245  32.395  32.971  1.00  0.00    -0.248 NA
ATOM     33  C   UNL A   1      37.511  33.950  32.795  1.00  0.00     0.031 C 
ATOM     34  C   UNL A   1      42.078  32.180  36.398  1.00  0.00     0.029 A 
ATOM     35  C   UNL A   1      41.175  32.249  35.347  1.00  0.00     0.049 A 
ATOM     36  H   UNL A   1      41.027  31.009  33.646  1.00  0.00     0.167 HD
ATOM     37  C   UNL A   1      39.266  33.221  34.085  1.00  0.00     0.074 A 
ATOM     38  C   UNL A   1      38.192  34.179  33.909  1.00  0.00     0.031 C 
ATOM     39  C   UNL A   1      40.097  33.187  35.155  1.00  0.00     0.037 A 
BRANCH  26  40
ATOM     40  C   UNL A   1      44.279  28.621  35.057  1.00  0.00     0.057 A 
ATOM     41  C   UNL A   1      44.040  27.611  35.998  1.00  0.00     0.134 A 
ATOM     42  C   UNL A   1      45.616  28.934  34.775  1.00  0.00     0.134 A 
ATOM     43  F   UNL A   1      42.785  27.270  36.326  1.00  0.00    -0.206 F 
ATOM     44  C   UNL A   1      45.088  26.961  36.655  1.00  0.00     0.040 A 
ATOM     45  C   UNL A   1      46.671  28.271  35.404  1.00  0.00     0.040 A 
ATOM     46  F   UNL A   1      45.920  29.887  33.881  1.00  0.00    -0.206 F 
ATOM     47  C   UNL A   1      46.409  27.287  36.353  1.00  0.00     0.006 A 
ENDBRANCH  26  40
BRANCH  27  48
ATOM     48  C   UNL A   1      36.598  32.866  30.214  1.00  0.00     0.057 A 
ATOM     49  C   UNL A   1      35.294  32.539  30.594  1.00  0.00     0.134 A 
ATOM     50  C   UNL A   1      36.755  33.799  29.179  1.00  0.00     0.134 A 
ATOM     51  F   UNL A   1      35.080  31.648  31.573  1.00  0.00    -0.206 F 
ATOM     52  C   UNL A   1      34.187  33.110  29.965  1.00  0.00     0.040 A 
ATOM     53  C   UNL A   1      35.659  34.401  28.562  1.00  0.00     0.040 A 
ATOM     54  F   UNL A   1      37.982  34.169  28.780  1.00  0.00    -0.206 F 
ATOM     55  C   UNL A   1      34.368  34.051  28.952  1.00  0.00     0.006 A 
ENDBRANCH  27  48
BRANCH  39  56
ATOM     56  C   UNL A   1      39.890  34.239  36.204  1.00  0.00     0.057 A 
ATOM     57  C   UNL A   1      39.080  34.019  37.324  1.00  0.00     0.134 A 
ATOM     58  C   UNL A   1      40.538  35.477  36.105  1.00  0.00     0.134 A 
ATOM     59  F   UNL A   1      38.417  32.861  37.469  1.00  0.00    -0.206 F 
ATOM     60  C   UNL A   1      38.906  35.001  38.301  1.00  0.00     0.040 A 
ATOM     61  C   UNL A   1      40.396  36.454  37.090  1.00  0.00     0.040 A 
ATOM     62  F   UNL A   1      41.332  35.750  35.058  1.00  0.00    -0.206 F 
ATOM     63  C   UNL A   1      39.573  36.219  38.189  1.00  0.00     0.006 A 
ENDBRANCH  39  56
ENDBRANCH  13  14
ENDBRANCH   6   8
ENDBRANCH   3   4
ENDBRANCH   2   3
ENDBRANCH   1   2
BRANCH   1  64
ATOM     64  N   UNL A   1      36.038  24.165  25.109  1.00  0.00    -0.356 N 
ATOM     65  C   UNL A   1      34.762  24.443  24.729  1.00  0.00     0.224 C 
ATOM     66  H   UNL A   1      36.416  24.817  25.743  1.00  0.00     0.163 HD
ATOM     67  O   UNL A   1      34.213  25.373  25.322  1.00  0.00    -0.275 OA
BRANCH  65  68
ATOM     68  C   UNL A   1      34.077  23.733  23.558  1.00  0.00     0.094 C 
ATOM     69  C   UNL A   1      33.587  22.286  23.835  1.00  0.00     0.002 C 
ATOM     70  C   UNL A   1      32.746  24.438  23.146  1.00  0.00     0.094 C 
ATOM     71  C   UNL A   1      32.683  22.196  25.066  1.00  0.00     0.005 C 
ATOM     72  C   UNL A   1      32.577  22.078  22.745  1.00  0.00     0.009 C 
ATOM     73  C   UNL A   1      31.732  23.277  23.123  1.00  0.00     0.002 C 
ATOM     74  C   UNL A   1      31.394  22.882  24.582  1.00  0.00     0.005 C 
BRANCH  70  75
ATOM     75  C   UNL A   1      32.779  25.407  21.940  1.00  0.00     0.229 C 
ATOM     76  O   UNL A   1      32.928  24.906  20.813  1.00  0.00    -0.274 OA
ATOM     77  N   UNL A   1      32.566  26.752  21.946  1.00  0.00    -0.317 N 
ATOM     78  H   UNL A   1      32.358  27.127  21.060  1.00  0.00     0.170 HD
BRANCH  77  79
ATOM     79  C   UNL A   1      32.585  27.684  22.954  1.00  0.00     0.108 A 
ATOM     80  S   UNL A   1      34.008  28.602  23.167  1.00  0.00    -0.122 S 
ATOM     81  C   UNL A   1      31.509  28.277  23.628  1.00  0.00     0.078 A 
ATOM     82  C   UNL A   1      33.430  29.045  24.705  1.00  0.00     0.011 A 
ATOM     83  C   UNL A   1      32.044  29.127  24.692  1.00  0.00    -0.019 A 
ATOM     84  C   UNL A   1      34.325  29.333  25.869  1.00  0.00     0.047 C 
ATOM     85  C   UNL A   1      31.361  29.926  25.767  1.00  0.00     0.037 C 
ATOM     86  C   UNL A   1      33.465  29.449  27.134  1.00  0.00     0.006 C 
ATOM     87  C   UNL A   1      32.316  30.428  26.873  1.00  0.00     0.005 C 
BRANCH  81  88
ATOM     88  C   UNL A   1      30.154  27.919  23.179  1.00  0.00     0.254 C 
ATOM     89  O   UNL A   1      29.789  26.739  23.237  1.00  0.00    -0.269 OA
ATOM     90  N   UNL A   1      29.180  28.799  22.794  1.00  0.00    -0.349 N 
ATOM     91  H   UNL A   1      28.293  28.375  22.745  1.00  0.00     0.164 HD
BRANCH  90  92
ATOM     92  C   UNL A   1      29.138  30.206  22.439  1.00  0.00     0.082 C 
ATOM     93  C   UNL A   1      28.182  30.445  21.251  1.00  0.00     0.025 C 
ATOM     94  C   UNL A   1      28.700  31.139  23.573  1.00  0.00     0.025 C 
ATOM     95  C   UNL A   1      28.205  31.905  20.787  1.00  0.00     0.002 C 
ATOM     96  C   UNL A   1      28.915  32.587  23.127  1.00  0.00     0.002 C 
ATOM     97  C   UNL A   1      28.037  32.913  21.925  1.00  0.00     0.000 C 
ENDBRANCH  90  92
ENDBRANCH  81  88
ENDBRANCH  77  79
ENDBRANCH  70  75
ENDBRANCH  65  68
ENDBRANCH   1  64
TORSDOF 14
ENDMDL
MODEL 3
REMARK VINA RESULT:     -13.6      3.800      7.517
REMARK SMILES O=C(NCCCNC(=O)[C@H]1[C@H]2CC[C@H](C2)[C@@H]1C(=O)Nc1sc2c(c1C(=O)NC1CCCCC1)CCCC2)c1ccc(-c2c3nc(c(-c4c(F)cccc4F)c4ccc([nH]4)c(-c4c(F)cccc4F)c4nc(c(-c5c(F)cccc5F)c5ccc2[nH]5)C=C4)C=C3)cc1
REMARK SMILES IDX 6 1 5 2 4 3 3 4 1 5 2 6 38 8 39 9 91 10 40 11 90 12 41 13
REMARK SMILES IDX 42 14 43 15 84 16 44 17 89 18 83 19 85 20 45 21 88 22 82 23
REMARK SMILES IDX 81 24 46 26 72 27 55 28 71 29 56 30 59 31 70 32 86 33 57 34
REMARK SMILES IDX 58 35 69 37 87 38 60 39 47 40 48 41 53 42 49 43 50 44 52 45
REMARK SMILES IDX 54 46 51 47 73 48 74 49 79 50 75 51 76 52 78 53 80 54 77 55
REMARK SMILES IDX 61 56 62 57 67 58 63 59 64 60 66 61 68 62 65 63 7 64 8 65
REMARK SMILES IDX 9 67 10 68 11 69 16 70 12 71 15 72 14 73 13 74 17 75 18 76
REMARK SMILES IDX 19 77 20 79 21 80 24 81 22 82 23 83 37 84 34 85 36 86 35 87
REMARK SMILES IDX 25 88 26 89 27 90 28 92 29 93 33 94 30 95 32 96 31 97
REMARK H PARENT 3 7 85 25 59 36 7 66 19 78 27 91
REMARK Flexibility Score: inf
ROOT
ATOM      1  C   UNL A   1      36.116  20.437  25.007  1.00  0.00     0.117 C 
ENDROOT
BRANCH   1   2
ATOM      2  C   UNL A   1      37.428  19.746  24.725  1.00  0.00     0.042 C 
BRANCH   2   3
ATOM      3  C   UNL A   1      38.542  20.378  25.526  1.00  0.00     0.118 C 
BRANCH   3   4
ATOM      4  N   UNL A   1      39.616  19.418  25.803  1.00  0.00    -0.352 N 
ATOM      5  O   UNL A   1      41.750  18.712  26.012  1.00  0.00    -0.269 OA
ATOM      6  C   UNL A   1      40.933  19.630  26.112  1.00  0.00     0.251 C 
ATOM      7  H   UNL A   1      39.347  18.472  25.760  1.00  0.00     0.163 HD
BRANCH   6   8
ATOM      8  C   UNL A   1      41.366  20.962  26.565  1.00  0.00     0.039 A 
ATOM      9  C   UNL A   1      41.236  21.294  27.912  1.00  0.00     0.014 A 
ATOM     10  C   UNL A   1      41.909  21.878  25.662  1.00  0.00     0.014 A 
ATOM     11  C   UNL A   1      41.432  22.596  28.320  1.00  0.00     0.010 A 
ATOM     12  C   UNL A   1      42.271  23.147  26.114  1.00  0.00     0.010 A 
ATOM     13  C   UNL A   1      42.008  23.521  27.441  1.00  0.00    -0.014 A 
BRANCH  13  14
ATOM     14  C   UNL A   1      42.428  24.828  27.990  1.00  0.00     0.031 A 
ATOM     15  C   UNL A   1      43.866  25.125  28.274  1.00  0.00     0.074 A 
ATOM     16  C   UNL A   1      41.473  25.755  28.197  1.00  0.00     0.049 A 
ATOM     17  N   UNL A   1      44.395  26.215  28.769  1.00  0.00    -0.248 NA
ATOM     18  C   UNL A   1      44.840  24.064  27.978  1.00  0.00     0.031 C 
ATOM     19  C   UNL A   1      40.039  25.555  27.956  1.00  0.00     0.029 A 
ATOM     20  N   UNL A   1      41.554  27.047  28.638  1.00  0.00    -0.354 N 
ATOM     21  C   UNL A   1      45.755  25.962  28.874  1.00  0.00     0.074 A 
ATOM     22  C   UNL A   1      45.970  24.607  28.411  1.00  0.00     0.031 C 
ATOM     23  C   UNL A   1      39.385  26.695  28.204  1.00  0.00     0.029 A 
ATOM     24  C   UNL A   1      40.335  27.673  28.713  1.00  0.00     0.049 A 
ATOM     25  H   UNL A   1      42.403  27.486  28.876  1.00  0.00     0.167 HD
ATOM     26  C   UNL A   1      46.727  26.792  29.320  1.00  0.00     0.037 A 
ATOM     27  C   UNL A   1      40.005  28.887  29.185  1.00  0.00     0.037 A 
ATOM     28  C   UNL A   1      46.485  28.139  29.771  1.00  0.00     0.049 A 
ATOM     29  C   UNL A   1      41.096  29.770  29.703  1.00  0.00     0.074 A 
ATOM     30  C   UNL A   1      47.402  29.080  30.206  1.00  0.00     0.029 A 
ATOM     31  N   UNL A   1      45.232  28.731  29.861  1.00  0.00    -0.354 N 
ATOM     32  N   UNL A   1      42.384  29.534  29.766  1.00  0.00    -0.248 NA
ATOM     33  C   UNL A   1      40.693  31.081  30.219  1.00  0.00     0.031 C 
ATOM     34  C   UNL A   1      46.699  30.217  30.616  1.00  0.00     0.029 A 
ATOM     35  C   UNL A   1      45.348  30.013  30.376  1.00  0.00     0.049 A 
ATOM     36  H   UNL A   1      44.386  28.304  29.598  1.00  0.00     0.167 HD
ATOM     37  C   UNL A   1      42.951  30.673  30.317  1.00  0.00     0.074 A 
ATOM     38  C   UNL A   1      41.865  31.605  30.550  1.00  0.00     0.031 C 
ATOM     39  C   UNL A   1      44.252  30.922  30.606  1.00  0.00     0.037 A 
BRANCH  26  40
ATOM     40  C   UNL A   1      48.128  26.251  29.378  1.00  0.00     0.057 A 
ATOM     41  C   UNL A   1      48.655  25.656  30.533  1.00  0.00     0.134 A 
ATOM     42  C   UNL A   1      48.959  26.313  28.251  1.00  0.00     0.134 A 
ATOM     43  F   UNL A   1      47.920  25.576  31.653  1.00  0.00    -0.206 F 
ATOM     44  C   UNL A   1      49.965  25.172  30.574  1.00  0.00     0.040 A 
ATOM     45  C   UNL A   1      50.260  25.807  28.271  1.00  0.00     0.040 A 
ATOM     46  F   UNL A   1      48.519  26.864  27.109  1.00  0.00    -0.206 F 
ATOM     47  C   UNL A   1      50.769  25.242  29.437  1.00  0.00     0.006 A 
ENDBRANCH  26  40
BRANCH  27  48
ATOM     48  C   UNL A   1      38.579  29.294  29.215  1.00  0.00     0.057 A 
ATOM     49  C   UNL A   1      37.827  29.227  30.390  1.00  0.00     0.134 A 
ATOM     50  C   UNL A   1      37.951  29.813  28.073  1.00  0.00     0.134 A 
ATOM     51  F   UNL A   1      38.371  28.735  31.512  1.00  0.00    -0.206 F 
ATOM     52  C   UNL A   1      36.497  29.650  30.429  1.00  0.00     0.040 A 
ATOM     53  C   UNL A   1      36.633  30.267  28.105  1.00  0.00     0.040 A 
ATOM     54  F   UNL A   1      38.625  29.921  26.918  1.00  0.00    -0.206 F 
ATOM     55  C   UNL A   1      35.900  30.180  29.286  1.00  0.00     0.006 A 
ENDBRANCH  27  48
BRANCH  39  56
ATOM     56  C   UNL A   1      44.570  32.271  31.179  1.00  0.00     0.057 A 
ATOM     57  C   UNL A   1      44.622  32.495  32.560  1.00  0.00     0.134 A 
ATOM     58  C   UNL A   1      44.860  33.350  30.334  1.00  0.00     0.134 A 
ATOM     59  F   UNL A   1      44.337  31.507  33.422  1.00  0.00    -0.206 F 
ATOM     60  C   UNL A   1      44.933  33.751  33.082  1.00  0.00     0.040 A 
ATOM     61  C   UNL A   1      45.201  34.603  30.846  1.00  0.00     0.040 A 
ATOM     62  F   UNL A   1      44.832  33.201  29.002  1.00  0.00    -0.206 F 
ATOM     63  C   UNL A   1      45.232  34.807  32.223  1.00  0.00     0.006 A 
ENDBRANCH  39  56
ENDBRANCH  13  14
ENDBRANCH   6   8
ENDBRANCH   3   4
ENDBRANCH   2   3
ENDBRANCH   1   2
BRANCH   1  64
ATOM     64  N   UNL A   1      36.185  21.873  24.841  1.00  0.00    -0.356 N 
ATOM     65  C   UNL A   1      35.224  22.834  24.781  1.00  0.00     0.224 C 
ATOM     66  H   UNL A   1      37.102  22.222  24.755  1.00  0.00     0.163 HD
ATOM     67  O   UNL A   1      35.625  23.999  24.768  1.00  0.00    -0.275 OA
BRANCH  65  68
ATOM     68  C   UNL A   1      33.738  22.503  24.618  1.00  0.00     0.094 C 
ATOM     69  C   UNL A   1      33.094  21.685  25.770  1.00  0.00     0.002 C 
ATOM     70  C   UNL A   1      32.851  23.789  24.618  1.00  0.00     0.094 C 
ATOM     71  C   UNL A   1      33.312  22.327  27.142  1.00  0.00     0.005 C 
ATOM     72  C   UNL A   1      31.632  21.957  25.575  1.00  0.00     0.009 C 
ATOM     73  C   UNL A   1      31.769  23.464  25.667  1.00  0.00     0.002 C 
ATOM     74  C   UNL A   1      32.398  23.562  27.079  1.00  0.00     0.005 C 
BRANCH  70  75
ATOM     75  C   UNL A   1      32.401  24.363  23.254  1.00  0.00     0.229 C 
ATOM     76  O   UNL A   1      32.322  23.567  22.302  1.00  0.00    -0.274 OA
ATOM     77  N   UNL A   1      31.981  25.628  22.980  1.00  0.00    -0.317 N 
ATOM     78  H   UNL A   1      31.485  25.710  22.133  1.00  0.00     0.170 HD
BRANCH  77  79
ATOM     79  C   UNL A   1      32.116  26.813  23.660  1.00  0.00     0.108 A 
ATOM     80  S   UNL A   1      33.675  27.502  23.764  1.00  0.00    -0.122 S 
ATOM     81  C   UNL A   1      31.135  27.757  23.993  1.00  0.00     0.078 A 
ATOM     82  C   UNL A   1      33.096  28.494  25.019  1.00  0.00     0.011 A 
ATOM     83  C   UNL A   1      31.756  28.797  24.814  1.00  0.00    -0.019 A 
ATOM     84  C   UNL A   1      33.952  28.980  26.146  1.00  0.00     0.047 C 
ATOM     85  C   UNL A   1      31.175  29.994  25.512  1.00  0.00     0.037 C 
ATOM     86  C   UNL A   1      33.051  29.628  27.205  1.00  0.00     0.006 C 
ATOM     87  C   UNL A   1      32.136  30.652  26.528  1.00  0.00     0.005 C 
BRANCH  81  88
ATOM     88  C   UNL A   1      29.769  27.507  23.508  1.00  0.00     0.254 C 
ATOM     89  O   UNL A   1      29.299  26.366  23.584  1.00  0.00    -0.269 OA
ATOM     90  N   UNL A   1      28.889  28.457  23.066  1.00  0.00    -0.349 N 
ATOM     91  H   UNL A   1      27.970  28.111  22.999  1.00  0.00     0.164 HD
BRANCH  90  92
ATOM     92  C   UNL A   1      28.984  29.851  22.672  1.00  0.00     0.082 C 
ATOM     93  C   UNL A   1      28.263  30.093  21.330  1.00  0.00     0.025 C 
ATOM     94  C   UNL A   1      28.405  30.843  23.687  1.00  0.00     0.025 C 
ATOM     95  C   UNL A   1      28.442  31.533  20.838  1.00  0.00     0.002 C 
ATOM     96  C   UNL A   1      28.769  32.263  23.247  1.00  0.00     0.002 C 
ATOM     97  C   UNL A   1      28.132  32.587  21.902  1.00  0.00     0.000 C 
ENDBRANCH  90  92
ENDBRANCH  81  88
ENDBRANCH  77  79
ENDBRANCH  70  75
ENDBRANCH  65  68
ENDBRANCH   1  64
TORSDOF 14
ENDMDL
