MODEL 1
REMARK VINA RESULT:     -12.3      0.000      0.000
REMARK SMILES Cc1cc(Br)cc2c1O[C@H](C(F)(F)F)C(C(=O)NCCCNC(=O)c1ccc(-c3c4nc(c(-c5c(F)cccc5F)c5ccc([nH]5)c(-c5c(F)cccc5F)c5nc(c(-c6c(F)cccc6F)c6ccc3[nH]6)C=C5)C=C4)cc1)=C2
REMARK SMILES IDX 20 1 19 2 18 3 16 4 17 5 15 7 1 8 2 9 3 10 8 11 4 12 7 13
REMARK SMILES IDX 9 14 5 15 6 16 79 17 10 18 11 19 12 20 13 21 14 22 21 23
REMARK SMILES IDX 22 24 23 25 24 27 25 28 26 29 78 30 27 31 77 32 28 33 29 34
REMARK SMILES IDX 30 35 71 36 31 37 76 38 70 39 72 40 32 41 75 42 69 43 68 44
REMARK SMILES IDX 33 46 59 47 42 48 58 49 43 50 46 51 57 52 73 53 44 54 45 55
REMARK SMILES IDX 56 57 74 58 47 59 34 60 35 61 40 62 36 63 37 64 39 65 41 66
REMARK SMILES IDX 38 67 60 68 61 69 66 70 62 71 63 72 65 73 67 74 64 75 48 76
REMARK SMILES IDX 49 77 54 78 50 79 51 80 53 81 55 82 52 83
REMARK H PARENT 18 6 22 26 72 45 46 56
REMARK Flexibility Score: inf
ROOT
ATOM      1  C   UNL A   1      37.814  19.589  24.948  1.00  0.00     0.042 C 
ENDROOT
BRANCH   1   2
ATOM      2  C   UNL A   1      36.732  20.612  24.630  1.00  0.00     0.118 C 
BRANCH   2   3
ATOM      3  N   UNL A   1      35.810  20.786  25.741  1.00  0.00    -0.352 N 
ATOM      4  C   UNL A   1      34.829  21.648  26.093  1.00  0.00     0.251 C 
ATOM      5  O   UNL A   1      34.295  21.412  27.183  1.00  0.00    -0.270 OA
ATOM      6  H   UNL A   1      35.935  20.087  26.424  1.00  0.00     0.163 HD
BRANCH   4   7
ATOM      7  C   UNL A   1      34.374  22.814  25.284  1.00  0.00     0.067 C 
ATOM      8  C   UNL A   1      33.050  26.145  21.565  1.00  0.00     0.048 C 
ATOM      9  C   UNL A   1      33.368  26.220  23.031  1.00  0.00    -0.007 A 
ATOM     10  C   UNL A   1      33.251  27.454  23.689  1.00  0.00     0.023 A 
ATOM     11  C   UNL A   1      33.764  25.100  23.773  1.00  0.00     0.130 A 
ATOM     12  C   UNL A   1      33.536  27.556  25.051  1.00  0.00     0.019 A 
ATOM     13  C   UNL A   1      34.057  25.203  25.139  1.00  0.00     0.019 A 
ATOM     14  O   UNL A   1      33.901  23.912  23.106  1.00  0.00    -0.475 OA
ATOM     15  Br  UNL A   1      33.378  29.230  25.916  1.00  0.00    -0.051 Br
ATOM     16  C   UNL A   1      33.944  26.439  25.779  1.00  0.00     0.027 A 
ATOM     17  C   UNL A   1      34.506  24.020  25.866  1.00  0.00     0.025 C 
ATOM     18  C   UNL A   1      33.771  22.711  23.914  1.00  0.00     0.314 C 
BRANCH  18  19
ATOM     19  C   UNL A   1      32.296  22.264  23.942  1.00  0.00     0.429 C 
ATOM     20  F   UNL A   1      32.209  20.919  23.789  1.00  0.00    -0.167 F 
ATOM     21  F   UNL A   1      31.688  22.556  25.116  1.00  0.00    -0.167 F 
ATOM     22  F   UNL A   1      31.554  22.832  22.965  1.00  0.00    -0.167 F 
ENDBRANCH  18  19
ENDBRANCH   4   7
ENDBRANCH   2   3
ENDBRANCH   1   2
BRANCH   1  23
ATOM     23  C   UNL A   1      38.965  20.193  25.742  1.00  0.00     0.118 C 
BRANCH  23  24
ATOM     24  N   UNL A   1      40.106  19.285  25.821  1.00  0.00    -0.352 N 
ATOM     25  C   UNL A   1      41.432  19.547  26.055  1.00  0.00     0.251 C 
ATOM     26  H   UNL A   1      39.889  18.334  25.686  1.00  0.00     0.163 HD
ATOM     27  O   UNL A   1      42.278  18.688  25.822  1.00  0.00    -0.269 OA
BRANCH  25  28
ATOM     28  C   UNL A   1      41.844  20.863  26.578  1.00  0.00     0.039 A 
ATOM     29  C   UNL A   1      42.268  21.853  25.687  1.00  0.00     0.014 A 
ATOM     30  C   UNL A   1      41.830  21.113  27.952  1.00  0.00     0.014 A 
ATOM     31  C   UNL A   1      42.606  23.117  26.173  1.00  0.00     0.010 A 
ATOM     32  C   UNL A   1      42.075  22.396  28.424  1.00  0.00     0.010 A 
ATOM     33  C   UNL A   1      42.473  23.408  27.540  1.00  0.00    -0.014 A 
BRANCH  33  34
ATOM     34  C   UNL A   1      42.758  24.762  28.071  1.00  0.00     0.031 A 
ATOM     35  C   UNL A   1      44.163  25.144  28.444  1.00  0.00     0.074 A 
ATOM     36  C   UNL A   1      41.741  25.622  28.274  1.00  0.00     0.049 A 
ATOM     37  N   UNL A   1      44.602  26.257  28.974  1.00  0.00    -0.248 NA
ATOM     38  C   UNL A   1      45.209  24.133  28.220  1.00  0.00     0.031 C 
ATOM     39  C   UNL A   1      40.330  25.343  28.001  1.00  0.00     0.029 A 
ATOM     40  N   UNL A   1      41.738  26.906  28.757  1.00  0.00    -0.354 N 
ATOM     41  C   UNL A   1      45.967  26.073  29.155  1.00  0.00     0.074 A 
ATOM     42  C   UNL A   1      46.274  24.724  28.740  1.00  0.00     0.031 C 
ATOM     43  C   UNL A   1      39.603  26.438  28.279  1.00  0.00     0.029 A 
ATOM     44  C   UNL A   1      40.490  27.482  28.783  1.00  0.00     0.049 A 
ATOM     45  H   UNL A   1      42.552  27.372  29.055  1.00  0.00     0.167 HD
ATOM     46  C   UNL A   1      46.887  26.963  29.595  1.00  0.00     0.037 A 
ATOM     47  C   UNL A   1      40.108  28.716  29.163  1.00  0.00     0.037 A 
ATOM     48  C   UNL A   1      46.580  28.316  29.971  1.00  0.00     0.049 A 
ATOM     49  C   UNL A   1      41.148  29.687  29.646  1.00  0.00     0.074 A 
ATOM     50  C   UNL A   1      47.448  29.313  30.380  1.00  0.00     0.029 A 
ATOM     51  N   UNL A   1      45.306  28.863  29.973  1.00  0.00    -0.354 N 
ATOM     52  N   UNL A   1      42.444  29.518  29.759  1.00  0.00    -0.248 NA
ATOM     53  C   UNL A   1      40.677  31.018  30.052  1.00  0.00     0.031 C 
ATOM     54  C   UNL A   1      46.694  30.456  30.661  1.00  0.00     0.029 A 
ATOM     55  C   UNL A   1      45.362  30.181  30.390  1.00  0.00     0.049 A 
ATOM     56  H   UNL A   1      44.484  28.385  29.718  1.00  0.00     0.167 HD
ATOM     57  C   UNL A   1      42.946  30.725  30.223  1.00  0.00     0.074 A 
ATOM     58  C   UNL A   1      41.817  31.622  30.363  1.00  0.00     0.031 C 
ATOM     59  C   UNL A   1      44.227  31.061  30.508  1.00  0.00     0.037 A 
BRANCH  46  60
ATOM     60  C   UNL A   1      48.314  26.510  29.666  1.00  0.00     0.057 A 
ATOM     61  C   UNL A   1      49.207  26.734  28.610  1.00  0.00     0.134 A 
ATOM     62  C   UNL A   1      48.816  25.888  30.816  1.00  0.00     0.134 A 
ATOM     63  F   UNL A   1      48.785  27.313  27.475  1.00  0.00    -0.206 F 
ATOM     64  C   UNL A   1      50.543  26.338  28.687  1.00  0.00     0.040 A 
ATOM     65  C   UNL A   1      50.156  25.510  30.914  1.00  0.00     0.040 A 
ATOM     66  F   UNL A   1      48.015  25.647  31.865  1.00  0.00    -0.206 F 
ATOM     67  C   UNL A   1      51.023  25.732  29.846  1.00  0.00     0.006 A 
ENDBRANCH  46  60
BRANCH  47  68
ATOM     68  C   UNL A   1      38.684  29.114  29.047  1.00  0.00     0.057 A 
ATOM     69  C   UNL A   1      37.833  29.055  30.157  1.00  0.00     0.134 A 
ATOM     70  C   UNL A   1      38.145  29.587  27.846  1.00  0.00     0.134 A 
ATOM     71  F   UNL A   1      38.289  28.597  31.333  1.00  0.00    -0.206 F 
ATOM     72  C   UNL A   1      36.495  29.441  30.075  1.00  0.00     0.040 A 
ATOM     73  C   UNL A   1      36.814  29.998  27.754  1.00  0.00     0.040 A 
ATOM     74  F   UNL A   1      38.911  29.678  26.750  1.00  0.00    -0.206 F 
ATOM     75  C   UNL A   1      35.983  29.921  28.872  1.00  0.00     0.006 A 
ENDBRANCH  47  68
BRANCH  59  76
ATOM     76  C   UNL A   1      44.491  32.458  30.978  1.00  0.00     0.057 A 
ATOM     77  C   UNL A   1      44.537  32.778  32.338  1.00  0.00     0.134 A 
ATOM     78  C   UNL A   1      44.802  33.470  30.059  1.00  0.00     0.134 A 
ATOM     79  F   UNL A   1      44.242  31.853  33.265  1.00  0.00    -0.206 F 
ATOM     80  C   UNL A   1      44.880  34.059  32.773  1.00  0.00     0.040 A 
ATOM     81  C   UNL A   1      45.166  34.748  30.481  1.00  0.00     0.040 A 
ATOM     82  F   UNL A   1      44.785  33.222  28.741  1.00  0.00    -0.206 F 
ATOM     83  C   UNL A   1      45.207  35.045  31.842  1.00  0.00     0.006 A 
ENDBRANCH  59  76
ENDBRANCH  33  34
ENDBRANCH  25  28
ENDBRANCH  23  24
ENDBRANCH   1  23
TORSDOF 11
ENDMDL
MODEL 2
REMARK VINA RESULT:     -12.1      4.279      9.034
REMARK SMILES Cc1cc(Br)cc2c1O[C@H](C(F)(F)F)C(C(=O)NCCCNC(=O)c1ccc(-c3c4nc(c(-c5c(F)cccc5F)c5ccc([nH]5)c(-c5c(F)cccc5F)c5nc(c(-c6c(F)cccc6F)c6ccc3[nH]6)C=C5)C=C4)cc1)=C2
REMARK SMILES IDX 20 1 19 2 18 3 16 4 17 5 15 7 1 8 2 9 3 10 8 11 4 12 7 13
REMARK SMILES IDX 9 14 5 15 6 16 79 17 10 18 11 19 12 20 13 21 14 22 21 23
REMARK SMILES IDX 22 24 23 25 24 27 25 28 26 29 78 30 27 31 77 32 28 33 29 34
REMARK SMILES IDX 30 35 71 36 31 37 76 38 70 39 72 40 32 41 75 42 69 43 68 44
REMARK SMILES IDX 33 46 59 47 42 48 58 49 43 50 46 51 57 52 73 53 44 54 45 55
REMARK SMILES IDX 56 57 74 58 47 59 34 60 35 61 40 62 36 63 37 64 39 65 41 66
REMARK SMILES IDX 38 67 60 68 61 69 66 70 62 71 63 72 65 73 67 74 64 75 48 76
REMARK SMILES IDX 49 77 54 78 50 79 51 80 53 81 55 82 52 83
REMARK H PARENT 18 6 22 26 72 45 46 56
REMARK Flexibility Score: inf
ROOT
ATOM      1  C   UNL A   1      31.402  32.107  26.620  1.00  0.00     0.042 C 
ENDROOT
BRANCH   1   2
ATOM      2  C   UNL A   1      31.517  30.611  26.370  1.00  0.00     0.118 C 
BRANCH   2   3
ATOM      3  N   UNL A   1      31.288  30.276  24.974  1.00  0.00    -0.352 N 
ATOM      4  C   UNL A   1      31.268  29.160  24.209  1.00  0.00     0.251 C 
ATOM      5  O   UNL A   1      31.033  29.355  23.011  1.00  0.00    -0.270 OA
ATOM      6  H   UNL A   1      31.096  31.080  24.439  1.00  0.00     0.163 HD
BRANCH   4   7
ATOM      7  C   UNL A   1      31.505  27.774  24.700  1.00  0.00     0.067 C 
ATOM      8  C   UNL A   1      31.247  23.096  26.877  1.00  0.00     0.048 C 
ATOM      9  C   UNL A   1      32.326  23.979  26.320  1.00  0.00    -0.007 A 
ATOM     10  C   UNL A   1      33.641  23.492  26.266  1.00  0.00     0.023 A 
ATOM     11  C   UNL A   1      32.068  25.268  25.836  1.00  0.00     0.130 A 
ATOM     12  C   UNL A   1      34.666  24.288  25.750  1.00  0.00     0.019 A 
ATOM     13  C   UNL A   1      33.098  26.069  25.325  1.00  0.00     0.019 A 
ATOM     14  O   UNL A   1      30.784  25.735  25.925  1.00  0.00    -0.475 OA
ATOM     15  Br  UNL A   1      36.431  23.614  25.693  1.00  0.00    -0.051 Br
ATOM     16  C   UNL A   1      34.402  25.575  25.284  1.00  0.00     0.027 A 
ATOM     17  C   UNL A   1      32.793  27.422  24.870  1.00  0.00     0.025 C 
ATOM     18  C   UNL A   1      30.419  26.776  24.979  1.00  0.00     0.314 C 
BRANCH  18  19
ATOM     19  C   UNL A   1      29.854  26.133  23.696  1.00  0.00     0.429 C 
ATOM     20  F   UNL A   1      28.554  26.483  23.528  1.00  0.00    -0.167 F 
ATOM     21  F   UNL A   1      30.508  26.539  22.582  1.00  0.00    -0.167 F 
ATOM     22  F   UNL A   1      29.912  24.783  23.714  1.00  0.00    -0.167 F 
ENDBRANCH  18  19
ENDBRANCH   4   7
ENDBRANCH   2   3
ENDBRANCH   1   2
BRANCH   1  23
ATOM     23  C   UNL A   1      32.718  32.719  27.084  1.00  0.00     0.118 C 
BRANCH  23  24
ATOM     24  N   UNL A   1      32.530  34.055  27.643  1.00  0.00    -0.352 N 
ATOM     25  C   UNL A   1      33.146  34.665  28.706  1.00  0.00     0.251 C 
ATOM     26  H   UNL A   1      31.852  34.604  27.185  1.00  0.00     0.163 HD
ATOM     27  O   UNL A   1      32.668  35.689  29.188  1.00  0.00    -0.269 OA
BRANCH  25  28
ATOM     28  C   UNL A   1      34.379  34.089  29.275  1.00  0.00     0.039 A 
ATOM     29  C   UNL A   1      34.292  33.256  30.394  1.00  0.00     0.014 A 
ATOM     30  C   UNL A   1      35.623  34.388  28.715  1.00  0.00     0.014 A 
ATOM     31  C   UNL A   1      35.450  32.664  30.901  1.00  0.00     0.010 A 
ATOM     32  C   UNL A   1      36.759  33.726  29.162  1.00  0.00     0.010 A 
ATOM     33  C   UNL A   1      36.685  32.865  30.265  1.00  0.00    -0.014 A 
BRANCH  33  34
ATOM     34  C   UNL A   1      37.917  32.192  30.742  1.00  0.00     0.031 A 
ATOM     35  C   UNL A   1      38.691  32.770  31.894  1.00  0.00     0.074 A 
ATOM     36  C   UNL A   1      38.367  31.099  30.098  1.00  0.00     0.049 A 
ATOM     37  N   UNL A   1      39.817  32.360  32.419  1.00  0.00    -0.248 NA
ATOM     38  C   UNL A   1      38.145  33.985  32.520  1.00  0.00     0.031 C 
ATOM     39  C   UNL A   1      37.730  30.480  28.933  1.00  0.00     0.029 A 
ATOM     40  N   UNL A   1      39.468  30.313  30.330  1.00  0.00    -0.354 N 
ATOM     41  C   UNL A   1      40.115  33.270  33.425  1.00  0.00     0.074 A 
ATOM     42  C   UNL A   1      39.091  34.288  33.396  1.00  0.00     0.031 C 
ATOM     43  C   UNL A   1      38.426  29.387  28.581  1.00  0.00     0.029 A 
ATOM     44  C   UNL A   1      39.576  29.247  29.469  1.00  0.00     0.049 A 
ATOM     45  H   UNL A   1      40.118  30.495  31.046  1.00  0.00     0.167 HD
ATOM     46  C   UNL A   1      41.135  33.240  34.314  1.00  0.00     0.037 A 
ATOM     47  C   UNL A   1      40.495  28.265  29.410  1.00  0.00     0.037 A 
ATOM     48  C   UNL A   1      42.130  32.204  34.360  1.00  0.00     0.049 A 
ATOM     49  C   UNL A   1      41.616  28.252  30.410  1.00  0.00     0.074 A 
ATOM     50  C   UNL A   1      43.173  32.052  35.257  1.00  0.00     0.029 A 
ATOM     51  N   UNL A   1      42.198  31.136  33.478  1.00  0.00    -0.354 N 
ATOM     52  N   UNL A   1      41.855  29.089  31.391  1.00  0.00    -0.248 NA
ATOM     53  C   UNL A   1      42.593  27.160  30.299  1.00  0.00     0.031 C 
ATOM     54  C   UNL A   1      43.893  30.910  34.896  1.00  0.00     0.029 A 
ATOM     55  C   UNL A   1      43.274  30.329  33.800  1.00  0.00     0.049 A 
ATOM     56  H   UNL A   1      41.574  30.978  32.733  1.00  0.00     0.167 HD
ATOM     57  C   UNL A   1      42.991  28.612  32.029  1.00  0.00     0.074 A 
ATOM     58  C   UNL A   1      43.391  27.409  31.330  1.00  0.00     0.031 C 
ATOM     59  C   UNL A   1      43.645  29.127  33.098  1.00  0.00     0.037 A 
BRANCH  46  60
ATOM     60  C   UNL A   1      41.207  34.343  35.326  1.00  0.00     0.057 A 
ATOM     61  C   UNL A   1      41.912  35.526  35.071  1.00  0.00     0.134 A 
ATOM     62  C   UNL A   1      40.527  34.246  36.547  1.00  0.00     0.134 A 
ATOM     63  F   UNL A   1      42.596  35.676  33.926  1.00  0.00    -0.206 F 
ATOM     64  C   UNL A   1      41.956  36.566  36.001  1.00  0.00     0.040 A 
ATOM     65  C   UNL A   1      40.543  35.290  37.474  1.00  0.00     0.040 A 
ATOM     66  F   UNL A   1      39.829  33.142  36.853  1.00  0.00    -0.206 F 
ATOM     67  C   UNL A   1      41.262  36.452  37.204  1.00  0.00     0.006 A 
ENDBRANCH  46  60
BRANCH  47  68
ATOM     68  C   UNL A   1      40.356  27.187  28.400  1.00  0.00     0.057 A 
ATOM     69  C   UNL A   1      39.542  26.076  28.648  1.00  0.00     0.134 A 
ATOM     70  C   UNL A   1      41.003  27.249  27.160  1.00  0.00     0.134 A 
ATOM     71  F   UNL A   1      38.906  25.955  29.823  1.00  0.00    -0.206 F 
ATOM     72  C   UNL A   1      39.383  25.060  27.705  1.00  0.00     0.040 A 
ATOM     73  C   UNL A   1      40.837  26.250  26.200  1.00  0.00     0.040 A 
ATOM     74  F   UNL A   1      41.788  28.293  26.859  1.00  0.00    -0.206 F 
ATOM     75  C   UNL A   1      40.027  25.148  26.473  1.00  0.00     0.006 A 
ENDBRANCH  47  68
BRANCH  59  76
ATOM     76  C   UNL A   1      44.847  28.386  33.600  1.00  0.00     0.057 A 
ATOM     77  C   UNL A   1      46.135  28.684  33.142  1.00  0.00     0.134 A 
ATOM     78  C   UNL A   1      44.722  27.437  34.623  1.00  0.00     0.134 A 
ATOM     79  F   UNL A   1      46.317  29.578  32.157  1.00  0.00    -0.206 F 
ATOM     80  C   UNL A   1      47.260  28.060  33.682  1.00  0.00     0.040 A 
ATOM     81  C   UNL A   1      45.840  26.823  35.185  1.00  0.00     0.040 A 
ATOM     82  F   UNL A   1      43.514  27.117  35.111  1.00  0.00    -0.206 F 
ATOM     83  C   UNL A   1      47.114  27.135  34.715  1.00  0.00     0.006 A 
ENDBRANCH  59  76
ENDBRANCH  33  34
ENDBRANCH  25  28
ENDBRANCH  23  24
ENDBRANCH   1  23
TORSDOF 11
ENDMDL
MODEL 3
REMARK VINA RESULT:     -12.1      2.526      7.370
REMARK SMILES Cc1cc(Br)cc2c1O[C@H](C(F)(F)F)C(C(=O)NCCCNC(=O)c1ccc(-c3c4nc(c(-c5c(F)cccc5F)c5ccc([nH]5)c(-c5c(F)cccc5F)c5nc(c(-c6c(F)cccc6F)c6ccc3[nH]6)C=C5)C=C4)cc1)=C2
REMARK SMILES IDX 20 1 19 2 18 3 16 4 17 5 15 7 1 8 2 9 3 10 8 11 4 12 7 13
REMARK SMILES IDX 9 14 5 15 6 16 79 17 10 18 11 19 12 20 13 21 14 22 21 23
REMARK SMILES IDX 22 24 23 25 24 27 25 28 26 29 78 30 27 31 77 32 28 33 29 34
REMARK SMILES IDX 30 35 71 36 31 37 76 38 70 39 72 40 32 41 75 42 69 43 68 44
REMARK SMILES IDX 33 46 59 47 42 48 58 49 43 50 46 51 57 52 73 53 44 54 45 55
REMARK SMILES IDX 56 57 74 58 47 59 34 60 35 61 40 62 36 63 37 64 39 65 41 66
REMARK SMILES IDX 38 67 60 68 61 69 66 70 62 71 63 72 65 73 67 74 64 75 48 76
REMARK SMILES IDX 49 77 54 78 50 79 51 80 53 81 55 82 52 83
REMARK H PARENT 18 6 22 26 72 45 46 56
REMARK Flexibility Score: inf
ROOT
ATOM      1  C   UNL A   1      34.079  28.294  25.664  1.00  0.00     0.042 C 
ENDROOT
BRANCH   1   2
ATOM      2  C   UNL A   1      32.965  27.687  24.825  1.00  0.00     0.118 C 
BRANCH   2   3
ATOM      3  N   UNL A   1      31.928  27.090  25.651  1.00  0.00    -0.352 N 
ATOM      4  C   UNL A   1      31.581  25.852  26.071  1.00  0.00     0.251 C 
ATOM      5  O   UNL A   1      30.572  25.808  26.783  1.00  0.00    -0.270 OA
ATOM      6  H   UNL A   1      31.310  27.773  26.000  1.00  0.00     0.163 HD
BRANCH   4   7
ATOM      7  C   UNL A   1      32.308  24.594  25.740  1.00  0.00     0.067 C 
ATOM      8  C   UNL A   1      33.746  19.755  24.647  1.00  0.00     0.048 C 
ATOM      9  C   UNL A   1      34.424  21.015  25.101  1.00  0.00    -0.007 A 
ATOM     10  C   UNL A   1      35.820  21.023  25.241  1.00  0.00     0.023 A 
ATOM     11  C   UNL A   1      33.717  22.193  25.375  1.00  0.00     0.130 A 
ATOM     12  C   UNL A   1      36.480  22.180  25.658  1.00  0.00     0.019 A 
ATOM     13  C   UNL A   1      34.378  23.352  25.799  1.00  0.00     0.019 A 
ATOM     14  O   UNL A   1      32.353  22.156  25.261  1.00  0.00    -0.475 OA
ATOM     15  Br  UNL A   1      38.361  22.165  25.846  1.00  0.00    -0.051 Br
ATOM     16  C   UNL A   1      35.767  23.343  25.942  1.00  0.00     0.027 A 
ATOM     17  C   UNL A   1      33.600  24.546  26.115  1.00  0.00     0.025 C 
ATOM     18  C   UNL A   1      31.702  23.431  25.011  1.00  0.00     0.314 C 
BRANCH  18  19
ATOM     19  C   UNL A   1      31.595  23.668  23.491  1.00  0.00     0.429 C 
ATOM     20  F   UNL A   1      30.326  24.012  23.156  1.00  0.00    -0.167 F 
ATOM     21  F   UNL A   1      32.390  24.679  23.067  1.00  0.00    -0.167 F 
ATOM     22  F   UNL A   1      31.926  22.579  22.763  1.00  0.00    -0.167 F 
ENDBRANCH  18  19
ENDBRANCH   4   7
ENDBRANCH   2   3
ENDBRANCH   1   2
BRANCH   1  23
ATOM     23  C   UNL A   1      33.690  28.431  27.131  1.00  0.00     0.118 C 
BRANCH  23  24
ATOM     24  N   UNL A   1      33.664  29.827  27.559  1.00  0.00    -0.352 N 
ATOM     25  C   UNL A   1      34.595  30.558  28.253  1.00  0.00     0.251 C 
ATOM     26  H   UNL A   1      32.850  30.321  27.310  1.00  0.00     0.163 HD
ATOM     27  O   UNL A   1      34.283  31.637  28.749  1.00  0.00    -0.269 OA
BRANCH  25  28
ATOM     28  C   UNL A   1      35.969  30.045  28.410  1.00  0.00     0.039 A 
ATOM     29  C   UNL A   1      36.866  30.149  27.343  1.00  0.00     0.014 A 
ATOM     30  C   UNL A   1      36.366  29.444  29.607  1.00  0.00     0.014 A 
ATOM     31  C   UNL A   1      38.182  29.716  27.507  1.00  0.00     0.010 A 
ATOM     32  C   UNL A   1      37.698  29.101  29.799  1.00  0.00     0.010 A 
ATOM     33  C   UNL A   1      38.617  29.225  28.748  1.00  0.00    -0.014 A 
BRANCH  33  34
ATOM     34  C   UNL A   1      40.027  28.825  28.969  1.00  0.00     0.031 A 
ATOM     35  C   UNL A   1      40.985  29.779  29.625  1.00  0.00     0.074 A 
ATOM     36  C   UNL A   1      40.454  27.628  28.522  1.00  0.00     0.049 A 
ATOM     37  N   UNL A   1      42.265  29.634  29.855  1.00  0.00    -0.248 NA
ATOM     38  C   UNL A   1      40.442  31.078  30.054  1.00  0.00     0.031 C 
ATOM     39  C   UNL A   1      39.629  26.643  27.821  1.00  0.00     0.029 A 
ATOM     40  N   UNL A   1      41.691  27.038  28.590  1.00  0.00    -0.354 N 
ATOM     41  C   UNL A   1      42.678  30.823  30.442  1.00  0.00     0.074 A 
ATOM     42  C   UNL A   1      41.532  31.702  30.476  1.00  0.00     0.031 C 
ATOM     43  C   UNL A   1      40.369  25.553  27.563  1.00  0.00     0.029 A 
ATOM     44  C   UNL A   1      41.729  25.776  28.047  1.00  0.00     0.049 A 
ATOM     45  H   UNL A   1      42.476  27.475  28.990  1.00  0.00     0.167 HD
ATOM     46  C   UNL A   1      43.896  31.140  30.939  1.00  0.00     0.037 A 
ATOM     47  C   UNL A   1      42.744  24.897  27.957  1.00  0.00     0.037 A 
ATOM     48  C   UNL A   1      45.022  30.247  30.936  1.00  0.00     0.049 A 
ATOM     49  C   UNL A   1      44.086  25.270  28.518  1.00  0.00     0.074 A 
ATOM     50  C   UNL A   1      46.285  30.453  31.463  1.00  0.00     0.029 A 
ATOM     51  N   UNL A   1      45.016  28.974  30.386  1.00  0.00    -0.354 N 
ATOM     52  N   UNL A   1      44.448  26.378  29.121  1.00  0.00    -0.248 NA
ATOM     53  C   UNL A   1      45.161  24.276  28.391  1.00  0.00     0.031 C 
ATOM     54  C   UNL A   1      47.054  29.316  31.203  1.00  0.00     0.029 A 
ATOM     55  C   UNL A   1      46.259  28.387  30.549  1.00  0.00     0.049 A 
ATOM     56  H   UNL A   1      44.245  28.552  29.944  1.00  0.00     0.167 HD
ATOM     57  C   UNL A   1      45.780  26.204  29.468  1.00  0.00     0.074 A 
ATOM     58  C   UNL A   1      46.163  24.883  29.016  1.00  0.00     0.031 C 
ATOM     59  C   UNL A   1      46.613  27.064  30.103  1.00  0.00     0.037 A 
BRANCH  46  60
ATOM     60  C   UNL A   1      44.064  32.497  31.554  1.00  0.00     0.057 A 
ATOM     61  C   UNL A   1      43.840  32.716  32.920  1.00  0.00     0.134 A 
ATOM     62  C   UNL A   1      44.501  33.586  30.789  1.00  0.00     0.134 A 
ATOM     63  F   UNL A   1      43.407  31.717  33.705  1.00  0.00    -0.206 F 
ATOM     64  C   UNL A   1      44.024  33.972  33.498  1.00  0.00     0.040 A 
ATOM     65  C   UNL A   1      44.713  34.840  31.362  1.00  0.00     0.040 A 
ATOM     66  F   UNL A   1      44.738  33.444  29.476  1.00  0.00    -0.206 F 
ATOM     67  C   UNL A   1      44.471  35.038  32.720  1.00  0.00     0.006 A 
ENDBRANCH  46  60
BRANCH  47  68
ATOM     68  C   UNL A   1      42.510  23.559  27.359  1.00  0.00     0.057 A 
ATOM     69  C   UNL A   1      42.122  22.477  28.158  1.00  0.00     0.134 A 
ATOM     70  C   UNL A   1      42.636  23.333  25.983  1.00  0.00     0.134 A 
ATOM     71  F   UNL A   1      41.997  22.630  29.485  1.00  0.00    -0.206 F 
ATOM     72  C   UNL A   1      41.879  21.215  27.613  1.00  0.00     0.040 A 
ATOM     73  C   UNL A   1      42.376  22.082  25.422  1.00  0.00     0.040 A 
ATOM     74  F   UNL A   1      42.994  24.332  25.163  1.00  0.00    -0.206 F 
ATOM     75  C   UNL A   1      41.999  21.016  26.240  1.00  0.00     0.006 A 
ENDBRANCH  47  68
BRANCH  59  76
ATOM     76  C   UNL A   1      48.013  26.604  30.373  1.00  0.00     0.057 A 
ATOM     77  C   UNL A   1      48.343  25.903  31.537  1.00  0.00     0.134 A 
ATOM     78  C   UNL A   1      49.016  26.778  29.410  1.00  0.00     0.134 A 
ATOM     79  F   UNL A   1      47.426  25.713  32.500  1.00  0.00    -0.206 F 
ATOM     80  C   UNL A   1      49.626  25.393  31.739  1.00  0.00     0.040 A 
ATOM     81  C   UNL A   1      50.296  26.253  29.590  1.00  0.00     0.040 A 
ATOM     82  F   UNL A   1      48.758  27.432  28.268  1.00  0.00    -0.206 F 
ATOM     83  C   UNL A   1      50.603  25.557  30.758  1.00  0.00     0.006 A 
ENDBRANCH  59  76
ENDBRANCH  33  34
ENDBRANCH  25  28
ENDBRANCH  23  24
ENDBRANCH   1  23
TORSDOF 11
ENDMDL
