MODEL 1
REMARK VINA RESULT:     -12.3      0.000      0.000
REMARK SMILES Nc1c(N2CCCC2)ncnc1N1CCC(C(=O)NCCCNC(=O)c2ccc(-c3c4nc(c(-c5c(F)cccc5F)c5ccc([nH]5)c(-c5c(F)cccc5F)c5nc(c(-c6c(F)cccc6F)c6ccc3[nH]6)C=C5)C=C4)cc2)CC1
REMARK SMILES IDX 21 1 20 2 19 3 17 4 18 5 16 7 13 8 14 9 81 10 15 11 80 12
REMARK SMILES IDX 12 13 2 14 3 15 9 16 11 17 10 18 1 19 4 22 5 23 8 24 6 25
REMARK SMILES IDX 7 26 22 27 23 28 24 29 25 31 26 32 27 33 79 34 28 35 78 36
REMARK SMILES IDX 29 37 30 38 31 39 72 40 32 41 77 42 71 43 73 44 33 45 76 46
REMARK SMILES IDX 70 47 69 48 34 50 60 51 43 52 59 53 44 54 47 55 58 56 74 57
REMARK SMILES IDX 45 58 46 59 57 61 75 62 48 63 35 64 36 65 41 66 37 67 38 68
REMARK SMILES IDX 40 69 42 70 39 71 61 72 62 73 67 74 63 75 64 76 66 77 68 78
REMARK SMILES IDX 65 79 49 80 50 81 55 82 51 83 52 84 54 85 56 86 53 87
REMARK H PARENT 19 6 1 20 1 21 23 30 73 49 47 60
REMARK Flexibility Score: inf
ROOT
ATOM      1  C   UNL A   1      37.048  23.081  25.698  1.00  0.00     0.042 C 
ENDROOT
BRANCH   1   2
ATOM      2  C   UNL A   1      36.651  23.139  24.229  1.00  0.00     0.117 C 
BRANCH   2   3
ATOM      3  N   UNL A   1      35.376  22.478  23.975  1.00  0.00    -0.356 N 
ATOM      4  C   UNL A   1      34.188  22.973  23.530  1.00  0.00     0.223 C 
ATOM      5  O   UNL A   1      33.242  22.188  23.418  1.00  0.00    -0.275 OA
ATOM      6  H   UNL A   1      35.374  21.510  24.156  1.00  0.00     0.163 HD
BRANCH   4   7
ATOM      7  C   UNL A   1      34.023  24.439  23.164  1.00  0.00     0.082 C 
ATOM      8  N   UNL A   1      32.108  26.497  22.997  1.00  0.00    -0.355 N 
ATOM      9  C   UNL A   1      32.586  25.995  21.730  1.00  0.00     0.119 C 
ATOM     10  C   UNL A   1      33.052  26.616  24.090  1.00  0.00     0.119 C 
ATOM     11  C   UNL A   1      33.130  24.591  21.921  1.00  0.00     0.035 C 
ATOM     12  C   UNL A   1      33.631  25.249  24.411  1.00  0.00     0.035 C 
BRANCH   8  13
ATOM     13  C   UNL A   1      30.836  27.031  23.071  1.00  0.00     0.157 A 
ATOM     14  C   UNL A   1      30.574  28.349  22.673  1.00  0.00     0.118 A 
ATOM     15  C   UNL A   1      29.267  28.824  22.879  1.00  0.00     0.157 A 
ATOM     16  N   UNL A   1      28.309  28.065  23.437  1.00  0.00    -0.217 NA
ATOM     17  N   UNL A   1      29.865  26.235  23.556  1.00  0.00    -0.217 NA
ATOM     18  C   UNL A   1      28.660  26.804  23.730  1.00  0.00     0.226 A 
BRANCH  14  19
ATOM     19  N   UNL A   1      31.584  29.204  22.192  1.00  0.00    -0.393 N 
ATOM     20  H   UNL A   1      32.176  28.905  21.464  1.00  0.00     0.156 HD
ATOM     21  H   UNL A   1      31.698  30.100  22.583  1.00  0.00     0.156 HD
ENDBRANCH  14  19
BRANCH  15  22
ATOM     22  N   UNL A   1      28.959  30.109  22.488  1.00  0.00    -0.355 N 
ATOM     23  C   UNL A   1      28.160  30.369  21.308  1.00  0.00     0.118 C 
ATOM     24  C   UNL A   1      28.869  31.205  23.432  1.00  0.00     0.118 C 
ATOM     25  C   UNL A   1      28.422  31.856  21.123  1.00  0.00     0.023 C 
ATOM     26  C   UNL A   1      28.420  32.389  22.557  1.00  0.00     0.023 C 
ENDBRANCH  15  22
ENDBRANCH   8  13
ENDBRANCH   4   7
ENDBRANCH   2   3
ENDBRANCH   1   2
BRANCH   1  27
ATOM     27  C   UNL A   1      37.991  24.196  26.123  1.00  0.00     0.118 C 
BRANCH  27  28
ATOM     28  N   UNL A   1      39.392  23.813  26.021  1.00  0.00    -0.352 N 
ATOM     29  C   UNL A   1      40.509  24.414  26.540  1.00  0.00     0.251 C 
ATOM     30  H   UNL A   1      39.563  22.996  25.498  1.00  0.00     0.163 HD
ATOM     31  O   UNL A   1      41.627  24.048  26.172  1.00  0.00    -0.269 OA
BRANCH  29  32
ATOM     32  C   UNL A   1      40.383  25.506  27.525  1.00  0.00     0.039 A 
ATOM     33  C   UNL A   1      39.441  25.387  28.551  1.00  0.00     0.014 A 
ATOM     34  C   UNL A   1      41.171  26.657  27.430  1.00  0.00     0.014 A 
ATOM     35  C   UNL A   1      39.331  26.393  29.512  1.00  0.00     0.010 A 
ATOM     36  C   UNL A   1      41.123  27.616  28.435  1.00  0.00     0.010 A 
ATOM     37  C   UNL A   1      40.194  27.502  29.479  1.00  0.00    -0.014 A 
BRANCH  37  38
ATOM     38  C   UNL A   1      40.121  28.567  30.509  1.00  0.00     0.031 A 
ATOM     39  C   UNL A   1      41.029  28.512  31.707  1.00  0.00     0.074 A 
ATOM     40  C   UNL A   1      39.212  29.554  30.391  1.00  0.00     0.049 A 
ATOM     41  N   UNL A   1      41.069  29.302  32.750  1.00  0.00    -0.248 NA
ATOM     42  C   UNL A   1      42.009  27.414  31.750  1.00  0.00     0.031 C 
ATOM     43  C   UNL A   1      38.259  29.699  29.289  1.00  0.00     0.029 A 
ATOM     44  N   UNL A   1      38.938  30.621  31.210  1.00  0.00    -0.354 N 
ATOM     45  C   UNL A   1      42.067  28.791  33.571  1.00  0.00     0.074 A 
ATOM     46  C   UNL A   1      42.569  27.594  32.937  1.00  0.00     0.031 C 
ATOM     47  C   UNL A   1      37.526  30.807  29.486  1.00  0.00     0.029 A 
ATOM     48  C   UNL A   1      37.926  31.426  30.746  1.00  0.00     0.049 A 
ATOM     49  H   UNL A   1      39.422  30.792  32.050  1.00  0.00     0.167 HD
ATOM     50  C   UNL A   1      42.541  29.294  34.735  1.00  0.00     0.037 A 
ATOM     51  C   UNL A   1      37.379  32.535  31.281  1.00  0.00     0.037 A 
ATOM     52  C   UNL A   1      42.058  30.501  35.350  1.00  0.00     0.049 A 
ATOM     53  C   UNL A   1      37.906  33.053  32.591  1.00  0.00     0.074 A 
ATOM     54  C   UNL A   1      42.500  31.110  36.511  1.00  0.00     0.029 A 
ATOM     55  N   UNL A   1      41.029  31.284  34.851  1.00  0.00    -0.354 N 
ATOM     56  N   UNL A   1      38.877  32.583  33.336  1.00  0.00    -0.248 NA
ATOM     57  C   UNL A   1      37.262  34.258  33.135  1.00  0.00     0.031 C 
ATOM     58  C   UNL A   1      41.710  32.241  36.738  1.00  0.00     0.029 A 
ATOM     59  C   UNL A   1      40.810  32.363  35.691  1.00  0.00     0.049 A 
ATOM     60  H   UNL A   1      40.528  31.101  34.024  1.00  0.00     0.167 HD
ATOM     61  C   UNL A   1      38.978  33.446  34.419  1.00  0.00     0.074 A 
ATOM     62  C   UNL A   1      37.982  34.478  34.226  1.00  0.00     0.031 C 
ATOM     63  C   UNL A   1      39.821  33.388  35.479  1.00  0.00     0.037 A 
BRANCH  50  64
ATOM     64  C   UNL A   1      43.658  28.556  35.412  1.00  0.00     0.057 A 
ATOM     65  C   UNL A   1      43.406  27.541  36.344  1.00  0.00     0.134 A 
ATOM     66  C   UNL A   1      44.993  28.807  35.074  1.00  0.00     0.134 A 
ATOM     67  F   UNL A   1      42.149  27.260  36.721  1.00  0.00    -0.206 F 
ATOM     68  C   UNL A   1      44.443  26.809  36.925  1.00  0.00     0.040 A 
ATOM     69  C   UNL A   1      46.037  28.063  35.628  1.00  0.00     0.040 A 
ATOM     70  F   UNL A   1      45.304  29.762  34.184  1.00  0.00    -0.206 F 
ATOM     71  C   UNL A   1      45.763  27.061  36.557  1.00  0.00     0.006 A 
ENDBRANCH  50  64
BRANCH  51  72
ATOM     72  C   UNL A   1      36.287  33.245  30.567  1.00  0.00     0.057 A 
ATOM     73  C   UNL A   1      36.563  34.062  29.463  1.00  0.00     0.134 A 
ATOM     74  C   UNL A   1      34.951  33.132  30.966  1.00  0.00     0.134 A 
ATOM     75  F   UNL A   1      37.826  34.226  29.043  1.00  0.00    -0.206 F 
ATOM     76  C   UNL A   1      35.551  34.753  28.794  1.00  0.00     0.040 A 
ATOM     77  C   UNL A   1      33.927  33.797  30.291  1.00  0.00     0.040 A 
ATOM     78  F   UNL A   1      34.620  32.361  32.013  1.00  0.00    -0.206 F 
ATOM     79  C   UNL A   1      34.227  34.616  29.205  1.00  0.00     0.006 A 
ENDBRANCH  51  72
BRANCH  63  80
ATOM     80  C   UNL A   1      39.725  34.481  36.501  1.00  0.00     0.057 A 
ATOM     81  C   UNL A   1      38.993  34.323  37.684  1.00  0.00     0.134 A 
ATOM     82  C   UNL A   1      40.431  35.680  36.331  1.00  0.00     0.134 A 
ATOM     83  F   UNL A   1      38.288  33.202  37.902  1.00  0.00    -0.206 F 
ATOM     84  C   UNL A   1      38.952  35.324  38.655  1.00  0.00     0.040 A 
ATOM     85  C   UNL A   1      40.421  36.677  37.308  1.00  0.00     0.040 A 
ATOM     86  F   UNL A   1      41.162  35.890  35.227  1.00  0.00    -0.206 F 
ATOM     87  C   UNL A   1      39.676  36.501  38.473  1.00  0.00     0.006 A 
ENDBRANCH  63  80
ENDBRANCH  37  38
ENDBRANCH  29  32
ENDBRANCH  27  28
ENDBRANCH   1  27
TORSDOF 13
ENDMDL
MODEL 2
REMARK VINA RESULT:     -12.1      5.772     10.637
REMARK SMILES Nc1c(N2CCCC2)ncnc1N1CCC(C(=O)NCCCNC(=O)c2ccc(-c3c4nc(c(-c5c(F)cccc5F)c5ccc([nH]5)c(-c5c(F)cccc5F)c5nc(c(-c6c(F)cccc6F)c6ccc3[nH]6)C=C5)C=C4)cc2)CC1
REMARK SMILES IDX 21 1 20 2 19 3 17 4 18 5 16 7 13 8 14 9 81 10 15 11 80 12
REMARK SMILES IDX 12 13 2 14 3 15 9 16 11 17 10 18 1 19 4 22 5 23 8 24 6 25
REMARK SMILES IDX 7 26 22 27 23 28 24 29 25 31 26 32 27 33 79 34 28 35 78 36
REMARK SMILES IDX 29 37 30 38 31 39 72 40 32 41 77 42 71 43 73 44 33 45 76 46
REMARK SMILES IDX 70 47 69 48 34 50 60 51 43 52 59 53 44 54 47 55 58 56 74 57
REMARK SMILES IDX 45 58 46 59 57 61 75 62 48 63 35 64 36 65 41 66 37 67 38 68
REMARK SMILES IDX 40 69 42 70 39 71 61 72 62 73 67 74 63 75 64 76 66 77 68 78
REMARK SMILES IDX 65 79 49 80 50 81 55 82 51 83 52 84 54 85 56 86 53 87
REMARK H PARENT 19 6 1 20 1 21 23 30 73 49 47 60
REMARK Flexibility Score: inf
ROOT
ATOM      1  C   UNL A   1      33.891  29.570  26.964  1.00  0.00     0.042 C 
ENDROOT
BRANCH   1   2
ATOM      2  C   UNL A   1      32.920  28.446  27.301  1.00  0.00     0.117 C 
BRANCH   2   3
ATOM      3  N   UNL A   1      32.017  28.145  26.196  1.00  0.00    -0.356 N 
ATOM      4  C   UNL A   1      31.605  26.955  25.680  1.00  0.00     0.223 C 
ATOM      5  O   UNL A   1      30.839  26.980  24.712  1.00  0.00    -0.275 OA
ATOM      6  H   UNL A   1      31.643  28.938  25.745  1.00  0.00     0.163 HD
BRANCH   4   7
ATOM      7  C   UNL A   1      32.052  25.631  26.277  1.00  0.00     0.082 C 
ATOM      8  N   UNL A   1      32.458  22.918  25.640  1.00  0.00    -0.355 N 
ATOM      9  C   UNL A   1      31.327  23.188  26.498  1.00  0.00     0.119 C 
ATOM     10  C   UNL A   1      33.665  23.698  25.828  1.00  0.00     0.119 C 
ATOM     11  C   UNL A   1      30.887  24.628  26.307  1.00  0.00     0.035 C 
ATOM     12  C   UNL A   1      33.357  25.169  25.607  1.00  0.00     0.035 C 
BRANCH   8  13
ATOM     13  C   UNL A   1      32.427  21.807  24.819  1.00  0.00     0.157 A 
ATOM     14  C   UNL A   1      32.876  20.557  25.265  1.00  0.00     0.118 A 
ATOM     15  C   UNL A   1      32.891  19.516  24.321  1.00  0.00     0.157 A 
ATOM     16  N   UNL A   1      32.506  19.700  23.047  1.00  0.00    -0.217 NA
ATOM     17  N   UNL A   1      31.963  21.983  23.568  1.00  0.00    -0.217 NA
ATOM     18  C   UNL A   1      32.047  20.924  22.747  1.00  0.00     0.226 A 
BRANCH  14  19
ATOM     19  N   UNL A   1      33.392  20.362  26.561  1.00  0.00    -0.393 N 
ATOM     20  H   UNL A   1      33.577  21.137  27.138  1.00  0.00     0.156 HD
ATOM     21  H   UNL A   1      33.568  19.451  26.889  1.00  0.00     0.156 HD
ENDBRANCH  14  19
BRANCH  15  22
ATOM     22  N   UNL A   1      33.309  18.264  24.719  1.00  0.00    -0.355 N 
ATOM     23  C   UNL A   1      32.360  17.231  25.083  1.00  0.00     0.118 C 
ATOM     24  C   UNL A   1      34.564  17.690  24.278  1.00  0.00     0.118 C 
ATOM     25  C   UNL A   1      33.288  16.238  25.768  1.00  0.00     0.023 C 
ATOM     26  C   UNL A   1      34.545  16.281  24.897  1.00  0.00     0.023 C 
ENDBRANCH  15  22
ENDBRANCH   8  13
ENDBRANCH   4   7
ENDBRANCH   2   3
ENDBRANCH   1   2
BRANCH   1  27
ATOM     27  C   UNL A   1      35.224  29.466  27.689  1.00  0.00     0.118 C 
BRANCH  27  28
ATOM     28  N   UNL A   1      35.209  30.135  28.983  1.00  0.00    -0.352 N 
ATOM     29  C   UNL A   1      36.211  30.289  29.904  1.00  0.00     0.251 C 
ATOM     30  H   UNL A   1      34.346  30.537  29.234  1.00  0.00     0.163 HD
ATOM     31  O   UNL A   1      35.945  30.711  31.031  1.00  0.00    -0.269 OA
BRANCH  29  32
ATOM     32  C   UNL A   1      37.604  29.938  29.564  1.00  0.00     0.039 A 
ATOM     33  C   UNL A   1      38.443  29.448  30.568  1.00  0.00     0.014 A 
ATOM     34  C   UNL A   1      38.096  30.113  28.267  1.00  0.00     0.014 A 
ATOM     35  C   UNL A   1      39.753  29.079  30.260  1.00  0.00     0.010 A 
ATOM     36  C   UNL A   1      39.371  29.664  27.941  1.00  0.00     0.010 A 
ATOM     37  C   UNL A   1      40.217  29.155  28.936  1.00  0.00    -0.014 A 
BRANCH  37  38
ATOM     38  C   UNL A   1      41.594  28.736  28.575  1.00  0.00     0.031 A 
ATOM     39  C   UNL A   1      41.869  27.301  28.214  1.00  0.00     0.074 A 
ATOM     40  C   UNL A   1      42.600  29.630  28.616  1.00  0.00     0.049 A 
ATOM     41  N   UNL A   1      43.010  26.722  27.944  1.00  0.00    -0.248 NA
ATOM     42  C   UNL A   1      40.711  26.392  28.172  1.00  0.00     0.031 C 
ATOM     43  C   UNL A   1      42.464  31.042  28.977  1.00  0.00     0.029 A 
ATOM     44  N   UNL A   1      43.940  29.482  28.355  1.00  0.00    -0.354 N 
ATOM     45  C   UNL A   1      42.708  25.387  27.708  1.00  0.00     0.074 A 
ATOM     46  C   UNL A   1      41.288  25.227  27.924  1.00  0.00     0.031 C 
ATOM     47  C   UNL A   1      43.664  31.636  28.887  1.00  0.00     0.029 A 
ATOM     48  C   UNL A   1      44.662  30.642  28.504  1.00  0.00     0.049 A 
ATOM     49  H   UNL A   1      44.344  28.626  28.086  1.00  0.00     0.167 HD
ATOM     50  C   UNL A   1      43.537  24.390  27.319  1.00  0.00     0.037 A 
ATOM     51  C   UNL A   1      45.980  30.873  28.353  1.00  0.00     0.037 A 
ATOM     52  C   UNL A   1      44.945  24.557  27.079  1.00  0.00     0.049 A 
ATOM     53  C   UNL A   1      46.882  29.740  27.949  1.00  0.00     0.074 A 
ATOM     54  C   UNL A   1      45.862  23.615  26.647  1.00  0.00     0.029 A 
ATOM     55  N   UNL A   1      45.639  25.747  27.245  1.00  0.00    -0.354 N 
ATOM     56  N   UNL A   1      46.576  28.492  27.690  1.00  0.00    -0.248 NA
ATOM     57  C   UNL A   1      48.314  30.047  27.814  1.00  0.00     0.031 C 
ATOM     58  C   UNL A   1      47.119  24.224  26.591  1.00  0.00     0.029 A 
ATOM     59  C   UNL A   1      46.976  25.557  26.940  1.00  0.00     0.049 A 
ATOM     60  H   UNL A   1      45.240  26.598  27.537  1.00  0.00     0.167 HD
ATOM     61  C   UNL A   1      47.768  27.873  27.338  1.00  0.00     0.074 A 
ATOM     62  C   UNL A   1      48.800  28.886  27.398  1.00  0.00     0.031 C 
ATOM     63  C   UNL A   1      47.988  26.580  26.995  1.00  0.00     0.037 A 
BRANCH  50  64
ATOM     64  C   UNL A   1      42.942  23.030  27.101  1.00  0.00     0.057 A 
ATOM     65  C   UNL A   1      42.614  22.193  28.176  1.00  0.00     0.134 A 
ATOM     66  C   UNL A   1      42.623  22.583  25.813  1.00  0.00     0.134 A 
ATOM     67  F   UNL A   1      42.906  22.556  29.434  1.00  0.00    -0.206 F 
ATOM     68  C   UNL A   1      41.999  20.956  27.977  1.00  0.00     0.040 A 
ATOM     69  C   UNL A   1      41.984  21.360  25.603  1.00  0.00     0.040 A 
ATOM     70  F   UNL A   1      42.906  23.337  24.740  1.00  0.00    -0.206 F 
ATOM     71  C   UNL A   1      41.672  20.541  26.688  1.00  0.00     0.006 A 
ENDBRANCH  50  64
BRANCH  51  72
ATOM     72  C   UNL A   1      46.524  32.240  28.560  1.00  0.00     0.057 A 
ATOM     73  C   UNL A   1      46.642  33.137  27.491  1.00  0.00     0.134 A 
ATOM     74  C   UNL A   1      46.941  32.684  29.820  1.00  0.00     0.134 A 
ATOM     75  F   UNL A   1      46.277  32.765  26.255  1.00  0.00    -0.206 F 
ATOM     76  C   UNL A   1      47.170  34.417  27.664  1.00  0.00     0.040 A 
ATOM     77  C   UNL A   1      47.447  33.970  30.013  1.00  0.00     0.040 A 
ATOM     78  F   UNL A   1      46.849  31.875  30.887  1.00  0.00    -0.206 F 
ATOM     79  C   UNL A   1      47.569  34.838  28.930  1.00  0.00     0.006 A 
ENDBRANCH  51  72
BRANCH  63  80
ATOM     80  C   UNL A   1      49.390  26.188  26.633  1.00  0.00     0.057 A 
ATOM     81  C   UNL A   1      49.869  26.286  25.321  1.00  0.00     0.134 A 
ATOM     82  C   UNL A   1      50.291  25.771  27.622  1.00  0.00     0.134 A 
ATOM     83  F   UNL A   1      49.052  26.669  24.327  1.00  0.00    -0.206 F 
ATOM     84  C   UNL A   1      51.189  25.969  25.002  1.00  0.00     0.040 A 
ATOM     85  C   UNL A   1      51.622  25.479  27.320  1.00  0.00     0.040 A 
ATOM     86  F   UNL A   1      49.900  25.667  28.901  1.00  0.00    -0.206 F 
ATOM     87  C   UNL A   1      52.073  25.574  26.005  1.00  0.00     0.006 A 
ENDBRANCH  63  80
ENDBRANCH  37  38
ENDBRANCH  29  32
ENDBRANCH  27  28
ENDBRANCH   1  27
TORSDOF 13
ENDMDL
MODEL 3
REMARK VINA RESULT:     -12.0      5.009      7.060
REMARK SMILES Nc1c(N2CCCC2)ncnc1N1CCC(C(=O)NCCCNC(=O)c2ccc(-c3c4nc(c(-c5c(F)cccc5F)c5ccc([nH]5)c(-c5c(F)cccc5F)c5nc(c(-c6c(F)cccc6F)c6ccc3[nH]6)C=C5)C=C4)cc2)CC1
REMARK SMILES IDX 21 1 20 2 19 3 17 4 18 5 16 7 13 8 14 9 81 10 15 11 80 12
REMARK SMILES IDX 12 13 2 14 3 15 9 16 11 17 10 18 1 19 4 22 5 23 8 24 6 25
REMARK SMILES IDX 7 26 22 27 23 28 24 29 25 31 26 32 27 33 79 34 28 35 78 36
REMARK SMILES IDX 29 37 30 38 31 39 72 40 32 41 77 42 71 43 73 44 33 45 76 46
REMARK SMILES IDX 70 47 69 48 34 50 60 51 43 52 59 53 44 54 47 55 58 56 74 57
REMARK SMILES IDX 45 58 46 59 57 61 75 62 48 63 35 64 36 65 41 66 37 67 38 68
REMARK SMILES IDX 40 69 42 70 39 71 61 72 62 73 67 74 63 75 64 76 66 77 68 78
REMARK SMILES IDX 65 79 49 80 50 81 55 82 51 83 52 84 54 85 56 86 53 87
REMARK H PARENT 19 6 1 20 1 21 23 30 73 49 47 60
REMARK Flexibility Score: inf
ROOT
ATOM      1  C   UNL A   1      38.154  19.087  25.002  1.00  0.00     0.042 C 
ENDROOT
BRANCH   1   2
ATOM      2  C   UNL A   1      36.897  19.945  24.972  1.00  0.00     0.117 C 
BRANCH   2   3
ATOM      3  N   UNL A   1      37.193  21.365  25.123  1.00  0.00    -0.356 N 
ATOM      4  C   UNL A   1      36.452  22.467  24.827  1.00  0.00     0.223 C 
ATOM      5  O   UNL A   1      36.955  23.575  25.038  1.00  0.00    -0.275 OA
ATOM      6  H   UNL A   1      38.081  21.559  25.504  1.00  0.00     0.163 HD
BRANCH   4   7
ATOM      7  C   UNL A   1      35.043  22.353  24.270  1.00  0.00     0.082 C 
ATOM      8  N   UNL A   1      32.644  23.794  23.950  1.00  0.00    -0.355 N 
ATOM      9  C   UNL A   1      32.597  22.723  24.919  1.00  0.00     0.119 C 
ATOM     10  C   UNL A   1      33.411  23.590  22.737  1.00  0.00     0.119 C 
ATOM     11  C   UNL A   1      34.004  22.422  25.401  1.00  0.00     0.035 C 
ATOM     12  C   UNL A   1      34.864  23.329  23.094  1.00  0.00     0.035 C 
BRANCH   8  13
ATOM     13  C   UNL A   1      31.807  24.881  24.109  1.00  0.00     0.157 A 
ATOM     14  C   UNL A   1      32.235  26.042  24.767  1.00  0.00     0.118 A 
ATOM     15  C   UNL A   1      31.275  27.051  24.958  1.00  0.00     0.157 A 
ATOM     16  N   UNL A   1      30.004  26.918  24.544  1.00  0.00    -0.217 NA
ATOM     17  N   UNL A   1      30.559  24.770  23.617  1.00  0.00    -0.217 NA
ATOM     18  C   UNL A   1      29.723  25.787  23.880  1.00  0.00     0.226 A 
BRANCH  14  19
ATOM     19  N   UNL A   1      33.527  26.163  25.313  1.00  0.00    -0.393 N 
ATOM     20  H   UNL A   1      33.985  27.035  25.305  1.00  0.00     0.156 HD
ATOM     21  H   UNL A   1      33.973  25.377  25.703  1.00  0.00     0.156 HD
ENDBRANCH  14  19
BRANCH  15  22
ATOM     22  N   UNL A   1      31.655  28.217  25.587  1.00  0.00    -0.355 N 
ATOM     23  C   UNL A   1      31.416  29.513  24.984  1.00  0.00     0.118 C 
ATOM     24  C   UNL A   1      31.757  28.322  27.029  1.00  0.00     0.118 C 
ATOM     25  C   UNL A   1      32.312  30.386  25.850  1.00  0.00     0.023 C 
ATOM     26  C   UNL A   1      32.114  29.803  27.251  1.00  0.00     0.023 C 
ENDBRANCH  15  22
ENDBRANCH   8  13
ENDBRANCH   4   7
ENDBRANCH   2   3
ENDBRANCH   1   2
BRANCH   1  27
ATOM     27  C   UNL A   1      39.304  19.709  25.780  1.00  0.00     0.118 C 
BRANCH  27  28
ATOM     28  N   UNL A   1      40.460  18.828  25.868  1.00  0.00    -0.352 N 
ATOM     29  C   UNL A   1      41.785  19.131  26.038  1.00  0.00     0.251 C 
ATOM     30  H   UNL A   1      40.258  17.867  25.795  1.00  0.00     0.163 HD
ATOM     31  O   UNL A   1      42.637  18.254  25.884  1.00  0.00    -0.269 OA
BRANCH  29  32
ATOM     32  C   UNL A   1      42.203  20.504  26.387  1.00  0.00     0.039 A 
ATOM     33  C   UNL A   1      42.566  21.382  25.363  1.00  0.00     0.014 A 
ATOM     34  C   UNL A   1      42.263  20.922  27.720  1.00  0.00     0.014 A 
ATOM     35  C   UNL A   1      42.931  22.694  25.670  1.00  0.00     0.010 A 
ATOM     36  C   UNL A   1      42.541  22.251  28.018  1.00  0.00     0.010 A 
ATOM     37  C   UNL A   1      42.891  23.148  26.999  1.00  0.00    -0.014 A 
BRANCH  37  38
ATOM     38  C   UNL A   1      43.239  24.546  27.348  1.00  0.00     0.031 A 
ATOM     39  C   UNL A   1      44.678  24.987  27.325  1.00  0.00     0.074 A 
ATOM     40  C   UNL A   1      42.273  25.404  27.729  1.00  0.00     0.049 A 
ATOM     41  N   UNL A   1      45.194  26.139  27.668  1.00  0.00    -0.248 NA
ATOM     42  C   UNL A   1      45.670  23.996  26.877  1.00  0.00     0.031 C 
ATOM     43  C   UNL A   1      40.847  25.087  27.818  1.00  0.00     0.029 A 
ATOM     44  N   UNL A   1      42.346  26.718  28.117  1.00  0.00    -0.354 N 
ATOM     45  C   UNL A   1      46.564  26.007  27.484  1.00  0.00     0.074 A 
ATOM     46  C   UNL A   1      46.808  24.648  27.056  1.00  0.00     0.031 C 
ATOM     47  C   UNL A   1      40.176  26.183  28.206  1.00  0.00     0.029 A 
ATOM     48  C   UNL A   1      41.126  27.268  28.434  1.00  0.00     0.049 A 
ATOM     49  H   UNL A   1      43.191  27.220  28.165  1.00  0.00     0.167 HD
ATOM     50  C   UNL A   1      47.530  26.945  27.632  1.00  0.00     0.037 A 
ATOM     51  C   UNL A   1      40.813  28.505  28.865  1.00  0.00     0.037 A 
ATOM     52  C   UNL A   1      47.282  28.304  28.032  1.00  0.00     0.049 A 
ATOM     53  C   UNL A   1      41.910  29.517  29.049  1.00  0.00     0.074 A 
ATOM     54  C   UNL A   1      48.191  29.337  28.175  1.00  0.00     0.029 A 
ATOM     55  N   UNL A   1      46.034  28.819  28.348  1.00  0.00    -0.354 N 
ATOM     56  N   UNL A   1      43.196  29.390  28.833  1.00  0.00    -0.248 NA
ATOM     57  C   UNL A   1      41.511  30.846  29.536  1.00  0.00     0.031 C 
ATOM     58  C   UNL A   1      47.499  30.468  28.617  1.00  0.00     0.029 A 
ATOM     59  C   UNL A   1      46.152  30.152  28.702  1.00  0.00     0.049 A 
ATOM     60  H   UNL A   1      45.190  28.312  28.324  1.00  0.00     0.167 HD
ATOM     61  C   UNL A   1      43.756  30.625  29.131  1.00  0.00     0.074 A 
ATOM     62  C   UNL A   1      42.668  31.494  29.526  1.00  0.00     0.031 C 
ATOM     63  C   UNL A   1      45.056  31.006  29.082  1.00  0.00     0.037 A 
BRANCH  50  64
ATOM     64  C   UNL A   1      48.945  26.544  27.335  1.00  0.00     0.057 A 
ATOM     65  C   UNL A   1      49.779  26.014  28.328  1.00  0.00     0.134 A 
ATOM     66  C   UNL A   1      49.454  26.617  26.033  1.00  0.00     0.134 A 
ATOM     67  F   UNL A   1      49.357  25.930  29.599  1.00  0.00    -0.206 F 
ATOM     68  C   UNL A   1      51.074  25.579  28.039  1.00  0.00     0.040 A 
ATOM     69  C   UNL A   1      50.738  26.161  25.726  1.00  0.00     0.040 A 
ATOM     70  F   UNL A   1      48.706  27.110  25.035  1.00  0.00    -0.206 F 
ATOM     71  C   UNL A   1      51.552  25.641  26.731  1.00  0.00     0.006 A 
ENDBRANCH  50  64
BRANCH  51  72
ATOM     72  C   UNL A   1      39.396  28.865  29.129  1.00  0.00     0.057 A 
ATOM     73  C   UNL A   1      38.819  28.641  30.385  1.00  0.00     0.134 A 
ATOM     74  C   UNL A   1      38.585  29.434  28.140  1.00  0.00     0.134 A 
ATOM     75  F   UNL A   1      39.539  28.081  31.368  1.00  0.00    -0.206 F 
ATOM     76  C   UNL A   1      37.483  28.955  30.643  1.00  0.00     0.040 A 
ATOM     77  C   UNL A   1      37.256  29.776  28.392  1.00  0.00     0.040 A 
ATOM     78  F   UNL A   1      39.079  29.679  26.917  1.00  0.00    -0.206 F 
ATOM     79  C   UNL A   1      36.699  29.529  29.645  1.00  0.00     0.006 A 
ENDBRANCH  51  72
BRANCH  63  80
ATOM     80  C   UNL A   1      45.377  32.427  29.439  1.00  0.00     0.057 A 
ATOM     81  C   UNL A   1      45.331  33.455  28.489  1.00  0.00     0.134 A 
ATOM     82  C   UNL A   1      45.669  32.781  30.763  1.00  0.00     0.134 A 
ATOM     83  F   UNL A   1      45.066  33.179  27.202  1.00  0.00    -0.206 F 
ATOM     84  C   UNL A   1      45.578  34.782  28.839  1.00  0.00     0.040 A 
ATOM     85  C   UNL A   1      45.890  34.109  31.131  1.00  0.00     0.040 A 
ATOM     86  F   UNL A   1      45.716  31.846  31.724  1.00  0.00    -0.206 F 
ATOM     87  C   UNL A   1      45.848  35.113  30.167  1.00  0.00     0.006 A 
ENDBRANCH  63  80
ENDBRANCH  37  38
ENDBRANCH  29  32
ENDBRANCH  27  28
ENDBRANCH   1  27
TORSDOF 13
ENDMDL
