MODEL 1
REMARK VINA RESULT:     -11.6      0.000      0.000
REMARK SMILES CC[C@H](NC(=O)NC[C@@]1(C)CCCO1)C(=O)NCCCNC(=O)c1ccc(-c2c3nc(c(-c4c(F)cccc4F)c4ccc([nH]4)c(-c4c(F)cccc4F)c4nc(c(-c5c(F)cccc5F)c5ccc2[nH]5)C=C4)C=C3)cc1
REMARK SMILES IDX 18 1 17 2 15 3 16 4 3 6 2 7 1 8 4 9 5 10 6 12 7 13 8 15 9 16
REMARK SMILES IDX 10 17 11 18 14 19 12 20 13 21 19 22 20 23 21 24 22 25 23 27
REMARK SMILES IDX 24 28 25 29 77 30 26 31 76 32 27 33 28 34 29 35 70 36 30 37
REMARK SMILES IDX 75 38 69 39 71 40 31 41 74 42 68 43 67 44 32 46 58 47 41 48
REMARK SMILES IDX 57 49 42 50 45 51 56 52 72 53 43 54 44 55 55 57 73 58 46 59
REMARK SMILES IDX 33 60 34 61 39 62 35 63 36 64 38 65 40 66 37 67 59 68 60 69
REMARK SMILES IDX 65 70 61 71 62 72 64 73 66 74 63 75 47 76 48 77 53 78 49 79
REMARK SMILES IDX 50 80 52 81 54 82 51 83
REMARK H PARENT 17 5 4 11 7 14 21 26 71 45 45 56
REMARK Flexibility Score: inf
ROOT
ATOM      1  C   UNL A   1      32.112  30.162  26.176  1.00  0.00     0.117 C 
ENDROOT
BRANCH   1   2
ATOM      2  N   UNL A   1      33.118  29.994  25.157  1.00  0.00    -0.354 N 
ATOM      3  C   UNL A   1      33.270  29.009  24.234  1.00  0.00     0.242 C 
ATOM      4  O   UNL A   1      33.799  29.328  23.162  1.00  0.00    -0.273 OA
ATOM      5  H   UNL A   1      33.800  30.703  25.124  1.00  0.00     0.163 HD
BRANCH   3   6
ATOM      6  C   UNL A   1      32.715  27.578  24.410  1.00  0.00     0.172 C 
BRANCH   6   7
ATOM      7  C   UNL A   1      33.619  26.789  25.391  1.00  0.00     0.032 C 
ATOM      8  C   UNL A   1      33.682  25.267  25.280  1.00  0.00     0.006 C 
ENDBRANCH   6   7
BRANCH   6   9
ATOM      9  N   UNL A   1      32.397  26.884  23.172  1.00  0.00    -0.326 N 
ATOM     10  C   UNL A   1      31.373  26.945  22.313  1.00  0.00     0.315 C 
ATOM     11  H   UNL A   1      33.082  26.228  22.909  1.00  0.00     0.166 HD
ATOM     12  O   UNL A   1      31.404  26.167  21.357  1.00  0.00    -0.249 OA
ATOM     13  N   UNL A   1      30.349  27.799  22.380  1.00  0.00    -0.335 N 
ATOM     14  H   UNL A   1      29.825  27.811  21.547  1.00  0.00     0.165 HD
BRANCH  13  15
ATOM     15  C   UNL A   1      29.810  28.721  23.377  1.00  0.00     0.152 C 
BRANCH  15  16
ATOM     16  C   UNL A   1      28.643  29.617  22.870  1.00  0.00     0.083 C 
ATOM     17  C   UNL A   1      27.291  28.935  23.125  1.00  0.00     0.044 C 
ATOM     18  C   UNL A   1      28.680  31.009  23.500  1.00  0.00     0.039 C 
ATOM     19  O   UNL A   1      28.750  29.869  21.458  1.00  0.00    -0.373 OA
ATOM     20  C   UNL A   1      28.030  31.902  22.469  1.00  0.00     0.031 C 
ATOM     21  C   UNL A   1      28.169  31.146  21.166  1.00  0.00     0.161 C 
ENDBRANCH  15  16
ENDBRANCH  13  15
ENDBRANCH   6   9
ENDBRANCH   3   6
ENDBRANCH   1   2
BRANCH   1  22
ATOM     22  C   UNL A   1      31.747  31.588  26.567  1.00  0.00     0.042 C 
BRANCH  22  23
ATOM     23  C   UNL A   1      32.813  32.462  27.218  1.00  0.00     0.118 C 
BRANCH  23  24
ATOM     24  N   UNL A   1      32.386  33.789  27.627  1.00  0.00    -0.352 N 
ATOM     25  C   UNL A   1      33.014  34.673  28.474  1.00  0.00     0.251 C 
ATOM     26  H   UNL A   1      31.532  34.098  27.247  1.00  0.00     0.163 HD
ATOM     27  O   UNL A   1      32.548  35.789  28.657  1.00  0.00    -0.269 OA
BRANCH  25  28
ATOM     28  C   UNL A   1      34.217  34.245  29.219  1.00  0.00     0.039 A 
ATOM     29  C   UNL A   1      34.028  33.526  30.402  1.00  0.00     0.014 A 
ATOM     30  C   UNL A   1      35.509  34.504  28.750  1.00  0.00     0.014 A 
ATOM     31  C   UNL A   1      35.128  32.982  31.064  1.00  0.00     0.010 A 
ATOM     32  C   UNL A   1      36.605  33.922  29.388  1.00  0.00     0.010 A 
ATOM     33  C   UNL A   1      36.421  33.134  30.535  1.00  0.00    -0.014 A 
BRANCH  33  34
ATOM     34  C   UNL A   1      37.561  32.400  31.138  1.00  0.00     0.031 A 
ATOM     35  C   UNL A   1      38.070  32.747  32.505  1.00  0.00     0.074 A 
ATOM     36  C   UNL A   1      38.157  31.426  30.422  1.00  0.00     0.049 A 
ATOM     37  N   UNL A   1      39.037  32.189  33.188  1.00  0.00    -0.248 NA
ATOM     38  C   UNL A   1      37.420  33.874  33.188  1.00  0.00     0.031 C 
ATOM     39  C   UNL A   1      37.788  31.032  29.060  1.00  0.00     0.029 A 
ATOM     40  N   UNL A   1      39.200  30.590  30.737  1.00  0.00    -0.354 N 
ATOM     41  C   UNL A   1      39.109  32.891  34.384  1.00  0.00     0.074 A 
ATOM     42  C   UNL A   1      38.119  33.945  34.313  1.00  0.00     0.031 C 
ATOM     43  C   UNL A   1      38.575  30.017  28.666  1.00  0.00     0.029 A 
ATOM     44  C   UNL A   1      39.517  29.705  29.735  1.00  0.00     0.049 A 
ATOM     45  H   UNL A   1      39.673  30.621  31.599  1.00  0.00     0.167 HD
ATOM     46  C   UNL A   1      39.914  32.664  35.450  1.00  0.00     0.037 A 
ATOM     47  C   UNL A   1      40.462  28.747  29.685  1.00  0.00     0.037 A 
ATOM     48  C   UNL A   1      40.896  31.613  35.519  1.00  0.00     0.049 A 
ATOM     49  C   UNL A   1      41.343  28.520  30.880  1.00  0.00     0.074 A 
ATOM     50  C   UNL A   1      41.728  31.278  36.574  1.00  0.00     0.029 A 
ATOM     51  N   UNL A   1      41.183  30.730  34.489  1.00  0.00    -0.354 N 
ATOM     52  N   UNL A   1      41.346  29.142  32.033  1.00  0.00    -0.248 NA
ATOM     53  C   UNL A   1      42.346  27.451  30.770  1.00  0.00     0.031 C 
ATOM     54  C   UNL A   1      42.544  30.216  36.170  1.00  0.00     0.029 A 
ATOM     55  C   UNL A   1      42.193  29.863  34.877  1.00  0.00     0.049 A 
ATOM     56  H   UNL A   1      40.737  30.721  33.612  1.00  0.00     0.167 HD
ATOM     57  C   UNL A   1      42.332  28.527  32.794  1.00  0.00     0.074 A 
ATOM     58  C   UNL A   1      42.893  27.471  31.977  1.00  0.00     0.031 C 
ATOM     59  C   UNL A   1      42.738  28.814  34.054  1.00  0.00     0.037 A 
BRANCH  46  60
ATOM     60  C   UNL A   1      39.759  33.567  36.636  1.00  0.00     0.057 A 
ATOM     61  C   UNL A   1      40.486  34.760  36.749  1.00  0.00     0.134 A 
ATOM     62  C   UNL A   1      38.843  33.269  37.653  1.00  0.00     0.134 A 
ATOM     63  F   UNL A   1      41.386  35.099  35.814  1.00  0.00    -0.206 F 
ATOM     64  C   UNL A   1      40.320  35.615  37.841  1.00  0.00     0.040 A 
ATOM     65  C   UNL A   1      38.652  34.127  38.738  1.00  0.00     0.040 A 
ATOM     66  F   UNL A   1      38.111  32.147  37.602  1.00  0.00    -0.206 F 
ATOM     67  C   UNL A   1      39.396  35.302  38.836  1.00  0.00     0.006 A 
ENDBRANCH  46  60
BRANCH  47  68
ATOM     68  C   UNL A   1      40.611  27.912  28.467  1.00  0.00     0.057 A 
ATOM     69  C   UNL A   1      41.404  28.335  27.393  1.00  0.00     0.134 A 
ATOM     70  C   UNL A   1      39.954  26.683  28.340  1.00  0.00     0.134 A 
ATOM     71  F   UNL A   1      42.043  29.512  27.449  1.00  0.00    -0.206 F 
ATOM     72  C   UNL A   1      41.520  27.576  26.227  1.00  0.00     0.040 A 
ATOM     73  C   UNL A   1      40.080  25.903  27.189  1.00  0.00     0.040 A 
ATOM     74  F   UNL A   1      39.185  26.220  29.335  1.00  0.00    -0.206 F 
ATOM     75  C   UNL A   1      40.859  26.354  26.125  1.00  0.00     0.006 A 
ENDBRANCH  47  68
BRANCH  59  76
ATOM     76  C   UNL A   1      43.823  27.957  34.633  1.00  0.00     0.057 A 
ATOM     77  C   UNL A   1      45.173  28.317  34.543  1.00  0.00     0.134 A 
ATOM     78  C   UNL A   1      43.512  26.772  35.311  1.00  0.00     0.134 A 
ATOM     79  F   UNL A   1      45.537  29.433  33.892  1.00  0.00    -0.206 F 
ATOM     80  C   UNL A   1      46.179  27.517  35.088  1.00  0.00     0.040 A 
ATOM     81  C   UNL A   1      44.507  25.975  35.880  1.00  0.00     0.040 A 
ATOM     82  F   UNL A   1      42.237  26.373  35.438  1.00  0.00    -0.206 F 
ATOM     83  C   UNL A   1      45.846  26.345  35.764  1.00  0.00     0.006 A 
ENDBRANCH  59  76
ENDBRANCH  33  34
ENDBRANCH  25  28
ENDBRANCH  23  24
ENDBRANCH  22  23
ENDBRANCH   1  22
TORSDOF 14
ENDMDL
MODEL 2
REMARK VINA RESULT:     -11.5      0.527      6.405
REMARK SMILES CC[C@H](NC(=O)NC[C@@]1(C)CCCO1)C(=O)NCCCNC(=O)c1ccc(-c2c3nc(c(-c4c(F)cccc4F)c4ccc([nH]4)c(-c4c(F)cccc4F)c4nc(c(-c5c(F)cccc5F)c5ccc2[nH]5)C=C4)C=C3)cc1
REMARK SMILES IDX 18 1 17 2 15 3 16 4 3 6 2 7 1 8 4 9 5 10 6 12 7 13 8 15 9 16
REMARK SMILES IDX 10 17 11 18 14 19 12 20 13 21 19 22 20 23 21 24 22 25 23 27
REMARK SMILES IDX 24 28 25 29 77 30 26 31 76 32 27 33 28 34 29 35 70 36 30 37
REMARK SMILES IDX 75 38 69 39 71 40 31 41 74 42 68 43 67 44 32 46 58 47 41 48
REMARK SMILES IDX 57 49 42 50 45 51 56 52 72 53 43 54 44 55 55 57 73 58 46 59
REMARK SMILES IDX 33 60 34 61 39 62 35 63 36 64 38 65 40 66 37 67 59 68 60 69
REMARK SMILES IDX 65 70 61 71 62 72 64 73 66 74 63 75 47 76 48 77 53 78 49 79
REMARK SMILES IDX 50 80 52 81 54 82 51 83
REMARK H PARENT 17 5 4 11 7 14 21 26 71 45 45 56
REMARK Flexibility Score: inf
ROOT
ATOM      1  C   UNL A   1      32.171  30.134  26.275  1.00  0.00     0.117 C 
ENDROOT
BRANCH   1   2
ATOM      2  N   UNL A   1      33.143  29.974  25.223  1.00  0.00    -0.354 N 
ATOM      3  C   UNL A   1      33.265  28.997  24.287  1.00  0.00     0.242 C 
ATOM      4  O   UNL A   1      33.761  29.327  23.202  1.00  0.00    -0.273 OA
ATOM      5  H   UNL A   1      33.825  30.683  25.175  1.00  0.00     0.163 HD
BRANCH   3   6
ATOM      6  C   UNL A   1      32.716  27.566  24.467  1.00  0.00     0.172 C 
BRANCH   6   7
ATOM      7  C   UNL A   1      33.624  26.781  25.447  1.00  0.00     0.032 C 
ATOM      8  C   UNL A   1      33.825  25.282  25.232  1.00  0.00     0.006 C 
ENDBRANCH   6   7
BRANCH   6   9
ATOM      9  N   UNL A   1      32.395  26.869  23.231  1.00  0.00    -0.326 N 
ATOM     10  C   UNL A   1      31.386  26.950  22.358  1.00  0.00     0.315 C 
ATOM     11  H   UNL A   1      33.066  26.191  22.984  1.00  0.00     0.166 HD
ATOM     12  O   UNL A   1      31.409  26.161  21.409  1.00  0.00    -0.249 OA
ATOM     13  N   UNL A   1      30.385  27.833  22.402  1.00  0.00    -0.335 N 
ATOM     14  H   UNL A   1      29.873  27.851  21.561  1.00  0.00     0.165 HD
BRANCH  13  15
ATOM     15  C   UNL A   1      29.858  28.779  23.382  1.00  0.00     0.152 C 
BRANCH  15  16
ATOM     16  C   UNL A   1      28.678  29.655  22.871  1.00  0.00     0.083 C 
ATOM     17  C   UNL A   1      27.336  28.951  23.122  1.00  0.00     0.044 C 
ATOM     18  C   UNL A   1      28.691  31.048  23.500  1.00  0.00     0.039 C 
ATOM     19  O   UNL A   1      28.785  29.907  21.459  1.00  0.00    -0.373 OA
ATOM     20  C   UNL A   1      28.029  31.929  22.466  1.00  0.00     0.031 C 
ATOM     21  C   UNL A   1      28.184  31.174  21.164  1.00  0.00     0.161 C 
ENDBRANCH  15  16
ENDBRANCH  13  15
ENDBRANCH   6   9
ENDBRANCH   3   6
ENDBRANCH   1   2
BRANCH   1  22
ATOM     22  C   UNL A   1      31.777  31.556  26.651  1.00  0.00     0.042 C 
BRANCH  22  23
ATOM     23  C   UNL A   1      32.837  32.472  27.252  1.00  0.00     0.118 C 
BRANCH  23  24
ATOM     24  N   UNL A   1      32.398  33.811  27.602  1.00  0.00    -0.352 N 
ATOM     25  C   UNL A   1      33.000  34.726  28.435  1.00  0.00     0.251 C 
ATOM     26  H   UNL A   1      31.554  34.105  27.187  1.00  0.00     0.163 HD
ATOM     27  O   UNL A   1      32.528  35.847  28.565  1.00  0.00    -0.269 OA
BRANCH  25  28
ATOM     28  C   UNL A   1      34.183  34.327  29.228  1.00  0.00     0.039 A 
ATOM     29  C   UNL A   1      33.960  33.738  30.475  1.00  0.00     0.014 A 
ATOM     30  C   UNL A   1      35.485  34.486  28.746  1.00  0.00     0.014 A 
ATOM     31  C   UNL A   1      35.035  33.219  31.197  1.00  0.00     0.010 A 
ATOM     32  C   UNL A   1      36.555  33.927  29.447  1.00  0.00     0.010 A 
ATOM     33  C   UNL A   1      36.334  33.266  30.665  1.00  0.00    -0.014 A 
BRANCH  33  34
ATOM     34  C   UNL A   1      37.442  32.551  31.347  1.00  0.00     0.031 A 
ATOM     35  C   UNL A   1      38.129  31.388  30.698  1.00  0.00     0.074 A 
ATOM     36  C   UNL A   1      37.806  32.947  32.583  1.00  0.00     0.049 A 
ATOM     37  N   UNL A   1      39.130  30.670  31.143  1.00  0.00    -0.248 NA
ATOM     38  C   UNL A   1      37.621  30.966  29.385  1.00  0.00     0.031 C 
ATOM     39  C   UNL A   1      37.178  34.032  33.342  1.00  0.00     0.029 A 
ATOM     40  N   UNL A   1      38.792  32.486  33.420  1.00  0.00    -0.354 N 
ATOM     41  C   UNL A   1      39.375  29.716  30.165  1.00  0.00     0.074 A 
ATOM     42  C   UNL A   1      38.389  29.917  29.124  1.00  0.00     0.031 C 
ATOM     43  C   UNL A   1      37.808  34.166  34.521  1.00  0.00     0.029 A 
ATOM     44  C   UNL A   1      38.866  33.166  34.611  1.00  0.00     0.049 A 
ATOM     45  H   UNL A   1      39.390  31.739  33.187  1.00  0.00     0.167 HD
ATOM     46  C   UNL A   1      40.347  28.772  30.130  1.00  0.00     0.037 A 
ATOM     47  C   UNL A   1      39.696  33.002  35.659  1.00  0.00     0.037 A 
ATOM     48  C   UNL A   1      41.329  28.577  31.165  1.00  0.00     0.049 A 
ATOM     49  C   UNL A   1      40.761  31.945  35.594  1.00  0.00     0.074 A 
ATOM     50  C   UNL A   1      42.379  27.675  31.199  1.00  0.00     0.029 A 
ATOM     51  N   UNL A   1      41.378  29.291  32.353  1.00  0.00    -0.354 N 
ATOM     52  N   UNL A   1      41.030  31.102  34.629  1.00  0.00    -0.248 NA
ATOM     53  C   UNL A   1      41.645  31.825  36.763  1.00  0.00     0.031 C 
ATOM     54  C   UNL A   1      43.042  27.818  32.423  1.00  0.00     0.029 A 
ATOM     55  C   UNL A   1      42.429  28.836  33.134  1.00  0.00     0.049 A 
ATOM     56  H   UNL A   1      40.759  30.013  32.605  1.00  0.00     0.167 HD
ATOM     57  C   UNL A   1      42.126  30.366  35.061  1.00  0.00     0.074 A 
ATOM     58  C   UNL A   1      42.483  30.875  36.369  1.00  0.00     0.031 C 
ATOM     59  C   UNL A   1      42.775  29.357  34.432  1.00  0.00     0.037 A 
BRANCH  46  60
ATOM     60  C   UNL A   1      40.402  27.882  28.925  1.00  0.00     0.057 A 
ATOM     61  C   UNL A   1      39.652  26.700  28.853  1.00  0.00     0.134 A 
ATOM     62  C   UNL A   1      41.171  28.229  27.808  1.00  0.00     0.134 A 
ATOM     63  F   UNL A   1      38.902  26.307  29.893  1.00  0.00    -0.206 F 
ATOM     64  C   UNL A   1      39.681  25.886  27.719  1.00  0.00     0.040 A 
ATOM     65  C   UNL A   1      41.191  27.434  26.660  1.00  0.00     0.040 A 
ATOM     66  F   UNL A   1      41.906  29.351  27.810  1.00  0.00    -0.206 F 
ATOM     67  C   UNL A   1      40.448  26.256  26.616  1.00  0.00     0.006 A 
ENDBRANCH  46  60
BRANCH  47  68
ATOM     68  C   UNL A   1      39.569  33.876  36.852  1.00  0.00     0.057 A 
ATOM     69  C   UNL A   1      38.815  33.477  37.962  1.00  0.00     0.134 A 
ATOM     70  C   UNL A   1      40.183  35.132  36.906  1.00  0.00     0.134 A 
ATOM     71  F   UNL A   1      38.188  32.292  37.962  1.00  0.00    -0.206 F 
ATOM     72  C   UNL A   1      38.656  34.307  39.074  1.00  0.00     0.040 A 
ATOM     73  C   UNL A   1      40.052  35.962  38.020  1.00  0.00     0.040 A 
ATOM     74  F   UNL A   1      40.923  35.569  35.877  1.00  0.00    -0.206 F 
ATOM     75  C   UNL A   1      39.280  35.552  39.106  1.00  0.00     0.006 A 
ENDBRANCH  47  68
BRANCH  59  76
ATOM     76  C   UNL A   1      43.952  28.757  35.141  1.00  0.00     0.057 A 
ATOM     77  C   UNL A   1      45.252  29.242  34.952  1.00  0.00     0.134 A 
ATOM     78  C   UNL A   1      43.779  27.701  36.044  1.00  0.00     0.134 A 
ATOM     79  F   UNL A   1      45.485  30.241  34.088  1.00  0.00    -0.206 F 
ATOM     80  C   UNL A   1      46.343  28.682  35.619  1.00  0.00     0.040 A 
ATOM     81  C   UNL A   1      44.858  27.148  36.735  1.00  0.00     0.040 A 
ATOM     82  F   UNL A   1      42.558  27.194  36.276  1.00  0.00    -0.206 F 
ATOM     83  C   UNL A   1      46.146  27.636  36.518  1.00  0.00     0.006 A 
ENDBRANCH  59  76
ENDBRANCH  33  34
ENDBRANCH  25  28
ENDBRANCH  23  24
ENDBRANCH  22  23
ENDBRANCH   1  22
TORSDOF 14
ENDMDL
MODEL 3
REMARK VINA RESULT:     -11.4      0.485      1.416
REMARK SMILES CC[C@H](NC(=O)NC[C@@]1(C)CCCO1)C(=O)NCCCNC(=O)c1ccc(-c2c3nc(c(-c4c(F)cccc4F)c4ccc([nH]4)c(-c4c(F)cccc4F)c4nc(c(-c5c(F)cccc5F)c5ccc2[nH]5)C=C4)C=C3)cc1
REMARK SMILES IDX 18 1 17 2 15 3 16 4 3 6 2 7 1 8 4 9 5 10 6 12 7 13 8 15 9 16
REMARK SMILES IDX 10 17 11 18 14 19 12 20 13 21 19 22 20 23 21 24 22 25 23 27
REMARK SMILES IDX 24 28 25 29 77 30 26 31 76 32 27 33 28 34 29 35 70 36 30 37
REMARK SMILES IDX 75 38 69 39 71 40 31 41 74 42 68 43 67 44 32 46 58 47 41 48
REMARK SMILES IDX 57 49 42 50 45 51 56 52 72 53 43 54 44 55 55 57 73 58 46 59
REMARK SMILES IDX 33 60 34 61 39 62 35 63 36 64 38 65 40 66 37 67 59 68 60 69
REMARK SMILES IDX 65 70 61 71 62 72 64 73 66 74 63 75 47 76 48 77 53 78 49 79
REMARK SMILES IDX 50 80 52 81 54 82 51 83
REMARK H PARENT 17 5 4 11 7 14 21 26 71 45 45 56
REMARK Flexibility Score: inf
ROOT
ATOM      1  C   UNL A   1      32.057  30.015  26.003  1.00  0.00     0.117 C 
ENDROOT
BRANCH   1   2
ATOM      2  N   UNL A   1      33.113  29.869  25.033  1.00  0.00    -0.354 N 
ATOM      3  C   UNL A   1      33.312  28.904  24.098  1.00  0.00     0.242 C 
ATOM      4  O   UNL A   1      33.895  29.247  23.061  1.00  0.00    -0.273 OA
ATOM      5  H   UNL A   1      33.795  30.578  25.050  1.00  0.00     0.163 HD
BRANCH   3   6
ATOM      6  C   UNL A   1      32.752  27.470  24.213  1.00  0.00     0.172 C 
BRANCH   6   7
ATOM      7  C   UNL A   1      33.662  26.631  25.146  1.00  0.00     0.032 C 
ATOM      8  C   UNL A   1      33.117  25.336  25.744  1.00  0.00     0.006 C 
ENDBRANCH   6   7
BRANCH   6   9
ATOM      9  N   UNL A   1      32.414  26.836  22.949  1.00  0.00    -0.326 N 
ATOM     10  C   UNL A   1      31.384  26.948  22.103  1.00  0.00     0.315 C 
ATOM     11  H   UNL A   1      33.089  26.185  22.650  1.00  0.00     0.166 HD
ATOM     12  O   UNL A   1      31.398  26.213  21.112  1.00  0.00    -0.249 OA
ATOM     13  N   UNL A   1      30.371  27.810  22.217  1.00  0.00    -0.335 N 
ATOM     14  H   UNL A   1      29.840  27.866  21.390  1.00  0.00     0.165 HD
BRANCH  13  15
ATOM     15  C   UNL A   1      29.852  28.693  23.259  1.00  0.00     0.152 C 
BRANCH  15  16
ATOM     16  C   UNL A   1      28.668  29.598  22.813  1.00  0.00     0.083 C 
ATOM     17  C   UNL A   1      27.325  28.924  23.129  1.00  0.00     0.044 C 
ATOM     18  C   UNL A   1      28.744  30.987  23.448  1.00  0.00     0.039 C 
ATOM     19  O   UNL A   1      28.709  29.858  21.399  1.00  0.00    -0.373 OA
ATOM     20  C   UNL A   1      28.051  31.890  22.454  1.00  0.00     0.031 C 
ATOM     21  C   UNL A   1      28.123  31.140  21.141  1.00  0.00     0.161 C 
ENDBRANCH  15  16
ENDBRANCH  13  15
ENDBRANCH   6   9
ENDBRANCH   3   6
ENDBRANCH   1   2
BRANCH   1  22
ATOM     22  C   UNL A   1      32.292  30.989  27.149  1.00  0.00     0.042 C 
BRANCH  22  23
ATOM     23  C   UNL A   1      33.103  32.251  26.879  1.00  0.00     0.118 C 
BRANCH  23  24
ATOM     24  N   UNL A   1      32.564  33.485  27.424  1.00  0.00    -0.352 N 
ATOM     25  C   UNL A   1      33.086  34.294  28.407  1.00  0.00     0.251 C 
ATOM     26  H   UNL A   1      31.707  33.782  27.039  1.00  0.00     0.163 HD
ATOM     27  O   UNL A   1      32.533  35.345  28.699  1.00  0.00    -0.269 OA
BRANCH  25  28
ATOM     28  C   UNL A   1      34.282  33.856  29.158  1.00  0.00     0.039 A 
ATOM     29  C   UNL A   1      34.095  32.951  30.207  1.00  0.00     0.014 A 
ATOM     30  C   UNL A   1      35.568  34.286  28.818  1.00  0.00     0.014 A 
ATOM     31  C   UNL A   1      35.203  32.403  30.852  1.00  0.00     0.010 A 
ATOM     32  C   UNL A   1      36.677  33.703  29.434  1.00  0.00     0.010 A 
ATOM     33  C   UNL A   1      36.503  32.738  30.437  1.00  0.00    -0.014 A 
BRANCH  33  34
ATOM     34  C   UNL A   1      37.671  32.014  30.999  1.00  0.00     0.031 A 
ATOM     35  C   UNL A   1      38.182  32.318  32.376  1.00  0.00     0.074 A 
ATOM     36  C   UNL A   1      38.290  31.091  30.237  1.00  0.00     0.049 A 
ATOM     37  N   UNL A   1      39.172  31.761  33.027  1.00  0.00    -0.248 NA
ATOM     38  C   UNL A   1      37.503  33.393  33.113  1.00  0.00     0.031 C 
ATOM     39  C   UNL A   1      37.921  30.745  28.862  1.00  0.00     0.029 A 
ATOM     40  N   UNL A   1      39.361  30.275  30.507  1.00  0.00    -0.354 N 
ATOM     41  C   UNL A   1      39.233  32.413  34.252  1.00  0.00     0.074 A 
ATOM     42  C   UNL A   1      38.210  33.438  34.234  1.00  0.00     0.031 C 
ATOM     43  C   UNL A   1      38.735  29.773  28.419  1.00  0.00     0.029 A 
ATOM     44  C   UNL A   1      39.697  29.445  29.466  1.00  0.00     0.049 A 
ATOM     45  H   UNL A   1      39.841  30.284  31.366  1.00  0.00     0.167 HD
ATOM     46  C   UNL A   1      40.054  32.166  35.300  1.00  0.00     0.037 A 
ATOM     47  C   UNL A   1      40.670  28.520  29.366  1.00  0.00     0.037 A 
ATOM     48  C   UNL A   1      41.069  31.144  35.316  1.00  0.00     0.049 A 
ATOM     49  C   UNL A   1      41.569  28.269  30.544  1.00  0.00     0.074 A 
ATOM     50  C   UNL A   1      41.920  30.790  36.349  1.00  0.00     0.029 A 
ATOM     51  N   UNL A   1      41.373  30.315  34.247  1.00  0.00    -0.354 N 
ATOM     52  N   UNL A   1      41.563  28.840  31.723  1.00  0.00    -0.248 NA
ATOM     53  C   UNL A   1      42.603  27.238  30.380  1.00  0.00     0.031 C 
ATOM     54  C   UNL A   1      42.764  29.772  35.893  1.00  0.00     0.029 A 
ATOM     55  C   UNL A   1      42.412  29.464  34.589  1.00  0.00     0.049 A 
ATOM     56  H   UNL A   1      40.919  30.330  33.374  1.00  0.00     0.167 HD
ATOM     57  C   UNL A   1      42.574  28.224  32.449  1.00  0.00     0.074 A 
ATOM     58  C   UNL A   1      43.160  27.223  31.583  1.00  0.00     0.031 C 
ATOM     59  C   UNL A   1      42.982  28.469  33.717  1.00  0.00     0.037 A 
BRANCH  46  60
ATOM     60  C   UNL A   1      39.881  33.011  36.526  1.00  0.00     0.057 A 
ATOM     61  C   UNL A   1      40.662  34.155  36.743  1.00  0.00     0.134 A 
ATOM     62  C   UNL A   1      38.897  32.710  37.476  1.00  0.00     0.134 A 
ATOM     63  F   UNL A   1      41.627  34.493  35.875  1.00  0.00    -0.206 F 
ATOM     64  C   UNL A   1      40.482  34.959  37.870  1.00  0.00     0.040 A 
ATOM     65  C   UNL A   1      38.693  33.518  38.596  1.00  0.00     0.040 A 
ATOM     66  F   UNL A   1      38.112  31.634  37.325  1.00  0.00    -0.206 F 
ATOM     67  C   UNL A   1      39.491  34.643  38.798  1.00  0.00     0.006 A 
ENDBRANCH  46  60
BRANCH  47  68
ATOM     68  C   UNL A   1      40.834  27.743  28.112  1.00  0.00     0.057 A 
ATOM     69  C   UNL A   1      40.208  26.502  27.945  1.00  0.00     0.134 A 
ATOM     70  C   UNL A   1      41.629  28.213  27.061  1.00  0.00     0.134 A 
ATOM     71  F   UNL A   1      39.449  25.990  28.925  1.00  0.00    -0.206 F 
ATOM     72  C   UNL A   1      40.386  25.744  26.786  1.00  0.00     0.040 A 
ATOM     73  C   UNL A   1      41.796  27.477  25.887  1.00  0.00     0.040 A 
ATOM     74  F   UNL A   1      42.249  29.397  27.158  1.00  0.00    -0.206 F 
ATOM     75  C   UNL A   1      41.180  26.234  25.751  1.00  0.00     0.006 A 
ENDBRANCH  47  68
BRANCH  59  76
ATOM     76  C   UNL A   1      44.098  27.622  34.250  1.00  0.00     0.057 A 
ATOM     77  C   UNL A   1      43.859  26.379  34.849  1.00  0.00     0.134 A 
ATOM     78  C   UNL A   1      45.430  28.042  34.137  1.00  0.00     0.134 A 
ATOM     79  F   UNL A   1      42.605  25.928  35.000  1.00  0.00    -0.206 F 
ATOM     80  C   UNL A   1      44.903  25.593  35.338  1.00  0.00     0.040 A 
ATOM     81  C   UNL A   1      46.484  27.254  34.601  1.00  0.00     0.040 A 
ATOM     82  F   UNL A   1      45.728  29.220  33.568  1.00  0.00    -0.206 F 
ATOM     83  C   UNL A   1      46.221  26.028  35.210  1.00  0.00     0.006 A 
ENDBRANCH  59  76
ENDBRANCH  33  34
ENDBRANCH  25  28
ENDBRANCH  23  24
ENDBRANCH  22  23
ENDBRANCH   1  22
TORSDOF 14
ENDMDL
