MODEL 1
REMARK VINA RESULT:     -12.6      0.000      0.000
REMARK SMILES CC(C)Cc1cc2c(cc1Cl)C=C(C(=O)NCCCNC(=O)c1ccc(-c3c4nc(c(-c5c(F)cccc5F)c5ccc([nH]5)c(-c5c(F)cccc5F)c5nc(c(-c6c(F)cccc6F)c6ccc3[nH]6)C=C5)C=C4)cc1)[C@@H](C(F)(F)F)O2
REMARK SMILES IDX 18 1 17 2 16 3 14 4 15 5 13 7 5 8 6 9 10 10 7 11 9 12 11 13
REMARK SMILES IDX 8 14 82 15 12 16 77 17 4 18 2 19 1 20 3 21 78 22 79 23 80 24
REMARK SMILES IDX 81 25 19 26 20 27 21 28 22 30 23 31 24 32 76 33 25 34 75 35
REMARK SMILES IDX 26 36 27 37 28 38 69 39 29 40 74 41 68 42 70 43 30 44 73 45
REMARK SMILES IDX 67 46 66 47 31 49 57 50 40 51 56 52 41 53 44 54 55 55 71 56
REMARK SMILES IDX 42 57 43 58 54 60 72 61 45 62 32 63 33 64 38 65 34 66 35 67
REMARK SMILES IDX 37 68 39 69 36 70 58 71 59 72 64 73 60 74 61 75 63 76 65 77
REMARK SMILES IDX 62 78 46 79 47 80 52 81 48 82 49 83 51 84 53 85 50 86
REMARK H PARENT 16 6 20 29 70 48 44 59
REMARK Flexibility Score: inf
ROOT
ATOM      1  C   UNL A   1      37.785  19.911  24.743  1.00  0.00     0.042 C 
ENDROOT
BRANCH   1   2
ATOM      2  C   UNL A   1      36.453  20.523  25.150  1.00  0.00     0.118 C 
BRANCH   2   3
ATOM      3  N   UNL A   1      35.348  19.597  24.969  1.00  0.00    -0.352 N 
ATOM      4  C   UNL A   1      34.002  19.676  24.843  1.00  0.00     0.251 C 
ATOM      5  O   UNL A   1      33.422  18.597  24.693  1.00  0.00    -0.270 OA
ATOM      6  H   UNL A   1      35.661  18.665  24.925  1.00  0.00     0.163 HD
BRANCH   4   7
ATOM      7  C   UNL A   1      33.212  20.940  24.881  1.00  0.00     0.067 C 
ATOM      8  C   UNL A   1      30.925  25.306  23.848  1.00  0.00    -0.025 A 
ATOM      9  C   UNL A   1      30.794  24.335  24.852  1.00  0.00     0.052 A 
ATOM     10  C   UNL A   1      31.722  24.990  22.730  1.00  0.00     0.045 A 
ATOM     11  C   UNL A   1      31.529  23.157  24.801  1.00  0.00     0.128 A 
ATOM     12  C   UNL A   1      32.424  23.776  22.663  1.00  0.00     0.032 A 
ATOM     13  Cl  UNL A   1      31.884  26.061  21.383  1.00  0.00    -0.084 Cl
ATOM     14  C   UNL A   1      32.352  22.865  23.717  1.00  0.00     0.019 A 
ATOM     15  O   UNL A   1      31.398  22.308  25.866  1.00  0.00    -0.475 OA
ATOM     16  C   UNL A   1      33.097  21.609  23.718  1.00  0.00     0.025 C 
ATOM     17  C   UNL A   1      32.573  21.494  26.123  1.00  0.00     0.314 C 
BRANCH   8  18
ATOM     18  C   UNL A   1      30.197  26.627  24.006  1.00  0.00     0.040 C 
BRANCH  18  19
ATOM     19  C   UNL A   1      31.103  27.843  24.327  1.00  0.00    -0.013 C 
ATOM     20  C   UNL A   1      30.474  29.165  23.877  1.00  0.00     0.008 C 
ATOM     21  C   UNL A   1      31.403  27.894  25.826  1.00  0.00     0.008 C 
ENDBRANCH  18  19
ENDBRANCH   8  18
BRANCH  17  22
ATOM     22  C   UNL A   1      33.570  22.271  27.012  1.00  0.00     0.429 C 
ATOM     23  F   UNL A   1      32.902  22.992  27.948  1.00  0.00    -0.167 F 
ATOM     24  F   UNL A   1      34.409  21.448  27.688  1.00  0.00    -0.167 F 
ATOM     25  F   UNL A   1      34.346  23.128  26.316  1.00  0.00    -0.167 F 
ENDBRANCH  17  22
ENDBRANCH   4   7
ENDBRANCH   2   3
ENDBRANCH   1   2
BRANCH   1  26
ATOM     26  C   UNL A   1      38.903  20.264  25.712  1.00  0.00     0.118 C 
BRANCH  26  27
ATOM     27  N   UNL A   1      39.905  19.204  25.812  1.00  0.00    -0.352 N 
ATOM     28  C   UNL A   1      41.264  19.277  26.005  1.00  0.00     0.251 C 
ATOM     29  H   UNL A   1      39.549  18.291  25.727  1.00  0.00     0.163 HD
ATOM     30  O   UNL A   1      41.957  18.275  25.854  1.00  0.00    -0.269 OA
BRANCH  28  31
ATOM     31  C   UNL A   1      41.889  20.561  26.374  1.00  0.00     0.039 A 
ATOM     32  C   UNL A   1      42.134  20.865  27.712  1.00  0.00     0.014 A 
ATOM     33  C   UNL A   1      42.227  21.478  25.373  1.00  0.00     0.014 A 
ATOM     34  C   UNL A   1      42.511  22.150  28.064  1.00  0.00     0.010 A 
ATOM     35  C   UNL A   1      42.726  22.734  25.726  1.00  0.00     0.010 A 
ATOM     36  C   UNL A   1      42.819  23.101  27.077  1.00  0.00    -0.014 A 
BRANCH  36  37
ATOM     37  C   UNL A   1      43.234  24.461  27.505  1.00  0.00     0.031 A 
ATOM     38  C   UNL A   1      44.669  24.902  27.397  1.00  0.00     0.074 A 
ATOM     39  C   UNL A   1      42.289  25.326  27.918  1.00  0.00     0.049 A 
ATOM     40  N   UNL A   1      45.194  26.070  27.674  1.00  0.00    -0.248 NA
ATOM     41  C   UNL A   1      45.644  23.905  26.929  1.00  0.00     0.031 C 
ATOM     42  C   UNL A   1      40.865  25.009  28.068  1.00  0.00     0.029 A 
ATOM     43  N   UNL A   1      42.369  26.652  28.249  1.00  0.00    -0.354 N 
ATOM     44  C   UNL A   1      46.557  25.940  27.443  1.00  0.00     0.074 A 
ATOM     45  C   UNL A   1      46.785  24.572  27.029  1.00  0.00     0.031 C 
ATOM     46  C   UNL A   1      40.198  26.126  28.389  1.00  0.00     0.029 A 
ATOM     47  C   UNL A   1      41.151  27.217  28.543  1.00  0.00     0.049 A 
ATOM     48  H   UNL A   1      43.217  27.153  28.276  1.00  0.00     0.167 HD
ATOM     49  C   UNL A   1      47.529  26.876  27.557  1.00  0.00     0.037 A 
ATOM     50  C   UNL A   1      40.836  28.472  28.908  1.00  0.00     0.037 A 
ATOM     51  C   UNL A   1      47.293  28.245  27.944  1.00  0.00     0.049 A 
ATOM     52  C   UNL A   1      41.934  29.485  29.040  1.00  0.00     0.074 A 
ATOM     53  C   UNL A   1      48.204  29.281  28.058  1.00  0.00     0.029 A 
ATOM     54  N   UNL A   1      46.052  28.766  28.281  1.00  0.00    -0.354 N 
ATOM     55  N   UNL A   1      43.215  29.349  28.802  1.00  0.00    -0.248 NA
ATOM     56  C   UNL A   1      41.541  30.823  29.500  1.00  0.00     0.031 C 
ATOM     57  C   UNL A   1      47.520  30.418  28.504  1.00  0.00     0.029 A 
ATOM     58  C   UNL A   1      46.176  30.103  28.625  1.00  0.00     0.049 A 
ATOM     59  H   UNL A   1      45.207  28.260  28.276  1.00  0.00     0.167 HD
ATOM     60  C   UNL A   1      43.784  30.584  29.081  1.00  0.00     0.074 A 
ATOM     61  C   UNL A   1      42.701  31.463  29.474  1.00  0.00     0.031 C 
ATOM     62  C   UNL A   1      45.087  30.955  29.027  1.00  0.00     0.037 A 
BRANCH  49  63
ATOM     63  C   UNL A   1      48.941  26.442  27.286  1.00  0.00     0.057 A 
ATOM     64  C   UNL A   1      49.763  26.003  28.332  1.00  0.00     0.134 A 
ATOM     65  C   UNL A   1      49.495  26.465  25.999  1.00  0.00     0.134 A 
ATOM     66  F   UNL A   1      49.300  25.962  29.591  1.00  0.00    -0.206 F 
ATOM     67  C   UNL A   1      51.080  25.597  28.108  1.00  0.00     0.040 A 
ATOM     68  C   UNL A   1      50.802  26.038  25.757  1.00  0.00     0.040 A 
ATOM     69  F   UNL A   1      48.757  26.859  24.949  1.00  0.00    -0.206 F 
ATOM     70  C   UNL A   1      51.601  25.606  26.816  1.00  0.00     0.006 A 
ENDBRANCH  49  63
BRANCH  50  71
ATOM     71  C   UNL A   1      39.425  28.826  29.195  1.00  0.00     0.057 A 
ATOM     72  C   UNL A   1      38.875  28.643  30.470  1.00  0.00     0.134 A 
ATOM     73  C   UNL A   1      38.590  29.348  28.201  1.00  0.00     0.134 A 
ATOM     74  F   UNL A   1      39.622  28.138  31.464  1.00  0.00    -0.206 F 
ATOM     75  C   UNL A   1      37.542  28.952  30.743  1.00  0.00     0.040 A 
ATOM     76  C   UNL A   1      37.263  29.688  28.467  1.00  0.00     0.040 A 
ATOM     77  F   UNL A   1      39.064  29.561  26.964  1.00  0.00    -0.206 F 
ATOM     78  C   UNL A   1      36.734  29.484  29.741  1.00  0.00     0.006 A 
ENDBRANCH  50  71
BRANCH  62  79
ATOM     79  C   UNL A   1      45.394  32.377  29.393  1.00  0.00     0.057 A 
ATOM     80  C   UNL A   1      45.351  33.389  28.427  1.00  0.00     0.134 A 
ATOM     81  C   UNL A   1      45.728  32.743  30.703  1.00  0.00     0.134 A 
ATOM     82  F   UNL A   1      45.042  33.104  27.153  1.00  0.00    -0.206 F 
ATOM     83  C   UNL A   1      45.623  34.718  28.753  1.00  0.00     0.040 A 
ATOM     84  C   UNL A   1      45.978  34.072  31.047  1.00  0.00     0.040 A 
ATOM     85  F   UNL A   1      45.769  31.821  31.677  1.00  0.00    -0.206 F 
ATOM     86  C   UNL A   1      45.929  35.064  30.068  1.00  0.00     0.006 A 
ENDBRANCH  62  79
ENDBRANCH  36  37
ENDBRANCH  28  31
ENDBRANCH  26  27
ENDBRANCH   1  26
TORSDOF 13
ENDMDL
MODEL 2
REMARK VINA RESULT:     -12.4      5.306     10.124
REMARK SMILES CC(C)Cc1cc2c(cc1Cl)C=C(C(=O)NCCCNC(=O)c1ccc(-c3c4nc(c(-c5c(F)cccc5F)c5ccc([nH]5)c(-c5c(F)cccc5F)c5nc(c(-c6c(F)cccc6F)c6ccc3[nH]6)C=C5)C=C4)cc1)[C@@H](C(F)(F)F)O2
REMARK SMILES IDX 18 1 17 2 16 3 14 4 15 5 13 7 5 8 6 9 10 10 7 11 9 12 11 13
REMARK SMILES IDX 8 14 82 15 12 16 77 17 4 18 2 19 1 20 3 21 78 22 79 23 80 24
REMARK SMILES IDX 81 25 19 26 20 27 21 28 22 30 23 31 24 32 76 33 25 34 75 35
REMARK SMILES IDX 26 36 27 37 28 38 69 39 29 40 74 41 68 42 70 43 30 44 73 45
REMARK SMILES IDX 67 46 66 47 31 49 57 50 40 51 56 52 41 53 44 54 55 55 71 56
REMARK SMILES IDX 42 57 43 58 54 60 72 61 45 62 32 63 33 64 38 65 34 66 35 67
REMARK SMILES IDX 37 68 39 69 36 70 58 71 59 72 64 73 60 74 61 75 63 76 65 77
REMARK SMILES IDX 62 78 46 79 47 80 52 81 48 82 49 83 51 84 53 85 50 86
REMARK H PARENT 16 6 20 29 70 48 44 59
REMARK Flexibility Score: inf
ROOT
ATOM      1  C   UNL A   1      31.457  32.071  26.694  1.00  0.00     0.042 C 
ENDROOT
BRANCH   1   2
ATOM      2  C   UNL A   1      31.698  30.603  26.378  1.00  0.00     0.118 C 
BRANCH   2   3
ATOM      3  N   UNL A   1      31.265  30.255  25.035  1.00  0.00    -0.352 N 
ATOM      4  C   UNL A   1      31.155  29.128  24.292  1.00  0.00     0.251 C 
ATOM      5  O   UNL A   1      30.715  29.291  23.150  1.00  0.00    -0.270 OA
ATOM      6  H   UNL A   1      30.975  31.050  24.532  1.00  0.00     0.163 HD
BRANCH   4   7
ATOM      7  C   UNL A   1      31.524  27.760  24.753  1.00  0.00     0.067 C 
ATOM      8  C   UNL A   1      33.911  23.524  26.065  1.00  0.00    -0.025 A 
ATOM      9  C   UNL A   1      32.629  24.048  26.294  1.00  0.00     0.052 A 
ATOM     10  C   UNL A   1      34.880  24.382  25.510  1.00  0.00     0.045 A 
ATOM     11  C   UNL A   1      32.299  25.329  25.868  1.00  0.00     0.128 A 
ATOM     12  C   UNL A   1      34.552  25.691  25.125  1.00  0.00     0.032 A 
ATOM     13  Cl  UNL A   1      36.519  23.885  25.271  1.00  0.00    -0.084 Cl
ATOM     14  C   UNL A   1      33.247  26.160  25.277  1.00  0.00     0.019 A 
ATOM     15  O   UNL A   1      31.004  25.722  26.060  1.00  0.00    -0.475 OA
ATOM     16  C   UNL A   1      32.842  27.497  24.852  1.00  0.00     0.025 C 
ATOM     17  C   UNL A   1      30.526  26.687  25.085  1.00  0.00     0.314 C 
BRANCH   8  18
ATOM     18  C   UNL A   1      34.190  22.081  26.439  1.00  0.00     0.040 C 
BRANCH  18  19
ATOM     19  C   UNL A   1      34.214  21.087  25.250  1.00  0.00    -0.013 C 
ATOM     20  C   UNL A   1      35.582  20.417  25.087  1.00  0.00     0.008 C 
ATOM     21  C   UNL A   1      33.132  20.021  25.431  1.00  0.00     0.008 C 
ENDBRANCH  18  19
ENDBRANCH   8  18
BRANCH  17  22
ATOM     22  C   UNL A   1      29.997  25.956  23.831  1.00  0.00     0.429 C 
ATOM     23  F   UNL A   1      28.702  26.290  23.603  1.00  0.00    -0.167 F 
ATOM     24  F   UNL A   1      30.682  26.289  22.710  1.00  0.00    -0.167 F 
ATOM     25  F   UNL A   1      30.056  24.611  23.935  1.00  0.00    -0.167 F 
ENDBRANCH  17  22
ENDBRANCH   4   7
ENDBRANCH   2   3
ENDBRANCH   1   2
BRANCH   1  26
ATOM     26  C   UNL A   1      32.699  32.754  27.246  1.00  0.00     0.118 C 
BRANCH  26  27
ATOM     27  N   UNL A   1      32.446  34.144  27.623  1.00  0.00    -0.352 N 
ATOM     28  C   UNL A   1      33.035  34.927  28.587  1.00  0.00     0.251 C 
ATOM     29  H   UNL A   1      31.740  34.590  27.103  1.00  0.00     0.163 HD
ATOM     30  O   UNL A   1      32.536  36.009  28.883  1.00  0.00    -0.269 OA
BRANCH  28  31
ATOM     31  C   UNL A   1      34.253  34.460  29.275  1.00  0.00     0.039 A 
ATOM     32  C   UNL A   1      35.509  34.700  28.722  1.00  0.00     0.014 A 
ATOM     33  C   UNL A   1      34.139  33.766  30.484  1.00  0.00     0.014 A 
ATOM     34  C   UNL A   1      36.623  34.071  29.254  1.00  0.00     0.010 A 
ATOM     35  C   UNL A   1      35.283  33.236  31.087  1.00  0.00     0.010 A 
ATOM     36  C   UNL A   1      36.528  33.336  30.446  1.00  0.00    -0.014 A 
BRANCH  36  37
ATOM     37  C   UNL A   1      37.753  32.694  30.985  1.00  0.00     0.031 A 
ATOM     38  C   UNL A   1      38.353  33.143  32.290  1.00  0.00     0.074 A 
ATOM     39  C   UNL A   1      38.276  31.642  30.326  1.00  0.00     0.049 A 
ATOM     40  N   UNL A   1      39.387  32.657  32.932  1.00  0.00    -0.248 NA
ATOM     41  C   UNL A   1      37.722  34.292  32.958  1.00  0.00     0.031 C 
ATOM     42  C   UNL A   1      37.782  31.119  29.048  1.00  0.00     0.029 A 
ATOM     43  N   UNL A   1      39.307  30.802  30.650  1.00  0.00    -0.354 N 
ATOM     44  C   UNL A   1      39.547  33.454  34.058  1.00  0.00     0.074 A 
ATOM     45  C   UNL A   1      38.521  34.474  33.999  1.00  0.00     0.031 C 
ATOM     46  C   UNL A   1      38.461  30.008  28.737  1.00  0.00     0.029 A 
ATOM     47  C   UNL A   1      39.485  29.782  29.747  1.00  0.00     0.049 A 
ATOM     48  H   UNL A   1      39.867  30.918  31.452  1.00  0.00     0.167 HD
ATOM     49  C   UNL A   1      40.459  33.343  35.053  1.00  0.00     0.037 A 
ATOM     50  C   UNL A   1      40.384  28.782  29.727  1.00  0.00     0.037 A 
ATOM     51  C   UNL A   1      41.462  32.309  35.119  1.00  0.00     0.049 A 
ATOM     52  C   UNL A   1      41.391  28.689  30.834  1.00  0.00     0.074 A 
ATOM     53  C   UNL A   1      42.411  32.088  36.100  1.00  0.00     0.029 A 
ATOM     54  N   UNL A   1      41.642  31.323  34.159  1.00  0.00    -0.354 N 
ATOM     55  N   UNL A   1      41.518  29.442  31.899  1.00  0.00    -0.248 NA
ATOM     56  C   UNL A   1      42.385  27.614  30.730  1.00  0.00     0.031 C 
ATOM     57  C   UNL A   1      43.193  30.993  35.714  1.00  0.00     0.029 A 
ATOM     58  C   UNL A   1      42.702  30.504  34.513  1.00  0.00     0.049 A 
ATOM     59  H   UNL A   1      41.096  31.220  33.346  1.00  0.00     0.167 HD
ATOM     60  C   UNL A   1      42.604  28.932  32.595  1.00  0.00     0.074 A 
ATOM     61  C   UNL A   1      43.078  27.786  31.847  1.00  0.00     0.031 C 
ATOM     62  C   UNL A   1      43.166  29.377  33.746  1.00  0.00     0.037 A 
BRANCH  49  63
ATOM     63  C   UNL A   1      40.430  34.383  36.135  1.00  0.00     0.057 A 
ATOM     64  C   UNL A   1      41.202  35.547  36.023  1.00  0.00     0.134 A 
ATOM     65  C   UNL A   1      39.651  34.236  37.291  1.00  0.00     0.134 A 
ATOM     66  F   UNL A   1      41.976  35.750  34.947  1.00  0.00    -0.206 F 
ATOM     67  C   UNL A   1      41.196  36.527  37.018  1.00  0.00     0.040 A 
ATOM     68  C   UNL A   1      39.616  35.221  38.280  1.00  0.00     0.040 A 
ATOM     69  F   UNL A   1      38.875  33.153  37.453  1.00  0.00    -0.206 F 
ATOM     70  C   UNL A   1      40.395  36.370  38.146  1.00  0.00     0.006 A 
ENDBRANCH  49  63
BRANCH  50  71
ATOM     71  C   UNL A   1      40.380  27.807  28.609  1.00  0.00     0.057 A 
ATOM     72  C   UNL A   1      41.093  28.053  27.429  1.00  0.00     0.134 A 
ATOM     73  C   UNL A   1      39.656  26.612  28.689  1.00  0.00     0.134 A 
ATOM     74  F   UNL A   1      41.800  29.184  27.288  1.00  0.00    -0.206 F 
ATOM     75  C   UNL A   1      41.077  27.152  26.363  1.00  0.00     0.040 A 
ATOM     76  C   UNL A   1      39.653  25.690  27.642  1.00  0.00     0.040 A 
ATOM     77  F   UNL A   1      38.966  26.314  29.800  1.00  0.00    -0.206 F 
ATOM     78  C   UNL A   1      40.360  25.962  26.472  1.00  0.00     0.006 A 
ENDBRANCH  50  71
BRANCH  62  79
ATOM     79  C   UNL A   1      44.347  28.606  34.257  1.00  0.00     0.057 A 
ATOM     80  C   UNL A   1      45.649  28.976  33.901  1.00  0.00     0.134 A 
ATOM     81  C   UNL A   1      44.193  27.502  35.105  1.00  0.00     0.134 A 
ATOM     82  F   UNL A   1      45.864  30.021  33.088  1.00  0.00    -0.206 F 
ATOM     83  C   UNL A   1      46.760  28.277  34.376  1.00  0.00     0.040 A 
ATOM     84  C   UNL A   1      45.296  26.810  35.607  1.00  0.00     0.040 A 
ATOM     85  F   UNL A   1      42.971  27.110  35.496  1.00  0.00    -0.206 F 
ATOM     86  C   UNL A   1      46.585  27.196  35.239  1.00  0.00     0.006 A 
ENDBRANCH  62  79
ENDBRANCH  36  37
ENDBRANCH  28  31
ENDBRANCH  26  27
ENDBRANCH   1  26
TORSDOF 13
ENDMDL
MODEL 3
REMARK VINA RESULT:     -12.3      5.025      9.896
REMARK SMILES CC(C)Cc1cc2c(cc1Cl)C=C(C(=O)NCCCNC(=O)c1ccc(-c3c4nc(c(-c5c(F)cccc5F)c5ccc([nH]5)c(-c5c(F)cccc5F)c5nc(c(-c6c(F)cccc6F)c6ccc3[nH]6)C=C5)C=C4)cc1)[C@@H](C(F)(F)F)O2
REMARK SMILES IDX 18 1 17 2 16 3 14 4 15 5 13 7 5 8 6 9 10 10 7 11 9 12 11 13
REMARK SMILES IDX 8 14 82 15 12 16 77 17 4 18 2 19 1 20 3 21 78 22 79 23 80 24
REMARK SMILES IDX 81 25 19 26 20 27 21 28 22 30 23 31 24 32 76 33 25 34 75 35
REMARK SMILES IDX 26 36 27 37 28 38 69 39 29 40 74 41 68 42 70 43 30 44 73 45
REMARK SMILES IDX 67 46 66 47 31 49 57 50 40 51 56 52 41 53 44 54 55 55 71 56
REMARK SMILES IDX 42 57 43 58 54 60 72 61 45 62 32 63 33 64 38 65 34 66 35 67
REMARK SMILES IDX 37 68 39 69 36 70 58 71 59 72 64 73 60 74 61 75 63 76 65 77
REMARK SMILES IDX 62 78 46 79 47 80 52 81 48 82 49 83 51 84 53 85 50 86
REMARK H PARENT 16 6 20 29 70 48 44 59
REMARK Flexibility Score: inf
ROOT
ATOM      1  C   UNL A   1      31.064  31.512  25.785  1.00  0.00     0.042 C 
ENDROOT
BRANCH   1   2
ATOM      2  C   UNL A   1      31.198  30.110  25.210  1.00  0.00     0.118 C 
BRANCH   2   3
ATOM      3  N   UNL A   1      30.646  30.014  23.869  1.00  0.00    -0.352 N 
ATOM      4  C   UNL A   1      30.443  29.041  22.950  1.00  0.00     0.251 C 
ATOM      5  O   UNL A   1      29.916  29.411  21.897  1.00  0.00    -0.270 OA
ATOM      6  H   UNL A   1      30.339  30.890  23.541  1.00  0.00     0.163 HD
BRANCH   4   7
ATOM      7  C   UNL A   1      30.810  27.607  23.128  1.00  0.00     0.067 C 
ATOM      8  C   UNL A   1      31.364  22.868  24.739  1.00  0.00    -0.025 A 
ATOM      9  C   UNL A   1      31.580  23.530  23.521  1.00  0.00     0.052 A 
ATOM     10  C   UNL A   1      30.663  23.560  25.745  1.00  0.00     0.045 A 
ATOM     11  C   UNL A   1      31.225  24.864  23.364  1.00  0.00     0.128 A 
ATOM     12  C   UNL A   1      30.265  24.894  25.562  1.00  0.00     0.032 A 
ATOM     13  Cl  UNL A   1      30.249  22.822  27.252  1.00  0.00    -0.084 Cl
ATOM     14  C   UNL A   1      30.572  25.561  24.377  1.00  0.00     0.019 A 
ATOM     15  O   UNL A   1      31.550  25.446  22.170  1.00  0.00    -0.475 OA
ATOM     16  C   UNL A   1      30.221  26.961  24.152  1.00  0.00     0.025 C 
ATOM     17  C   UNL A   1      31.791  26.877  22.254  1.00  0.00     0.314 C 
BRANCH   8  18
ATOM     18  C   UNL A   1      31.877  21.450  24.904  1.00  0.00     0.040 C 
BRANCH  18  19
ATOM     19  C   UNL A   1      33.388  21.331  25.226  1.00  0.00    -0.013 C 
ATOM     20  C   UNL A   1      33.663  21.382  26.732  1.00  0.00     0.008 C 
ATOM     21  C   UNL A   1      33.951  20.035  24.640  1.00  0.00     0.008 C 
ENDBRANCH  18  19
ENDBRANCH   8  18
BRANCH  17  22
ATOM     22  C   UNL A   1      33.259  27.143  22.653  1.00  0.00     0.429 C 
ATOM     23  F   UNL A   1      34.062  26.158  22.177  1.00  0.00    -0.167 F 
ATOM     24  F   UNL A   1      33.732  28.305  22.139  1.00  0.00    -0.167 F 
ATOM     25  F   UNL A   1      33.445  27.207  23.989  1.00  0.00    -0.167 F 
ENDBRANCH  17  22
ENDBRANCH   4   7
ENDBRANCH   2   3
ENDBRANCH   1   2
BRANCH   1  26
ATOM     26  C   UNL A   1      32.087  31.789  26.876  1.00  0.00     0.118 C 
BRANCH  26  27
ATOM     27  N   UNL A   1      32.134  33.203  27.245  1.00  0.00    -0.352 N 
ATOM     28  C   UNL A   1      33.020  33.887  28.043  1.00  0.00     0.251 C 
ATOM     29  H   UNL A   1      31.416  33.754  26.860  1.00  0.00     0.163 HD
ATOM     30  O   UNL A   1      32.765  35.036  28.393  1.00  0.00    -0.269 OA
BRANCH  28  31
ATOM     31  C   UNL A   1      34.264  33.234  28.493  1.00  0.00     0.039 A 
ATOM     32  C   UNL A   1      34.242  31.915  28.944  1.00  0.00     0.014 A 
ATOM     33  C   UNL A   1      35.466  33.948  28.472  1.00  0.00     0.014 A 
ATOM     34  C   UNL A   1      35.360  31.387  29.568  1.00  0.00     0.010 A 
ATOM     35  C   UNL A   1      36.625  33.366  28.990  1.00  0.00     0.010 A 
ATOM     36  C   UNL A   1      36.569  32.101  29.594  1.00  0.00    -0.014 A 
BRANCH  36  37
ATOM     37  C   UNL A   1      37.744  31.486  30.260  1.00  0.00     0.031 A 
ATOM     38  C   UNL A   1      38.035  31.746  31.714  1.00  0.00     0.074 A 
ATOM     39  C   UNL A   1      38.505  30.621  29.562  1.00  0.00     0.049 A 
ATOM     40  N   UNL A   1      38.985  31.248  32.465  1.00  0.00    -0.248 NA
ATOM     41  C   UNL A   1      37.155  32.694  32.414  1.00  0.00     0.031 C 
ATOM     42  C   UNL A   1      38.322  30.293  28.145  1.00  0.00     0.029 A 
ATOM     43  N   UNL A   1      39.555  29.833  29.950  1.00  0.00    -0.354 N 
ATOM     44  C   UNL A   1      38.836  31.841  33.712  1.00  0.00     0.074 A 
ATOM     45  C   UNL A   1      37.720  32.758  33.610  1.00  0.00     0.031 C 
ATOM     46  C   UNL A   1      39.179  29.322  27.804  1.00  0.00     0.029 A 
ATOM     47  C   UNL A   1      40.021  29.012  28.952  1.00  0.00     0.049 A 
ATOM     48  H   UNL A   1      39.940  29.853  30.857  1.00  0.00     0.167 HD
ATOM     49  C   UNL A   1      39.557  31.636  34.840  1.00  0.00     0.037 A 
ATOM     50  C   UNL A   1      41.024  28.117  28.955  1.00  0.00     0.037 A 
ATOM     51  C   UNL A   1      40.650  30.702  34.943  1.00  0.00     0.049 A 
ATOM     52  C   UNL A   1      41.815  27.919  30.214  1.00  0.00     0.074 A 
ATOM     53  C   UNL A   1      41.424  30.395  36.048  1.00  0.00     0.029 A 
ATOM     54  N   UNL A   1      41.124  29.924  33.896  1.00  0.00    -0.354 N 
ATOM     55  N   UNL A   1      41.650  28.476  31.389  1.00  0.00    -0.248 NA
ATOM     56  C   UNL A   1      42.937  26.974  30.144  1.00  0.00     0.031 C 
ATOM     57  C   UNL A   1      42.393  29.462  35.660  1.00  0.00     0.029 A 
ATOM     58  C   UNL A   1      42.194  29.154  34.323  1.00  0.00     0.049 A 
ATOM     59  H   UNL A   1      40.754  29.921  32.983  1.00  0.00     0.167 HD
ATOM     60  C   UNL A   1      42.645  27.950  32.200  1.00  0.00     0.074 A 
ATOM     61  C   UNL A   1      43.386  27.004  31.390  1.00  0.00     0.031 C 
ATOM     62  C   UNL A   1      42.926  28.230  33.496  1.00  0.00     0.037 A 
BRANCH  49  63
ATOM     63  C   UNL A   1      39.201  32.458  36.046  1.00  0.00     0.057 A 
ATOM     64  C   UNL A   1      38.325  31.954  37.017  1.00  0.00     0.134 A 
ATOM     65  C   UNL A   1      39.712  33.747  36.247  1.00  0.00     0.134 A 
ATOM     66  F   UNL A   1      37.794  30.729  36.884  1.00  0.00    -0.206 F 
ATOM     67  C   UNL A   1      37.975  32.700  38.144  1.00  0.00     0.040 A 
ATOM     68  C   UNL A   1      39.390  34.492  37.383  1.00  0.00     0.040 A 
ATOM     69  F   UNL A   1      40.569  34.283  35.365  1.00  0.00    -0.206 F 
ATOM     70  C   UNL A   1      38.515  33.969  38.334  1.00  0.00     0.006 A 
ENDBRANCH  49  63
BRANCH  50  71
ATOM     71  C   UNL A   1      41.346  27.363  27.719  1.00  0.00     0.057 A 
ATOM     72  C   UNL A   1      40.808  26.091  27.484  1.00  0.00     0.134 A 
ATOM     73  C   UNL A   1      42.204  27.890  26.748  1.00  0.00     0.134 A 
ATOM     74  F   UNL A   1      39.986  25.527  28.381  1.00  0.00    -0.206 F 
ATOM     75  C   UNL A   1      41.123  25.364  26.336  1.00  0.00     0.040 A 
ATOM     76  C   UNL A   1      42.506  27.187  25.582  1.00  0.00     0.040 A 
ATOM     77  F   UNL A   1      42.737  29.110  26.910  1.00  0.00    -0.206 F 
ATOM     78  C   UNL A   1      41.969  25.916  25.376  1.00  0.00     0.006 A 
ENDBRANCH  50  71
BRANCH  62  79
ATOM     79  C   UNL A   1      44.080  27.490  34.106  1.00  0.00     0.057 A 
ATOM     80  C   UNL A   1      43.889  26.239  34.706  1.00  0.00     0.134 A 
ATOM     81  C   UNL A   1      45.378  28.013  34.095  1.00  0.00     0.134 A 
ATOM     82  F   UNL A   1      42.669  25.684  34.754  1.00  0.00    -0.206 F 
ATOM     83  C   UNL A   1      44.952  25.532  35.268  1.00  0.00     0.040 A 
ATOM     84  C   UNL A   1      46.454  27.305  34.631  1.00  0.00     0.040 A 
ATOM     85  F   UNL A   1      45.628  29.199  33.519  1.00  0.00    -0.206 F 
ATOM     86  C   UNL A   1      46.241  26.061  35.224  1.00  0.00     0.006 A 
ENDBRANCH  62  79
ENDBRANCH  36  37
ENDBRANCH  28  31
ENDBRANCH  26  27
ENDBRANCH   1  26
TORSDOF 13
ENDMDL
