MODEL 1
REMARK VINA RESULT:     -11.0      0.000      0.000
REMARK SMILES Cc1cscc1CNC(=O)CC(C)(C)C(=O)NCCCNC(=O)c1ccc(-c2c3nc(c(-c4c(F)cccc4F)c4ccc([nH]4)c(-c4c(F)cccc4F)c4nc(c(-c5c(F)cccc5F)c5ccc2[nH]5)C=C4)C=C3)cc1
REMARK SMILES IDX 18 1 17 2 15 3 16 4 12 6 13 7 14 8 11 9 9 10 8 11 10 13 7 14
REMARK SMILES IDX 6 15 1 16 2 17 3 18 4 19 5 20 19 21 20 22 21 23 22 24 23 26
REMARK SMILES IDX 24 27 25 28 77 29 26 30 76 31 27 32 28 33 29 34 70 35 30 36
REMARK SMILES IDX 75 37 69 38 71 39 31 40 74 41 68 42 67 43 32 45 58 46 41 47
REMARK SMILES IDX 57 48 42 49 45 50 56 51 72 52 43 53 44 54 55 56 73 57 46 58
REMARK SMILES IDX 33 59 34 60 39 61 35 62 36 63 38 64 40 65 37 66 59 67 60 68
REMARK SMILES IDX 65 69 61 70 62 71 64 72 66 73 63 74 47 75 48 76 53 77 49 78
REMARK SMILES IDX 50 79 52 80 54 81 51 82
REMARK H PARENT 17 5 8 12 21 25 71 44 45 55
REMARK Flexibility Score: inf
ROOT
ATOM      1  C   UNL A   1      36.445  20.389  25.001  1.00  0.00     0.117 C 
ENDROOT
BRANCH   1   2
ATOM      2  N   UNL A   1      36.638  21.622  25.737  1.00  0.00    -0.356 N 
ATOM      3  C   UNL A   1      35.999  22.815  25.753  1.00  0.00     0.226 C 
ATOM      4  O   UNL A   1      36.558  23.677  26.436  1.00  0.00    -0.274 OA
ATOM      5  H   UNL A   1      37.398  21.582  26.362  1.00  0.00     0.163 HD
BRANCH   3   6
ATOM      6  C   UNL A   1      34.755  23.147  24.904  1.00  0.00     0.052 C 
ATOM      7  C   UNL A   1      34.702  22.462  23.529  1.00  0.00     0.022 C 
ATOM      8  C   UNL A   1      34.778  24.671  24.657  1.00  0.00     0.022 C 
BRANCH   6   9
ATOM      9  C   UNL A   1      33.452  22.797  25.697  1.00  0.00     0.116 C 
BRANCH   9  10
ATOM     10  C   UNL A   1      33.449  21.600  26.646  1.00  0.00     0.221 C 
ATOM     11  N   UNL A   1      33.123  20.347  26.242  1.00  0.00    -0.352 N 
ATOM     12  H   UNL A   1      33.344  19.644  26.896  1.00  0.00     0.163 HD
ATOM     13  O   UNL A   1      33.675  21.752  27.850  1.00  0.00    -0.275 OA
BRANCH  11  14
ATOM     14  C   UNL A   1      32.513  19.856  25.032  1.00  0.00     0.152 C 
BRANCH  14  15
ATOM     15  C   UNL A   1      32.885  18.418  24.782  1.00  0.00    -0.015 A 
ATOM     16  C   UNL A   1      32.527  18.488  22.193  1.00  0.00     0.045 C 
ATOM     17  C   UNL A   1      32.912  17.805  23.466  1.00  0.00    -0.035 A 
ATOM     18  C   UNL A   1      33.350  16.494  23.527  1.00  0.00     0.068 A 
ATOM     19  S   UNL A   1      33.704  15.983  25.112  1.00  0.00    -0.152 S 
ATOM     20  C   UNL A   1      33.269  17.502  25.750  1.00  0.00     0.070 A 
ENDBRANCH  14  15
ENDBRANCH  11  14
ENDBRANCH   9  10
ENDBRANCH   6   9
ENDBRANCH   3   6
ENDBRANCH   1   2
BRANCH   1  21
ATOM     21  C   UNL A   1      37.729  19.578  24.903  1.00  0.00     0.042 C 
BRANCH  21  22
ATOM     22  C   UNL A   1      38.872  20.123  25.750  1.00  0.00     0.118 C 
BRANCH  22  23
ATOM     23  N   UNL A   1      40.024  19.232  25.780  1.00  0.00    -0.352 N 
ATOM     24  C   UNL A   1      41.353  19.492  25.988  1.00  0.00     0.251 C 
ATOM     25  H   UNL A   1      39.813  18.283  25.624  1.00  0.00     0.163 HD
ATOM     26  O   UNL A   1      42.185  18.613  25.751  1.00  0.00    -0.269 OA
BRANCH  24  27
ATOM     27  C   UNL A   1      41.807  20.813  26.472  1.00  0.00     0.039 A 
ATOM     28  C   UNL A   1      42.184  21.781  25.536  1.00  0.00     0.014 A 
ATOM     29  C   UNL A   1      41.902  21.096  27.836  1.00  0.00     0.014 A 
ATOM     30  C   UNL A   1      42.586  23.046  25.969  1.00  0.00     0.010 A 
ATOM     31  C   UNL A   1      42.199  22.387  28.262  1.00  0.00     0.010 A 
ATOM     32  C   UNL A   1      42.557  23.374  27.334  1.00  0.00    -0.014 A 
BRANCH  32  33
ATOM     33  C   UNL A   1      42.903  24.742  27.801  1.00  0.00     0.031 A 
ATOM     34  C   UNL A   1      44.341  25.150  27.968  1.00  0.00     0.074 A 
ATOM     35  C   UNL A   1      41.915  25.601  28.120  1.00  0.00     0.049 A 
ATOM     36  N   UNL A   1      44.833  26.292  28.381  1.00  0.00    -0.248 NA
ATOM     37  C   UNL A   1      45.363  24.136  27.661  1.00  0.00     0.031 C 
ATOM     38  C   UNL A   1      40.482  25.304  28.062  1.00  0.00     0.029 A 
ATOM     39  N   UNL A   1      41.966  26.902  28.556  1.00  0.00    -0.354 N 
ATOM     40  C   UNL A   1      46.213  26.127  28.393  1.00  0.00     0.074 A 
ATOM     41  C   UNL A   1      46.478  24.759  28.010  1.00  0.00     0.031 C 
ATOM     42  C   UNL A   1      39.790  26.401  28.410  1.00  0.00     0.029 A 
ATOM     43  C   UNL A   1      40.728  27.465  28.752  1.00  0.00     0.049 A 
ATOM     44  H   UNL A   1      42.809  27.385  28.714  1.00  0.00     0.167 HD
ATOM     45  C   UNL A   1      47.174  27.042  28.669  1.00  0.00     0.037 A 
ATOM     46  C   UNL A   1      40.387  28.702  29.159  1.00  0.00     0.037 A 
ATOM     47  C   UNL A   1      46.907  28.410  29.028  1.00  0.00     0.049 A 
ATOM     48  C   UNL A   1      41.472  29.699  29.454  1.00  0.00     0.074 A 
ATOM     49  C   UNL A   1      47.809  29.431  29.267  1.00  0.00     0.029 A 
ATOM     50  N   UNL A   1      45.639  28.946  29.202  1.00  0.00    -0.354 N 
ATOM     51  N   UNL A   1      42.773  29.553  29.382  1.00  0.00    -0.248 NA
ATOM     52  C   UNL A   1      41.040  31.039  29.875  1.00  0.00     0.031 C 
ATOM     53  C   UNL A   1      47.089  30.574  29.633  1.00  0.00     0.029 A 
ATOM     54  C   UNL A   1      45.737  30.279  29.568  1.00  0.00     0.049 A 
ATOM     55  H   UNL A   1      44.796  28.454  29.083  1.00  0.00     0.167 HD
ATOM     56  C   UNL A   1      43.314  30.784  29.725  1.00  0.00     0.074 A 
ATOM     57  C   UNL A   1      42.199  31.673  29.982  1.00  0.00     0.031 C 
ATOM     58  C   UNL A   1      44.617  31.149  29.821  1.00  0.00     0.037 A 
BRANCH  45  59
ATOM     59  C   UNL A   1      48.605  26.590  28.586  1.00  0.00     0.057 A 
ATOM     60  C   UNL A   1      49.258  26.000  29.676  1.00  0.00     0.134 A 
ATOM     61  C   UNL A   1      49.329  26.719  27.395  1.00  0.00     0.134 A 
ATOM     62  F   UNL A   1      48.628  25.857  30.852  1.00  0.00    -0.206 F 
ATOM     63  C   UNL A   1      50.587  25.579  29.593  1.00  0.00     0.040 A 
ATOM     64  C   UNL A   1      50.648  26.275  27.289  1.00  0.00     0.040 A 
ATOM     65  F   UNL A   1      48.764  27.270  26.309  1.00  0.00    -0.206 F 
ATOM     66  C   UNL A   1      51.284  25.709  28.394  1.00  0.00     0.006 A 
ENDBRANCH  45  59
BRANCH  46  67
ATOM     67  C   UNL A   1      38.955  29.077  29.282  1.00  0.00     0.057 A 
ATOM     68  C   UNL A   1      38.238  29.562  28.182  1.00  0.00     0.134 A 
ATOM     69  C   UNL A   1      38.272  28.971  30.500  1.00  0.00     0.134 A 
ATOM     70  F   UNL A   1      38.841  29.703  26.992  1.00  0.00    -0.206 F 
ATOM     71  C   UNL A   1      36.901  29.948  28.292  1.00  0.00     0.040 A 
ATOM     72  C   UNL A   1      36.928  29.328  30.618  1.00  0.00     0.040 A 
ATOM     73  F   UNL A   1      38.900  28.503  31.590  1.00  0.00    -0.206 F 
ATOM     74  C   UNL A   1      36.241  29.827  29.513  1.00  0.00     0.006 A 
ENDBRANCH  46  67
BRANCH  58  75
ATOM     75  C   UNL A   1      44.900  32.576  30.191  1.00  0.00     0.057 A 
ATOM     76  C   UNL A   1      45.095  32.972  31.522  1.00  0.00     0.134 A 
ATOM     77  C   UNL A   1      44.998  33.563  29.203  1.00  0.00     0.134 A 
ATOM     78  F   UNL A   1      45.002  32.078  32.518  1.00  0.00    -0.206 F 
ATOM     79  C   UNL A   1      45.344  34.303  31.856  1.00  0.00     0.040 A 
ATOM     80  C   UNL A   1      45.278  34.892  29.523  1.00  0.00     0.040 A 
ATOM     81  F   UNL A   1      44.833  33.251  27.908  1.00  0.00    -0.206 F 
ATOM     82  C   UNL A   1      45.442  35.267  30.855  1.00  0.00     0.006 A 
ENDBRANCH  58  75
ENDBRANCH  32  33
ENDBRANCH  24  27
ENDBRANCH  22  23
ENDBRANCH  21  22
ENDBRANCH   1  21
TORSDOF 14
ENDMDL
MODEL 2
REMARK VINA RESULT:     -10.9      2.055      7.148
REMARK SMILES Cc1cscc1CNC(=O)CC(C)(C)C(=O)NCCCNC(=O)c1ccc(-c2c3nc(c(-c4c(F)cccc4F)c4ccc([nH]4)c(-c4c(F)cccc4F)c4nc(c(-c5c(F)cccc5F)c5ccc2[nH]5)C=C4)C=C3)cc1
REMARK SMILES IDX 18 1 17 2 15 3 16 4 12 6 13 7 14 8 11 9 9 10 8 11 10 13 7 14
REMARK SMILES IDX 6 15 1 16 2 17 3 18 4 19 5 20 19 21 20 22 21 23 22 24 23 26
REMARK SMILES IDX 24 27 25 28 77 29 26 30 76 31 27 32 28 33 29 34 70 35 30 36
REMARK SMILES IDX 75 37 69 38 71 39 31 40 74 41 68 42 67 43 32 45 58 46 41 47
REMARK SMILES IDX 57 48 42 49 45 50 56 51 72 52 43 53 44 54 55 56 73 57 46 58
REMARK SMILES IDX 33 59 34 60 39 61 35 62 36 63 38 64 40 65 37 66 59 67 60 68
REMARK SMILES IDX 65 69 61 70 62 71 64 72 66 73 63 74 47 75 48 76 53 77 49 78
REMARK SMILES IDX 50 79 52 80 54 81 51 82
REMARK H PARENT 17 5 8 12 21 25 71 44 45 55
REMARK Flexibility Score: inf
ROOT
ATOM      1  C   UNL A   1      36.499  20.798  24.773  1.00  0.00     0.117 C 
ENDROOT
BRANCH   1   2
ATOM      2  N   UNL A   1      35.255  20.314  25.335  1.00  0.00    -0.356 N 
ATOM      3  C   UNL A   1      34.042  20.874  25.551  1.00  0.00     0.226 C 
ATOM      4  O   UNL A   1      33.262  20.159  26.185  1.00  0.00    -0.274 OA
ATOM      5  H   UNL A   1      35.301  19.372  25.621  1.00  0.00     0.163 HD
BRANCH   3   6
ATOM      6  C   UNL A   1      33.673  22.322  25.169  1.00  0.00     0.052 C 
ATOM      7  C   UNL A   1      33.905  22.687  23.694  1.00  0.00     0.022 C 
ATOM      8  C   UNL A   1      34.570  23.249  26.019  1.00  0.00     0.022 C 
BRANCH   6   9
ATOM      9  C   UNL A   1      32.179  22.614  25.536  1.00  0.00     0.116 C 
BRANCH   9  10
ATOM     10  C   UNL A   1      31.854  23.327  26.846  1.00  0.00     0.221 C 
ATOM     11  N   UNL A   1      31.337  24.581  26.889  1.00  0.00    -0.352 N 
ATOM     12  H   UNL A   1      30.999  24.846  27.775  1.00  0.00     0.163 HD
ATOM     13  O   UNL A   1      32.127  22.805  27.931  1.00  0.00    -0.275 OA
BRANCH  11  14
ATOM     14  C   UNL A   1      31.192  25.595  25.875  1.00  0.00     0.152 C 
BRANCH  14  15
ATOM     15  C   UNL A   1      32.045  26.797  26.184  1.00  0.00    -0.015 A 
ATOM     16  C   UNL A   1      33.827  26.356  24.323  1.00  0.00     0.045 C 
ATOM     17  C   UNL A   1      33.244  27.151  25.447  1.00  0.00    -0.035 A 
ATOM     18  C   UNL A   1      33.791  28.336  25.906  1.00  0.00     0.068 A 
ATOM     19  S   UNL A   1      32.919  29.012  27.204  1.00  0.00    -0.152 S 
ATOM     20  C   UNL A   1      31.798  27.728  27.183  1.00  0.00     0.070 A 
ENDBRANCH  14  15
ENDBRANCH  11  14
ENDBRANCH   9  10
ENDBRANCH   6   9
ENDBRANCH   3   6
ENDBRANCH   1   2
BRANCH   1  21
ATOM     21  C   UNL A   1      37.634  19.800  24.960  1.00  0.00     0.042 C 
BRANCH  21  22
ATOM     22  C   UNL A   1      38.829  20.357  25.722  1.00  0.00     0.118 C 
BRANCH  22  23
ATOM     23  N   UNL A   1      39.937  19.414  25.798  1.00  0.00    -0.352 N 
ATOM     24  C   UNL A   1      41.263  19.610  26.079  1.00  0.00     0.251 C 
ATOM     25  H   UNL A   1      39.691  18.478  25.618  1.00  0.00     0.163 HD
ATOM     26  O   UNL A   1      42.065  18.696  25.872  1.00  0.00    -0.269 OA
BRANCH  24  27
ATOM     27  C   UNL A   1      41.751  20.902  26.604  1.00  0.00     0.039 A 
ATOM     28  C   UNL A   1      42.215  21.865  25.703  1.00  0.00     0.014 A 
ATOM     29  C   UNL A   1      41.792  21.162  27.976  1.00  0.00     0.014 A 
ATOM     30  C   UNL A   1      42.651  23.105  26.174  1.00  0.00     0.010 A 
ATOM     31  C   UNL A   1      42.124  22.433  28.436  1.00  0.00     0.010 A 
ATOM     32  C   UNL A   1      42.570  23.415  27.541  1.00  0.00    -0.014 A 
BRANCH  32  33
ATOM     33  C   UNL A   1      42.953  24.759  28.045  1.00  0.00     0.031 A 
ATOM     34  C   UNL A   1      41.905  25.812  28.285  1.00  0.00     0.074 A 
ATOM     35  C   UNL A   1      44.255  25.046  28.242  1.00  0.00     0.049 A 
ATOM     36  N   UNL A   1      42.052  27.044  28.705  1.00  0.00    -0.248 NA
ATOM     37  C   UNL A   1      40.511  25.446  27.987  1.00  0.00     0.031 C 
ATOM     38  C   UNL A   1      45.371  24.133  27.985  1.00  0.00     0.029 A 
ATOM     39  N   UNL A   1      44.861  26.188  28.705  1.00  0.00    -0.354 N 
ATOM     40  C   UNL A   1      40.777  27.597  28.710  1.00  0.00     0.074 A 
ATOM     41  C   UNL A   1      39.879  26.592  28.189  1.00  0.00     0.031 C 
ATOM     42  C   UNL A   1      46.521  24.735  28.329  1.00  0.00     0.029 A 
ATOM     43  C   UNL A   1      46.229  26.087  28.796  1.00  0.00     0.049 A 
ATOM     44  H   UNL A   1      44.363  27.001  28.949  1.00  0.00     0.167 HD
ATOM     45  C   UNL A   1      40.386  28.822  29.136  1.00  0.00     0.037 A 
ATOM     46  C   UNL A   1      47.144  26.983  29.209  1.00  0.00     0.037 A 
ATOM     47  C   UNL A   1      41.280  29.813  29.675  1.00  0.00     0.049 A 
ATOM     48  C   UNL A   1      46.682  28.333  29.682  1.00  0.00     0.074 A 
ATOM     49  C   UNL A   1      40.976  31.060  30.191  1.00  0.00     0.029 A 
ATOM     50  N   UNL A   1      42.657  29.668  29.763  1.00  0.00    -0.354 N 
ATOM     51  N   UNL A   1      45.465  28.813  29.757  1.00  0.00    -0.248 NA
ATOM     52  C   UNL A   1      47.724  29.262  30.141  1.00  0.00     0.031 C 
ATOM     53  C   UNL A   1      42.173  31.689  30.548  1.00  0.00     0.029 A 
ATOM     54  C   UNL A   1      43.219  30.813  30.305  1.00  0.00     0.049 A 
ATOM     55  H   UNL A   1      43.160  28.870  29.483  1.00  0.00     0.167 HD
ATOM     56  C   UNL A   1      45.590  30.088  30.291  1.00  0.00     0.074 A 
ATOM     57  C   UNL A   1      47.001  30.297  30.544  1.00  0.00     0.031 C 
ATOM     58  C   UNL A   1      44.625  31.005  30.549  1.00  0.00     0.037 A 
BRANCH  45  59
ATOM     59  C   UNL A   1      38.923  29.154  29.042  1.00  0.00     0.057 A 
ATOM     60  C   UNL A   1      38.330  29.549  27.835  1.00  0.00     0.134 A 
ATOM     61  C   UNL A   1      38.091  29.048  30.164  1.00  0.00     0.134 A 
ATOM     62  F   UNL A   1      39.071  29.682  26.725  1.00  0.00    -0.206 F 
ATOM     63  C   UNL A   1      36.969  29.852  27.753  1.00  0.00     0.040 A 
ATOM     64  C   UNL A   1      36.724  29.321  30.088  1.00  0.00     0.040 A 
ATOM     65  F   UNL A   1      38.590  28.671  31.350  1.00  0.00    -0.206 F 
ATOM     66  C   UNL A   1      36.161  29.731  28.880  1.00  0.00     0.006 A 
ENDBRANCH  45  59
BRANCH  46  67
ATOM     67  C   UNL A   1      48.585  26.623  29.225  1.00  0.00     0.057 A 
ATOM     68  C   UNL A   1      49.151  25.956  30.317  1.00  0.00     0.134 A 
ATOM     69  C   UNL A   1      49.431  26.943  28.156  1.00  0.00     0.134 A 
ATOM     70  F   UNL A   1      48.396  25.638  31.379  1.00  0.00    -0.206 F 
ATOM     71  C   UNL A   1      50.510  25.641  30.358  1.00  0.00     0.040 A 
ATOM     72  C   UNL A   1      50.786  26.610  28.171  1.00  0.00     0.040 A 
ATOM     73  F   UNL A   1      48.948  27.572  27.074  1.00  0.00    -0.206 F 
ATOM     74  C   UNL A   1      51.331  25.965  29.280  1.00  0.00     0.006 A 
ENDBRANCH  46  67
BRANCH  58  75
ATOM     75  C   UNL A   1      45.065  32.304  31.161  1.00  0.00     0.057 A 
ATOM     76  C   UNL A   1      45.136  32.483  32.549  1.00  0.00     0.134 A 
ATOM     77  C   UNL A   1      45.439  33.383  30.350  1.00  0.00     0.134 A 
ATOM     78  F   UNL A   1      44.779  31.493  33.381  1.00  0.00    -0.206 F 
ATOM     79  C   UNL A   1      45.532  33.699  33.107  1.00  0.00     0.040 A 
ATOM     80  C   UNL A   1      45.866  34.593  30.897  1.00  0.00     0.040 A 
ATOM     81  F   UNL A   1      45.404  33.276  29.013  1.00  0.00    -0.206 F 
ATOM     82  C   UNL A   1      45.904  34.757  32.281  1.00  0.00     0.006 A 
ENDBRANCH  58  75
ENDBRANCH  32  33
ENDBRANCH  24  27
ENDBRANCH  22  23
ENDBRANCH  21  22
ENDBRANCH   1  21
TORSDOF 14
ENDMDL
MODEL 3
REMARK VINA RESULT:     -10.9      2.045      7.000
REMARK SMILES Cc1cscc1CNC(=O)CC(C)(C)C(=O)NCCCNC(=O)c1ccc(-c2c3nc(c(-c4c(F)cccc4F)c4ccc([nH]4)c(-c4c(F)cccc4F)c4nc(c(-c5c(F)cccc5F)c5ccc2[nH]5)C=C4)C=C3)cc1
REMARK SMILES IDX 18 1 17 2 15 3 16 4 12 6 13 7 14 8 11 9 9 10 8 11 10 13 7 14
REMARK SMILES IDX 6 15 1 16 2 17 3 18 4 19 5 20 19 21 20 22 21 23 22 24 23 26
REMARK SMILES IDX 24 27 25 28 77 29 26 30 76 31 27 32 28 33 29 34 70 35 30 36
REMARK SMILES IDX 75 37 69 38 71 39 31 40 74 41 68 42 67 43 32 45 58 46 41 47
REMARK SMILES IDX 57 48 42 49 45 50 56 51 72 52 43 53 44 54 55 56 73 57 46 58
REMARK SMILES IDX 33 59 34 60 39 61 35 62 36 63 38 64 40 65 37 66 59 67 60 68
REMARK SMILES IDX 65 69 61 70 62 71 64 72 66 73 63 74 47 75 48 76 53 77 49 78
REMARK SMILES IDX 50 79 52 80 54 81 51 82
REMARK H PARENT 17 5 8 12 21 25 71 44 45 55
REMARK Flexibility Score: inf
ROOT
ATOM      1  C   UNL A   1      36.543  20.527  24.977  1.00  0.00     0.117 C 
ENDROOT
BRANCH   1   2
ATOM      2  N   UNL A   1      35.282  19.815  25.001  1.00  0.00    -0.356 N 
ATOM      3  C   UNL A   1      33.987  20.201  25.074  1.00  0.00     0.226 C 
ATOM      4  O   UNL A   1      33.189  19.269  25.204  1.00  0.00    -0.274 OA
ATOM      5  H   UNL A   1      35.391  18.837  24.953  1.00  0.00     0.163 HD
BRANCH   3   6
ATOM      6  C   UNL A   1      33.520  21.670  25.124  1.00  0.00     0.052 C 
ATOM      7  C   UNL A   1      34.122  22.508  26.263  1.00  0.00     0.022 C 
ATOM      8  C   UNL A   1      31.990  21.644  25.331  1.00  0.00     0.022 C 
BRANCH   6   9
ATOM      9  C   UNL A   1      33.817  22.378  23.759  1.00  0.00     0.116 C 
BRANCH   9  10
ATOM     10  C   UNL A   1      32.727  22.439  22.692  1.00  0.00     0.221 C 
ATOM     11  N   UNL A   1      32.279  23.607  22.168  1.00  0.00    -0.352 N 
ATOM     12  H   UNL A   1      31.721  23.499  21.364  1.00  0.00     0.163 HD
ATOM     13  O   UNL A   1      32.154  21.411  22.319  1.00  0.00    -0.275 OA
BRANCH  11  14
ATOM     14  C   UNL A   1      32.471  24.978  22.573  1.00  0.00     0.152 C 
BRANCH  14  15
ATOM     15  C   UNL A   1      31.809  25.250  23.897  1.00  0.00    -0.015 A 
ATOM     16  C   UNL A   1      33.988  25.958  25.154  1.00  0.00     0.045 C 
ATOM     17  C   UNL A   1      32.514  25.724  25.074  1.00  0.00    -0.035 A 
ATOM     18  C   UNL A   1      31.647  25.948  26.129  1.00  0.00     0.068 A 
ATOM     19  S   UNL A   1      30.028  25.582  25.749  1.00  0.00    -0.152 S 
ATOM     20  C   UNL A   1      30.455  25.108  24.169  1.00  0.00     0.070 A 
ENDBRANCH  14  15
ENDBRANCH  11  14
ENDBRANCH   9  10
ENDBRANCH   6   9
ENDBRANCH   3   6
ENDBRANCH   1   2
BRANCH   1  21
ATOM     21  C   UNL A   1      37.733  19.578  25.001  1.00  0.00     0.042 C 
BRANCH  21  22
ATOM     22  C   UNL A   1      38.943  20.121  25.751  1.00  0.00     0.118 C 
BRANCH  22  23
ATOM     23  N   UNL A   1      40.011  19.138  25.881  1.00  0.00    -0.352 N 
ATOM     24  C   UNL A   1      41.358  19.298  26.067  1.00  0.00     0.251 C 
ATOM     25  H   UNL A   1      39.714  18.201  25.826  1.00  0.00     0.163 HD
ATOM     26  O   UNL A   1      42.106  18.328  25.928  1.00  0.00    -0.269 OA
BRANCH  24  27
ATOM     27  C   UNL A   1      41.932  20.616  26.409  1.00  0.00     0.039 A 
ATOM     28  C   UNL A   1      42.249  21.504  25.376  1.00  0.00     0.014 A 
ATOM     29  C   UNL A   1      42.196  20.974  27.734  1.00  0.00     0.014 A 
ATOM     30  C   UNL A   1      42.762  22.767  25.677  1.00  0.00     0.010 A 
ATOM     31  C   UNL A   1      42.605  22.269  28.038  1.00  0.00     0.010 A 
ATOM     32  C   UNL A   1      42.905  23.177  27.013  1.00  0.00    -0.014 A 
BRANCH  32  33
ATOM     33  C   UNL A   1      43.372  24.547  27.348  1.00  0.00     0.031 A 
ATOM     34  C   UNL A   1      42.394  25.598  27.798  1.00  0.00     0.074 A 
ATOM     35  C   UNL A   1      44.675  24.856  27.199  1.00  0.00     0.049 A 
ATOM     36  N   UNL A   1      42.614  26.850  28.115  1.00  0.00    -0.248 NA
ATOM     37  C   UNL A   1      40.977  25.203  27.874  1.00  0.00     0.031 C 
ATOM     38  C   UNL A   1      45.711  23.945  26.709  1.00  0.00     0.029 A 
ATOM     39  N   UNL A   1      45.351  26.025  27.447  1.00  0.00    -0.354 N 
ATOM     40  C   UNL A   1      41.368  27.388  28.415  1.00  0.00     0.074 A 
ATOM     41  C   UNL A   1      40.391  26.350  28.180  1.00  0.00     0.031 C 
ATOM     42  C   UNL A   1      46.897  24.576  26.729  1.00  0.00     0.029 A 
ATOM     43  C   UNL A   1      46.700  25.944  27.196  1.00  0.00     0.049 A 
ATOM     44  H   UNL A   1      44.912  26.844  27.773  1.00  0.00     0.167 HD
ATOM     45  C   UNL A   1      41.068  28.627  28.874  1.00  0.00     0.037 A 
ATOM     46  C   UNL A   1      47.669  26.868  27.328  1.00  0.00     0.037 A 
ATOM     47  C   UNL A   1      42.046  29.652  29.129  1.00  0.00     0.049 A 
ATOM     48  C   UNL A   1      47.311  28.234  27.845  1.00  0.00     0.074 A 
ATOM     49  C   UNL A   1      41.853  30.918  29.652  1.00  0.00     0.029 A 
ATOM     50  N   UNL A   1      43.404  29.527  28.875  1.00  0.00    -0.354 N 
ATOM     51  N   UNL A   1      46.140  28.703  28.202  1.00  0.00    -0.248 NA
ATOM     52  C   UNL A   1      48.413  29.195  27.988  1.00  0.00     0.031 C 
ATOM     53  C   UNL A   1      43.087  31.577  29.670  1.00  0.00     0.029 A 
ATOM     54  C   UNL A   1      44.058  30.702  29.210  1.00  0.00     0.049 A 
ATOM     55  H   UNL A   1      43.840  28.722  28.512  1.00  0.00     0.167 HD
ATOM     56  C   UNL A   1      46.366  30.003  28.633  1.00  0.00     0.074 A 
ATOM     57  C   UNL A   1      47.791  30.240  28.515  1.00  0.00     0.031 C 
ATOM     58  C   UNL A   1      45.476  30.921  29.085  1.00  0.00     0.037 A 
BRANCH  45  59
ATOM     59  C   UNL A   1      39.621  28.938  29.136  1.00  0.00     0.057 A 
ATOM     60  C   UNL A   1      39.051  28.787  30.407  1.00  0.00     0.134 A 
ATOM     61  C   UNL A   1      38.797  29.424  28.114  1.00  0.00     0.134 A 
ATOM     62  F   UNL A   1      39.781  28.315  31.429  1.00  0.00    -0.206 F 
ATOM     63  C   UNL A   1      37.707  29.082  30.646  1.00  0.00     0.040 A 
ATOM     64  C   UNL A   1      37.459  29.750  28.347  1.00  0.00     0.040 A 
ATOM     65  F   UNL A   1      39.278  29.599  26.874  1.00  0.00    -0.206 F 
ATOM     66  C   UNL A   1      36.909  29.572  29.616  1.00  0.00     0.006 A 
ENDBRANCH  45  59
BRANCH  46  67
ATOM     67  C   UNL A   1      49.076  26.525  26.997  1.00  0.00     0.057 A 
ATOM     68  C   UNL A   1      49.583  26.721  25.707  1.00  0.00     0.134 A 
ATOM     69  C   UNL A   1      49.943  25.987  27.956  1.00  0.00     0.134 A 
ATOM     70  F   UNL A   1      48.797  27.217  24.741  1.00  0.00    -0.206 F 
ATOM     71  C   UNL A   1      50.893  26.373  25.375  1.00  0.00     0.040 A 
ATOM     72  C   UNL A   1      51.264  25.659  27.645  1.00  0.00     0.040 A 
ATOM     73  F   UNL A   1      49.522  25.785  29.213  1.00  0.00    -0.206 F 
ATOM     74  C   UNL A   1      51.739  25.844  26.348  1.00  0.00     0.006 A 
ENDBRANCH  46  67
BRANCH  58  75
ATOM     75  C   UNL A   1      46.025  32.251  29.512  1.00  0.00     0.057 A 
ATOM     76  C   UNL A   1      46.126  33.331  28.624  1.00  0.00     0.134 A 
ATOM     77  C   UNL A   1      46.441  32.460  30.832  1.00  0.00     0.134 A 
ATOM     78  F   UNL A   1      45.757  33.193  27.342  1.00  0.00    -0.206 F 
ATOM     79  C   UNL A   1      46.651  34.559  29.027  1.00  0.00     0.040 A 
ATOM     80  C   UNL A   1      46.939  33.693  31.255  1.00  0.00     0.040 A 
ATOM     81  F   UNL A   1      46.363  31.473  31.737  1.00  0.00    -0.206 F 
ATOM     82  C   UNL A   1      47.054  34.745  30.347  1.00  0.00     0.006 A 
ENDBRANCH  58  75
ENDBRANCH  32  33
ENDBRANCH  24  27
ENDBRANCH  22  23
ENDBRANCH  21  22
ENDBRANCH   1  21
TORSDOF 14
ENDMDL
