MODEL 1
REMARK VINA RESULT:     -11.8      0.000      0.000
REMARK SMILES CCCc1cc(-n2ccc(C(=O)NCCCNC(=O)c3ccc(-c4c5nc(c(-c6c(F)cccc6F)c6ccc([nH]6)c(-c6c(F)cccc6F)c6nc(c(-c7c(F)cccc7F)c7ccc4[nH]7)C=C6)C=C5)cc3)n2)nc(C(C)C)n1
REMARK SMILES IDX 14 1 13 2 11 3 12 4 10 6 7 7 8 8 74 9 9 10 6 11 4 12 5 13
REMARK SMILES IDX 80 14 76 15 75 16 3 17 2 18 1 19 77 20 78 21 79 22 15 23
REMARK SMILES IDX 16 24 17 25 18 26 19 28 20 29 21 30 73 31 22 32 72 33 23 34
REMARK SMILES IDX 24 35 25 36 66 37 26 38 71 39 65 40 67 41 27 42 70 43 64 44
REMARK SMILES IDX 63 45 28 47 54 48 37 49 53 50 38 51 41 52 52 53 68 54 39 55
REMARK SMILES IDX 40 56 51 58 69 59 42 60 29 61 30 62 35 63 31 64 32 65 34 66
REMARK SMILES IDX 36 67 33 68 55 69 56 70 61 71 57 72 58 73 60 74 62 75 59 76
REMARK SMILES IDX 43 77 44 78 49 79 45 80 46 81 48 82 50 83 47 84
REMARK H PARENT 13 5 17 27 67 46 41 57
REMARK Flexibility Score: inf
ROOT
ATOM      1  C   UNL A   1      40.584  20.795  27.183  1.00  0.00     0.118 C 
ENDROOT
BRANCH   1   2
ATOM      2  N   UNL A   1      40.091  22.152  26.962  1.00  0.00    -0.351 N 
ATOM      3  C   UNL A   1      38.961  22.617  26.318  1.00  0.00     0.271 C 
ATOM      4  O   UNL A   1      38.795  23.837  26.271  1.00  0.00    -0.267 OA
ATOM      5  H   UNL A   1      40.664  22.858  27.338  1.00  0.00     0.163 HD
BRANCH   3   6
ATOM      6  C   UNL A   1      38.019  21.695  25.663  1.00  0.00     0.150 A 
ATOM      7  N   UNL A   1      36.165  20.773  25.116  1.00  0.00    -0.222 N 
ATOM      8  C   UNL A   1      37.135  19.883  24.719  1.00  0.00     0.118 A 
ATOM      9  N   UNL A   1      36.702  21.916  25.578  1.00  0.00    -0.161 NA
ATOM     10  C   UNL A   1      38.343  20.466  25.027  1.00  0.00     0.056 A 
BRANCH   7  11
ATOM     11  C   UNL A   1      34.759  20.582  25.190  1.00  0.00     0.157 A 
ATOM     12  C   UNL A   1      32.621  21.403  25.642  1.00  0.00     0.046 A 
ATOM     13  C   UNL A   1      33.984  21.587  25.732  1.00  0.00     0.073 A 
ATOM     14  N   UNL A   1      32.077  20.286  25.116  1.00  0.00    -0.238 NA
ATOM     15  C   UNL A   1      32.909  19.330  24.671  1.00  0.00     0.133 A 
ATOM     16  N   UNL A   1      34.241  19.457  24.642  1.00  0.00    -0.213 NA
BRANCH  12  17
ATOM     17  C   UNL A   1      31.671  22.480  26.100  1.00  0.00     0.056 C 
BRANCH  17  18
ATOM     18  C   UNL A   1      32.366  23.630  26.832  1.00  0.00     0.003 C 
ATOM     19  C   UNL A   1      32.137  24.980  26.166  1.00  0.00     0.004 C 
ENDBRANCH  17  18
ENDBRANCH  12  17
BRANCH  15  20
ATOM     20  C   UNL A   1      32.321  17.992  24.285  1.00  0.00     0.051 C 
ATOM     21  C   UNL A   1      32.941  17.507  22.972  1.00  0.00     0.016 C 
ATOM     22  C   UNL A   1      32.506  16.961  25.394  1.00  0.00     0.016 C 
ENDBRANCH  15  20
ENDBRANCH   7  11
ENDBRANCH   3   6
ENDBRANCH   1   2
BRANCH   1  23
ATOM     23  C   UNL A   1      41.563  20.323  26.101  1.00  0.00     0.042 C 
BRANCH  23  24
ATOM     24  C   UNL A   1      42.882  19.867  26.704  1.00  0.00     0.118 C 
BRANCH  24  25
ATOM     25  N   UNL A   1      43.957  19.746  25.708  1.00  0.00    -0.352 N 
ATOM     26  C   UNL A   1      44.571  20.735  24.957  1.00  0.00     0.251 C 
ATOM     27  H   UNL A   1      44.285  18.831  25.552  1.00  0.00     0.163 HD
ATOM     28  O   UNL A   1      45.232  20.462  23.970  1.00  0.00    -0.269 OA
BRANCH  26  29
ATOM     29  C   UNL A   1      44.412  22.135  25.385  1.00  0.00     0.039 A 
ATOM     30  C   UNL A   1      43.471  22.989  24.802  1.00  0.00     0.014 A 
ATOM     31  C   UNL A   1      45.212  22.571  26.433  1.00  0.00     0.014 A 
ATOM     32  C   UNL A   1      43.297  24.259  25.348  1.00  0.00     0.010 A 
ATOM     33  C   UNL A   1      44.880  23.711  27.105  1.00  0.00     0.010 A 
ATOM     34  C   UNL A   1      43.997  24.601  26.515  1.00  0.00    -0.014 A 
BRANCH  34  35
ATOM     35  C   UNL A   1      43.755  25.847  27.227  1.00  0.00     0.031 A 
ATOM     36  C   UNL A   1      44.712  26.927  26.874  1.00  0.00     0.074 A 
ATOM     37  C   UNL A   1      42.623  26.064  27.935  1.00  0.00     0.049 A 
ATOM     38  N   UNL A   1      45.615  27.455  27.631  1.00  0.00    -0.248 NA
ATOM     39  C   UNL A   1      44.790  27.358  25.467  1.00  0.00     0.031 C 
ATOM     40  C   UNL A   1      41.455  25.185  28.084  1.00  0.00     0.029 A 
ATOM     41  N   UNL A   1      42.226  27.184  28.596  1.00  0.00    -0.354 N 
ATOM     42  C   UNL A   1      46.213  28.451  26.866  1.00  0.00     0.074 A 
ATOM     43  C   UNL A   1      45.824  28.202  25.503  1.00  0.00     0.031 C 
ATOM     44  C   UNL A   1      40.410  25.886  28.576  1.00  0.00     0.029 A 
ATOM     45  C   UNL A   1      40.877  27.208  28.945  1.00  0.00     0.049 A 
ATOM     46  H   UNL A   1      42.844  27.920  28.811  1.00  0.00     0.167 HD
ATOM     47  C   UNL A   1      46.743  29.555  27.460  1.00  0.00     0.037 A 
ATOM     48  C   UNL A   1      40.200  28.254  29.482  1.00  0.00     0.037 A 
ATOM     49  C   UNL A   1      46.934  29.334  28.874  1.00  0.00     0.049 A 
ATOM     50  C   UNL A   1      41.212  29.180  30.048  1.00  0.00     0.074 A 
ATOM     51  C   UNL A   1      47.655  28.426  29.626  1.00  0.00     0.029 A 
ATOM     52  N   UNL A   1      46.000  29.867  29.728  1.00  0.00    -0.354 N 
ATOM     53  N   UNL A   1      41.960  28.891  31.076  1.00  0.00    -0.248 NA
ATOM     54  C   UNL A   1      41.727  30.218  29.170  1.00  0.00     0.031 C 
ATOM     55  C   UNL A   1      46.805  28.105  30.726  1.00  0.00     0.029 A 
ATOM     56  C   UNL A   1      45.660  28.896  30.635  1.00  0.00     0.049 A 
ATOM     57  H   UNL A   1      45.638  30.782  29.695  1.00  0.00     0.167 HD
ATOM     58  C   UNL A   1      43.218  29.368  30.740  1.00  0.00     0.074 A 
ATOM     59  C   UNL A   1      42.997  30.241  29.586  1.00  0.00     0.031 C 
ATOM     60  C   UNL A   1      44.348  28.780  31.231  1.00  0.00     0.037 A 
BRANCH  47  61
ATOM     61  C   UNL A   1      46.696  30.945  26.868  1.00  0.00     0.057 A 
ATOM     62  C   UNL A   1      47.871  31.719  26.859  1.00  0.00     0.134 A 
ATOM     63  C   UNL A   1      45.512  31.658  26.590  1.00  0.00     0.134 A 
ATOM     64  F   UNL A   1      49.064  31.163  27.120  1.00  0.00    -0.206 F 
ATOM     65  C   UNL A   1      47.856  33.107  26.674  1.00  0.00     0.040 A 
ATOM     66  C   UNL A   1      45.492  33.034  26.351  1.00  0.00     0.040 A 
ATOM     67  F   UNL A   1      44.300  31.094  26.632  1.00  0.00    -0.206 F 
ATOM     68  C   UNL A   1      46.662  33.771  26.428  1.00  0.00     0.006 A 
ENDBRANCH  47  61
BRANCH  48  69
ATOM     69  C   UNL A   1      38.793  28.667  29.263  1.00  0.00     0.057 A 
ATOM     70  C   UNL A   1      37.880  28.726  30.327  1.00  0.00     0.134 A 
ATOM     71  C   UNL A   1      38.391  29.294  28.071  1.00  0.00     0.134 A 
ATOM     72  F   UNL A   1      38.188  28.193  31.518  1.00  0.00    -0.206 F 
ATOM     73  C   UNL A   1      36.652  29.394  30.221  1.00  0.00     0.040 A 
ATOM     74  C   UNL A   1      37.167  29.962  27.952  1.00  0.00     0.040 A 
ATOM     75  F   UNL A   1      39.214  29.362  27.015  1.00  0.00    -0.206 F 
ATOM     76  C   UNL A   1      36.298  30.027  29.033  1.00  0.00     0.006 A 
ENDBRANCH  48  69
BRANCH  60  77
ATOM     77  C   UNL A   1      44.193  27.764  32.333  1.00  0.00     0.057 A 
ATOM     78  C   UNL A   1      44.091  26.378  32.133  1.00  0.00     0.134 A 
ATOM     79  C   UNL A   1      44.306  28.199  33.658  1.00  0.00     0.134 A 
ATOM     80  F   UNL A   1      44.072  25.853  30.901  1.00  0.00    -0.206 F 
ATOM     81  C   UNL A   1      44.064  25.474  33.201  1.00  0.00     0.040 A 
ATOM     82  C   UNL A   1      44.315  27.306  34.731  1.00  0.00     0.040 A 
ATOM     83  F   UNL A   1      44.462  29.505  33.927  1.00  0.00    -0.206 F 
ATOM     84  C   UNL A   1      44.184  25.939  34.506  1.00  0.00     0.006 A 
ENDBRANCH  60  77
ENDBRANCH  34  35
ENDBRANCH  26  29
ENDBRANCH  24  25
ENDBRANCH  23  24
ENDBRANCH   1  23
TORSDOF 14
ENDMDL
MODEL 2
REMARK VINA RESULT:     -11.7      2.478      6.570
REMARK SMILES CCCc1cc(-n2ccc(C(=O)NCCCNC(=O)c3ccc(-c4c5nc(c(-c6c(F)cccc6F)c6ccc([nH]6)c(-c6c(F)cccc6F)c6nc(c(-c7c(F)cccc7F)c7ccc4[nH]7)C=C6)C=C5)cc3)n2)nc(C(C)C)n1
REMARK SMILES IDX 14 1 13 2 11 3 12 4 10 6 7 7 8 8 74 9 9 10 6 11 4 12 5 13
REMARK SMILES IDX 80 14 76 15 75 16 3 17 2 18 1 19 77 20 78 21 79 22 15 23
REMARK SMILES IDX 16 24 17 25 18 26 19 28 20 29 21 30 73 31 22 32 72 33 23 34
REMARK SMILES IDX 24 35 25 36 66 37 26 38 71 39 65 40 67 41 27 42 70 43 64 44
REMARK SMILES IDX 63 45 28 47 54 48 37 49 53 50 38 51 41 52 52 53 68 54 39 55
REMARK SMILES IDX 40 56 51 58 69 59 42 60 29 61 30 62 35 63 31 64 32 65 34 66
REMARK SMILES IDX 36 67 33 68 55 69 56 70 61 71 57 72 58 73 60 74 62 75 59 76
REMARK SMILES IDX 43 77 44 78 49 79 45 80 46 81 48 82 50 83 47 84
REMARK H PARENT 13 5 17 27 67 46 41 57
REMARK Flexibility Score: inf
ROOT
ATOM      1  C   UNL A   1      36.477  20.627  25.125  1.00  0.00     0.118 C 
ENDROOT
BRANCH   1   2
ATOM      2  N   UNL A   1      35.272  19.817  24.960  1.00  0.00    -0.351 N 
ATOM      3  C   UNL A   1      33.946  20.091  25.231  1.00  0.00     0.271 C 
ATOM      4  O   UNL A   1      33.123  19.203  25.000  1.00  0.00    -0.267 OA
ATOM      5  H   UNL A   1      35.434  18.919  24.591  1.00  0.00     0.163 HD
BRANCH   3   6
ATOM      6  C   UNL A   1      33.535  21.372  25.828  1.00  0.00     0.150 A 
ATOM      7  N   UNL A   1      33.075  23.458  25.983  1.00  0.00    -0.222 N 
ATOM      8  C   UNL A   1      33.200  23.024  27.282  1.00  0.00     0.118 A 
ATOM      9  N   UNL A   1      33.161  22.438  25.111  1.00  0.00    -0.161 NA
ATOM     10  C   UNL A   1      33.462  21.676  27.215  1.00  0.00     0.056 A 
BRANCH   7  11
ATOM     11  C   UNL A   1      32.984  24.790  25.495  1.00  0.00     0.157 A 
ATOM     12  C   UNL A   1      32.631  27.067  25.867  1.00  0.00     0.046 A 
ATOM     13  C   UNL A   1      32.558  25.780  26.356  1.00  0.00     0.073 A 
ATOM     14  N   UNL A   1      33.032  27.339  24.607  1.00  0.00    -0.238 NA
ATOM     15  C   UNL A   1      33.368  26.305  23.818  1.00  0.00     0.133 A 
ATOM     16  N   UNL A   1      33.408  25.033  24.232  1.00  0.00    -0.213 NA
BRANCH  12  17
ATOM     17  C   UNL A   1      32.296  28.242  26.749  1.00  0.00     0.056 C 
BRANCH  17  18
ATOM     18  C   UNL A   1      33.427  29.269  26.844  1.00  0.00     0.003 C 
ATOM     19  C   UNL A   1      32.936  30.654  27.246  1.00  0.00     0.004 C 
ENDBRANCH  17  18
ENDBRANCH  12  17
BRANCH  15  20
ATOM     20  C   UNL A   1      33.607  26.575  22.349  1.00  0.00     0.051 C 
ATOM     21  C   UNL A   1      32.460  25.995  21.517  1.00  0.00     0.016 C 
ATOM     22  C   UNL A   1      33.783  28.066  22.078  1.00  0.00     0.016 C 
ENDBRANCH  15  20
ENDBRANCH   7  11
ENDBRANCH   3   6
ENDBRANCH   1   2
BRANCH   1  23
ATOM     23  C   UNL A   1      37.764  19.876  24.766  1.00  0.00     0.042 C 
BRANCH  23  24
ATOM     24  C   UNL A   1      38.920  20.291  25.662  1.00  0.00     0.118 C 
BRANCH  24  25
ATOM     25  N   UNL A   1      39.987  19.282  25.727  1.00  0.00    -0.352 N 
ATOM     26  C   UNL A   1      41.342  19.454  25.958  1.00  0.00     0.251 C 
ATOM     27  H   UNL A   1      39.697  18.351  25.586  1.00  0.00     0.163 HD
ATOM     28  O   UNL A   1      42.146  18.575  25.694  1.00  0.00    -0.269 OA
BRANCH  26  29
ATOM     29  C   UNL A   1      41.795  20.730  26.537  1.00  0.00     0.039 A 
ATOM     30  C   UNL A   1      42.232  21.794  25.744  1.00  0.00     0.014 A 
ATOM     31  C   UNL A   1      41.729  20.855  27.919  1.00  0.00     0.014 A 
ATOM     32  C   UNL A   1      42.524  23.008  26.362  1.00  0.00     0.010 A 
ATOM     33  C   UNL A   1      41.787  22.093  28.487  1.00  0.00     0.010 A 
ATOM     34  C   UNL A   1      42.277  23.150  27.736  1.00  0.00    -0.014 A 
BRANCH  34  35
ATOM     35  C   UNL A   1      42.413  24.427  28.420  1.00  0.00     0.031 A 
ATOM     36  C   UNL A   1      41.266  25.346  28.196  1.00  0.00     0.074 A 
ATOM     37  C   UNL A   1      43.359  24.642  29.363  1.00  0.00     0.049 A 
ATOM     38  N   UNL A   1      41.269  26.460  27.546  1.00  0.00    -0.248 NA
ATOM     39  C   UNL A   1      39.922  24.895  28.597  1.00  0.00     0.031 C 
ATOM     40  C   UNL A   1      44.343  23.694  29.904  1.00  0.00     0.029 A 
ATOM     41  N   UNL A   1      43.573  25.746  30.128  1.00  0.00    -0.354 N 
ATOM     42  C   UNL A   1      39.979  26.968  27.662  1.00  0.00     0.074 A 
ATOM     43  C   UNL A   1      39.157  25.880  28.121  1.00  0.00     0.031 C 
ATOM     44  C   UNL A   1      44.872  24.180  31.048  1.00  0.00     0.029 A 
ATOM     45  C   UNL A   1      44.406  25.541  31.227  1.00  0.00     0.049 A 
ATOM     46  H   UNL A   1      43.171  26.621  29.922  1.00  0.00     0.167 HD
ATOM     47  C   UNL A   1      39.759  28.311  27.640  1.00  0.00     0.037 A 
ATOM     48  C   UNL A   1      44.668  26.430  32.218  1.00  0.00     0.037 A 
ATOM     49  C   UNL A   1      40.907  29.009  27.110  1.00  0.00     0.049 A 
ATOM     50  C   UNL A   1      44.302  27.773  31.703  1.00  0.00     0.074 A 
ATOM     51  C   UNL A   1      41.598  28.974  25.914  1.00  0.00     0.029 A 
ATOM     52  N   UNL A   1      41.753  29.609  28.012  1.00  0.00    -0.354 N 
ATOM     53  N   UNL A   1      44.937  28.373  30.736  1.00  0.00    -0.248 NA
ATOM     54  C   UNL A   1      42.938  28.222  31.931  1.00  0.00     0.031 C 
ATOM     55  C   UNL A   1      42.972  29.091  26.281  1.00  0.00     0.029 A 
ATOM     56  C   UNL A   1      43.037  29.282  27.662  1.00  0.00     0.049 A 
ATOM     57  H   UNL A   1      41.484  30.172  28.773  1.00  0.00     0.167 HD
ATOM     58  C   UNL A   1      43.938  28.937  29.957  1.00  0.00     0.074 A 
ATOM     59  C   UNL A   1      42.732  28.874  30.783  1.00  0.00     0.031 C 
ATOM     60  C   UNL A   1      44.112  29.123  28.615  1.00  0.00     0.037 A 
BRANCH  47  61
ATOM     61  C   UNL A   1      38.709  29.015  28.467  1.00  0.00     0.057 A 
ATOM     62  C   UNL A   1      38.656  28.767  29.850  1.00  0.00     0.134 A 
ATOM     63  C   UNL A   1      37.579  29.673  27.937  1.00  0.00     0.134 A 
ATOM     64  F   UNL A   1      39.662  28.138  30.476  1.00  0.00    -0.206 F 
ATOM     65  C   UNL A   1      37.531  29.073  30.627  1.00  0.00     0.040 A 
ATOM     66  C   UNL A   1      36.474  30.031  28.714  1.00  0.00     0.040 A 
ATOM     67  F   UNL A   1      37.430  29.918  26.631  1.00  0.00    -0.206 F 
ATOM     68  C   UNL A   1      36.431  29.699  30.057  1.00  0.00     0.006 A 
ENDBRANCH  47  61
BRANCH  48  69
ATOM     69  C   UNL A   1      44.903  26.179  33.659  1.00  0.00     0.057 A 
ATOM     70  C   UNL A   1      43.875  25.711  34.492  1.00  0.00     0.134 A 
ATOM     71  C   UNL A   1      46.203  26.108  34.188  1.00  0.00     0.134 A 
ATOM     72  F   UNL A   1      42.605  25.698  34.063  1.00  0.00    -0.206 F 
ATOM     73  C   UNL A   1      44.129  25.176  35.763  1.00  0.00     0.040 A 
ATOM     74  C   UNL A   1      46.469  25.578  35.456  1.00  0.00     0.040 A 
ATOM     75  F   UNL A   1      47.268  26.459  33.452  1.00  0.00    -0.206 F 
ATOM     76  C   UNL A   1      45.432  25.096  36.244  1.00  0.00     0.006 A 
ENDBRANCH  48  69
BRANCH  60  77
ATOM     77  C   UNL A   1      45.496  28.933  28.050  1.00  0.00     0.057 A 
ATOM     78  C   UNL A   1      45.990  27.720  27.541  1.00  0.00     0.134 A 
ATOM     79  C   UNL A   1      46.304  30.061  27.876  1.00  0.00     0.134 A 
ATOM     80  F   UNL A   1      45.254  26.602  27.574  1.00  0.00    -0.206 F 
ATOM     81  C   UNL A   1      47.242  27.630  26.924  1.00  0.00     0.040 A 
ATOM     82  C   UNL A   1      47.541  29.991  27.231  1.00  0.00     0.040 A 
ATOM     83  F   UNL A   1      45.877  31.265  28.286  1.00  0.00    -0.206 F 
ATOM     84  C   UNL A   1      48.019  28.772  26.761  1.00  0.00     0.006 A 
ENDBRANCH  60  77
ENDBRANCH  34  35
ENDBRANCH  26  29
ENDBRANCH  24  25
ENDBRANCH  23  24
ENDBRANCH   1  23
TORSDOF 14
ENDMDL
MODEL 3
REMARK VINA RESULT:     -11.5      0.539      2.101
REMARK SMILES CCCc1cc(-n2ccc(C(=O)NCCCNC(=O)c3ccc(-c4c5nc(c(-c6c(F)cccc6F)c6ccc([nH]6)c(-c6c(F)cccc6F)c6nc(c(-c7c(F)cccc7F)c7ccc4[nH]7)C=C6)C=C5)cc3)n2)nc(C(C)C)n1
REMARK SMILES IDX 14 1 13 2 11 3 12 4 10 6 7 7 8 8 74 9 9 10 6 11 4 12 5 13
REMARK SMILES IDX 80 14 76 15 75 16 3 17 2 18 1 19 77 20 78 21 79 22 15 23
REMARK SMILES IDX 16 24 17 25 18 26 19 28 20 29 21 30 73 31 22 32 72 33 23 34
REMARK SMILES IDX 24 35 25 36 66 37 26 38 71 39 65 40 67 41 27 42 70 43 64 44
REMARK SMILES IDX 63 45 28 47 54 48 37 49 53 50 38 51 41 52 52 53 68 54 39 55
REMARK SMILES IDX 40 56 51 58 69 59 42 60 29 61 30 62 35 63 31 64 32 65 34 66
REMARK SMILES IDX 36 67 33 68 55 69 56 70 61 71 57 72 58 73 60 74 62 75 59 76
REMARK SMILES IDX 43 77 44 78 49 79 45 80 46 81 48 82 50 83 47 84
REMARK H PARENT 13 5 17 27 67 46 41 57
REMARK Flexibility Score: inf
ROOT
ATOM      1  C   UNL A   1      40.554  20.712  27.197  1.00  0.00     0.118 C 
ENDROOT
BRANCH   1   2
ATOM      2  N   UNL A   1      40.065  22.068  26.957  1.00  0.00    -0.351 N 
ATOM      3  C   UNL A   1      38.952  22.528  26.281  1.00  0.00     0.271 C 
ATOM      4  O   UNL A   1      38.787  23.748  26.224  1.00  0.00    -0.267 OA
ATOM      5  H   UNL A   1      40.628  22.776  27.343  1.00  0.00     0.163 HD
BRANCH   3   6
ATOM      6  C   UNL A   1      38.029  21.603  25.606  1.00  0.00     0.150 A 
ATOM      7  N   UNL A   1      36.188  20.709  24.975  1.00  0.00    -0.222 N 
ATOM      8  C   UNL A   1      37.153  19.772  24.691  1.00  0.00     0.118 A 
ATOM      9  N   UNL A   1      36.728  21.858  25.418  1.00  0.00    -0.161 NA
ATOM     10  C   UNL A   1      38.355  20.334  25.055  1.00  0.00     0.056 A 
BRANCH   7  11
ATOM     11  C   UNL A   1      34.774  20.563  24.958  1.00  0.00     0.157 A 
ATOM     12  C   UNL A   1      32.875  19.206  24.908  1.00  0.00     0.046 A 
ATOM     13  C   UNL A   1      34.243  19.304  24.769  1.00  0.00     0.073 A 
ATOM     14  N   UNL A   1      32.096  20.281  25.151  1.00  0.00    -0.238 NA
ATOM     15  C   UNL A   1      32.694  21.479  25.257  1.00  0.00     0.133 A 
ATOM     16  N   UNL A   1      34.020  21.657  25.219  1.00  0.00    -0.213 NA
BRANCH  12  17
ATOM     17  C   UNL A   1      32.191  17.865  24.831  1.00  0.00     0.056 C 
BRANCH  17  18
ATOM     18  C   UNL A   1      33.112  16.742  24.348  1.00  0.00     0.003 C 
ATOM     19  C   UNL A   1      33.011  15.485  25.202  1.00  0.00     0.004 C 
ENDBRANCH  17  18
ENDBRANCH  12  17
BRANCH  15  20
ATOM     20  C   UNL A   1      31.820  22.712  25.310  1.00  0.00     0.051 C 
ATOM     21  C   UNL A   1      31.498  23.186  23.891  1.00  0.00     0.016 C 
ATOM     22  C   UNL A   1      30.543  22.457  26.107  1.00  0.00     0.016 C 
ENDBRANCH  15  20
ENDBRANCH   7  11
ENDBRANCH   3   6
ENDBRANCH   1   2
BRANCH   1  23
ATOM     23  C   UNL A   1      41.518  20.216  26.114  1.00  0.00     0.042 C 
BRANCH  23  24
ATOM     24  C   UNL A   1      42.876  19.859  26.698  1.00  0.00     0.118 C 
BRANCH  24  25
ATOM     25  N   UNL A   1      43.927  19.741  25.677  1.00  0.00    -0.352 N 
ATOM     26  C   UNL A   1      44.524  20.733  24.916  1.00  0.00     0.251 C 
ATOM     27  H   UNL A   1      44.252  18.827  25.509  1.00  0.00     0.163 HD
ATOM     28  O   UNL A   1      45.162  20.464  23.912  1.00  0.00    -0.269 OA
BRANCH  26  29
ATOM     29  C   UNL A   1      44.376  22.132  25.353  1.00  0.00     0.039 A 
ATOM     30  C   UNL A   1      43.447  22.999  24.770  1.00  0.00     0.014 A 
ATOM     31  C   UNL A   1      45.174  22.553  26.409  1.00  0.00     0.014 A 
ATOM     32  C   UNL A   1      43.282  24.267  25.324  1.00  0.00     0.010 A 
ATOM     33  C   UNL A   1      44.849  23.690  27.088  1.00  0.00     0.010 A 
ATOM     34  C   UNL A   1      43.977  24.593  26.499  1.00  0.00    -0.014 A 
BRANCH  34  35
ATOM     35  C   UNL A   1      43.743  25.836  27.219  1.00  0.00     0.031 A 
ATOM     36  C   UNL A   1      44.695  26.918  26.859  1.00  0.00     0.074 A 
ATOM     37  C   UNL A   1      42.619  26.050  27.940  1.00  0.00     0.049 A 
ATOM     38  N   UNL A   1      45.606  27.443  27.608  1.00  0.00    -0.248 NA
ATOM     39  C   UNL A   1      44.758  27.355  25.453  1.00  0.00     0.031 C 
ATOM     40  C   UNL A   1      41.453  25.169  28.098  1.00  0.00     0.029 A 
ATOM     41  N   UNL A   1      42.229  27.167  28.610  1.00  0.00    -0.354 N 
ATOM     42  C   UNL A   1      46.196  28.443  26.841  1.00  0.00     0.074 A 
ATOM     43  C   UNL A   1      45.791  28.199  25.482  1.00  0.00     0.031 C 
ATOM     44  C   UNL A   1      40.413  25.869  28.605  1.00  0.00     0.029 A 
ATOM     45  C   UNL A   1      40.884  27.188  28.974  1.00  0.00     0.049 A 
ATOM     46  H   UNL A   1      42.848  27.903  28.821  1.00  0.00     0.167 HD
ATOM     47  C   UNL A   1      46.732  29.545  27.433  1.00  0.00     0.037 A 
ATOM     48  C   UNL A   1      40.212  28.233  29.523  1.00  0.00     0.037 A 
ATOM     49  C   UNL A   1      46.939  29.318  28.844  1.00  0.00     0.049 A 
ATOM     50  C   UNL A   1      41.230  29.157  30.081  1.00  0.00     0.074 A 
ATOM     51  C   UNL A   1      47.668  28.408  29.584  1.00  0.00     0.029 A 
ATOM     52  N   UNL A   1      46.014  29.847  29.711  1.00  0.00    -0.354 N 
ATOM     53  N   UNL A   1      41.989  28.864  31.099  1.00  0.00    -0.248 NA
ATOM     54  C   UNL A   1      41.735  30.199  29.201  1.00  0.00     0.031 C 
ATOM     55  C   UNL A   1      46.831  28.081  30.692  1.00  0.00     0.029 A 
ATOM     56  C   UNL A   1      45.685  28.872  30.617  1.00  0.00     0.049 A 
ATOM     57  H   UNL A   1      45.652  30.762  29.685  1.00  0.00     0.167 HD
ATOM     58  C   UNL A   1      43.244  29.343  30.751  1.00  0.00     0.074 A 
ATOM     59  C   UNL A   1      43.009  30.221  29.604  1.00  0.00     0.031 C 
ATOM     60  C   UNL A   1      44.379  28.753  31.227  1.00  0.00     0.037 A 
BRANCH  47  61
ATOM     61  C   UNL A   1      46.678  30.937  26.848  1.00  0.00     0.057 A 
ATOM     62  C   UNL A   1      47.847  31.720  26.850  1.00  0.00     0.134 A 
ATOM     63  C   UNL A   1      45.490  31.642  26.565  1.00  0.00     0.134 A 
ATOM     64  F   UNL A   1      49.042  31.172  27.114  1.00  0.00    -0.206 F 
ATOM     65  C   UNL A   1      47.822  33.109  26.670  1.00  0.00     0.040 A 
ATOM     66  C   UNL A   1      45.461  33.020  26.333  1.00  0.00     0.040 A 
ATOM     67  F   UNL A   1      44.282  31.069  26.598  1.00  0.00    -0.206 F 
ATOM     68  C   UNL A   1      46.624  33.765  26.420  1.00  0.00     0.006 A 
ENDBRANCH  47  61
BRANCH  48  69
ATOM     69  C   UNL A   1      38.803  28.645  29.321  1.00  0.00     0.057 A 
ATOM     70  C   UNL A   1      37.902  28.702  30.396  1.00  0.00     0.134 A 
ATOM     71  C   UNL A   1      38.387  29.275  28.136  1.00  0.00     0.134 A 
ATOM     72  F   UNL A   1      38.224  28.167  31.583  1.00  0.00    -0.206 F 
ATOM     73  C   UNL A   1      36.673  29.370  30.306  1.00  0.00     0.040 A 
ATOM     74  C   UNL A   1      37.161  29.943  28.032  1.00  0.00     0.040 A 
ATOM     75  F   UNL A   1      39.197  29.345  27.070  1.00  0.00    -0.206 F 
ATOM     76  C   UNL A   1      36.305  30.006  29.124  1.00  0.00     0.006 A 
ENDBRANCH  48  69
BRANCH  60  77
ATOM     77  C   UNL A   1      44.238  27.733  32.327  1.00  0.00     0.057 A 
ATOM     78  C   UNL A   1      44.033  28.043  33.682  1.00  0.00     0.134 A 
ATOM     79  C   UNL A   1      44.155  26.382  31.974  1.00  0.00     0.134 A 
ATOM     80  F   UNL A   1      43.999  29.312  34.106  1.00  0.00    -0.206 F 
ATOM     81  C   UNL A   1      43.795  27.053  34.641  1.00  0.00     0.040 A 
ATOM     82  C   UNL A   1      43.884  25.387  32.917  1.00  0.00     0.040 A 
ATOM     83  F   UNL A   1      44.286  26.012  30.691  1.00  0.00    -0.206 F 
ATOM     84  C   UNL A   1      43.713  25.719  34.257  1.00  0.00     0.006 A 
ENDBRANCH  60  77
ENDBRANCH  34  35
ENDBRANCH  26  29
ENDBRANCH  24  25
ENDBRANCH  23  24
ENDBRANCH   1  23
TORSDOF 14
ENDMDL
