MODEL 1
REMARK VINA RESULT:     -12.3      0.000      0.000
REMARK SMILES CCc1c(C(=O)NCC(=O)NCCCNC(=O)c2ccc(-c3c4nc(c(-c5c(F)cccc5F)c5ccc([nH]5)c(-c5c(F)cccc5F)c5nc(c(-c6c(F)cccc6F)c6ccc3[nH]6)C=C5)C=C4)cc2)nnn1-c1ccc(C)cc1
REMARK SMILES IDX 12 1 11 2 9 3 10 4 8 6 7 7 5 8 6 9 4 11 3 12 74 13 72 14
REMARK SMILES IDX 73 15 2 16 1 17 75 18 76 19 81 20 77 21 80 22 78 23 79 24
REMARK SMILES IDX 13 25 14 26 15 27 16 28 17 30 18 31 19 32 71 33 20 34 70 35
REMARK SMILES IDX 21 36 22 37 23 38 64 39 24 40 69 41 63 42 65 43 25 44 68 45
REMARK SMILES IDX 62 46 61 47 26 49 52 50 35 51 51 52 36 53 39 54 50 55 66 56
REMARK SMILES IDX 37 57 38 58 49 60 67 61 40 62 27 63 28 64 33 65 29 66 30 67
REMARK SMILES IDX 32 68 34 69 31 70 53 71 54 72 59 73 55 74 56 75 58 76 60 77
REMARK SMILES IDX 57 78 41 79 42 80 47 81 43 82 44 83 46 84 48 85 45 86
REMARK H PARENT 11 5 7 10 15 29 65 48 39 59
REMARK Flexibility Score: inf
ROOT
ATOM      1  C   UNL A   1      32.576  29.493  26.750  1.00  0.00     0.117 C 
ENDROOT
BRANCH   1   2
ATOM      2  N   UNL A   1      31.628  30.141  25.864  1.00  0.00    -0.355 N 
ATOM      3  C   UNL A   1      31.079  29.754  24.684  1.00  0.00     0.239 C 
ATOM      4  O   UNL A   1      30.101  30.406  24.297  1.00  0.00    -0.273 OA
ATOM      5  H   UNL A   1      31.327  31.024  26.176  1.00  0.00     0.163 HD
BRANCH   3   6
ATOM      6  C   UNL A   1      31.529  28.534  23.862  1.00  0.00     0.216 C 
BRANCH   6   7
ATOM      7  N   UNL A   1      32.723  28.552  23.057  1.00  0.00    -0.342 N 
ATOM      8  C   UNL A   1      33.493  27.648  22.385  1.00  0.00     0.274 C 
ATOM      9  O   UNL A   1      34.313  28.195  21.637  1.00  0.00    -0.267 OA
ATOM     10  H   UNL A   1      33.081  29.463  22.967  1.00  0.00     0.164 HD
BRANCH   8  11
ATOM     11  C   UNL A   1      33.517  26.185  22.544  1.00  0.00     0.174 A 
ATOM     12  C   UNL A   1      33.757  25.232  23.543  1.00  0.00     0.077 A 
ATOM     13  N   UNL A   1      33.555  24.015  22.878  1.00  0.00    -0.217 N 
ATOM     14  N   UNL A   1      33.371  25.498  21.346  1.00  0.00    -0.124 NA
ATOM     15  N   UNL A   1      33.532  24.210  21.552  1.00  0.00    -0.061 NA
BRANCH  12  16
ATOM     16  C   UNL A   1      34.220  25.251  24.966  1.00  0.00     0.055 C 
ATOM     17  C   UNL A   1      33.221  25.886  25.935  1.00  0.00     0.011 C 
ENDBRANCH  12  16
BRANCH  13  18
ATOM     18  C   UNL A   1      33.481  22.703  23.398  1.00  0.00     0.067 A 
ATOM     19  C   UNL A   1      34.598  22.162  24.044  1.00  0.00     0.029 A 
ATOM     20  C   UNL A   1      32.298  21.965  23.298  1.00  0.00     0.029 A 
ATOM     21  C   UNL A   1      34.494  20.921  24.673  1.00  0.00     0.005 A 
ATOM     22  C   UNL A   1      32.208  20.716  23.909  1.00  0.00     0.005 A 
ATOM     23  C   UNL A   1      33.295  20.197  24.623  1.00  0.00    -0.051 A 
ATOM     24  C   UNL A   1      33.187  18.878  25.327  1.00  0.00     0.044 C 
ENDBRANCH  13  18
ENDBRANCH   8  11
ENDBRANCH   6   7
ENDBRANCH   3   6
ENDBRANCH   1   2
BRANCH   1  25
ATOM     25  C   UNL A   1      34.032  29.590  26.306  1.00  0.00     0.042 C 
BRANCH  25  26
ATOM     26  C   UNL A   1      34.991  29.063  27.364  1.00  0.00     0.118 C 
BRANCH  26  27
ATOM     27  N   UNL A   1      35.194  30.010  28.463  1.00  0.00    -0.352 N 
ATOM     28  C   UNL A   1      36.242  30.067  29.365  1.00  0.00     0.251 C 
ATOM     29  H   UNL A   1      34.495  30.693  28.575  1.00  0.00     0.163 HD
ATOM     30  O   UNL A   1      36.140  30.670  30.417  1.00  0.00    -0.269 OA
BRANCH  28  31
ATOM     31  C   UNL A   1      37.493  29.367  29.024  1.00  0.00     0.039 A 
ATOM     32  C   UNL A   1      38.223  29.726  27.889  1.00  0.00     0.014 A 
ATOM     33  C   UNL A   1      37.957  28.390  29.899  1.00  0.00     0.014 A 
ATOM     34  C   UNL A   1      39.482  29.165  27.698  1.00  0.00     0.010 A 
ATOM     35  C   UNL A   1      39.251  27.942  29.783  1.00  0.00     0.010 A 
ATOM     36  C   UNL A   1      40.009  28.298  28.669  1.00  0.00    -0.014 A 
BRANCH  36  37
ATOM     37  C   UNL A   1      41.410  27.886  28.605  1.00  0.00     0.031 A 
ATOM     38  C   UNL A   1      41.654  26.638  27.825  1.00  0.00     0.074 A 
ATOM     39  C   UNL A   1      42.434  28.676  28.998  1.00  0.00     0.049 A 
ATOM     40  N   UNL A   1      42.101  25.507  28.260  1.00  0.00    -0.248 NA
ATOM     41  C   UNL A   1      41.229  26.602  26.414  1.00  0.00     0.031 C 
ATOM     42  C   UNL A   1      42.367  30.061  29.478  1.00  0.00     0.029 A 
ATOM     43  N   UNL A   1      43.776  28.448  28.936  1.00  0.00    -0.354 N 
ATOM     44  C   UNL A   1      42.224  24.686  27.140  1.00  0.00     0.074 A 
ATOM     45  C   UNL A   1      41.504  25.340  26.081  1.00  0.00     0.031 C 
ATOM     46  C   UNL A   1      43.595  30.621  29.423  1.00  0.00     0.029 A 
ATOM     47  C   UNL A   1      44.557  29.590  29.081  1.00  0.00     0.049 A 
ATOM     48  H   UNL A   1      44.161  27.552  28.801  1.00  0.00     0.167 HD
ATOM     49  C   UNL A   1      43.140  23.678  27.112  1.00  0.00     0.037 A 
ATOM     50  C   UNL A   1      45.897  29.694  28.912  1.00  0.00     0.037 A 
ATOM     51  C   UNL A   1      43.606  23.367  28.441  1.00  0.00     0.049 A 
ATOM     52  C   UNL A   1      46.461  28.330  29.009  1.00  0.00     0.074 A 
ATOM     53  C   UNL A   1      43.025  22.942  29.618  1.00  0.00     0.029 A 
ATOM     54  N   UNL A   1      44.846  23.843  28.785  1.00  0.00    -0.354 N 
ATOM     55  N   UNL A   1      46.491  27.628  30.106  1.00  0.00    -0.248 NA
ATOM     56  C   UNL A   1      46.638  27.574  27.780  1.00  0.00     0.031 C 
ATOM     57  C   UNL A   1      43.755  23.601  30.653  1.00  0.00     0.029 A 
ATOM     58  C   UNL A   1      44.779  24.340  30.057  1.00  0.00     0.049 A 
ATOM     59  H   UNL A   1      45.647  23.830  28.213  1.00  0.00     0.167 HD
ATOM     60  C   UNL A   1      46.228  26.331  29.696  1.00  0.00     0.074 A 
ATOM     61  C   UNL A   1      46.466  26.338  28.255  1.00  0.00     0.031 C 
ATOM     62  C   UNL A   1      45.562  25.464  30.515  1.00  0.00     0.037 A 
BRANCH  49  63
ATOM     63  C   UNL A   1      43.947  23.286  25.888  1.00  0.00     0.057 A 
ATOM     64  C   UNL A   1      44.050  21.921  25.553  1.00  0.00     0.134 A 
ATOM     65  C   UNL A   1      44.876  24.126  25.241  1.00  0.00     0.134 A 
ATOM     66  F   UNL A   1      43.228  21.013  26.100  1.00  0.00    -0.206 F 
ATOM     67  C   UNL A   1      45.066  21.421  24.727  1.00  0.00     0.040 A 
ATOM     68  C   UNL A   1      45.861  23.643  24.373  1.00  0.00     0.040 A 
ATOM     69  F   UNL A   1      44.957  25.438  25.483  1.00  0.00    -0.206 F 
ATOM     70  C   UNL A   1      45.984  22.283  24.143  1.00  0.00     0.006 A 
ENDBRANCH  49  63
BRANCH  50  71
ATOM     71  C   UNL A   1      46.698  30.841  28.429  1.00  0.00     0.057 A 
ATOM     72  C   UNL A   1      46.617  31.269  27.096  1.00  0.00     0.134 A 
ATOM     73  C   UNL A   1      47.339  31.717  29.321  1.00  0.00     0.134 A 
ATOM     74  F   UNL A   1      45.995  30.519  26.176  1.00  0.00    -0.206 F 
ATOM     75  C   UNL A   1      47.107  32.514  26.681  1.00  0.00     0.040 A 
ATOM     76  C   UNL A   1      47.840  32.960  28.919  1.00  0.00     0.040 A 
ATOM     77  F   UNL A   1      47.417  31.439  30.631  1.00  0.00    -0.206 F 
ATOM     78  C   UNL A   1      47.709  33.370  27.598  1.00  0.00     0.006 A 
ENDBRANCH  50  71
BRANCH  62  79
ATOM     79  C   UNL A   1      45.449  25.827  31.971  1.00  0.00     0.057 A 
ATOM     80  C   UNL A   1      46.459  25.633  32.926  1.00  0.00     0.134 A 
ATOM     81  C   UNL A   1      44.302  26.508  32.395  1.00  0.00     0.134 A 
ATOM     82  F   UNL A   1      47.632  25.078  32.597  1.00  0.00    -0.206 F 
ATOM     83  C   UNL A   1      46.310  26.052  34.251  1.00  0.00     0.040 A 
ATOM     84  C   UNL A   1      44.157  26.965  33.706  1.00  0.00     0.040 A 
ATOM     85  F   UNL A   1      43.316  26.778  31.525  1.00  0.00    -0.206 F 
ATOM     86  C   UNL A   1      45.157  26.726  34.643  1.00  0.00     0.006 A 
ENDBRANCH  62  79
ENDBRANCH  36  37
ENDBRANCH  28  31
ENDBRANCH  26  27
ENDBRANCH  25  26
ENDBRANCH   1  25
TORSDOF 14
ENDMDL
MODEL 2
REMARK VINA RESULT:     -12.3      3.341      4.856
REMARK SMILES CCc1c(C(=O)NCC(=O)NCCCNC(=O)c2ccc(-c3c4nc(c(-c5c(F)cccc5F)c5ccc([nH]5)c(-c5c(F)cccc5F)c5nc(c(-c6c(F)cccc6F)c6ccc3[nH]6)C=C5)C=C4)cc2)nnn1-c1ccc(C)cc1
REMARK SMILES IDX 12 1 11 2 9 3 10 4 8 6 7 7 5 8 6 9 4 11 3 12 74 13 72 14
REMARK SMILES IDX 73 15 2 16 1 17 75 18 76 19 81 20 77 21 80 22 78 23 79 24
REMARK SMILES IDX 13 25 14 26 15 27 16 28 17 30 18 31 19 32 71 33 20 34 70 35
REMARK SMILES IDX 21 36 22 37 23 38 64 39 24 40 69 41 63 42 65 43 25 44 68 45
REMARK SMILES IDX 62 46 61 47 26 49 52 50 35 51 51 52 36 53 39 54 50 55 66 56
REMARK SMILES IDX 37 57 38 58 49 60 67 61 40 62 27 63 28 64 33 65 29 66 30 67
REMARK SMILES IDX 32 68 34 69 31 70 53 71 54 72 59 73 55 74 56 75 58 76 60 77
REMARK SMILES IDX 57 78 41 79 42 80 47 81 43 82 44 83 46 84 48 85 45 86
REMARK H PARENT 11 5 7 10 15 29 65 48 39 59
REMARK Flexibility Score: inf
ROOT
ATOM      1  C   UNL A   1      31.778  30.768  25.986  1.00  0.00     0.117 C 
ENDROOT
BRANCH   1   2
ATOM      2  N   UNL A   1      30.848  30.616  24.885  1.00  0.00    -0.355 N 
ATOM      3  C   UNL A   1      30.634  29.599  24.013  1.00  0.00     0.239 C 
ATOM      4  O   UNL A   1      29.591  29.658  23.349  1.00  0.00    -0.273 OA
ATOM      5  H   UNL A   1      30.263  31.396  24.744  1.00  0.00     0.163 HD
BRANCH   3   6
ATOM      6  C   UNL A   1      31.539  28.364  23.861  1.00  0.00     0.216 C 
BRANCH   6   7
ATOM      7  N   UNL A   1      32.709  28.371  23.022  1.00  0.00    -0.342 N 
ATOM      8  C   UNL A   1      33.472  27.455  22.358  1.00  0.00     0.274 C 
ATOM      9  O   UNL A   1      34.262  27.989  21.569  1.00  0.00    -0.267 OA
ATOM     10  H   UNL A   1      33.052  29.284  22.892  1.00  0.00     0.164 HD
BRANCH   8  11
ATOM     11  C   UNL A   1      33.522  26.000  22.564  1.00  0.00     0.174 A 
ATOM     12  C   UNL A   1      33.748  25.083  23.601  1.00  0.00     0.077 A 
ATOM     13  N   UNL A   1      33.594  23.842  22.969  1.00  0.00    -0.217 N 
ATOM     14  N   UNL A   1      33.431  25.272  21.386  1.00  0.00    -0.124 NA
ATOM     15  N   UNL A   1      33.612  23.995  21.637  1.00  0.00    -0.061 NA
BRANCH  12  16
ATOM     16  C   UNL A   1      34.162  25.158  25.038  1.00  0.00     0.055 C 
ATOM     17  C   UNL A   1      32.993  25.297  26.014  1.00  0.00     0.011 C 
ENDBRANCH  12  16
BRANCH  13  18
ATOM     18  C   UNL A   1      33.530  22.546  23.528  1.00  0.00     0.067 A 
ATOM     19  C   UNL A   1      32.408  21.749  23.275  1.00  0.00     0.029 A 
ATOM     20  C   UNL A   1      34.586  22.052  24.299  1.00  0.00     0.029 A 
ATOM     21  C   UNL A   1      32.393  20.425  23.713  1.00  0.00     0.005 A 
ATOM     22  C   UNL A   1      34.555  20.735  24.752  1.00  0.00     0.005 A 
ATOM     23  C   UNL A   1      33.472  19.904  24.441  1.00  0.00    -0.051 A 
ATOM     24  C   UNL A   1      33.456  18.471  24.881  1.00  0.00     0.044 C 
ENDBRANCH  13  18
ENDBRANCH   8  11
ENDBRANCH   6   7
ENDBRANCH   3   6
ENDBRANCH   1   2
BRANCH   1  25
ATOM     25  C   UNL A   1      31.476  31.937  26.920  1.00  0.00     0.042 C 
BRANCH  25  26
ATOM     26  C   UNL A   1      32.731  32.710  27.297  1.00  0.00     0.118 C 
BRANCH  26  27
ATOM     27  N   UNL A   1      32.433  34.025  27.870  1.00  0.00    -0.352 N 
ATOM     28  C   UNL A   1      33.062  34.667  28.922  1.00  0.00     0.251 C 
ATOM     29  H   UNL A   1      31.690  34.516  27.451  1.00  0.00     0.163 HD
ATOM     30  O   UNL A   1      32.528  35.585  29.514  1.00  0.00    -0.269 OA
BRANCH  28  31
ATOM     31  C   UNL A   1      34.402  34.201  29.320  1.00  0.00     0.039 A 
ATOM     32  C   UNL A   1      34.553  33.239  30.321  1.00  0.00     0.014 A 
ATOM     33  C   UNL A   1      35.502  34.695  28.626  1.00  0.00     0.014 A 
ATOM     34  C   UNL A   1      35.815  32.699  30.545  1.00  0.00     0.010 A 
ATOM     35  C   UNL A   1      36.717  34.066  28.753  1.00  0.00     0.010 A 
ATOM     36  C   UNL A   1      36.891  33.091  29.732  1.00  0.00    -0.014 A 
BRANCH  36  37
ATOM     37  C   UNL A   1      38.162  32.370  29.796  1.00  0.00     0.031 A 
ATOM     38  C   UNL A   1      38.114  30.982  29.250  1.00  0.00     0.074 A 
ATOM     39  C   UNL A   1      39.339  32.965  30.092  1.00  0.00     0.049 A 
ATOM     40  N   UNL A   1      38.290  29.874  29.889  1.00  0.00    -0.248 NA
ATOM     41  C   UNL A   1      37.695  30.797  27.849  1.00  0.00     0.031 C 
ATOM     42  C   UNL A   1      39.589  34.392  30.327  1.00  0.00     0.029 A 
ATOM     43  N   UNL A   1      40.593  32.434  30.125  1.00  0.00    -0.354 N 
ATOM     44  C   UNL A   1      38.225  28.863  28.931  1.00  0.00     0.074 A 
ATOM     45  C   UNL A   1      37.674  29.467  27.747  1.00  0.00     0.031 C 
ATOM     46  C   UNL A   1      40.913  34.643  30.228  1.00  0.00     0.029 A 
ATOM     47  C   UNL A   1      41.614  33.379  30.106  1.00  0.00     0.049 A 
ATOM     48  H   UNL A   1      40.763  31.465  30.160  1.00  0.00     0.167 HD
ATOM     49  C   UNL A   1      38.886  27.686  29.112  1.00  0.00     0.037 A 
ATOM     50  C   UNL A   1      42.943  33.148  29.977  1.00  0.00     0.037 A 
ATOM     51  C   UNL A   1      39.266  27.515  30.493  1.00  0.00     0.049 A 
ATOM     52  C   UNL A   1      43.179  31.730  30.327  1.00  0.00     0.074 A 
ATOM     53  C   UNL A   1      38.602  27.444  31.700  1.00  0.00     0.029 A 
ATOM     54  N   UNL A   1      40.582  27.753  30.801  1.00  0.00    -0.354 N 
ATOM     55  N   UNL A   1      43.047  31.241  31.529  1.00  0.00    -0.248 NA
ATOM     56  C   UNL A   1      43.181  30.751  29.253  1.00  0.00     0.031 C 
ATOM     57  C   UNL A   1      39.462  28.093  32.637  1.00  0.00     0.029 A 
ATOM     58  C   UNL A   1      40.628  28.466  31.967  1.00  0.00     0.049 A 
ATOM     59  H   UNL A   1      41.359  27.460  30.274  1.00  0.00     0.167 HD
ATOM     60  C   UNL A   1      42.495  29.986  31.333  1.00  0.00     0.074 A 
ATOM     61  C   UNL A   1      42.730  29.687  29.923  1.00  0.00     0.031 C 
ATOM     62  C   UNL A   1      41.647  29.448  32.260  1.00  0.00     0.037 A 
BRANCH  49  63
ATOM     63  C   UNL A   1      39.583  26.915  28.007  1.00  0.00     0.057 A 
ATOM     64  C   UNL A   1      39.522  25.507  28.019  1.00  0.00     0.134 A 
ATOM     65  C   UNL A   1      40.563  27.457  27.151  1.00  0.00     0.134 A 
ATOM     66  F   UNL A   1      38.636  24.863  28.793  1.00  0.00    -0.206 F 
ATOM     67  C   UNL A   1      40.435  24.706  27.322  1.00  0.00     0.040 A 
ATOM     68  C   UNL A   1      41.446  26.665  26.409  1.00  0.00     0.040 A 
ATOM     69  F   UNL A   1      40.797  28.770  27.057  1.00  0.00    -0.206 F 
ATOM     70  C   UNL A   1      41.411  25.285  26.522  1.00  0.00     0.006 A 
ENDBRANCH  49  63
BRANCH  50  71
ATOM     71  C   UNL A   1      43.986  33.982  29.340  1.00  0.00     0.057 A 
ATOM     72  C   UNL A   1      44.105  34.049  27.945  1.00  0.00     0.134 A 
ATOM     73  C   UNL A   1      44.699  34.949  30.068  1.00  0.00     0.134 A 
ATOM     74  F   UNL A   1      43.437  33.191  27.161  1.00  0.00    -0.206 F 
ATOM     75  C   UNL A   1      44.857  35.045  27.307  1.00  0.00     0.040 A 
ATOM     76  C   UNL A   1      45.459  35.945  29.445  1.00  0.00     0.040 A 
ATOM     77  F   UNL A   1      44.606  35.020  31.404  1.00  0.00    -0.206 F 
ATOM     78  C   UNL A   1      45.525  36.006  28.058  1.00  0.00     0.006 A 
ENDBRANCH  50  71
BRANCH  62  79
ATOM     79  C   UNL A   1      41.618  30.075  33.627  1.00  0.00     0.057 A 
ATOM     80  C   UNL A   1      40.787  31.141  34.003  1.00  0.00     0.134 A 
ATOM     81  C   UNL A   1      42.391  29.491  34.638  1.00  0.00     0.134 A 
ATOM     82  F   UNL A   1      39.939  31.704  33.133  1.00  0.00    -0.206 F 
ATOM     83  C   UNL A   1      40.767  31.634  35.311  1.00  0.00     0.040 A 
ATOM     84  C   UNL A   1      42.352  29.949  35.956  1.00  0.00     0.040 A 
ATOM     85  F   UNL A   1      43.171  28.433  34.366  1.00  0.00    -0.206 F 
ATOM     86  C   UNL A   1      41.547  31.033  36.294  1.00  0.00     0.006 A 
ENDBRANCH  62  79
ENDBRANCH  36  37
ENDBRANCH  28  31
ENDBRANCH  26  27
ENDBRANCH  25  26
ENDBRANCH   1  25
TORSDOF 14
ENDMDL
MODEL 3
REMARK VINA RESULT:     -12.2      1.413      1.993
REMARK SMILES CCc1c(C(=O)NCC(=O)NCCCNC(=O)c2ccc(-c3c4nc(c(-c5c(F)cccc5F)c5ccc([nH]5)c(-c5c(F)cccc5F)c5nc(c(-c6c(F)cccc6F)c6ccc3[nH]6)C=C5)C=C4)cc2)nnn1-c1ccc(C)cc1
REMARK SMILES IDX 12 1 11 2 9 3 10 4 8 6 7 7 5 8 6 9 4 11 3 12 74 13 72 14
REMARK SMILES IDX 73 15 2 16 1 17 75 18 76 19 81 20 77 21 80 22 78 23 79 24
REMARK SMILES IDX 13 25 14 26 15 27 16 28 17 30 18 31 19 32 71 33 20 34 70 35
REMARK SMILES IDX 21 36 22 37 23 38 64 39 24 40 69 41 63 42 65 43 25 44 68 45
REMARK SMILES IDX 62 46 61 47 26 49 52 50 35 51 51 52 36 53 39 54 50 55 66 56
REMARK SMILES IDX 37 57 38 58 49 60 67 61 40 62 27 63 28 64 33 65 29 66 30 67
REMARK SMILES IDX 32 68 34 69 31 70 53 71 54 72 59 73 55 74 56 75 58 76 60 77
REMARK SMILES IDX 57 78 41 79 42 80 47 81 43 82 44 83 46 84 48 85 45 86
REMARK H PARENT 11 5 7 10 15 29 65 48 39 59
REMARK Flexibility Score: inf
ROOT
ATOM      1  C   UNL A   1      33.566  28.961  25.268  1.00  0.00     0.117 C 
ENDROOT
BRANCH   1   2
ATOM      2  N   UNL A   1      32.367  29.487  24.647  1.00  0.00    -0.355 N 
ATOM      3  C   UNL A   1      31.228  28.884  24.218  1.00  0.00     0.239 C 
ATOM      4  O   UNL A   1      30.274  29.632  23.971  1.00  0.00    -0.273 OA
ATOM      5  H   UNL A   1      32.380  30.461  24.512  1.00  0.00     0.163 HD
BRANCH   3   6
ATOM      6  C   UNL A   1      31.027  27.363  24.105  1.00  0.00     0.216 C 
BRANCH   6   7
ATOM      7  N   UNL A   1      30.154  26.638  24.993  1.00  0.00    -0.342 N 
ATOM      8  C   UNL A   1      30.256  25.603  25.875  1.00  0.00     0.274 C 
ATOM      9  O   UNL A   1      29.247  25.489  26.582  1.00  0.00    -0.267 OA
ATOM     10  H   UNL A   1      29.234  26.984  24.952  1.00  0.00     0.164 HD
BRANCH   8  11
ATOM     11  C   UNL A   1      31.332  24.604  25.977  1.00  0.00     0.174 A 
ATOM     12  C   UNL A   1      32.256  23.953  25.147  1.00  0.00     0.077 A 
ATOM     13  N   UNL A   1      32.967  23.139  26.038  1.00  0.00    -0.217 N 
ATOM     14  N   UNL A   1      31.427  24.022  27.233  1.00  0.00    -0.124 NA
ATOM     15  N   UNL A   1      32.317  23.056  27.208  1.00  0.00    -0.061 NA
BRANCH  12  16
ATOM     16  C   UNL A   1      32.532  23.893  23.677  1.00  0.00     0.055 C 
ATOM     17  C   UNL A   1      33.613  24.867  23.208  1.00  0.00     0.011 C 
ENDBRANCH  12  16
BRANCH  13  18
ATOM     18  C   UNL A   1      34.138  22.377  25.827  1.00  0.00     0.067 A 
ATOM     19  C   UNL A   1      34.023  21.073  25.332  1.00  0.00     0.029 A 
ATOM     20  C   UNL A   1      35.398  22.927  26.079  1.00  0.00     0.029 A 
ATOM     21  C   UNL A   1      35.175  20.361  24.999  1.00  0.00     0.005 A 
ATOM     22  C   UNL A   1      36.545  22.201  25.764  1.00  0.00     0.005 A 
ATOM     23  C   UNL A   1      36.442  20.925  25.198  1.00  0.00    -0.051 A 
ATOM     24  C   UNL A   1      37.672  20.160  24.809  1.00  0.00     0.044 C 
ENDBRANCH  13  18
ENDBRANCH   8  11
ENDBRANCH   6   7
ENDBRANCH   3   6
ENDBRANCH   1   2
BRANCH   1  25
ATOM     25  C   UNL A   1      33.611  29.099  26.787  1.00  0.00     0.042 C 
BRANCH  25  26
ATOM     26  C   UNL A   1      35.035  29.079  27.324  1.00  0.00     0.118 C 
BRANCH  26  27
ATOM     27  N   UNL A   1      35.227  29.996  28.450  1.00  0.00    -0.352 N 
ATOM     28  C   UNL A   1      36.265  30.029  29.364  1.00  0.00     0.251 C 
ATOM     29  H   UNL A   1      34.527  30.678  28.571  1.00  0.00     0.163 HD
ATOM     30  O   UNL A   1      36.152  30.605  30.430  1.00  0.00    -0.269 OA
BRANCH  28  31
ATOM     31  C   UNL A   1      37.519  29.337  29.019  1.00  0.00     0.039 A 
ATOM     32  C   UNL A   1      38.234  29.689  27.873  1.00  0.00     0.014 A 
ATOM     33  C   UNL A   1      38.001  28.374  29.900  1.00  0.00     0.014 A 
ATOM     34  C   UNL A   1      39.497  29.138  27.676  1.00  0.00     0.010 A 
ATOM     35  C   UNL A   1      39.297  27.936  29.777  1.00  0.00     0.010 A 
ATOM     36  C   UNL A   1      40.041  28.286  28.652  1.00  0.00    -0.014 A 
BRANCH  36  37
ATOM     37  C   UNL A   1      41.445  27.886  28.578  1.00  0.00     0.031 A 
ATOM     38  C   UNL A   1      41.693  26.635  27.804  1.00  0.00     0.074 A 
ATOM     39  C   UNL A   1      42.465  28.687  28.959  1.00  0.00     0.049 A 
ATOM     40  N   UNL A   1      42.154  25.511  28.242  1.00  0.00    -0.248 NA
ATOM     41  C   UNL A   1      41.258  26.588  26.396  1.00  0.00     0.031 C 
ATOM     42  C   UNL A   1      42.389  30.075  29.431  1.00  0.00     0.029 A 
ATOM     43  N   UNL A   1      43.808  28.470  28.888  1.00  0.00    -0.354 N 
ATOM     44  C   UNL A   1      42.276  24.685  27.126  1.00  0.00     0.074 A 
ATOM     45  C   UNL A   1      41.541  25.326  26.068  1.00  0.00     0.031 C 
ATOM     46  C   UNL A   1      43.612  30.644  29.363  1.00  0.00     0.029 A 
ATOM     47  C   UNL A   1      44.580  29.620  29.020  1.00  0.00     0.049 A 
ATOM     48  H   UNL A   1      44.200  27.577  28.754  1.00  0.00     0.167 HD
ATOM     49  C   UNL A   1      43.200  23.684  27.096  1.00  0.00     0.037 A 
ATOM     50  C   UNL A   1      45.918  29.735  28.839  1.00  0.00     0.037 A 
ATOM     51  C   UNL A   1      43.679  23.385  28.423  1.00  0.00     0.049 A 
ATOM     52  C   UNL A   1      46.495  28.376  28.939  1.00  0.00     0.074 A 
ATOM     53  C   UNL A   1      43.111  22.962  29.608  1.00  0.00     0.029 A 
ATOM     54  N   UNL A   1      44.917  23.874  28.754  1.00  0.00    -0.354 N 
ATOM     55  N   UNL A   1      46.540  27.680  30.041  1.00  0.00    -0.248 NA
ATOM     56  C   UNL A   1      46.668  27.615  27.714  1.00  0.00     0.031 C 
ATOM     57  C   UNL A   1      43.844  23.634  30.633  1.00  0.00     0.029 A 
ATOM     58  C   UNL A   1      44.856  24.378  30.024  1.00  0.00     0.049 A 
ATOM     59  H   UNL A   1      45.714  23.864  28.176  1.00  0.00     0.167 HD
ATOM     60  C   UNL A   1      46.285  26.380  29.640  1.00  0.00     0.074 A 
ATOM     61  C   UNL A   1      46.511  26.379  28.197  1.00  0.00     0.031 C 
ATOM     62  C   UNL A   1      45.633  25.512  30.469  1.00  0.00     0.037 A 
BRANCH  49  63
ATOM     63  C   UNL A   1      44.000  23.292  25.868  1.00  0.00     0.057 A 
ATOM     64  C   UNL A   1      44.118  21.925  25.544  1.00  0.00     0.134 A 
ATOM     65  C   UNL A   1      44.912  24.138  25.205  1.00  0.00     0.134 A 
ATOM     66  F   UNL A   1      43.313  21.012  26.107  1.00  0.00    -0.206 F 
ATOM     67  C   UNL A   1      45.132  21.432  24.713  1.00  0.00     0.040 A 
ATOM     68  C   UNL A   1      45.895  23.661  24.332  1.00  0.00     0.040 A 
ATOM     69  F   UNL A   1      44.978  25.454  25.435  1.00  0.00    -0.206 F 
ATOM     70  C   UNL A   1      46.034  22.301  24.113  1.00  0.00     0.006 A 
ENDBRANCH  49  63
BRANCH  50  71
ATOM     71  C   UNL A   1      46.706  30.885  28.342  1.00  0.00     0.057 A 
ATOM     72  C   UNL A   1      46.564  31.344  27.025  1.00  0.00     0.134 A 
ATOM     73  C   UNL A   1      47.397  31.736  29.221  1.00  0.00     0.134 A 
ATOM     74  F   UNL A   1      45.891  30.619  26.119  1.00  0.00    -0.206 F 
ATOM     75  C   UNL A   1      47.045  32.594  26.614  1.00  0.00     0.040 A 
ATOM     76  C   UNL A   1      47.889  32.984  28.823  1.00  0.00     0.040 A 
ATOM     77  F   UNL A   1      47.535  31.429  30.519  1.00  0.00    -0.206 F 
ATOM     78  C   UNL A   1      47.698  33.425  27.519  1.00  0.00     0.006 A 
ENDBRANCH  50  71
BRANCH  62  79
ATOM     79  C   UNL A   1      45.529  25.882  31.924  1.00  0.00     0.057 A 
ATOM     80  C   UNL A   1      46.544  25.691  32.874  1.00  0.00     0.134 A 
ATOM     81  C   UNL A   1      44.385  26.567  32.351  1.00  0.00     0.134 A 
ATOM     82  F   UNL A   1      47.715  25.134  32.542  1.00  0.00    -0.206 F 
ATOM     83  C   UNL A   1      46.402  26.118  34.198  1.00  0.00     0.040 A 
ATOM     84  C   UNL A   1      44.248  27.031  33.660  1.00  0.00     0.040 A 
ATOM     85  F   UNL A   1      43.395  26.833  31.485  1.00  0.00    -0.206 F 
ATOM     86  C   UNL A   1      45.253  26.795  34.593  1.00  0.00     0.006 A 
ENDBRANCH  62  79
ENDBRANCH  36  37
ENDBRANCH  28  31
ENDBRANCH  26  27
ENDBRANCH  25  26
ENDBRANCH   1  25
TORSDOF 14
ENDMDL
