MODEL 1
REMARK VINA RESULT:     -11.3      0.000      0.000
REMARK SMILES COCC[C@H](NC(=O)N1CCN2C(=O)NC[C@H]2C1)C(=O)NCCCNC(=O)c1ccc(-c2c3nc(c(-c4c(F)cccc4F)c4ccc([nH]4)c(-c4c(F)cccc4F)c4nc(c(-c5c(F)cccc5F)c5ccc2[nH]5)C=C4)C=C3)cc1
REMARK SMILES IDX 22 1 21 2 19 3 20 4 5 6 4 7 3 8 2 9 1 10 6 11 7 12 8 14 9 15
REMARK SMILES IDX 10 16 18 17 11 18 17 19 12 20 16 21 13 22 15 23 14 24 23 26
REMARK SMILES IDX 24 27 25 28 26 29 27 31 28 32 29 33 81 34 30 35 80 36 31 37
REMARK SMILES IDX 32 38 33 39 74 40 34 41 79 42 73 43 75 44 35 45 78 46 72 47
REMARK SMILES IDX 71 48 36 50 62 51 45 52 61 53 46 54 49 55 60 56 76 57 47 58
REMARK SMILES IDX 48 59 59 61 77 62 50 63 37 64 38 65 43 66 39 67 40 68 42 69
REMARK SMILES IDX 44 70 41 71 63 72 64 73 69 74 65 75 66 76 68 77 70 78 67 79
REMARK SMILES IDX 51 80 52 81 57 82 53 83 54 84 56 85 58 86 55 87
REMARK H PARENT 21 5 6 13 15 25 25 30 75 49 49 60
REMARK Flexibility Score: inf
ROOT
ATOM      1  C   UNL A   1      31.514  30.665  26.712  1.00  0.00     0.117 C 
ENDROOT
BRANCH   1   2
ATOM      2  N   UNL A   1      32.739  30.222  27.319  1.00  0.00    -0.354 N 
ATOM      3  C   UNL A   1      33.492  29.143  26.975  1.00  0.00     0.242 C 
ATOM      4  O   UNL A   1      34.569  28.997  27.561  1.00  0.00    -0.273 OA
ATOM      5  H   UNL A   1      33.071  30.763  28.072  1.00  0.00     0.163 HD
BRANCH   3   6
ATOM      6  C   UNL A   1      33.128  28.252  25.758  1.00  0.00     0.175 C 
BRANCH   6   7
ATOM      7  C   UNL A   1      33.455  26.815  26.145  1.00  0.00     0.063 C 
BRANCH   7   8
ATOM      8  C   UNL A   1      32.267  25.859  26.172  1.00  0.00     0.162 C 
BRANCH   8   9
ATOM      9  O   UNL A   1      32.637  24.499  26.369  1.00  0.00    -0.385 OA
ATOM     10  C   UNL A   1      31.572  23.653  26.785  1.00  0.00     0.194 C 
ENDBRANCH   8   9
ENDBRANCH   7   8
ENDBRANCH   6   7
BRANCH   6  11
ATOM     11  N   UNL A   1      33.550  28.765  24.425  1.00  0.00    -0.326 N 
ATOM     12  C   UNL A   1      33.133  28.744  23.141  1.00  0.00     0.318 C 
ATOM     13  H   UNL A   1      34.389  29.274  24.503  1.00  0.00     0.166 HD
ATOM     14  O   UNL A   1      34.017  28.739  22.281  1.00  0.00    -0.249 OA
BRANCH  12  15
ATOM     15  N   UNL A   1      31.823  28.609  22.801  1.00  0.00    -0.321 N 
ATOM     16  C   UNL A   1      31.042  29.577  22.003  1.00  0.00     0.143 C 
ATOM     17  C   UNL A   1      31.218  27.265  22.820  1.00  0.00     0.148 C 
ATOM     18  C   UNL A   1      29.545  29.645  22.424  1.00  0.00     0.143 C 
ATOM     19  C   UNL A   1      29.900  27.405  23.560  1.00  0.00     0.125 C 
ATOM     20  N   UNL A   1      29.028  28.381  22.935  1.00  0.00    -0.317 N 
ATOM     21  C   UNL A   1      28.994  26.200  23.719  1.00  0.00     0.144 C 
ATOM     22  C   UNL A   1      27.717  28.127  23.325  1.00  0.00     0.317 C 
ATOM     23  N   UNL A   1      27.704  26.836  23.859  1.00  0.00    -0.336 N 
ATOM     24  O   UNL A   1      26.765  28.875  23.254  1.00  0.00    -0.249 OA
ATOM     25  H   UNL A   1      26.918  26.415  24.277  1.00  0.00     0.165 HD
ENDBRANCH  12  15
ENDBRANCH   6  11
ENDBRANCH   3   6
ENDBRANCH   1   2
BRANCH   1  26
ATOM     26  C   UNL A   1      31.406  32.178  26.697  1.00  0.00     0.042 C 
BRANCH  26  27
ATOM     27  C   UNL A   1      32.679  32.839  27.192  1.00  0.00     0.118 C 
BRANCH  27  28
ATOM     28  N   UNL A   1      32.438  34.209  27.635  1.00  0.00    -0.352 N 
ATOM     29  C   UNL A   1      33.033  34.925  28.639  1.00  0.00     0.251 C 
ATOM     30  H   UNL A   1      31.742  34.692  27.134  1.00  0.00     0.163 HD
ATOM     31  O   UNL A   1      32.526  35.979  29.012  1.00  0.00    -0.269 OA
BRANCH  29  32
ATOM     32  C   UNL A   1      34.257  34.415  29.283  1.00  0.00     0.039 A 
ATOM     33  C   UNL A   1      34.139  33.700  30.476  1.00  0.00     0.014 A 
ATOM     34  C   UNL A   1      35.516  34.638  28.716  1.00  0.00     0.014 A 
ATOM     35  C   UNL A   1      35.279  33.158  31.065  1.00  0.00     0.010 A 
ATOM     36  C   UNL A   1      36.633  34.007  29.244  1.00  0.00     0.010 A 
ATOM     37  C   UNL A   1      36.528  33.271  30.431  1.00  0.00    -0.014 A 
BRANCH  37  38
ATOM     38  C   UNL A   1      37.722  32.606  31.001  1.00  0.00     0.031 A 
ATOM     39  C   UNL A   1      38.333  33.093  32.283  1.00  0.00     0.074 A 
ATOM     40  C   UNL A   1      38.280  31.584  30.325  1.00  0.00     0.049 A 
ATOM     41  N   UNL A   1      39.357  32.613  32.942  1.00  0.00    -0.248 NA
ATOM     42  C   UNL A   1      37.740  34.294  32.891  1.00  0.00     0.031 C 
ATOM     43  C   UNL A   1      37.828  31.083  29.025  1.00  0.00     0.029 A 
ATOM     44  N   UNL A   1      39.346  30.782  30.638  1.00  0.00    -0.354 N 
ATOM     45  C   UNL A   1      39.535  33.456  34.030  1.00  0.00     0.074 A 
ATOM     46  C   UNL A   1      38.558  34.516  33.908  1.00  0.00     0.031 C 
ATOM     47  C   UNL A   1      38.584  30.034  28.670  1.00  0.00     0.029 A 
ATOM     48  C   UNL A   1      39.597  29.813  29.696  1.00  0.00     0.049 A 
ATOM     49  H   UNL A   1      39.881  30.889  31.457  1.00  0.00     0.167 HD
ATOM     50  C   UNL A   1      40.418  33.344  35.052  1.00  0.00     0.037 A 
ATOM     51  C   UNL A   1      40.539  28.853  29.665  1.00  0.00     0.037 A 
ATOM     52  C   UNL A   1      41.380  32.280  35.166  1.00  0.00     0.049 A 
ATOM     53  C   UNL A   1      41.487  28.729  30.822  1.00  0.00     0.074 A 
ATOM     54  C   UNL A   1      42.264  32.023  36.199  1.00  0.00     0.029 A 
ATOM     55  N   UNL A   1      41.594  31.301  34.205  1.00  0.00    -0.354 N 
ATOM     56  N   UNL A   1      41.576  29.469  31.902  1.00  0.00    -0.248 NA
ATOM     57  C   UNL A   1      42.455  27.627  30.764  1.00  0.00     0.031 C 
ATOM     58  C   UNL A   1      43.059  30.930  35.832  1.00  0.00     0.029 A 
ATOM     59  C   UNL A   1      42.623  30.462  34.602  1.00  0.00     0.049 A 
ATOM     60  H   UNL A   1      41.089  31.216  33.364  1.00  0.00     0.167 HD
ATOM     61  C   UNL A   1      42.601  28.917  32.659  1.00  0.00     0.074 A 
ATOM     62  C   UNL A   1      43.077  27.760  31.926  1.00  0.00     0.031 C 
ATOM     63  C   UNL A   1      43.104  29.329  33.849  1.00  0.00     0.037 A 
BRANCH  50  64
ATOM     64  C   UNL A   1      40.386  34.411  36.111  1.00  0.00     0.057 A 
ATOM     65  C   UNL A   1      39.550  34.326  37.234  1.00  0.00     0.134 A 
ATOM     66  C   UNL A   1      41.212  35.538  36.010  1.00  0.00     0.134 A 
ATOM     67  F   UNL A   1      38.723  33.281  37.388  1.00  0.00    -0.206 F 
ATOM     68  C   UNL A   1      39.507  35.339  38.194  1.00  0.00     0.040 A 
ATOM     69  C   UNL A   1      41.203  36.542  36.982  1.00  0.00     0.040 A 
ATOM     70  F   UNL A   1      42.042  35.685  34.967  1.00  0.00    -0.206 F 
ATOM     71  C   UNL A   1      40.340  36.449  38.072  1.00  0.00     0.006 A 
ENDBRANCH  50  64
BRANCH  51  72
ATOM     72  C   UNL A   1      40.605  27.927  28.506  1.00  0.00     0.057 A 
ATOM     73  C   UNL A   1      39.876  26.734  28.484  1.00  0.00     0.134 A 
ATOM     74  C   UNL A   1      41.380  28.232  27.380  1.00  0.00     0.134 A 
ATOM     75  F   UNL A   1      39.125  26.380  29.537  1.00  0.00    -0.206 F 
ATOM     76  C   UNL A   1      39.927  25.867  27.390  1.00  0.00     0.040 A 
ATOM     77  C   UNL A   1      41.417  27.389  26.269  1.00  0.00     0.040 A 
ATOM     78  F   UNL A   1      42.091  29.368  27.334  1.00  0.00    -0.206 F 
ATOM     79  C   UNL A   1      40.694  26.198  26.275  1.00  0.00     0.006 A 
ENDBRANCH  51  72
BRANCH  63  80
ATOM     80  C   UNL A   1      44.223  28.512  34.430  1.00  0.00     0.057 A 
ATOM     81  C   UNL A   1      45.569  28.815  34.180  1.00  0.00     0.134 A 
ATOM     82  C   UNL A   1      43.952  27.407  35.246  1.00  0.00     0.134 A 
ATOM     83  F   UNL A   1      45.900  29.854  33.398  1.00  0.00    -0.206 F 
ATOM     84  C   UNL A   1      46.602  28.023  34.686  1.00  0.00     0.040 A 
ATOM     85  C   UNL A   1      44.978  26.629  35.786  1.00  0.00     0.040 A 
ATOM     86  F   UNL A   1      42.688  27.067  35.537  1.00  0.00    -0.206 F 
ATOM     87  C   UNL A   1      46.307  26.928  35.494  1.00  0.00     0.006 A 
ENDBRANCH  63  80
ENDBRANCH  37  38
ENDBRANCH  29  32
ENDBRANCH  27  28
ENDBRANCH  26  27
ENDBRANCH   1  26
TORSDOF 15
ENDMDL
MODEL 2
REMARK VINA RESULT:     -11.2      5.134      9.926
REMARK SMILES COCC[C@H](NC(=O)N1CCN2C(=O)NC[C@H]2C1)C(=O)NCCCNC(=O)c1ccc(-c2c3nc(c(-c4c(F)cccc4F)c4ccc([nH]4)c(-c4c(F)cccc4F)c4nc(c(-c5c(F)cccc5F)c5ccc2[nH]5)C=C4)C=C3)cc1
REMARK SMILES IDX 22 1 21 2 19 3 20 4 5 6 4 7 3 8 2 9 1 10 6 11 7 12 8 14 9 15
REMARK SMILES IDX 10 16 18 17 11 18 17 19 12 20 16 21 13 22 15 23 14 24 23 26
REMARK SMILES IDX 24 27 25 28 26 29 27 31 28 32 29 33 81 34 30 35 80 36 31 37
REMARK SMILES IDX 32 38 33 39 74 40 34 41 79 42 73 43 75 44 35 45 78 46 72 47
REMARK SMILES IDX 71 48 36 50 62 51 45 52 61 53 46 54 49 55 60 56 76 57 47 58
REMARK SMILES IDX 48 59 59 61 77 62 50 63 37 64 38 65 43 66 39 67 40 68 42 69
REMARK SMILES IDX 44 70 41 71 63 72 64 73 69 74 65 75 66 76 68 77 70 78 67 79
REMARK SMILES IDX 51 80 52 81 57 82 53 83 54 84 56 85 58 86 55 87
REMARK H PARENT 21 5 6 13 15 25 25 30 75 49 49 60
REMARK Flexibility Score: inf
ROOT
ATOM      1  C   UNL A   1      36.473  20.676  25.058  1.00  0.00     0.117 C 
ENDROOT
BRANCH   1   2
ATOM      2  N   UNL A   1      35.228  19.961  25.001  1.00  0.00    -0.354 N 
ATOM      3  C   UNL A   1      33.974  20.483  24.919  1.00  0.00     0.242 C 
ATOM      4  O   UNL A   1      33.041  19.688  24.776  1.00  0.00    -0.273 OA
ATOM      5  H   UNL A   1      35.289  18.979  25.025  1.00  0.00     0.163 HD
BRANCH   3   6
ATOM      6  C   UNL A   1      33.737  22.011  24.793  1.00  0.00     0.175 C 
BRANCH   6   7
ATOM      7  C   UNL A   1      32.465  22.329  25.570  1.00  0.00     0.063 C 
BRANCH   7   8
ATOM      8  C   UNL A   1      32.627  23.332  26.707  1.00  0.00     0.162 C 
BRANCH   8   9
ATOM      9  O   UNL A   1      31.396  23.705  27.316  1.00  0.00    -0.385 OA
ATOM     10  C   UNL A   1      30.271  22.953  26.876  1.00  0.00     0.194 C 
ENDBRANCH   8   9
ENDBRANCH   7   8
ENDBRANCH   6   7
BRANCH   6  11
ATOM     11  N   UNL A   1      33.929  22.592  23.435  1.00  0.00    -0.326 N 
ATOM     12  C   UNL A   1      33.422  23.575  22.661  1.00  0.00     0.318 C 
ATOM     13  H   UNL A   1      34.643  22.113  22.955  1.00  0.00     0.166 HD
ATOM     14  O   UNL A   1      33.401  23.356  21.447  1.00  0.00    -0.249 OA
BRANCH  12  15
ATOM     15  N   UNL A   1      32.850  24.693  23.183  1.00  0.00    -0.321 N 
ATOM     16  C   UNL A   1      31.409  24.867  23.460  1.00  0.00     0.143 C 
ATOM     17  C   UNL A   1      33.694  25.641  23.933  1.00  0.00     0.148 C 
ATOM     18  C   UNL A   1      30.922  26.331  23.255  1.00  0.00     0.143 C 
ATOM     19  C   UNL A   1      33.359  27.021  23.397  1.00  0.00     0.125 C 
ATOM     20  N   UNL A   1      31.949  27.329  23.535  1.00  0.00    -0.317 N 
ATOM     21  C   UNL A   1      34.028  28.243  23.994  1.00  0.00     0.144 C 
ATOM     22  C   UNL A   1      31.784  28.709  23.499  1.00  0.00     0.317 C 
ATOM     23  N   UNL A   1      33.048  29.266  23.710  1.00  0.00    -0.336 N 
ATOM     24  O   UNL A   1      30.761  29.328  23.293  1.00  0.00    -0.249 OA
ATOM     25  H   UNL A   1      33.244  30.230  23.670  1.00  0.00     0.165 HD
ENDBRANCH  12  15
ENDBRANCH   6  11
ENDBRANCH   3   6
ENDBRANCH   1   2
BRANCH   1  26
ATOM     26  C   UNL A   1      37.664  19.751  24.896  1.00  0.00     0.042 C 
BRANCH  26  27
ATOM     27  C   UNL A   1      38.859  20.224  25.701  1.00  0.00     0.118 C 
BRANCH  27  28
ATOM     28  N   UNL A   1      39.898  19.200  25.777  1.00  0.00    -0.352 N 
ATOM     29  C   UNL A   1      41.249  19.331  25.956  1.00  0.00     0.251 C 
ATOM     30  H   UNL A   1      39.576  18.274  25.686  1.00  0.00     0.163 HD
ATOM     31  O   UNL A   1      41.982  18.368  25.751  1.00  0.00    -0.269 OA
BRANCH  29  32
ATOM     32  C   UNL A   1      41.816  20.629  26.366  1.00  0.00     0.039 A 
ATOM     33  C   UNL A   1      42.165  21.549  25.376  1.00  0.00     0.014 A 
ATOM     34  C   UNL A   1      42.003  20.940  27.716  1.00  0.00     0.014 A 
ATOM     35  C   UNL A   1      42.645  22.803  25.747  1.00  0.00     0.010 A 
ATOM     36  C   UNL A   1      42.376  22.225  28.084  1.00  0.00     0.010 A 
ATOM     37  C   UNL A   1      42.714  23.166  27.103  1.00  0.00    -0.014 A 
BRANCH  37  38
ATOM     38  C   UNL A   1      43.122  24.533  27.496  1.00  0.00     0.031 A 
ATOM     39  C   UNL A   1      44.564  24.949  27.443  1.00  0.00     0.074 A 
ATOM     40  C   UNL A   1      42.183  25.388  27.945  1.00  0.00     0.049 A 
ATOM     41  N   UNL A   1      45.096  26.112  27.718  1.00  0.00    -0.248 NA
ATOM     42  C   UNL A   1      45.542  23.918  27.063  1.00  0.00     0.031 C 
ATOM     43  C   UNL A   1      40.765  25.067  28.124  1.00  0.00     0.029 A 
ATOM     44  N   UNL A   1      42.278  26.699  28.330  1.00  0.00    -0.354 N 
ATOM     45  C   UNL A   1      46.466  25.948  27.556  1.00  0.00     0.074 A 
ATOM     46  C   UNL A   1      46.689  24.558  27.224  1.00  0.00     0.031 C 
ATOM     47  C   UNL A   1      40.115  26.162  28.545  1.00  0.00     0.029 A 
ATOM     48  C   UNL A   1      41.076  27.249  28.702  1.00  0.00     0.049 A 
ATOM     49  H   UNL A   1      43.126  27.199  28.339  1.00  0.00     0.167 HD
ATOM     50  C   UNL A   1      47.446  26.878  27.652  1.00  0.00     0.037 A 
ATOM     51  C   UNL A   1      40.780  28.492  29.123  1.00  0.00     0.037 A 
ATOM     52  C   UNL A   1      47.210  28.261  27.975  1.00  0.00     0.049 A 
ATOM     53  C   UNL A   1      41.877  29.514  29.193  1.00  0.00     0.074 A 
ATOM     54  C   UNL A   1      48.117  29.305  28.017  1.00  0.00     0.029 A 
ATOM     55  N   UNL A   1      45.976  28.791  28.326  1.00  0.00    -0.354 N 
ATOM     56  N   UNL A   1      43.155  29.376  28.931  1.00  0.00    -0.248 NA
ATOM     57  C   UNL A   1      41.489  30.870  29.600  1.00  0.00     0.031 C 
ATOM     58  C   UNL A   1      47.445  30.450  28.459  1.00  0.00     0.029 A 
ATOM     59  C   UNL A   1      46.105  30.138  28.625  1.00  0.00     0.049 A 
ATOM     60  H   UNL A   1      45.132  28.284  28.359  1.00  0.00     0.167 HD
ATOM     61  C   UNL A   1      43.723  30.627  29.130  1.00  0.00     0.074 A 
ATOM     62  C   UNL A   1      42.641  31.517  29.502  1.00  0.00     0.031 C 
ATOM     63  C   UNL A   1      45.021  31.006  29.019  1.00  0.00     0.037 A 
BRANCH  50  64
ATOM     64  C   UNL A   1      48.859  26.419  27.419  1.00  0.00     0.057 A 
ATOM     65  C   UNL A   1      49.691  25.999  28.466  1.00  0.00     0.134 A 
ATOM     66  C   UNL A   1      49.392  26.388  26.124  1.00  0.00     0.134 A 
ATOM     67  F   UNL A   1      49.250  26.015  29.733  1.00  0.00    -0.206 F 
ATOM     68  C   UNL A   1      51.012  25.605  28.240  1.00  0.00     0.040 A 
ATOM     69  C   UNL A   1      50.700  25.963  25.881  1.00  0.00     0.040 A 
ATOM     70  F   UNL A   1      48.652  26.769  25.072  1.00  0.00    -0.206 F 
ATOM     71  C   UNL A   1      51.517  25.580  26.942  1.00  0.00     0.006 A 
ENDBRANCH  50  64
BRANCH  51  72
ATOM     72  C   UNL A   1      39.381  28.832  29.484  1.00  0.00     0.057 A 
ATOM     73  C   UNL A   1      38.893  28.633  30.780  1.00  0.00     0.134 A 
ATOM     74  C   UNL A   1      38.506  29.392  28.544  1.00  0.00     0.134 A 
ATOM     75  F   UNL A   1      39.678  28.089  31.722  1.00  0.00    -0.206 F 
ATOM     76  C   UNL A   1      37.581  28.962  31.126  1.00  0.00     0.040 A 
ATOM     77  C   UNL A   1      37.202  29.752  28.883  1.00  0.00     0.040 A 
ATOM     78  F   UNL A   1      38.918  29.621  27.288  1.00  0.00    -0.206 F 
ATOM     79  C   UNL A   1      36.733  29.531  30.177  1.00  0.00     0.006 A 
ENDBRANCH  51  72
BRANCH  63  80
ATOM     80  C   UNL A   1      45.330  32.450  29.297  1.00  0.00     0.057 A 
ATOM     81  C   UNL A   1      45.728  32.893  30.566  1.00  0.00     0.134 A 
ATOM     82  C   UNL A   1      45.226  33.411  28.283  1.00  0.00     0.134 A 
ATOM     83  F   UNL A   1      45.838  32.026  31.585  1.00  0.00    -0.206 F 
ATOM     84  C   UNL A   1      45.969  34.242  30.826  1.00  0.00     0.040 A 
ATOM     85  C   UNL A   1      45.498  34.758  28.523  1.00  0.00     0.040 A 
ATOM     86  F   UNL A   1      44.862  33.056  27.041  1.00  0.00    -0.206 F 
ATOM     87  C   UNL A   1      45.857  35.179  29.802  1.00  0.00     0.006 A 
ENDBRANCH  63  80
ENDBRANCH  37  38
ENDBRANCH  29  32
ENDBRANCH  27  28
ENDBRANCH  26  27
ENDBRANCH   1  26
TORSDOF 15
ENDMDL
MODEL 3
REMARK VINA RESULT:     -11.1      0.602      6.133
REMARK SMILES COCC[C@H](NC(=O)N1CCN2C(=O)NC[C@H]2C1)C(=O)NCCCNC(=O)c1ccc(-c2c3nc(c(-c4c(F)cccc4F)c4ccc([nH]4)c(-c4c(F)cccc4F)c4nc(c(-c5c(F)cccc5F)c5ccc2[nH]5)C=C4)C=C3)cc1
REMARK SMILES IDX 22 1 21 2 19 3 20 4 5 6 4 7 3 8 2 9 1 10 6 11 7 12 8 14 9 15
REMARK SMILES IDX 10 16 18 17 11 18 17 19 12 20 16 21 13 22 15 23 14 24 23 26
REMARK SMILES IDX 24 27 25 28 26 29 27 31 28 32 29 33 81 34 30 35 80 36 31 37
REMARK SMILES IDX 32 38 33 39 74 40 34 41 79 42 73 43 75 44 35 45 78 46 72 47
REMARK SMILES IDX 71 48 36 50 62 51 45 52 61 53 46 54 49 55 60 56 76 57 47 58
REMARK SMILES IDX 48 59 59 61 77 62 50 63 37 64 38 65 43 66 39 67 40 68 42 69
REMARK SMILES IDX 44 70 41 71 63 72 64 73 69 74 65 75 66 76 68 77 70 78 67 79
REMARK SMILES IDX 51 80 52 81 57 82 53 83 54 84 56 85 58 86 55 87
REMARK H PARENT 21 5 6 13 15 25 25 30 75 49 49 60
REMARK Flexibility Score: inf
ROOT
ATOM      1  C   UNL A   1      31.629  30.749  26.687  1.00  0.00     0.117 C 
ENDROOT
BRANCH   1   2
ATOM      2  N   UNL A   1      32.902  30.327  27.206  1.00  0.00    -0.354 N 
ATOM      3  C   UNL A   1      33.636  29.248  26.825  1.00  0.00     0.242 C 
ATOM      4  O   UNL A   1      34.756  29.122  27.329  1.00  0.00    -0.273 OA
ATOM      5  H   UNL A   1      33.285  30.885  27.921  1.00  0.00     0.163 HD
BRANCH   3   6
ATOM      6  C   UNL A   1      33.188  28.331  25.655  1.00  0.00     0.175 C 
BRANCH   6   7
ATOM      7  C   UNL A   1      33.456  26.894  26.090  1.00  0.00     0.063 C 
BRANCH   7   8
ATOM      8  C   UNL A   1      32.216  26.025  26.269  1.00  0.00     0.162 C 
BRANCH   8   9
ATOM      9  O   UNL A   1      32.455  24.641  26.038  1.00  0.00    -0.385 OA
ATOM     10  C   UNL A   1      31.636  23.766  26.806  1.00  0.00     0.194 C 
ENDBRANCH   8   9
ENDBRANCH   7   8
ENDBRANCH   6   7
BRANCH   6  11
ATOM     11  N   UNL A   1      33.591  28.770  24.291  1.00  0.00    -0.326 N 
ATOM     12  C   UNL A   1      33.147  28.695  23.018  1.00  0.00     0.318 C 
ATOM     13  H   UNL A   1      34.441  29.266  24.327  1.00  0.00     0.166 HD
ATOM     14  O   UNL A   1      34.013  28.632  22.141  1.00  0.00    -0.249 OA
BRANCH  12  15
ATOM     15  N   UNL A   1      31.828  28.569  22.712  1.00  0.00    -0.321 N 
ATOM     16  C   UNL A   1      31.033  29.543  21.935  1.00  0.00     0.143 C 
ATOM     17  C   UNL A   1      31.215  27.229  22.744  1.00  0.00     0.148 C 
ATOM     18  C   UNL A   1      29.548  29.619  22.394  1.00  0.00     0.143 C 
ATOM     19  C   UNL A   1      29.917  27.376  23.518  1.00  0.00     0.125 C 
ATOM     20  N   UNL A   1      29.036  28.358  22.917  1.00  0.00    -0.317 N 
ATOM     21  C   UNL A   1      29.008  26.176  23.698  1.00  0.00     0.144 C 
ATOM     22  C   UNL A   1      27.734  28.111  23.340  1.00  0.00     0.317 C 
ATOM     23  N   UNL A   1      27.726  26.820  23.872  1.00  0.00    -0.336 N 
ATOM     24  O   UNL A   1      26.785  28.866  23.294  1.00  0.00    -0.249 OA
ATOM     25  H   UNL A   1      26.949  26.403  24.309  1.00  0.00     0.165 HD
ENDBRANCH  12  15
ENDBRANCH   6  11
ENDBRANCH   3   6
ENDBRANCH   1   2
BRANCH   1  26
ATOM     26  C   UNL A   1      31.469  32.256  26.740  1.00  0.00     0.042 C 
BRANCH  26  27
ATOM     27  C   UNL A   1      32.736  32.941  27.219  1.00  0.00     0.118 C 
BRANCH  27  28
ATOM     28  N   UNL A   1      32.484  34.323  27.618  1.00  0.00    -0.352 N 
ATOM     29  C   UNL A   1      33.023  35.053  28.643  1.00  0.00     0.251 C 
ATOM     30  H   UNL A   1      31.825  34.802  27.065  1.00  0.00     0.163 HD
ATOM     31  O   UNL A   1      32.507  36.120  28.962  1.00  0.00    -0.269 OA
BRANCH  29  32
ATOM     32  C   UNL A   1      34.200  34.545  29.371  1.00  0.00     0.039 A 
ATOM     33  C   UNL A   1      34.009  33.948  30.618  1.00  0.00     0.014 A 
ATOM     34  C   UNL A   1      35.485  34.653  28.830  1.00  0.00     0.014 A 
ATOM     35  C   UNL A   1      35.102  33.407  31.292  1.00  0.00     0.010 A 
ATOM     36  C   UNL A   1      36.552  34.018  29.450  1.00  0.00     0.010 A 
ATOM     37  C   UNL A   1      36.373  33.400  30.694  1.00  0.00    -0.014 A 
BRANCH  37  38
ATOM     38  C   UNL A   1      37.514  32.732  31.362  1.00  0.00     0.031 A 
ATOM     39  C   UNL A   1      38.168  31.530  30.743  1.00  0.00     0.074 A 
ATOM     40  C   UNL A   1      37.927  33.193  32.557  1.00  0.00     0.049 A 
ATOM     41  N   UNL A   1      39.195  30.841  31.170  1.00  0.00    -0.248 NA
ATOM     42  C   UNL A   1      37.575  31.014  29.500  1.00  0.00     0.031 C 
ATOM     43  C   UNL A   1      37.311  34.297  33.297  1.00  0.00     0.029 A 
ATOM     44  N   UNL A   1      38.963  32.793  33.360  1.00  0.00    -0.354 N 
ATOM     45  C   UNL A   1      39.361  29.808  30.257  1.00  0.00     0.074 A 
ATOM     46  C   UNL A   1      38.291  29.921  29.291  1.00  0.00     0.031 C 
ATOM     47  C   UNL A   1      38.004  34.513  34.425  1.00  0.00     0.029 A 
ATOM     48  C   UNL A   1      39.088  33.540  34.506  1.00  0.00     0.049 A 
ATOM     49  H   UNL A   1      39.561  32.043  33.137  1.00  0.00     0.167 HD
ATOM     50  C   UNL A   1      40.333  28.865  30.215  1.00  0.00     0.037 A 
ATOM     51  C   UNL A   1      39.978  33.450  35.511  1.00  0.00     0.037 A 
ATOM     52  C   UNL A   1      41.399  28.769  31.178  1.00  0.00     0.049 A 
ATOM     53  C   UNL A   1      41.063  32.417  35.429  1.00  0.00     0.074 A 
ATOM     54  C   UNL A   1      42.481  27.907  31.185  1.00  0.00     0.029 A 
ATOM     55  N   UNL A   1      41.508  29.555  32.317  1.00  0.00    -0.354 N 
ATOM     56  N   UNL A   1      41.277  31.513  34.502  1.00  0.00    -0.248 NA
ATOM     57  C   UNL A   1      42.043  32.403  36.522  1.00  0.00     0.031 C 
ATOM     58  C   UNL A   1      43.206  28.126  32.362  1.00  0.00     0.029 A 
ATOM     59  C   UNL A   1      42.618  29.172  33.054  1.00  0.00     0.049 A 
ATOM     60  H   UNL A   1      40.888  30.279  32.565  1.00  0.00     0.167 HD
ATOM     61  C   UNL A   1      42.419  30.829  34.893  1.00  0.00     0.074 A 
ATOM     62  C   UNL A   1      42.871  31.448  36.124  1.00  0.00     0.031 C 
ATOM     63  C   UNL A   1      43.039  29.782  34.292  1.00  0.00     0.037 A 
BRANCH  50  64
ATOM     64  C   UNL A   1      40.271  27.859  29.099  1.00  0.00     0.057 A 
ATOM     65  C   UNL A   1      39.494  26.695  29.182  1.00  0.00     0.134 A 
ATOM     66  C   UNL A   1      40.995  28.063  27.917  1.00  0.00     0.134 A 
ATOM     67  F   UNL A   1      38.786  26.429  30.291  1.00  0.00    -0.206 F 
ATOM     68  C   UNL A   1      39.470  25.753  28.152  1.00  0.00     0.040 A 
ATOM     69  C   UNL A   1      40.952  27.146  26.864  1.00  0.00     0.040 A 
ATOM     70  F   UNL A   1      41.755  29.157  27.762  1.00  0.00    -0.206 F 
ATOM     71  C   UNL A   1      40.197  25.981  26.985  1.00  0.00     0.006 A 
ENDBRANCH  50  64
BRANCH  51  72
ATOM     72  C   UNL A   1      39.883  34.384  36.661  1.00  0.00     0.057 A 
ATOM     73  C   UNL A   1      39.172  34.047  37.818  1.00  0.00     0.134 A 
ATOM     74  C   UNL A   1      40.527  35.628  36.640  1.00  0.00     0.134 A 
ATOM     75  F   UNL A   1      38.523  32.876  37.895  1.00  0.00    -0.206 F 
ATOM     76  C   UNL A   1      39.090  34.918  38.906  1.00  0.00     0.040 A 
ATOM     77  C   UNL A   1      40.478  36.495  37.730  1.00  0.00     0.040 A 
ATOM     78  F   UNL A   1      41.237  36.004  35.565  1.00  0.00    -0.206 F 
ATOM     79  C   UNL A   1      39.752  36.145  38.866  1.00  0.00     0.006 A 
ENDBRANCH  51  72
BRANCH  63  80
ATOM     80  C   UNL A   1      44.276  29.253  34.961  1.00  0.00     0.057 A 
ATOM     81  C   UNL A   1      45.554  29.739  34.650  1.00  0.00     0.134 A 
ATOM     82  C   UNL A   1      44.189  28.242  35.926  1.00  0.00     0.134 A 
ATOM     83  F   UNL A   1      45.710  30.700  33.726  1.00  0.00    -0.206 F 
ATOM     84  C   UNL A   1      46.701  29.209  35.242  1.00  0.00     0.040 A 
ATOM     85  C   UNL A   1      45.327  27.729  36.552  1.00  0.00     0.040 A 
ATOM     86  F   UNL A   1      42.998  27.739  36.282  1.00  0.00    -0.206 F 
ATOM     87  C   UNL A   1      46.588  28.203  36.200  1.00  0.00     0.006 A 
ENDBRANCH  63  80
ENDBRANCH  37  38
ENDBRANCH  29  32
ENDBRANCH  27  28
ENDBRANCH  26  27
ENDBRANCH   1  26
TORSDOF 15
ENDMDL
