MODEL 1
REMARK VINA RESULT:     -11.0      0.000      0.000
REMARK SMILES CCC[NH2+][C@@]1(C(=O)NCCCNC(=O)c2ccc(-c3c4nc(c(-c5c(F)cccc5F)c5ccc([nH]5)c(-c5c(F)cccc5F)c5nc(c(-c6c(F)cccc6F)c6ccc3[nH]6)C=C5)C=C4)cc2)CC[C@@H](Sc2ccc(Cl)cc2)C1
REMARK SMILES IDX 9 1 8 2 6 3 7 4 5 6 69 7 80 8 70 9 71 10 4 11 3 14 2 15 1 16
REMARK SMILES IDX 72 17 73 18 74 19 79 20 75 21 78 22 76 23 77 24 10 25 11 26
REMARK SMILES IDX 12 27 13 28 14 30 15 31 16 32 68 33 17 34 67 35 18 36 19 37
REMARK SMILES IDX 20 38 61 39 21 40 66 41 60 42 62 43 22 44 65 45 59 46 58 47
REMARK SMILES IDX 23 49 49 50 32 51 48 52 33 53 36 54 47 55 63 56 34 57 35 58
REMARK SMILES IDX 46 60 64 61 37 62 24 63 25 64 30 65 26 66 27 67 29 68 31 69
REMARK SMILES IDX 28 70 50 71 51 72 56 73 52 74 53 75 55 76 57 77 54 78 38 79
REMARK SMILES IDX 39 80 44 81 40 82 41 83 43 84 45 85 42 86
REMARK H PARENT 8 5 4 12 4 13 12 29 62 48 36 59
REMARK Flexibility Score: inf
ROOT
ATOM      1  C   UNL A   1      36.579  20.467  25.002  1.00  0.00     0.118 C 
ENDROOT
BRANCH   1   2
ATOM      2  N   UNL A   1      35.430  19.600  25.000  1.00  0.00    -0.351 N 
ATOM      3  C   UNL A   1      34.141  19.838  24.661  1.00  0.00     0.281 C 
ATOM      4  O   UNL A   1      33.530  18.831  24.271  1.00  0.00    -0.268 OA
ATOM      5  H   UNL A   1      35.613  18.678  25.294  1.00  0.00     0.163 HD
BRANCH   3   6
ATOM      6  C   UNL A   1      33.432  21.252  24.689  1.00  0.00     0.176 C 
ATOM      7  C   UNL A   1      31.999  21.156  24.130  1.00  0.00     0.080 C 
ATOM      8  C   UNL A   1      34.084  22.408  23.912  1.00  0.00     0.094 C 
ATOM      9  C   UNL A   1      31.954  21.879  22.784  1.00  0.00     0.022 C 
ATOM     10  C   UNL A   1      33.302  22.575  22.606  1.00  0.00     0.058 C 
BRANCH   6  11
ATOM     11  N   UNL A   1      33.290  21.630  26.135  1.00  0.00    -0.334 N 
ATOM     12  H   UNL A   1      32.404  21.256  26.475  1.00  0.00     0.347 HD
ATOM     13  H   UNL A   1      34.103  21.240  26.612  1.00  0.00     0.347 HD
BRANCH  11  14
ATOM     14  C   UNL A   1      33.310  23.076  26.405  1.00  0.00     0.261 C 
BRANCH  14  15
ATOM     15  C   UNL A   1      32.104  23.501  27.251  1.00  0.00     0.058 C 
ATOM     16  C   UNL A   1      30.768  22.953  26.760  1.00  0.00     0.010 C 
ENDBRANCH  14  15
ENDBRANCH  11  14
ENDBRANCH   6  11
BRANCH  10  17
ATOM     17  S   UNL A   1      33.280  24.285  21.936  1.00  0.00    -0.122 SA
BRANCH  17  18
ATOM     18  C   UNL A   1      32.767  25.241  23.346  1.00  0.00     0.008 A 
ATOM     19  C   UNL A   1      31.405  25.318  23.665  1.00  0.00     0.016 A 
ATOM     20  C   UNL A   1      33.697  25.921  24.136  1.00  0.00     0.016 A 
ATOM     21  C   UNL A   1      30.981  26.039  24.783  1.00  0.00     0.021 A 
ATOM     22  C   UNL A   1      33.275  26.646  25.251  1.00  0.00     0.021 A 
ATOM     23  C   UNL A   1      31.921  26.699  25.573  1.00  0.00     0.041 A 
ATOM     24  Cl  UNL A   1      31.403  27.589  26.951  1.00  0.00    -0.084 Cl
ENDBRANCH  17  18
ENDBRANCH  10  17
ENDBRANCH   3   6
ENDBRANCH   1   2
BRANCH   1  25
ATOM     25  C   UNL A   1      37.886  19.716  24.814  1.00  0.00     0.042 C 
BRANCH  25  26
ATOM     26  C   UNL A   1      38.977  20.195  25.758  1.00  0.00     0.118 C 
BRANCH  26  27
ATOM     27  N   UNL A   1      40.030  19.197  25.924  1.00  0.00    -0.352 N 
ATOM     28  C   UNL A   1      41.383  19.353  26.064  1.00  0.00     0.251 C 
ATOM     29  H   UNL A   1      39.718  18.263  25.936  1.00  0.00     0.163 HD
ATOM     30  O   UNL A   1      42.128  18.385  25.910  1.00  0.00    -0.269 OA
BRANCH  28  31
ATOM     31  C   UNL A   1      41.946  20.672  26.402  1.00  0.00     0.039 A 
ATOM     32  C   UNL A   1      42.256  21.569  25.376  1.00  0.00     0.014 A 
ATOM     33  C   UNL A   1      42.190  21.014  27.734  1.00  0.00     0.014 A 
ATOM     34  C   UNL A   1      42.757  22.830  25.696  1.00  0.00     0.010 A 
ATOM     35  C   UNL A   1      42.580  22.305  28.054  1.00  0.00     0.010 A 
ATOM     36  C   UNL A   1      42.888  23.220  27.038  1.00  0.00    -0.014 A 
BRANCH  36  37
ATOM     37  C   UNL A   1      43.368  24.571  27.412  1.00  0.00     0.031 A 
ATOM     38  C   UNL A   1      42.383  25.617  27.856  1.00  0.00     0.074 A 
ATOM     39  C   UNL A   1      44.673  24.873  27.276  1.00  0.00     0.049 A 
ATOM     40  N   UNL A   1      42.588  26.878  28.141  1.00  0.00    -0.248 NA
ATOM     41  C   UNL A   1      40.974  25.203  27.961  1.00  0.00     0.031 C 
ATOM     42  C   UNL A   1      45.710  23.954  26.799  1.00  0.00     0.029 A 
ATOM     43  N   UNL A   1      45.348  26.040  27.518  1.00  0.00    -0.354 N 
ATOM     44  C   UNL A   1      41.338  27.405  28.437  1.00  0.00     0.074 A 
ATOM     45  C   UNL A   1      40.372  26.349  28.233  1.00  0.00     0.031 C 
ATOM     46  C   UNL A   1      46.895  24.585  26.814  1.00  0.00     0.029 A 
ATOM     47  C   UNL A   1      46.695  25.961  27.256  1.00  0.00     0.049 A 
ATOM     48  H   UNL A   1      44.912  26.858  27.847  1.00  0.00     0.167 HD
ATOM     49  C   UNL A   1      41.026  28.649  28.870  1.00  0.00     0.037 A 
ATOM     50  C   UNL A   1      47.657  26.897  27.355  1.00  0.00     0.037 A 
ATOM     51  C   UNL A   1      41.998  29.684  29.096  1.00  0.00     0.049 A 
ATOM     52  C   UNL A   1      47.284  28.272  27.835  1.00  0.00     0.074 A 
ATOM     53  C   UNL A   1      41.800  30.960  29.593  1.00  0.00     0.029 A 
ATOM     54  N   UNL A   1      43.356  29.559  28.841  1.00  0.00    -0.354 N 
ATOM     55  N   UNL A   1      46.109  28.738  28.180  1.00  0.00    -0.248 NA
ATOM     56  C   UNL A   1      48.374  29.251  27.942  1.00  0.00     0.031 C 
ATOM     57  C   UNL A   1      43.030  31.624  29.588  1.00  0.00     0.029 A 
ATOM     58  C   UNL A   1      44.005  30.744  29.145  1.00  0.00     0.049 A 
ATOM     59  H   UNL A   1      43.793  28.749  28.494  1.00  0.00     0.167 HD
ATOM     60  C   UNL A   1      46.320  30.052  28.576  1.00  0.00     0.074 A 
ATOM     61  C   UNL A   1      47.740  30.303  28.442  1.00  0.00     0.031 C 
ATOM     62  C   UNL A   1      45.421  30.969  29.012  1.00  0.00     0.037 A 
BRANCH  49  63
ATOM     63  C   UNL A   1      39.577  28.952  29.128  1.00  0.00     0.057 A 
ATOM     64  C   UNL A   1      38.998  28.779  30.394  1.00  0.00     0.134 A 
ATOM     65  C   UNL A   1      38.756  29.446  28.108  1.00  0.00     0.134 A 
ATOM     66  F   UNL A   1      39.725  28.296  31.414  1.00  0.00    -0.206 F 
ATOM     67  C   UNL A   1      37.651  29.056  30.626  1.00  0.00     0.040 A 
ATOM     68  C   UNL A   1      37.414  29.758  28.336  1.00  0.00     0.040 A 
ATOM     69  F   UNL A   1      39.244  29.639  26.873  1.00  0.00    -0.206 F 
ATOM     70  C   UNL A   1      36.856  29.555  29.597  1.00  0.00     0.006 A 
ENDBRANCH  49  63
BRANCH  50  71
ATOM     71  C   UNL A   1      49.063  26.558  27.021  1.00  0.00     0.057 A 
ATOM     72  C   UNL A   1      49.540  26.668  25.710  1.00  0.00     0.134 A 
ATOM     73  C   UNL A   1      49.962  26.114  27.998  1.00  0.00     0.134 A 
ATOM     74  F   UNL A   1      48.724  27.074  24.727  1.00  0.00    -0.206 F 
ATOM     75  C   UNL A   1      50.852  26.325  25.376  1.00  0.00     0.040 A 
ATOM     76  C   UNL A   1      51.284  25.795  27.684  1.00  0.00     0.040 A 
ATOM     77  F   UNL A   1      49.572  25.998  29.276  1.00  0.00    -0.206 F 
ATOM     78  C   UNL A   1      51.730  25.891  26.367  1.00  0.00     0.006 A 
ENDBRANCH  50  71
BRANCH  62  79
ATOM     79  C   UNL A   1      45.954  32.314  29.411  1.00  0.00     0.057 A 
ATOM     80  C   UNL A   1      46.030  33.381  28.507  1.00  0.00     0.134 A 
ATOM     81  C   UNL A   1      46.358  32.554  30.732  1.00  0.00     0.134 A 
ATOM     82  F   UNL A   1      45.671  33.213  27.226  1.00  0.00    -0.206 F 
ATOM     83  C   UNL A   1      46.513  34.632  28.896  1.00  0.00     0.040 A 
ATOM     84  C   UNL A   1      46.813  33.807  31.139  1.00  0.00     0.040 A 
ATOM     85  F   UNL A   1      46.301  31.577  31.650  1.00  0.00    -0.206 F 
ATOM     86  C   UNL A   1      46.897  34.850  30.218  1.00  0.00     0.006 A 
ENDBRANCH  62  79
ENDBRANCH  36  37
ENDBRANCH  28  31
ENDBRANCH  26  27
ENDBRANCH  25  26
ENDBRANCH   1  25
TORSDOF 15
ENDMDL
MODEL 2
REMARK VINA RESULT:     -11.0      1.426      6.389
REMARK SMILES CCC[NH2+][C@@]1(C(=O)NCCCNC(=O)c2ccc(-c3c4nc(c(-c5c(F)cccc5F)c5ccc([nH]5)c(-c5c(F)cccc5F)c5nc(c(-c6c(F)cccc6F)c6ccc3[nH]6)C=C5)C=C4)cc2)CC[C@@H](Sc2ccc(Cl)cc2)C1
REMARK SMILES IDX 9 1 8 2 6 3 7 4 5 6 69 7 80 8 70 9 71 10 4 11 3 14 2 15 1 16
REMARK SMILES IDX 72 17 73 18 74 19 79 20 75 21 78 22 76 23 77 24 10 25 11 26
REMARK SMILES IDX 12 27 13 28 14 30 15 31 16 32 68 33 17 34 67 35 18 36 19 37
REMARK SMILES IDX 20 38 61 39 21 40 66 41 60 42 62 43 22 44 65 45 59 46 58 47
REMARK SMILES IDX 23 49 49 50 32 51 48 52 33 53 36 54 47 55 63 56 34 57 35 58
REMARK SMILES IDX 46 60 64 61 37 62 24 63 25 64 30 65 26 66 27 67 29 68 31 69
REMARK SMILES IDX 28 70 50 71 51 72 56 73 52 74 53 75 55 76 57 77 54 78 38 79
REMARK SMILES IDX 39 80 44 81 40 82 41 83 43 84 45 85 42 86
REMARK H PARENT 8 5 4 12 4 13 12 29 62 48 36 59
REMARK Flexibility Score: inf
ROOT
ATOM      1  C   UNL A   1      36.624  20.275  24.989  1.00  0.00     0.118 C 
ENDROOT
BRANCH   1   2
ATOM      2  N   UNL A   1      35.441  19.458  24.931  1.00  0.00    -0.351 N 
ATOM      3  C   UNL A   1      34.161  19.770  24.619  1.00  0.00     0.281 C 
ATOM      4  O   UNL A   1      33.509  18.820  24.161  1.00  0.00    -0.268 OA
ATOM      5  H   UNL A   1      35.588  18.510  25.156  1.00  0.00     0.163 HD
BRANCH   3   6
ATOM      6  C   UNL A   1      33.510  21.206  24.754  1.00  0.00     0.176 C 
ATOM      7  C   UNL A   1      32.045  21.188  24.276  1.00  0.00     0.080 C 
ATOM      8  C   UNL A   1      34.160  22.375  23.995  1.00  0.00     0.094 C 
ATOM      9  C   UNL A   1      31.950  21.977  22.971  1.00  0.00     0.022 C 
ATOM     10  C   UNL A   1      33.312  22.632  22.746  1.00  0.00     0.058 C 
BRANCH   6  11
ATOM     11  N   UNL A   1      33.466  21.518  26.223  1.00  0.00    -0.334 N 
ATOM     12  H   UNL A   1      32.723  20.959  26.643  1.00  0.00     0.347 HD
ATOM     13  H   UNL A   1      34.392  21.299  26.588  1.00  0.00     0.347 HD
BRANCH  11  14
ATOM     14  C   UNL A   1      33.218  22.930  26.551  1.00  0.00     0.261 C 
BRANCH  14  15
ATOM     15  C   UNL A   1      32.019  23.080  27.496  1.00  0.00     0.058 C 
ATOM     16  C   UNL A   1      30.663  23.064  26.797  1.00  0.00     0.010 C 
ENDBRANCH  14  15
ENDBRANCH  11  14
ENDBRANCH   6  11
BRANCH  10  17
ATOM     17  S   UNL A   1      33.318  24.372  22.159  1.00  0.00    -0.122 SA
BRANCH  17  18
ATOM     18  C   UNL A   1      32.893  25.274  23.633  1.00  0.00     0.008 A 
ATOM     19  C   UNL A   1      33.915  25.816  24.424  1.00  0.00     0.016 A 
ATOM     20  C   UNL A   1      31.561  25.447  24.016  1.00  0.00     0.016 A 
ATOM     21  C   UNL A   1      33.604  26.553  25.570  1.00  0.00     0.021 A 
ATOM     22  C   UNL A   1      31.250  26.179  25.163  1.00  0.00     0.021 A 
ATOM     23  C   UNL A   1      32.271  26.732  25.933  1.00  0.00     0.041 A 
ATOM     24  Cl  UNL A   1      31.884  27.638  27.342  1.00  0.00    -0.084 Cl
ENDBRANCH  17  18
ENDBRANCH  10  17
ENDBRANCH   3   6
ENDBRANCH   1   2
BRANCH   1  25
ATOM     25  C   UNL A   1      37.906  19.462  24.960  1.00  0.00     0.042 C 
BRANCH  25  26
ATOM     26  C   UNL A   1      39.056  20.156  25.673  1.00  0.00     0.118 C 
BRANCH  26  27
ATOM     27  N   UNL A   1      40.203  19.269  25.846  1.00  0.00    -0.352 N 
ATOM     28  C   UNL A   1      41.513  19.560  26.119  1.00  0.00     0.251 C 
ATOM     29  H   UNL A   1      40.003  18.310  25.753  1.00  0.00     0.163 HD
ATOM     30  O   UNL A   1      42.377  18.699  25.950  1.00  0.00    -0.269 OA
BRANCH  28  31
ATOM     31  C   UNL A   1      41.888  20.896  26.614  1.00  0.00     0.039 A 
ATOM     32  C   UNL A   1      42.297  21.875  25.705  1.00  0.00     0.014 A 
ATOM     33  C   UNL A   1      41.858  21.175  27.982  1.00  0.00     0.014 A 
ATOM     34  C   UNL A   1      42.620  23.150  26.169  1.00  0.00     0.010 A 
ATOM     35  C   UNL A   1      42.070  22.470  28.428  1.00  0.00     0.010 A 
ATOM     36  C   UNL A   1      42.473  23.466  27.529  1.00  0.00    -0.014 A 
BRANCH  36  37
ATOM     37  C   UNL A   1      42.758  24.826  28.046  1.00  0.00     0.031 A 
ATOM     38  C   UNL A   1      44.156  25.187  28.465  1.00  0.00     0.074 A 
ATOM     39  C   UNL A   1      41.747  25.700  28.205  1.00  0.00     0.049 A 
ATOM     40  N   UNL A   1      44.594  26.288  29.021  1.00  0.00    -0.248 NA
ATOM     41  C   UNL A   1      45.196  24.163  28.268  1.00  0.00     0.031 C 
ATOM     42  C   UNL A   1      40.341  25.438  27.886  1.00  0.00     0.029 A 
ATOM     43  N   UNL A   1      41.745  26.983  28.687  1.00  0.00    -0.354 N 
ATOM     44  C   UNL A   1      45.947  26.079  29.254  1.00  0.00     0.074 A 
ATOM     45  C   UNL A   1      46.246  24.725  28.845  1.00  0.00     0.031 C 
ATOM     46  C   UNL A   1      39.619  26.539  28.151  1.00  0.00     0.029 A 
ATOM     47  C   UNL A   1      40.500  27.564  28.700  1.00  0.00     0.049 A 
ATOM     48  H   UNL A   1      42.558  27.445  28.995  1.00  0.00     0.167 HD
ATOM     49  C   UNL A   1      46.865  26.947  29.739  1.00  0.00     0.037 A 
ATOM     50  C   UNL A   1      40.115  28.785  29.115  1.00  0.00     0.037 A 
ATOM     51  C   UNL A   1      46.563  28.302  30.118  1.00  0.00     0.049 A 
ATOM     52  C   UNL A   1      41.152  29.730  29.653  1.00  0.00     0.074 A 
ATOM     53  C   UNL A   1      47.427  29.286  30.562  1.00  0.00     0.029 A 
ATOM     54  N   UNL A   1      45.293  28.861  30.096  1.00  0.00    -0.354 N 
ATOM     55  N   UNL A   1      42.442  29.545  29.802  1.00  0.00    -0.248 NA
ATOM     56  C   UNL A   1      40.682  31.056  30.076  1.00  0.00     0.031 C 
ATOM     57  C   UNL A   1      46.673  30.425  30.858  1.00  0.00     0.029 A 
ATOM     58  C   UNL A   1      45.348  30.171  30.543  1.00  0.00     0.049 A 
ATOM     59  H   UNL A   1      44.476  28.396  29.806  1.00  0.00     0.167 HD
ATOM     60  C   UNL A   1      42.942  30.739  30.305  1.00  0.00     0.074 A 
ATOM     61  C   UNL A   1      41.818  31.645  30.421  1.00  0.00     0.031 C 
ATOM     62  C   UNL A   1      44.217  31.058  30.642  1.00  0.00     0.037 A 
BRANCH  49  63
ATOM     63  C   UNL A   1      48.278  26.458  29.880  1.00  0.00     0.057 A 
ATOM     64  C   UNL A   1      48.733  25.835  31.052  1.00  0.00     0.134 A 
ATOM     65  C   UNL A   1      49.190  26.586  28.826  1.00  0.00     0.134 A 
ATOM     66  F   UNL A   1      47.916  25.691  32.107  1.00  0.00    -0.206 F 
ATOM     67  C   UNL A   1      50.049  25.388  31.180  1.00  0.00     0.040 A 
ATOM     68  C   UNL A   1      50.499  26.115  28.929  1.00  0.00     0.040 A 
ATOM     69  F   UNL A   1      48.822  27.169  27.674  1.00  0.00    -0.206 F 
ATOM     70  C   UNL A   1      50.934  25.520  30.113  1.00  0.00     0.006 A 
ENDBRANCH  49  63
BRANCH  50  71
ATOM     71  C   UNL A   1      38.690  29.191  29.013  1.00  0.00     0.057 A 
ATOM     72  C   UNL A   1      37.837  29.114  30.121  1.00  0.00     0.134 A 
ATOM     73  C   UNL A   1      38.145  29.659  27.812  1.00  0.00     0.134 A 
ATOM     74  F   UNL A   1      38.296  28.661  31.296  1.00  0.00    -0.206 F 
ATOM     75  C   UNL A   1      36.489  29.465  30.032  1.00  0.00     0.040 A 
ATOM     76  C   UNL A   1      36.805  30.039  27.716  1.00  0.00     0.040 A 
ATOM     77  F   UNL A   1      38.911  29.767  26.716  1.00  0.00    -0.206 F 
ATOM     78  C   UNL A   1      35.971  29.934  28.826  1.00  0.00     0.006 A 
ENDBRANCH  50  71
BRANCH  62  79
ATOM     79  C   UNL A   1      44.468  32.455  31.128  1.00  0.00     0.057 A 
ATOM     80  C   UNL A   1      44.444  32.782  32.490  1.00  0.00     0.134 A 
ATOM     81  C   UNL A   1      44.777  33.478  30.222  1.00  0.00     0.134 A 
ATOM     82  F   UNL A   1      44.142  31.852  33.408  1.00  0.00    -0.206 F 
ATOM     83  C   UNL A   1      44.695  34.083  32.930  1.00  0.00     0.040 A 
ATOM     84  C   UNL A   1      45.059  34.773  30.652  1.00  0.00     0.040 A 
ATOM     85  F   UNL A   1      44.826  33.229  28.904  1.00  0.00    -0.206 F 
ATOM     86  C   UNL A   1      45.012  35.081  32.011  1.00  0.00     0.006 A 
ENDBRANCH  62  79
ENDBRANCH  36  37
ENDBRANCH  28  31
ENDBRANCH  26  27
ENDBRANCH  25  26
ENDBRANCH   1  25
TORSDOF 15
ENDMDL
MODEL 3
REMARK VINA RESULT:     -11.0      4.785      9.086
REMARK SMILES CCC[NH2+][C@@]1(C(=O)NCCCNC(=O)c2ccc(-c3c4nc(c(-c5c(F)cccc5F)c5ccc([nH]5)c(-c5c(F)cccc5F)c5nc(c(-c6c(F)cccc6F)c6ccc3[nH]6)C=C5)C=C4)cc2)CC[C@@H](Sc2ccc(Cl)cc2)C1
REMARK SMILES IDX 9 1 8 2 6 3 7 4 5 6 69 7 80 8 70 9 71 10 4 11 3 14 2 15 1 16
REMARK SMILES IDX 72 17 73 18 74 19 79 20 75 21 78 22 76 23 77 24 10 25 11 26
REMARK SMILES IDX 12 27 13 28 14 30 15 31 16 32 68 33 17 34 67 35 18 36 19 37
REMARK SMILES IDX 20 38 61 39 21 40 66 41 60 42 62 43 22 44 65 45 59 46 58 47
REMARK SMILES IDX 23 49 49 50 32 51 48 52 33 53 36 54 47 55 63 56 34 57 35 58
REMARK SMILES IDX 46 60 64 61 37 62 24 63 25 64 30 65 26 66 27 67 29 68 31 69
REMARK SMILES IDX 28 70 50 71 51 72 56 73 52 74 53 75 55 76 57 77 54 78 38 79
REMARK SMILES IDX 39 80 44 81 40 82 41 83 43 84 45 85 42 86
REMARK H PARENT 8 5 4 12 4 13 12 29 62 48 36 59
REMARK Flexibility Score: inf
ROOT
ATOM      1  C   UNL A   1      31.522  30.759  26.394  1.00  0.00     0.118 C 
ENDROOT
BRANCH   1   2
ATOM      2  N   UNL A   1      32.490  30.102  27.232  1.00  0.00    -0.351 N 
ATOM      3  C   UNL A   1      33.375  29.115  26.958  1.00  0.00     0.281 C 
ATOM      4  O   UNL A   1      34.380  29.125  27.685  1.00  0.00    -0.268 OA
ATOM      5  H   UNL A   1      32.512  30.425  28.162  1.00  0.00     0.163 HD
BRANCH   3   6
ATOM      6  C   UNL A   1      33.227  28.046  25.800  1.00  0.00     0.176 C 
ATOM      7  C   UNL A   1      34.012  28.484  24.549  1.00  0.00     0.080 C 
ATOM      8  C   UNL A   1      31.814  27.720  25.288  1.00  0.00     0.094 C 
ATOM      9  C   UNL A   1      33.013  28.856  23.454  1.00  0.00     0.022 C 
ATOM     10  C   UNL A   1      31.626  28.472  23.967  1.00  0.00     0.058 C 
BRANCH   6  11
ATOM     11  N   UNL A   1      33.891  26.791  26.291  1.00  0.00    -0.334 N 
ATOM     12  H   UNL A   1      34.788  26.701  25.815  1.00  0.00     0.347 HD
ATOM     13  H   UNL A   1      33.977  26.892  27.302  1.00  0.00     0.347 HD
BRANCH  11  14
ATOM     14  C   UNL A   1      33.126  25.555  26.065  1.00  0.00     0.261 C 
BRANCH  14  15
ATOM     15  C   UNL A   1      34.056  24.343  25.923  1.00  0.00     0.058 C 
ATOM     16  C   UNL A   1      35.154  24.515  24.878  1.00  0.00     0.010 C 
ENDBRANCH  14  15
ENDBRANCH  11  14
ENDBRANCH   6  11
BRANCH  10  17
ATOM     17  S   UNL A   1      30.488  27.659  22.777  1.00  0.00    -0.122 SA
BRANCH  17  18
ATOM     18  C   UNL A   1      31.032  25.966  22.821  1.00  0.00     0.008 A 
ATOM     19  C   UNL A   1      32.210  25.606  22.153  1.00  0.00     0.016 A 
ATOM     20  C   UNL A   1      30.304  24.991  23.505  1.00  0.00     0.016 A 
ATOM     21  C   UNL A   1      32.672  24.288  22.198  1.00  0.00     0.021 A 
ATOM     22  C   UNL A   1      30.762  23.672  23.547  1.00  0.00     0.021 A 
ATOM     23  C   UNL A   1      31.945  23.327  22.897  1.00  0.00     0.041 A 
ATOM     24  Cl  UNL A   1      32.510  21.704  22.955  1.00  0.00    -0.084 Cl
ENDBRANCH  17  18
ENDBRANCH  10  17
ENDBRANCH   3   6
ENDBRANCH   1   2
BRANCH   1  25
ATOM     25  C   UNL A   1      31.403  32.245  26.682  1.00  0.00     0.042 C 
BRANCH  25  26
ATOM     26  C   UNL A   1      32.729  32.873  27.079  1.00  0.00     0.118 C 
BRANCH  26  27
ATOM     27  N   UNL A   1      32.542  34.125  27.807  1.00  0.00    -0.352 N 
ATOM     28  C   UNL A   1      33.188  34.611  28.913  1.00  0.00     0.251 C 
ATOM     29  H   UNL A   1      31.840  34.714  27.446  1.00  0.00     0.163 HD
ATOM     30  O   UNL A   1      32.700  35.552  29.540  1.00  0.00    -0.269 OA
BRANCH  28  31
ATOM     31  C   UNL A   1      34.463  34.015  29.348  1.00  0.00     0.039 A 
ATOM     32  C   UNL A   1      34.489  33.206  30.487  1.00  0.00     0.014 A 
ATOM     33  C   UNL A   1      35.640  34.275  28.643  1.00  0.00     0.014 A 
ATOM     34  C   UNL A   1      35.688  32.613  30.881  1.00  0.00     0.010 A 
ATOM     35  C   UNL A   1      36.804  33.598  28.970  1.00  0.00     0.010 A 
ATOM     36  C   UNL A   1      36.846  32.776  30.103  1.00  0.00    -0.014 A 
BRANCH  36  37
ATOM     37  C   UNL A   1      38.123  32.118  30.466  1.00  0.00     0.031 A 
ATOM     38  C   UNL A   1      39.071  32.798  31.415  1.00  0.00     0.074 A 
ATOM     39  C   UNL A   1      38.458  30.952  29.883  1.00  0.00     0.049 A 
ATOM     40  N   UNL A   1      40.270  32.433  31.790  1.00  0.00    -0.248 NA
ATOM     41  C   UNL A   1      38.628  34.078  31.993  1.00  0.00     0.031 C 
ATOM     42  C   UNL A   1      37.642  30.229  28.903  1.00  0.00     0.029 A 
ATOM     43  N   UNL A   1      39.577  30.174  30.021  1.00  0.00    -0.354 N 
ATOM     44  C   UNL A   1      40.726  33.443  32.627  1.00  0.00     0.074 A 
ATOM     45  C   UNL A   1      39.707  34.468  32.652  1.00  0.00     0.031 C 
ATOM     46  C   UNL A   1      38.276  29.097  28.555  1.00  0.00     0.029 A 
ATOM     47  C   UNL A   1      39.558  29.038  29.248  1.00  0.00     0.049 A 
ATOM     48  H   UNL A   1      40.325  30.406  30.617  1.00  0.00     0.167 HD
ATOM     49  C   UNL A   1      41.879  33.498  33.334  1.00  0.00     0.037 A 
ATOM     50  C   UNL A   1      40.476  28.064  29.110  1.00  0.00     0.037 A 
ATOM     51  C   UNL A   1      42.874  32.459  33.323  1.00  0.00     0.049 A 
ATOM     52  C   UNL A   1      41.750  28.149  29.904  1.00  0.00     0.074 A 
ATOM     53  C   UNL A   1      44.050  32.383  34.050  1.00  0.00     0.029 A 
ATOM     54  N   UNL A   1      42.808  31.313  32.544  1.00  0.00    -0.354 N 
ATOM     55  N   UNL A   1      42.139  29.075  30.747  1.00  0.00    -0.248 NA
ATOM     56  C   UNL A   1      42.711  27.052  29.731  1.00  0.00     0.031 C 
ATOM     57  C   UNL A   1      44.720  31.216  33.670  1.00  0.00     0.029 A 
ATOM     58  C   UNL A   1      43.935  30.535  32.753  1.00  0.00     0.049 A 
ATOM     59  H   UNL A   1      42.071  31.087  31.933  1.00  0.00     0.167 HD
ATOM     60  C   UNL A   1      43.372  28.658  31.229  1.00  0.00     0.074 A 
ATOM     61  C   UNL A   1      43.659  27.388  30.594  1.00  0.00     0.031 C 
ATOM     62  C   UNL A   1      44.196  29.269  32.116  1.00  0.00     0.037 A 
BRANCH  49  63
ATOM     63  C   UNL A   1      42.119  34.717  34.179  1.00  0.00     0.057 A 
ATOM     64  C   UNL A   1      42.765  35.854  33.673  1.00  0.00     0.134 A 
ATOM     65  C   UNL A   1      41.677  34.766  35.506  1.00  0.00     0.134 A 
ATOM     66  F   UNL A   1      43.225  35.869  32.412  1.00  0.00    -0.206 F 
ATOM     67  C   UNL A   1      42.990  36.981  34.464  1.00  0.00     0.040 A 
ATOM     68  C   UNL A   1      41.868  35.899  36.298  1.00  0.00     0.040 A 
ATOM     69  F   UNL A   1      41.048  33.715  36.056  1.00  0.00    -0.206 F 
ATOM     70  C   UNL A   1      42.534  37.009  35.780  1.00  0.00     0.006 A 
ENDBRANCH  49  63
BRANCH  50  71
ATOM     71  C   UNL A   1      40.213  26.914  28.208  1.00  0.00     0.057 A 
ATOM     72  C   UNL A   1      40.762  26.867  26.921  1.00  0.00     0.134 A 
ATOM     73  C   UNL A   1      39.406  25.841  28.604  1.00  0.00     0.134 A 
ATOM     74  F   UNL A   1      41.532  27.871  26.479  1.00  0.00    -0.206 F 
ATOM     75  C   UNL A   1      40.500  25.807  26.052  1.00  0.00     0.040 A 
ATOM     76  C   UNL A   1      39.158  24.761  27.755  1.00  0.00     0.040 A 
ATOM     77  F   UNL A   1      38.858  25.820  29.828  1.00  0.00    -0.206 F 
ATOM     78  C   UNL A   1      39.698  24.747  26.471  1.00  0.00     0.006 A 
ENDBRANCH  50  71
BRANCH  62  79
ATOM     79  C   UNL A   1      45.463  28.554  32.482  1.00  0.00     0.057 A 
ATOM     80  C   UNL A   1      46.663  28.770  31.792  1.00  0.00     0.134 A 
ATOM     81  C   UNL A   1      45.489  27.665  33.565  1.00  0.00     0.134 A 
ATOM     82  F   UNL A   1      46.701  29.598  30.738  1.00  0.00    -0.206 F 
ATOM     83  C   UNL A   1      47.838  28.109  32.153  1.00  0.00     0.040 A 
ATOM     84  C   UNL A   1      46.664  27.023  33.954  1.00  0.00     0.040 A 
ATOM     85  F   UNL A   1      44.376  27.421  34.274  1.00  0.00    -0.206 F 
ATOM     86  C   UNL A   1      47.843  27.239  33.242  1.00  0.00     0.006 A 
ENDBRANCH  62  79
ENDBRANCH  36  37
ENDBRANCH  28  31
ENDBRANCH  26  27
ENDBRANCH  25  26
ENDBRANCH   1  25
TORSDOF 15
ENDMDL
