MODEL 1
REMARK VINA RESULT:     -13.1      0.000      0.000
REMARK SMILES COC(=O)c1ccc([C@H]2CC(=O)Nc3c(C(=O)NCCCNC(=O)c4ccc(-c5c6nc(c(-c7c(F)cccc7F)c7ccc([nH]7)c(-c7c(F)cccc7F)c7nc(c(-c8c(F)cccc8F)c8ccc5[nH]8)C=C7)C=C6)cc4)cn(-c4ccccc4)c32)cc1
REMARK SMILES IDX 19 1 18 2 16 3 17 4 15 6 9 7 10 8 87 9 11 10 14 11 80 12
REMARK SMILES IDX 12 13 13 14 79 15 8 17 5 18 6 19 89 20 7 21 88 22 3 23 4 24
REMARK SMILES IDX 2 25 1 26 81 27 82 28 86 29 83 30 85 31 84 32 20 33 21 34
REMARK SMILES IDX 22 35 23 36 24 38 25 39 26 40 78 41 27 42 77 43 28 44 29 45
REMARK SMILES IDX 30 46 71 47 31 48 76 49 70 50 72 51 32 52 75 53 69 54 68 55
REMARK SMILES IDX 33 57 59 58 42 59 58 60 43 61 46 62 57 63 73 64 44 65 45 66
REMARK SMILES IDX 56 68 74 69 47 70 34 71 35 72 40 73 36 74 37 75 39 76 41 77
REMARK SMILES IDX 38 78 60 79 61 80 66 81 62 82 63 83 65 84 67 85 64 86 48 87
REMARK SMILES IDX 49 88 54 89 50 90 51 91 53 92 55 93 52 94
REMARK H PARENT 18 5 13 16 22 37 72 56 46 67
REMARK Flexibility Score: inf
ROOT
ATOM      1  C   UNL A   1      35.777  20.901  25.334  1.00  0.00     0.118 C 
ENDROOT
BRANCH   1   2
ATOM      2  N   UNL A   1      34.608  20.464  24.612  1.00  0.00    -0.352 N 
ATOM      3  C   UNL A   1      33.424  21.071  24.299  1.00  0.00     0.254 C 
ATOM      4  O   UNL A   1      32.688  20.408  23.561  1.00  0.00    -0.269 OA
ATOM      5  H   UNL A   1      34.676  19.540  24.278  1.00  0.00     0.163 HD
BRANCH   3   6
ATOM      6  C   UNL A   1      32.992  22.393  24.782  1.00  0.00     0.081 A 
ATOM      7  C   UNL A   1      30.935  25.224  26.102  1.00  0.00     0.078 C 
ATOM      8  C   UNL A   1      29.689  24.426  26.503  1.00  0.00     0.115 C 
ATOM      9  C   UNL A   1      31.992  24.312  25.526  1.00  0.00     0.055 A 
ATOM     10  C   UNL A   1      30.010  23.063  27.045  1.00  0.00     0.225 C 
ATOM     11  C   UNL A   1      31.979  22.937  25.632  1.00  0.00     0.076 A 
ATOM     12  N   UNL A   1      33.145  24.669  24.853  1.00  0.00    -0.317 N 
ATOM     13  O   UNL A   1      29.298  22.502  27.877  1.00  0.00    -0.275 OA
ATOM     14  N   UNL A   1      31.054  22.391  26.483  1.00  0.00    -0.324 N 
ATOM     15  C   UNL A   1      33.649  23.524  24.288  1.00  0.00     0.107 A 
ATOM     16  H   UNL A   1      31.153  21.437  26.707  1.00  0.00     0.170 HD
BRANCH   7  17
ATOM     17  C   UNL A   1      30.463  26.364  25.204  1.00  0.00    -0.038 A 
ATOM     18  C   UNL A   1      29.902  28.500  23.466  1.00  0.00     0.060 A 
ATOM     19  C   UNL A   1      30.516  28.739  24.699  1.00  0.00     0.016 A 
ATOM     20  C   UNL A   1      29.472  27.207  23.150  1.00  0.00     0.016 A 
ATOM     21  C   UNL A   1      30.802  27.678  25.558  1.00  0.00     0.005 A 
ATOM     22  C   UNL A   1      29.712  26.156  24.035  1.00  0.00     0.005 A 
BRANCH  18  23
ATOM     23  C   UNL A   1      29.785  29.624  22.511  1.00  0.00     0.337 C 
ATOM     24  O   UNL A   1      30.261  29.597  21.375  1.00  0.00    -0.246 OA
BRANCH  23  25
ATOM     25  O   UNL A   1      29.064  30.636  23.041  1.00  0.00    -0.465 OA
ATOM     26  C   UNL A   1      27.663  30.371  23.120  1.00  0.00     0.282 C 
ENDBRANCH  23  25
ENDBRANCH  18  23
ENDBRANCH   7  17
BRANCH  12  27
ATOM     27  C   UNL A   1      33.654  25.975  24.662  1.00  0.00     0.045 A 
ATOM     28  C   UNL A   1      34.074  26.724  25.768  1.00  0.00     0.026 A 
ATOM     29  C   UNL A   1      33.595  26.556  23.391  1.00  0.00     0.026 A 
ATOM     30  C   UNL A   1      34.350  28.081  25.616  1.00  0.00     0.002 A 
ATOM     31  C   UNL A   1      33.843  27.922  23.255  1.00  0.00     0.002 A 
ATOM     32  C   UNL A   1      34.202  28.684  24.369  1.00  0.00     0.000 A 
ENDBRANCH  12  27
ENDBRANCH   3   6
ENDBRANCH   1   2
BRANCH   1  33
ATOM     33  C   UNL A   1      37.083  20.504  24.624  1.00  0.00     0.042 C 
BRANCH  33  34
ATOM     34  C   UNL A   1      38.308  20.890  25.423  1.00  0.00     0.118 C 
BRANCH  34  35
ATOM     35  N   UNL A   1      39.184  19.723  25.639  1.00  0.00    -0.352 N 
ATOM     36  C   UNL A   1      40.538  19.667  25.919  1.00  0.00     0.251 C 
ATOM     37  H   UNL A   1      38.736  18.848  25.575  1.00  0.00     0.163 HD
ATOM     38  O   UNL A   1      41.182  18.642  25.730  1.00  0.00    -0.269 OA
BRANCH  36  39
ATOM     39  C   UNL A   1      41.184  20.868  26.460  1.00  0.00     0.039 A 
ATOM     40  C   UNL A   1      41.965  21.739  25.695  1.00  0.00     0.014 A 
ATOM     41  C   UNL A   1      40.882  21.160  27.777  1.00  0.00     0.014 A 
ATOM     42  C   UNL A   1      42.400  22.920  26.292  1.00  0.00     0.010 A 
ATOM     43  C   UNL A   1      40.942  22.455  28.167  1.00  0.00     0.010 A 
ATOM     44  C   UNL A   1      41.873  23.257  27.545  1.00  0.00    -0.014 A 
BRANCH  44  45
ATOM     45  C   UNL A   1      42.168  24.483  28.260  1.00  0.00     0.031 A 
ATOM     46  C   UNL A   1      41.096  25.491  28.140  1.00  0.00     0.074 A 
ATOM     47  C   UNL A   1      43.160  24.545  29.179  1.00  0.00     0.049 A 
ATOM     48  N   UNL A   1      41.109  26.555  27.414  1.00  0.00    -0.248 NA
ATOM     49  C   UNL A   1      39.776  25.171  28.711  1.00  0.00     0.031 C 
ATOM     50  C   UNL A   1      44.061  23.477  29.645  1.00  0.00     0.029 A 
ATOM     51  N   UNL A   1      43.511  25.587  29.980  1.00  0.00    -0.354 N 
ATOM     52  C   UNL A   1      39.889  27.177  27.658  1.00  0.00     0.074 A 
ATOM     53  C   UNL A   1      39.036  26.166  28.217  1.00  0.00     0.031 C 
ATOM     54  C   UNL A   1      44.692  23.868  30.777  1.00  0.00     0.029 A 
ATOM     55  C   UNL A   1      44.372  25.258  31.028  1.00  0.00     0.049 A 
ATOM     56  H   UNL A   1      43.183  26.503  29.831  1.00  0.00     0.167 HD
ATOM     57  C   UNL A   1      39.801  28.536  27.677  1.00  0.00     0.037 A 
ATOM     58  C   UNL A   1      44.753  26.089  32.033  1.00  0.00     0.037 A 
ATOM     59  C   UNL A   1      40.998  29.127  27.119  1.00  0.00     0.049 A 
ATOM     60  C   UNL A   1      44.471  27.476  31.571  1.00  0.00     0.074 A 
ATOM     61  C   UNL A   1      41.647  29.046  25.902  1.00  0.00     0.029 A 
ATOM     62  N   UNL A   1      41.930  29.607  28.011  1.00  0.00    -0.354 N 
ATOM     63  N   UNL A   1      45.109  28.049  30.587  1.00  0.00    -0.248 NA
ATOM     64  C   UNL A   1      43.150  28.017  31.858  1.00  0.00     0.031 C 
ATOM     65  C   UNL A   1      43.036  29.013  26.227  1.00  0.00     0.029 A 
ATOM     66  C   UNL A   1      43.165  29.171  27.608  1.00  0.00     0.049 A 
ATOM     67  H   UNL A   1      41.742  30.166  28.798  1.00  0.00     0.167 HD
ATOM     68  C   UNL A   1      44.125  28.705  29.861  1.00  0.00     0.074 A 
ATOM     69  C   UNL A   1      42.946  28.704  30.730  1.00  0.00     0.031 C 
ATOM     70  C   UNL A   1      44.257  28.905  28.516  1.00  0.00     0.037 A 
BRANCH  57  71
ATOM     71  C   UNL A   1      38.871  29.329  28.567  1.00  0.00     0.057 A 
ATOM     72  C   UNL A   1      39.001  29.185  29.961  1.00  0.00     0.134 A 
ATOM     73  C   UNL A   1      37.694  29.980  28.146  1.00  0.00     0.134 A 
ATOM     74  F   UNL A   1      40.080  28.592  30.496  1.00  0.00    -0.206 F 
ATOM     75  C   UNL A   1      37.990  29.558  30.853  1.00  0.00     0.040 A 
ATOM     76  C   UNL A   1      36.701  30.403  29.034  1.00  0.00     0.040 A 
ATOM     77  F   UNL A   1      37.379  30.160  26.860  1.00  0.00    -0.206 F 
ATOM     78  C   UNL A   1      36.827  30.157  30.389  1.00  0.00     0.006 A 
ENDBRANCH  57  71
BRANCH  58  79
ATOM     79  C   UNL A   1      45.044  25.777  33.453  1.00  0.00     0.057 A 
ATOM     80  C   UNL A   1      46.342  25.890  33.976  1.00  0.00     0.134 A 
ATOM     81  C   UNL A   1      44.012  25.644  34.399  1.00  0.00     0.134 A 
ATOM     82  F   UNL A   1      47.391  26.061  33.159  1.00  0.00    -0.206 F 
ATOM     83  C   UNL A   1      46.595  25.897  35.356  1.00  0.00     0.040 A 
ATOM     84  C   UNL A   1      44.251  25.648  35.778  1.00  0.00     0.040 A 
ATOM     85  F   UNL A   1      42.728  25.598  34.016  1.00  0.00    -0.206 F 
ATOM     86  C   UNL A   1      45.545  25.790  36.263  1.00  0.00     0.006 A 
ENDBRANCH  58  79
BRANCH  70  87
ATOM     87  C   UNL A   1      45.595  28.613  27.887  1.00  0.00     0.057 A 
ATOM     88  C   UNL A   1      45.947  27.386  27.304  1.00  0.00     0.134 A 
ATOM     89  C   UNL A   1      46.490  29.672  27.710  1.00  0.00     0.134 A 
ATOM     90  F   UNL A   1      45.115  26.338  27.337  1.00  0.00    -0.206 F 
ATOM     91  C   UNL A   1      47.147  27.214  26.605  1.00  0.00     0.040 A 
ATOM     92  C   UNL A   1      47.677  29.524  26.989  1.00  0.00     0.040 A 
ATOM     93  F   UNL A   1      46.196  30.890  28.192  1.00  0.00    -0.206 F 
ATOM     94  C   UNL A   1      48.012  28.289  26.439  1.00  0.00     0.006 A 
ENDBRANCH  70  87
ENDBRANCH  44  45
ENDBRANCH  36  39
ENDBRANCH  34  35
ENDBRANCH  33  34
ENDBRANCH   1  33
TORSDOF 14
ENDMDL
MODEL 2
REMARK VINA RESULT:     -13.0      2.681      6.309
REMARK SMILES COC(=O)c1ccc([C@H]2CC(=O)Nc3c(C(=O)NCCCNC(=O)c4ccc(-c5c6nc(c(-c7c(F)cccc7F)c7ccc([nH]7)c(-c7c(F)cccc7F)c7nc(c(-c8c(F)cccc8F)c8ccc5[nH]8)C=C7)C=C6)cc4)cn(-c4ccccc4)c32)cc1
REMARK SMILES IDX 19 1 18 2 16 3 17 4 15 6 9 7 10 8 87 9 11 10 14 11 80 12
REMARK SMILES IDX 12 13 13 14 79 15 8 17 5 18 6 19 89 20 7 21 88 22 3 23 4 24
REMARK SMILES IDX 2 25 1 26 81 27 82 28 86 29 83 30 85 31 84 32 20 33 21 34
REMARK SMILES IDX 22 35 23 36 24 38 25 39 26 40 78 41 27 42 77 43 28 44 29 45
REMARK SMILES IDX 30 46 71 47 31 48 76 49 70 50 72 51 32 52 75 53 69 54 68 55
REMARK SMILES IDX 33 57 59 58 42 59 58 60 43 61 46 62 57 63 73 64 44 65 45 66
REMARK SMILES IDX 56 68 74 69 47 70 34 71 35 72 40 73 36 74 37 75 39 76 41 77
REMARK SMILES IDX 38 78 60 79 61 80 66 81 62 82 63 83 65 84 67 85 64 86 48 87
REMARK SMILES IDX 49 88 54 89 50 90 51 91 53 92 55 93 52 94
REMARK H PARENT 18 5 13 16 22 37 72 56 46 67
REMARK Flexibility Score: inf
ROOT
ATOM      1  C   UNL A   1      37.797  22.476  25.827  1.00  0.00     0.118 C 
ENDROOT
BRANCH   1   2
ATOM      2  N   UNL A   1      37.525  22.416  24.413  1.00  0.00    -0.352 N 
ATOM      3  C   UNL A   1      36.516  22.915  23.635  1.00  0.00     0.254 C 
ATOM      4  O   UNL A   1      36.676  22.751  22.422  1.00  0.00    -0.269 OA
ATOM      5  H   UNL A   1      38.202  21.914  23.903  1.00  0.00     0.163 HD
BRANCH   3   6
ATOM      6  C   UNL A   1      35.306  23.584  24.140  1.00  0.00     0.081 A 
ATOM      7  C   UNL A   1      31.750  24.406  24.961  1.00  0.00     0.078 C 
ATOM      8  C   UNL A   1      31.119  23.061  24.586  1.00  0.00     0.115 C 
ATOM      9  C   UNL A   1      33.245  24.375  24.742  1.00  0.00     0.055 A 
ATOM     10  C   UNL A   1      31.992  21.885  24.915  1.00  0.00     0.225 C 
ATOM     11  C   UNL A   1      33.980  23.226  24.540  1.00  0.00     0.076 A 
ATOM     12  N   UNL A   1      34.124  25.440  24.746  1.00  0.00    -0.317 N 
ATOM     13  O   UNL A   1      31.530  20.782  25.203  1.00  0.00    -0.275 OA
ATOM     14  N   UNL A   1      33.338  22.034  24.753  1.00  0.00    -0.324 N 
ATOM     15  C   UNL A   1      35.314  24.978  24.241  1.00  0.00     0.107 A 
ATOM     16  H   UNL A   1      33.892  21.221  24.791  1.00  0.00     0.170 HD
BRANCH   7  17
ATOM     17  C   UNL A   1      30.979  25.486  24.207  1.00  0.00    -0.038 A 
ATOM     18  C   UNL A   1      29.718  27.687  22.999  1.00  0.00     0.060 A 
ATOM     19  C   UNL A   1      29.369  27.301  24.297  1.00  0.00     0.016 A 
ATOM     20  C   UNL A   1      30.618  26.906  22.267  1.00  0.00     0.016 A 
ATOM     21  C   UNL A   1      30.000  26.215  24.899  1.00  0.00     0.005 A 
ATOM     22  C   UNL A   1      31.209  25.788  22.855  1.00  0.00     0.005 A 
BRANCH  18  23
ATOM     23  C   UNL A   1      29.160  28.951  22.468  1.00  0.00     0.337 C 
ATOM     24  O   UNL A   1      29.695  29.600  21.569  1.00  0.00    -0.246 OA
BRANCH  23  25
ATOM     25  O   UNL A   1      27.990  29.254  23.072  1.00  0.00    -0.465 OA
ATOM     26  C   UNL A   1      27.721  30.654  23.146  1.00  0.00     0.282 C 
ENDBRANCH  23  25
ENDBRANCH  18  23
ENDBRANCH   7  17
BRANCH  12  27
ATOM     27  C   UNL A   1      33.839  26.785  25.081  1.00  0.00     0.045 A 
ATOM     28  C   UNL A   1      33.419  27.102  26.379  1.00  0.00     0.026 A 
ATOM     29  C   UNL A   1      33.837  27.757  24.076  1.00  0.00     0.026 A 
ATOM     30  C   UNL A   1      32.913  28.371  26.647  1.00  0.00     0.002 A 
ATOM     31  C   UNL A   1      33.298  29.015  24.347  1.00  0.00     0.002 A 
ATOM     32  C   UNL A   1      32.822  29.314  25.625  1.00  0.00     0.000 A 
ENDBRANCH  12  27
ENDBRANCH   3   6
ENDBRANCH   1   2
BRANCH   1  33
ATOM     33  C   UNL A   1      39.068  21.696  26.209  1.00  0.00     0.042 C 
BRANCH  33  34
ATOM     34  C   UNL A   1      40.085  22.569  26.910  1.00  0.00     0.118 C 
BRANCH  34  35
ATOM     35  N   UNL A   1      41.424  22.394  26.318  1.00  0.00    -0.352 N 
ATOM     36  C   UNL A   1      42.333  23.341  25.877  1.00  0.00     0.251 C 
ATOM     37  H   UNL A   1      41.719  21.460  26.221  1.00  0.00     0.163 HD
ATOM     38  O   UNL A   1      43.236  23.041  25.106  1.00  0.00    -0.269 OA
BRANCH  36  39
ATOM     39  C   UNL A   1      42.192  24.716  26.368  1.00  0.00     0.039 A 
ATOM     40  C   UNL A   1      41.328  25.657  25.800  1.00  0.00     0.014 A 
ATOM     41  C   UNL A   1      42.899  25.009  27.520  1.00  0.00     0.014 A 
ATOM     42  C   UNL A   1      41.179  26.880  26.449  1.00  0.00     0.010 A 
ATOM     43  C   UNL A   1      42.418  25.984  28.326  1.00  0.00     0.010 A 
ATOM     44  C   UNL A   1      41.745  27.024  27.722  1.00  0.00    -0.014 A 
BRANCH  44  45
ATOM     45  C   UNL A   1      41.614  28.204  28.553  1.00  0.00     0.031 A 
ATOM     46  C   UNL A   1      42.681  29.197  28.314  1.00  0.00     0.074 A 
ATOM     47  C   UNL A   1      40.468  28.477  29.221  1.00  0.00     0.049 A 
ATOM     48  N   UNL A   1      43.694  29.445  29.071  1.00  0.00    -0.248 NA
ATOM     49  C   UNL A   1      42.757  29.826  26.985  1.00  0.00     0.031 C 
ATOM     50  C   UNL A   1      39.200  27.729  29.230  1.00  0.00     0.029 A 
ATOM     51  N   UNL A   1      40.164  29.568  29.974  1.00  0.00    -0.354 N 
ATOM     52  C   UNL A   1      44.388  30.464  28.427  1.00  0.00     0.074 A 
ATOM     53  C   UNL A   1      43.935  30.449  27.064  1.00  0.00     0.031 C 
ATOM     54  C   UNL A   1      38.219  28.490  29.768  1.00  0.00     0.029 A 
ATOM     55  C   UNL A   1      38.811  29.707  30.286  1.00  0.00     0.049 A 
ATOM     56  H   UNL A   1      40.846  30.210  30.276  1.00  0.00     0.167 HD
ATOM     57  C   UNL A   1      45.025  31.427  29.149  1.00  0.00     0.037 A 
ATOM     58  C   UNL A   1      38.245  30.775  30.906  1.00  0.00     0.037 A 
ATOM     59  C   UNL A   1      45.120  31.034  30.539  1.00  0.00     0.049 A 
ATOM     60  C   UNL A   1      39.349  31.518  31.572  1.00  0.00     0.074 A 
ATOM     61  C   UNL A   1      45.675  29.963  31.211  1.00  0.00     0.029 A 
ATOM     62  N   UNL A   1      44.211  31.593  31.408  1.00  0.00    -0.354 N 
ATOM     63  N   UNL A   1      40.028  31.042  32.580  1.00  0.00    -0.248 NA
ATOM     64  C   UNL A   1      40.024  32.546  30.793  1.00  0.00     0.031 C 
ATOM     65  C   UNL A   1      44.737  29.645  32.238  1.00  0.00     0.029 A 
ATOM     66  C   UNL A   1      43.711  30.592  32.200  1.00  0.00     0.049 A 
ATOM     67  H   UNL A   1      43.965  32.545  31.453  1.00  0.00     0.167 HD
ATOM     68  C   UNL A   1      41.347  31.376  32.307  1.00  0.00     0.074 A 
ATOM     69  C   UNL A   1      41.275  32.360  31.225  1.00  0.00     0.031 C 
ATOM     70  C   UNL A   1      42.378  30.599  32.757  1.00  0.00     0.037 A 
BRANCH  57  71
ATOM     71  C   UNL A   1      45.170  32.871  28.727  1.00  0.00     0.057 A 
ATOM     72  C   UNL A   1      44.000  33.615  28.487  1.00  0.00     0.134 A 
ATOM     73  C   UNL A   1      46.359  33.472  28.267  1.00  0.00     0.134 A 
ATOM     74  F   UNL A   1      42.801  33.160  28.883  1.00  0.00    -0.206 F 
ATOM     75  C   UNL A   1      44.002  34.804  27.750  1.00  0.00     0.040 A 
ATOM     76  C   UNL A   1      46.378  34.686  27.575  1.00  0.00     0.040 A 
ATOM     77  F   UNL A   1      47.558  32.889  28.364  1.00  0.00    -0.206 F 
ATOM     78  C   UNL A   1      45.194  35.338  27.280  1.00  0.00     0.006 A 
ENDBRANCH  57  71
BRANCH  58  79
ATOM     79  C   UNL A   1      36.900  31.371  30.713  1.00  0.00     0.057 A 
ATOM     80  C   UNL A   1      36.039  31.598  31.798  1.00  0.00     0.134 A 
ATOM     81  C   UNL A   1      36.544  31.997  29.506  1.00  0.00     0.134 A 
ATOM     82  F   UNL A   1      36.312  31.078  33.004  1.00  0.00    -0.206 F 
ATOM     83  C   UNL A   1      34.907  32.422  31.695  1.00  0.00     0.040 A 
ATOM     84  C   UNL A   1      35.417  32.819  29.390  1.00  0.00     0.040 A 
ATOM     85  F   UNL A   1      37.329  31.906  28.424  1.00  0.00    -0.206 F 
ATOM     86  C   UNL A   1      34.601  33.047  30.491  1.00  0.00     0.006 A 
ENDBRANCH  58  79
BRANCH  70  87
ATOM     87  C   UNL A   1      42.062  29.513  33.752  1.00  0.00     0.057 A 
ATOM     88  C   UNL A   1      41.795  28.178  33.412  1.00  0.00     0.134 A 
ATOM     89  C   UNL A   1      42.209  29.798  35.113  1.00  0.00     0.134 A 
ATOM     90  F   UNL A   1      41.729  27.788  32.134  1.00  0.00    -0.206 F 
ATOM     91  C   UNL A   1      41.652  27.181  34.382  1.00  0.00     0.040 A 
ATOM     92  C   UNL A   1      42.100  28.807  36.091  1.00  0.00     0.040 A 
ATOM     93  F   UNL A   1      42.520  31.042  35.512  1.00  0.00    -0.206 F 
ATOM     94  C   UNL A   1      41.813  27.494  35.728  1.00  0.00     0.006 A 
ENDBRANCH  70  87
ENDBRANCH  44  45
ENDBRANCH  36  39
ENDBRANCH  34  35
ENDBRANCH  33  34
ENDBRANCH   1  33
TORSDOF 14
ENDMDL
MODEL 3
REMARK VINA RESULT:     -12.5      3.892      5.416
REMARK SMILES COC(=O)c1ccc([C@H]2CC(=O)Nc3c(C(=O)NCCCNC(=O)c4ccc(-c5c6nc(c(-c7c(F)cccc7F)c7ccc([nH]7)c(-c7c(F)cccc7F)c7nc(c(-c8c(F)cccc8F)c8ccc5[nH]8)C=C7)C=C6)cc4)cn(-c4ccccc4)c32)cc1
REMARK SMILES IDX 19 1 18 2 16 3 17 4 15 6 9 7 10 8 87 9 11 10 14 11 80 12
REMARK SMILES IDX 12 13 13 14 79 15 8 17 5 18 6 19 89 20 7 21 88 22 3 23 4 24
REMARK SMILES IDX 2 25 1 26 81 27 82 28 86 29 83 30 85 31 84 32 20 33 21 34
REMARK SMILES IDX 22 35 23 36 24 38 25 39 26 40 78 41 27 42 77 43 28 44 29 45
REMARK SMILES IDX 30 46 71 47 31 48 76 49 70 50 72 51 32 52 75 53 69 54 68 55
REMARK SMILES IDX 33 57 59 58 42 59 58 60 43 61 46 62 57 63 73 64 44 65 45 66
REMARK SMILES IDX 56 68 74 69 47 70 34 71 35 72 40 73 36 74 37 75 39 76 41 77
REMARK SMILES IDX 38 78 60 79 61 80 66 81 62 82 63 83 65 84 67 85 64 86 48 87
REMARK SMILES IDX 49 88 54 89 50 90 51 91 53 92 55 93 52 94
REMARK H PARENT 18 5 13 16 22 37 72 56 46 67
REMARK Flexibility Score: inf
ROOT
ATOM      1  C   UNL A   1      37.521  22.953  26.063  1.00  0.00     0.118 C 
ENDROOT
BRANCH   1   2
ATOM      2  N   UNL A   1      37.495  22.896  24.622  1.00  0.00    -0.352 N 
ATOM      3  C   UNL A   1      36.557  23.247  23.692  1.00  0.00     0.254 C 
ATOM      4  O   UNL A   1      36.937  23.151  22.520  1.00  0.00    -0.269 OA
ATOM      5  H   UNL A   1      38.320  22.529  24.229  1.00  0.00     0.163 HD
BRANCH   3   6
ATOM      6  C   UNL A   1      35.186  23.691  23.992  1.00  0.00     0.081 A 
ATOM      7  C   UNL A   1      31.484  24.214  23.862  1.00  0.00     0.078 C 
ATOM      8  C   UNL A   1      31.147  23.151  22.810  1.00  0.00     0.115 C 
ATOM      9  C   UNL A   1      32.967  24.231  24.147  1.00  0.00     0.055 A 
ATOM     10  C   UNL A   1      31.996  21.918  22.921  1.00  0.00     0.225 C 
ATOM     11  C   UNL A   1      33.848  23.240  23.766  1.00  0.00     0.076 A 
ATOM     12  N   UNL A   1      33.684  25.179  24.851  1.00  0.00    -0.317 N 
ATOM     13  O   UNL A   1      31.587  20.806  22.590  1.00  0.00    -0.275 OA
ATOM     14  N   UNL A   1      33.301  22.082  23.277  1.00  0.00    -0.324 N 
ATOM     15  C   UNL A   1      35.014  24.926  24.624  1.00  0.00     0.107 A 
ATOM     16  H   UNL A   1      33.900  21.306  23.175  1.00  0.00     0.170 HD
BRANCH   7  17
ATOM     17  C   UNL A   1      30.873  25.526  23.381  1.00  0.00    -0.038 A 
ATOM     18  C   UNL A   1      29.839  28.068  22.777  1.00  0.00     0.060 A 
ATOM     19  C   UNL A   1      29.181  27.241  23.693  1.00  0.00     0.016 A 
ATOM     20  C   UNL A   1      30.952  27.582  22.084  1.00  0.00     0.016 A 
ATOM     21  C   UNL A   1      29.699  25.983  23.999  1.00  0.00     0.005 A 
ATOM     22  C   UNL A   1      31.436  26.302  22.355  1.00  0.00     0.005 A 
BRANCH  18  23
ATOM     23  C   UNL A   1      29.361  29.460  22.621  1.00  0.00     0.337 C 
ATOM     24  O   UNL A   1      29.211  30.233  23.568  1.00  0.00    -0.246 OA
BRANCH  23  25
ATOM     25  O   UNL A   1      29.161  29.760  21.318  1.00  0.00    -0.465 OA
ATOM     26  C   UNL A   1      28.139  30.731  21.096  1.00  0.00     0.282 C 
ENDBRANCH  23  25
ENDBRANCH  18  23
ENDBRANCH   7  17
BRANCH  12  27
ATOM     27  C   UNL A   1      33.167  26.282  25.570  1.00  0.00     0.045 A 
ATOM     28  C   UNL A   1      32.214  26.072  26.574  1.00  0.00     0.026 A 
ATOM     29  C   UNL A   1      33.505  27.580  25.171  1.00  0.00     0.026 A 
ATOM     30  C   UNL A   1      31.533  27.159  27.115  1.00  0.00     0.002 A 
ATOM     31  C   UNL A   1      32.794  28.659  25.696  1.00  0.00     0.002 A 
ATOM     32  C   UNL A   1      31.800  28.447  26.653  1.00  0.00     0.000 A 
ENDBRANCH  12  27
ENDBRANCH   3   6
ENDBRANCH   1   2
BRANCH   1  33
ATOM     33  C   UNL A   1      38.104  24.279  26.583  1.00  0.00     0.042 C 
BRANCH  33  34
ATOM     34  C   UNL A   1      39.520  24.121  27.088  1.00  0.00     0.118 C 
BRANCH  34  35
ATOM     35  N   UNL A   1      40.484  24.731  26.152  1.00  0.00    -0.352 N 
ATOM     36  C   UNL A   1      40.949  26.032  26.076  1.00  0.00     0.251 C 
ATOM     37  H   UNL A   1      40.855  24.117  25.477  1.00  0.00     0.163 HD
ATOM     38  O   UNL A   1      41.468  26.460  25.053  1.00  0.00    -0.269 OA
BRANCH  36  39
ATOM     39  C   UNL A   1      40.813  26.886  27.261  1.00  0.00     0.039 A 
ATOM     40  C   UNL A   1      40.968  26.425  28.571  1.00  0.00     0.014 A 
ATOM     41  C   UNL A   1      40.626  28.232  27.003  1.00  0.00     0.014 A 
ATOM     42  C   UNL A   1      40.960  27.365  29.599  1.00  0.00     0.010 A 
ATOM     43  C   UNL A   1      41.047  29.119  27.934  1.00  0.00     0.010 A 
ATOM     44  C   UNL A   1      40.993  28.721  29.252  1.00  0.00    -0.014 A 
BRANCH  44  45
ATOM     45  C   UNL A   1      41.064  29.813  30.202  1.00  0.00     0.031 A 
ATOM     46  C   UNL A   1      39.742  30.394  30.509  1.00  0.00     0.074 A 
ATOM     47  C   UNL A   1      42.175  30.036  30.943  1.00  0.00     0.049 A 
ATOM     48  N   UNL A   1      39.269  31.516  30.086  1.00  0.00    -0.248 NA
ATOM     49  C   UNL A   1      38.745  29.538  31.175  1.00  0.00     0.031 C 
ATOM     50  C   UNL A   1      43.435  29.275  30.977  1.00  0.00     0.029 A 
ATOM     51  N   UNL A   1      42.371  30.963  31.920  1.00  0.00    -0.354 N 
ATOM     52  C   UNL A   1      38.009  31.622  30.664  1.00  0.00     0.074 A 
ATOM     53  C   UNL A   1      37.649  30.292  31.071  1.00  0.00     0.031 C 
ATOM     54  C   UNL A   1      44.162  29.636  32.060  1.00  0.00     0.029 A 
ATOM     55  C   UNL A   1      43.507  30.756  32.704  1.00  0.00     0.049 A 
ATOM     56  H   UNL A   1      41.759  31.720  32.061  1.00  0.00     0.167 HD
ATOM     57  C   UNL A   1      37.525  32.837  31.044  1.00  0.00     0.037 A 
ATOM     58  C   UNL A   1      43.841  31.460  33.817  1.00  0.00     0.037 A 
ATOM     59  C   UNL A   1      38.330  33.898  30.478  1.00  0.00     0.049 A 
ATOM     60  C   UNL A   1      43.060  32.725  33.774  1.00  0.00     0.074 A 
ATOM     61  C   UNL A   1      38.677  34.279  29.196  1.00  0.00     0.029 A 
ATOM     62  N   UNL A   1      39.254  34.490  31.309  1.00  0.00    -0.354 N 
ATOM     63  N   UNL A   1      43.255  33.660  32.883  1.00  0.00    -0.248 NA
ATOM     64  C   UNL A   1      41.740  32.714  34.389  1.00  0.00     0.031 C 
ATOM     65  C   UNL A   1      40.048  34.664  29.285  1.00  0.00     0.029 A 
ATOM     66  C   UNL A   1      40.436  34.591  30.623  1.00  0.00     0.049 A 
ATOM     67  H   UNL A   1      39.093  34.790  32.232  1.00  0.00     0.167 HD
ATOM     68  C   UNL A   1      41.981  34.063  32.508  1.00  0.00     0.074 A 
ATOM     69  C   UNL A   1      41.088  33.491  33.518  1.00  0.00     0.031 C 
ATOM     70  C   UNL A   1      41.736  34.549  31.255  1.00  0.00     0.037 A 
BRANCH  57  71
ATOM     71  C   UNL A   1      36.631  33.077  32.238  1.00  0.00     0.057 A 
ATOM     72  C   UNL A   1      35.468  33.847  32.055  1.00  0.00     0.134 A 
ATOM     73  C   UNL A   1      36.987  32.852  33.584  1.00  0.00     0.134 A 
ATOM     74  F   UNL A   1      35.013  34.126  30.824  1.00  0.00    -0.206 F 
ATOM     75  C   UNL A   1      34.781  34.438  33.121  1.00  0.00     0.040 A 
ATOM     76  C   UNL A   1      36.277  33.396  34.658  1.00  0.00     0.040 A 
ATOM     77  F   UNL A   1      38.087  32.185  33.947  1.00  0.00    -0.206 F 
ATOM     78  C   UNL A   1      35.193  34.225  34.429  1.00  0.00     0.006 A 
ENDBRANCH  57  71
BRANCH  58  79
ATOM     79  C   UNL A   1      44.529  31.002  35.048  1.00  0.00     0.057 A 
ATOM     80  C   UNL A   1      45.691  31.635  35.516  1.00  0.00     0.134 A 
ATOM     81  C   UNL A   1      43.905  30.125  35.952  1.00  0.00     0.134 A 
ATOM     82  F   UNL A   1      46.340  32.521  34.745  1.00  0.00    -0.206 F 
ATOM     83  C   UNL A   1      46.186  31.430  36.813  1.00  0.00     0.040 A 
ATOM     84  C   UNL A   1      44.388  29.909  37.248  1.00  0.00     0.040 A 
ATOM     85  F   UNL A   1      42.751  29.517  35.638  1.00  0.00    -0.206 F 
ATOM     86  C   UNL A   1      45.525  30.574  37.689  1.00  0.00     0.006 A 
ENDBRANCH  58  79
BRANCH  70  87
ATOM     87  C   UNL A   1      42.918  34.860  30.374  1.00  0.00     0.057 A 
ATOM     88  C   UNL A   1      43.715  36.009  30.492  1.00  0.00     0.134 A 
ATOM     89  C   UNL A   1      43.368  33.871  29.494  1.00  0.00     0.134 A 
ATOM     90  F   UNL A   1      43.419  36.971  31.374  1.00  0.00    -0.206 F 
ATOM     91  C   UNL A   1      44.886  36.179  29.746  1.00  0.00     0.040 A 
ATOM     92  C   UNL A   1      44.551  34.012  28.767  1.00  0.00     0.040 A 
ATOM     93  F   UNL A   1      42.689  32.720  29.370  1.00  0.00    -0.206 F 
ATOM     94  C   UNL A   1      45.312  35.173  28.885  1.00  0.00     0.006 A 
ENDBRANCH  70  87
ENDBRANCH  44  45
ENDBRANCH  36  39
ENDBRANCH  34  35
ENDBRANCH  33  34
ENDBRANCH   1  33
TORSDOF 14
ENDMDL
