MODEL 1
REMARK VINA RESULT:     -12.1      0.000      0.000
REMARK SMILES CS(=O)(=O)c1ccc(/C=C(/C(=O)NCCCNC(=O)c2ccc(-c3c4nc(c(-c5c(F)cccc5F)c5ccc([nH]5)c(-c5c(F)cccc5F)c5nc(c(-c6c(F)cccc6F)c6ccc3[nH]6)C=C5)C=C4)cc2)c2ccc(F)cc2)cc1
REMARK SMILES IDX 15 1 14 2 13 3 11 4 12 5 10 7 9 8 8 9 5 10 6 11 82 12 7 13
REMARK SMILES IDX 81 14 2 15 1 16 3 17 4 18 74 19 75 20 80 21 76 22 79 23
REMARK SMILES IDX 77 24 78 25 16 26 17 27 18 28 19 30 20 31 21 32 73 33 22 34
REMARK SMILES IDX 72 35 23 36 24 37 25 38 66 39 26 40 71 41 65 42 67 43 27 44
REMARK SMILES IDX 70 45 64 46 63 47 28 49 54 50 37 51 53 52 38 53 41 54 52 55
REMARK SMILES IDX 68 56 39 57 40 58 51 60 69 61 42 62 29 63 30 64 35 65 31 66
REMARK SMILES IDX 32 67 34 68 36 69 33 70 55 71 56 72 61 73 57 74 58 75 60 76
REMARK SMILES IDX 62 77 59 78 43 79 44 80 49 81 45 82 46 83 48 84 50 85 47 86
REMARK H PARENT 13 6 17 29 67 48 41 59
REMARK Flexibility Score: inf
ROOT
ATOM      1  C   UNL A   1      36.182  23.409  23.921  1.00  0.00     0.042 C 
ENDROOT
BRANCH   1   2
ATOM      2  C   UNL A   1      34.761  23.977  23.884  1.00  0.00     0.118 C 
BRANCH   2   3
ATOM      3  N   UNL A   1      34.026  23.617  25.083  1.00  0.00    -0.352 N 
ATOM      4  C   UNL A   1      33.025  24.202  25.793  1.00  0.00     0.251 C 
ATOM      5  O   UNL A   1      32.646  23.594  26.796  1.00  0.00    -0.269 OA
ATOM      6  H   UNL A   1      34.318  22.760  25.469  1.00  0.00     0.163 HD
BRANCH   4   7
ATOM      7  C   UNL A   1      32.334  25.478  25.368  1.00  0.00     0.047 C 
ATOM      8  C   UNL A   1      31.549  25.527  24.270  1.00  0.00     0.022 C 
BRANCH   8   9
ATOM      9  C   UNL A   1      30.749  26.651  23.740  1.00  0.00    -0.025 A 
ATOM     10  C   UNL A   1      29.105  28.746  22.846  1.00  0.00     0.067 A 
ATOM     11  C   UNL A   1      30.480  28.795  22.614  1.00  0.00     0.021 A 
ATOM     12  C   UNL A   1      28.535  27.642  23.481  1.00  0.00     0.021 A 
ATOM     13  C   UNL A   1      31.293  27.741  23.049  1.00  0.00     0.009 A 
ATOM     14  C   UNL A   1      29.357  26.601  23.922  1.00  0.00     0.009 A 
BRANCH  10  15
ATOM     15  S   UNL A   1      28.062  30.087  22.324  1.00  0.00     0.175 S 
ATOM     16  C   UNL A   1      28.931  31.560  22.796  1.00  0.00     0.163 C 
ATOM     17  O   UNL A   1      26.855  30.033  23.120  1.00  0.00    -0.224 OA
ATOM     18  O   UNL A   1      28.009  30.031  20.873  1.00  0.00    -0.224 OA
ENDBRANCH  10  15
ENDBRANCH   8   9
BRANCH   7  19
ATOM     19  C   UNL A   1      32.696  26.716  26.104  1.00  0.00    -0.013 A 
ATOM     20  C   UNL A   1      33.961  27.292  25.881  1.00  0.00     0.012 A 
ATOM     21  C   UNL A   1      31.793  27.365  26.959  1.00  0.00     0.012 A 
ATOM     22  C   UNL A   1      34.309  28.503  26.478  1.00  0.00     0.040 A 
ATOM     23  C   UNL A   1      32.140  28.583  27.549  1.00  0.00     0.040 A 
ATOM     24  C   UNL A   1      33.389  29.142  27.300  1.00  0.00     0.123 A 
ATOM     25  F   UNL A   1      33.708  30.321  27.851  1.00  0.00    -0.207 F 
ENDBRANCH   7  19
ENDBRANCH   4   7
ENDBRANCH   2   3
ENDBRANCH   1   2
BRANCH   1  26
ATOM     26  C   UNL A   1      36.935  23.699  25.221  1.00  0.00     0.118 C 
BRANCH  26  27
ATOM     27  N   UNL A   1      38.041  22.778  25.437  1.00  0.00    -0.352 N 
ATOM     28  C   UNL A   1      39.266  22.987  26.019  1.00  0.00     0.251 C 
ATOM     29  H   UNL A   1      37.886  21.861  25.114  1.00  0.00     0.163 HD
ATOM     30  O   UNL A   1      40.133  22.122  25.922  1.00  0.00    -0.269 OA
BRANCH  28  31
ATOM     31  C   UNL A   1      39.563  24.239  26.751  1.00  0.00     0.039 A 
ATOM     32  C   UNL A   1      39.051  24.394  28.044  1.00  0.00     0.014 A 
ATOM     33  C   UNL A   1      40.279  25.283  26.158  1.00  0.00     0.014 A 
ATOM     34  C   UNL A   1      39.301  25.568  28.759  1.00  0.00     0.010 A 
ATOM     35  C   UNL A   1      40.575  26.431  26.892  1.00  0.00     0.010 A 
ATOM     36  C   UNL A   1      40.087  26.587  28.198  1.00  0.00    -0.014 A 
BRANCH  36  37
ATOM     37  C   UNL A   1      40.408  27.816  28.967  1.00  0.00     0.031 A 
ATOM     38  C   UNL A   1      41.716  27.938  29.700  1.00  0.00     0.074 A 
ATOM     39  C   UNL A   1      39.494  28.800  29.059  1.00  0.00     0.049 A 
ATOM     40  N   UNL A   1      42.143  28.904  30.474  1.00  0.00    -0.248 NA
ATOM     41  C   UNL A   1      42.659  26.818  29.560  1.00  0.00     0.031 C 
ATOM     42  C   UNL A   1      38.172  28.785  28.431  1.00  0.00     0.029 A 
ATOM     43  N   UNL A   1      39.534  30.000  29.723  1.00  0.00    -0.354 N 
ATOM     44  C   UNL A   1      43.392  28.500  30.929  1.00  0.00     0.074 A 
ATOM     45  C   UNL A   1      43.638  27.186  30.374  1.00  0.00     0.031 C 
ATOM     46  C   UNL A   1      37.532  29.928  28.729  1.00  0.00     0.029 A 
ATOM     47  C   UNL A   1      38.384  30.741  29.591  1.00  0.00     0.049 A 
ATOM     48  H   UNL A   1      40.311  30.301  30.246  1.00  0.00     0.167 HD
ATOM     49  C   UNL A   1      44.262  29.171  31.722  1.00  0.00     0.037 A 
ATOM     50  C   UNL A   1      38.052  31.938  30.110  1.00  0.00     0.037 A 
ATOM     51  C   UNL A   1      44.031  30.490  32.250  1.00  0.00     0.049 A 
ATOM     52  C   UNL A   1      39.038  32.666  30.978  1.00  0.00     0.074 A 
ATOM     53  C   UNL A   1      44.880  31.277  33.008  1.00  0.00     0.029 A 
ATOM     54  N   UNL A   1      42.862  31.216  32.075  1.00  0.00    -0.354 N 
ATOM     55  N   UNL A   1      40.240  32.298  31.349  1.00  0.00    -0.248 NA
ATOM     56  C   UNL A   1      38.623  33.978  31.495  1.00  0.00     0.031 C 
ATOM     57  C   UNL A   1      44.213  32.467  33.321  1.00  0.00     0.029 A 
ATOM     58  C   UNL A   1      42.962  32.435  32.726  1.00  0.00     0.049 A 
ATOM     59  H   UNL A   1      42.079  30.911  31.564  1.00  0.00     0.167 HD
ATOM     60  C   UNL A   1      40.733  33.339  32.124  1.00  0.00     0.074 A 
ATOM     61  C   UNL A   1      39.705  34.359  32.158  1.00  0.00     0.031 C 
ATOM     62  C   UNL A   1      41.931  33.441  32.750  1.00  0.00     0.037 A 
BRANCH  49  63
ATOM     63  C   UNL A   1      45.552  28.484  32.065  1.00  0.00     0.057 A 
ATOM     64  C   UNL A   1      46.695  28.622  31.269  1.00  0.00     0.134 A 
ATOM     65  C   UNL A   1      45.659  27.699  33.220  1.00  0.00     0.134 A 
ATOM     66  F   UNL A   1      46.655  29.351  30.144  1.00  0.00    -0.206 F 
ATOM     67  C   UNL A   1      47.893  27.982  31.594  1.00  0.00     0.040 A 
ATOM     68  C   UNL A   1      46.858  27.074  33.569  1.00  0.00     0.040 A 
ATOM     69  F   UNL A   1      44.603  27.531  34.031  1.00  0.00    -0.206 F 
ATOM     70  C   UNL A   1      47.977  27.210  32.751  1.00  0.00     0.006 A 
ENDBRANCH  49  63
BRANCH  50  71
ATOM     71  C   UNL A   1      36.730  32.534  29.799  1.00  0.00     0.057 A 
ATOM     72  C   UNL A   1      36.582  33.442  28.745  1.00  0.00     0.134 A 
ATOM     73  C   UNL A   1      35.588  32.207  30.539  1.00  0.00     0.134 A 
ATOM     74  F   UNL A   1      37.646  33.806  28.014  1.00  0.00    -0.206 F 
ATOM     75  C   UNL A   1      35.345  34.015  28.444  1.00  0.00     0.040 A 
ATOM     76  C   UNL A   1      34.342  32.757  30.236  1.00  0.00     0.040 A 
ATOM     77  F   UNL A   1      35.666  31.337  31.557  1.00  0.00    -0.206 F 
ATOM     78  C   UNL A   1      34.219  33.667  29.188  1.00  0.00     0.006 A 
ENDBRANCH  50  71
BRANCH  62  79
ATOM     79  C   UNL A   1      42.202  34.708  33.505  1.00  0.00     0.057 A 
ATOM     80  C   UNL A   1      41.803  34.870  34.838  1.00  0.00     0.134 A 
ATOM     81  C   UNL A   1      42.895  35.764  32.902  1.00  0.00     0.134 A 
ATOM     82  F   UNL A   1      41.123  33.900  35.466  1.00  0.00    -0.206 F 
ATOM     83  C   UNL A   1      42.069  36.047  35.538  1.00  0.00     0.040 A 
ATOM     84  C   UNL A   1      43.185  36.937  33.598  1.00  0.00     0.040 A 
ATOM     85  F   UNL A   1      43.308  35.668  31.629  1.00  0.00    -0.206 F 
ATOM     86  C   UNL A   1      42.768  37.083  34.920  1.00  0.00     0.006 A 
ENDBRANCH  62  79
ENDBRANCH  36  37
ENDBRANCH  28  31
ENDBRANCH  26  27
ENDBRANCH   1  26
TORSDOF 13
ENDMDL
MODEL 2
REMARK VINA RESULT:     -12.1      1.510      2.004
REMARK SMILES CS(=O)(=O)c1ccc(/C=C(/C(=O)NCCCNC(=O)c2ccc(-c3c4nc(c(-c5c(F)cccc5F)c5ccc([nH]5)c(-c5c(F)cccc5F)c5nc(c(-c6c(F)cccc6F)c6ccc3[nH]6)C=C5)C=C4)cc2)c2ccc(F)cc2)cc1
REMARK SMILES IDX 15 1 14 2 13 3 11 4 12 5 10 7 9 8 8 9 5 10 6 11 82 12 7 13
REMARK SMILES IDX 81 14 2 15 1 16 3 17 4 18 74 19 75 20 80 21 76 22 79 23
REMARK SMILES IDX 77 24 78 25 16 26 17 27 18 28 19 30 20 31 21 32 73 33 22 34
REMARK SMILES IDX 72 35 23 36 24 37 25 38 66 39 26 40 71 41 65 42 67 43 27 44
REMARK SMILES IDX 70 45 64 46 63 47 28 49 54 50 37 51 53 52 38 53 41 54 52 55
REMARK SMILES IDX 68 56 39 57 40 58 51 60 69 61 42 62 29 63 30 64 35 65 31 66
REMARK SMILES IDX 32 67 34 68 36 69 33 70 55 71 56 72 61 73 57 74 58 75 60 76
REMARK SMILES IDX 62 77 59 78 43 79 44 80 49 81 45 82 46 83 48 84 50 85 47 86
REMARK H PARENT 13 6 17 29 67 48 41 59
REMARK Flexibility Score: inf
ROOT
ATOM      1  C   UNL A   1      36.299  23.592  24.463  1.00  0.00     0.042 C 
ENDROOT
BRANCH   1   2
ATOM      2  C   UNL A   1      34.865  24.067  24.213  1.00  0.00     0.118 C 
BRANCH   2   3
ATOM      3  N   UNL A   1      33.977  23.619  25.270  1.00  0.00    -0.352 N 
ATOM      4  C   UNL A   1      32.869  24.139  25.862  1.00  0.00     0.251 C 
ATOM      5  O   UNL A   1      32.368  23.461  26.761  1.00  0.00    -0.269 OA
ATOM      6  H   UNL A   1      34.233  22.744  25.641  1.00  0.00     0.163 HD
BRANCH   4   7
ATOM      7  C   UNL A   1      32.211  25.426  25.420  1.00  0.00     0.047 C 
ATOM      8  C   UNL A   1      31.439  25.484  24.313  1.00  0.00     0.022 C 
BRANCH   8   9
ATOM      9  C   UNL A   1      30.670  26.622  23.766  1.00  0.00    -0.025 A 
ATOM     10  C   UNL A   1      29.082  28.743  22.836  1.00  0.00     0.067 A 
ATOM     11  C   UNL A   1      30.462  28.770  22.637  1.00  0.00     0.021 A 
ATOM     12  C   UNL A   1      28.480  27.649  23.458  1.00  0.00     0.021 A 
ATOM     13  C   UNL A   1      31.248  27.703  23.089  1.00  0.00     0.009 A 
ATOM     14  C   UNL A   1      29.273  26.594  23.916  1.00  0.00     0.009 A 
BRANCH  10  15
ATOM     15  S   UNL A   1      28.073  30.102  22.292  1.00  0.00     0.175 S 
ATOM     16  C   UNL A   1      28.976  31.560  22.745  1.00  0.00     0.163 C 
ATOM     17  O   UNL A   1      26.862  30.088  23.084  1.00  0.00    -0.224 OA
ATOM     18  O   UNL A   1      28.023  30.026  20.842  1.00  0.00    -0.224 OA
ENDBRANCH  10  15
ENDBRANCH   8   9
BRANCH   7  19
ATOM     19  C   UNL A   1      32.593  26.662  26.150  1.00  0.00    -0.013 A 
ATOM     20  C   UNL A   1      33.871  27.211  25.931  1.00  0.00     0.012 A 
ATOM     21  C   UNL A   1      31.699  27.335  26.994  1.00  0.00     0.012 A 
ATOM     22  C   UNL A   1      34.240  28.419  26.522  1.00  0.00     0.040 A 
ATOM     23  C   UNL A   1      32.067  28.550  27.579  1.00  0.00     0.040 A 
ATOM     24  C   UNL A   1      33.328  29.082  27.333  1.00  0.00     0.123 A 
ATOM     25  F   UNL A   1      33.668  30.258  27.878  1.00  0.00    -0.207 F 
ENDBRANCH   7  19
ENDBRANCH   4   7
ENDBRANCH   2   3
ENDBRANCH   1   2
BRANCH   1  26
ATOM     26  C   UNL A   1      36.615  23.313  25.934  1.00  0.00     0.118 C 
BRANCH  26  27
ATOM     27  N   UNL A   1      37.746  22.411  26.095  1.00  0.00    -0.352 N 
ATOM     28  C   UNL A   1      39.054  22.679  26.410  1.00  0.00     0.251 C 
ATOM     29  H   UNL A   1      37.539  21.458  25.957  1.00  0.00     0.163 HD
ATOM     30  O   UNL A   1      39.893  21.789  26.301  1.00  0.00    -0.269 OA
BRANCH  28  31
ATOM     31  C   UNL A   1      39.472  24.024  26.866  1.00  0.00     0.039 A 
ATOM     32  C   UNL A   1      39.242  24.378  28.201  1.00  0.00     0.014 A 
ATOM     33  C   UNL A   1      40.025  24.958  25.986  1.00  0.00     0.014 A 
ATOM     34  C   UNL A   1      39.612  25.644  28.662  1.00  0.00     0.010 A 
ATOM     35  C   UNL A   1      40.445  26.201  26.460  1.00  0.00     0.010 A 
ATOM     36  C   UNL A   1      40.240  26.557  27.801  1.00  0.00    -0.014 A 
BRANCH  36  37
ATOM     37  C   UNL A   1      40.690  27.884  28.292  1.00  0.00     0.031 A 
ATOM     38  C   UNL A   1      42.156  28.183  28.452  1.00  0.00     0.074 A 
ATOM     39  C   UNL A   1      39.775  28.804  28.655  1.00  0.00     0.049 A 
ATOM     40  N   UNL A   1      42.734  29.257  28.927  1.00  0.00    -0.248 NA
ATOM     41  C   UNL A   1      43.093  27.125  28.044  1.00  0.00     0.031 C 
ATOM     42  C   UNL A   1      38.324  28.623  28.588  1.00  0.00     0.029 A 
ATOM     43  N   UNL A   1      39.931  30.070  29.160  1.00  0.00    -0.354 N 
ATOM     44  C   UNL A   1      44.098  28.999  28.894  1.00  0.00     0.074 A 
ATOM     45  C   UNL A   1      44.260  27.652  28.388  1.00  0.00     0.031 C 
ATOM     46  C   UNL A   1      37.723  29.742  29.022  1.00  0.00     0.029 A 
ATOM     47  C   UNL A   1      38.742  30.706  29.426  1.00  0.00     0.049 A 
ATOM     48  H   UNL A   1      40.810  30.483  29.318  1.00  0.00     0.167 HD
ATOM     49  C   UNL A   1      45.124  29.815  29.236  1.00  0.00     0.037 A 
ATOM     50  C   UNL A   1      38.501  31.926  29.940  1.00  0.00     0.037 A 
ATOM     51  C   UNL A   1      44.965  31.164  29.712  1.00  0.00     0.049 A 
ATOM     52  C   UNL A   1      39.655  32.816  30.303  1.00  0.00     0.074 A 
ATOM     53  C   UNL A   1      45.946  32.091  30.022  1.00  0.00     0.029 A 
ATOM     54  N   UNL A   1      43.745  31.780  29.947  1.00  0.00    -0.354 N 
ATOM     55  N   UNL A   1      40.940  32.581  30.209  1.00  0.00    -0.248 NA
ATOM     56  C   UNL A   1      39.323  34.144  30.840  1.00  0.00     0.031 C 
ATOM     57  C   UNL A   1      45.319  33.257  30.478  1.00  0.00     0.029 A 
ATOM     58  C   UNL A   1      43.947  33.068  30.415  1.00  0.00     0.049 A 
ATOM     59  H   UNL A   1      42.865  31.363  29.802  1.00  0.00     0.167 HD
ATOM     60  C   UNL A   1      41.571  33.735  30.653  1.00  0.00     0.074 A 
ATOM     61  C   UNL A   1      40.527  34.675  31.004  1.00  0.00     0.031 C 
ATOM     62  C   UNL A   1      42.898  33.993  30.759  1.00  0.00     0.037 A 
BRANCH  49  63
ATOM     63  C   UNL A   1      46.515  29.266  29.106  1.00  0.00     0.057 A 
ATOM     64  C   UNL A   1      47.147  28.601  30.164  1.00  0.00     0.134 A 
ATOM     65  C   UNL A   1      47.219  29.379  27.900  1.00  0.00     0.134 A 
ATOM     66  F   UNL A   1      46.531  28.470  31.348  1.00  0.00    -0.206 F 
ATOM     67  C   UNL A   1      48.440  28.091  30.036  1.00  0.00     0.040 A 
ATOM     68  C   UNL A   1      48.503  28.851  27.753  1.00  0.00     0.040 A 
ATOM     69  F   UNL A   1      46.668  29.998  26.845  1.00  0.00    -0.206 F 
ATOM     70  C   UNL A   1      49.120  28.211  28.825  1.00  0.00     0.006 A 
ENDBRANCH  49  63
BRANCH  50  71
ATOM     71  C   UNL A   1      37.102  32.386  30.119  1.00  0.00     0.057 A 
ATOM     72  C   UNL A   1      36.453  33.116  29.118  1.00  0.00     0.134 A 
ATOM     73  C   UNL A   1      36.383  32.104  31.286  1.00  0.00     0.134 A 
ATOM     74  F   UNL A   1      37.100  33.432  27.986  1.00  0.00    -0.206 F 
ATOM     75  C   UNL A   1      35.139  33.560  29.274  1.00  0.00     0.040 A 
ATOM     76  C   UNL A   1      35.062  32.524  31.447  1.00  0.00     0.040 A 
ATOM     77  F   UNL A   1      36.950  31.401  32.278  1.00  0.00    -0.206 F 
ATOM     78  C   UNL A   1      34.438  33.258  30.441  1.00  0.00     0.006 A 
ENDBRANCH  50  71
BRANCH  62  79
ATOM     79  C   UNL A   1      43.293  35.352  31.253  1.00  0.00     0.057 A 
ATOM     80  C   UNL A   1      43.404  35.634  32.620  1.00  0.00     0.134 A 
ATOM     81  C   UNL A   1      43.593  36.380  30.351  1.00  0.00     0.134 A 
ATOM     82  F   UNL A   1      43.115  34.696  33.534  1.00  0.00    -0.206 F 
ATOM     83  C   UNL A   1      43.783  36.899  33.073  1.00  0.00     0.040 A 
ATOM     84  C   UNL A   1      43.994  37.642  30.792  1.00  0.00     0.040 A 
ATOM     85  F   UNL A   1      43.510  36.171  29.029  1.00  0.00    -0.206 F 
ATOM     86  C   UNL A   1      44.085  37.905  32.157  1.00  0.00     0.006 A 
ENDBRANCH  62  79
ENDBRANCH  36  37
ENDBRANCH  28  31
ENDBRANCH  26  27
ENDBRANCH   1  26
TORSDOF 13
ENDMDL
MODEL 3
REMARK VINA RESULT:     -12.0      3.682      8.472
REMARK SMILES CS(=O)(=O)c1ccc(/C=C(/C(=O)NCCCNC(=O)c2ccc(-c3c4nc(c(-c5c(F)cccc5F)c5ccc([nH]5)c(-c5c(F)cccc5F)c5nc(c(-c6c(F)cccc6F)c6ccc3[nH]6)C=C5)C=C4)cc2)c2ccc(F)cc2)cc1
REMARK SMILES IDX 15 1 14 2 13 3 11 4 12 5 10 7 9 8 8 9 5 10 6 11 82 12 7 13
REMARK SMILES IDX 81 14 2 15 1 16 3 17 4 18 74 19 75 20 80 21 76 22 79 23
REMARK SMILES IDX 77 24 78 25 16 26 17 27 18 28 19 30 20 31 21 32 73 33 22 34
REMARK SMILES IDX 72 35 23 36 24 37 25 38 66 39 26 40 71 41 65 42 67 43 27 44
REMARK SMILES IDX 70 45 64 46 63 47 28 49 54 50 37 51 53 52 38 53 41 54 52 55
REMARK SMILES IDX 68 56 39 57 40 58 51 60 69 61 42 62 29 63 30 64 35 65 31 66
REMARK SMILES IDX 32 67 34 68 36 69 33 70 55 71 56 72 61 73 57 74 58 75 60 76
REMARK SMILES IDX 62 77 59 78 43 79 44 80 49 81 45 82 46 83 48 84 50 85 47 86
REMARK H PARENT 13 6 17 29 67 48 41 59
REMARK Flexibility Score: inf
ROOT
ATOM      1  C   UNL A   1      32.372  27.728  27.033  1.00  0.00     0.042 C 
ENDROOT
BRANCH   1   2
ATOM      2  C   UNL A   1      32.342  26.412  26.251  1.00  0.00     0.118 C 
BRANCH   2   3
ATOM      3  N   UNL A   1      32.689  26.626  24.858  1.00  0.00    -0.352 N 
ATOM      4  C   UNL A   1      33.215  25.842  23.880  1.00  0.00     0.251 C 
ATOM      5  O   UNL A   1      33.386  26.384  22.786  1.00  0.00    -0.269 OA
ATOM      6  H   UNL A   1      32.502  27.543  24.553  1.00  0.00     0.163 HD
BRANCH   4   7
ATOM      7  C   UNL A   1      33.508  24.370  24.056  1.00  0.00     0.047 C 
ATOM      8  C   UNL A   1      32.521  23.448  24.080  1.00  0.00     0.022 C 
BRANCH   8   9
ATOM      9  C   UNL A   1      32.615  21.976  24.176  1.00  0.00    -0.025 A 
ATOM     10  C   UNL A   1      32.816  19.175  24.187  1.00  0.00     0.067 A 
ATOM     11  C   UNL A   1      33.068  19.893  25.356  1.00  0.00     0.021 A 
ATOM     12  C   UNL A   1      32.424  19.835  23.023  1.00  0.00     0.021 A 
ATOM     13  C   UNL A   1      32.952  21.288  25.349  1.00  0.00     0.009 A 
ATOM     14  C   UNL A   1      32.322  21.229  23.022  1.00  0.00     0.009 A 
BRANCH  10  15
ATOM     15  S   UNL A   1      32.985  17.405  24.172  1.00  0.00     0.175 S 
ATOM     16  C   UNL A   1      34.679  17.097  24.595  1.00  0.00     0.163 C 
ATOM     17  O   UNL A   1      32.801  16.964  22.806  1.00  0.00    -0.224 OA
ATOM     18  O   UNL A   1      32.145  16.900  25.244  1.00  0.00    -0.224 OA
ENDBRANCH  10  15
ENDBRANCH   8   9
BRANCH   7  19
ATOM     19  C   UNL A   1      34.908  23.997  24.381  1.00  0.00    -0.013 A 
ATOM     20  C   UNL A   1      35.400  24.267  25.673  1.00  0.00     0.012 A 
ATOM     21  C   UNL A   1      35.731  23.324  23.467  1.00  0.00     0.012 A 
ATOM     22  C   UNL A   1      36.676  23.852  26.052  1.00  0.00     0.040 A 
ATOM     23  C   UNL A   1      37.007  22.901  23.852  1.00  0.00     0.040 A 
ATOM     24  C   UNL A   1      37.463  23.163  25.140  1.00  0.00     0.123 A 
ATOM     25  F   UNL A   1      38.678  22.737  25.510  1.00  0.00    -0.207 F 
ENDBRANCH   7  19
ENDBRANCH   4   7
ENDBRANCH   2   3
ENDBRANCH   1   2
BRANCH   1  26
ATOM     26  C   UNL A   1      33.726  28.440  27.002  1.00  0.00     0.118 C 
BRANCH  26  27
ATOM     27  N   UNL A   1      33.633  29.826  27.435  1.00  0.00    -0.352 N 
ATOM     28  C   UNL A   1      34.522  30.594  28.143  1.00  0.00     0.251 C 
ATOM     29  H   UNL A   1      32.800  30.285  27.180  1.00  0.00     0.163 HD
ATOM     30  O   UNL A   1      34.162  31.685  28.577  1.00  0.00    -0.269 OA
BRANCH  28  31
ATOM     31  C   UNL A   1      35.903  30.125  28.402  1.00  0.00     0.039 A 
ATOM     32  C   UNL A   1      36.833  30.179  27.358  1.00  0.00     0.014 A 
ATOM     33  C   UNL A   1      36.271  29.577  29.634  1.00  0.00     0.014 A 
ATOM     34  C   UNL A   1      38.141  29.733  27.564  1.00  0.00     0.010 A 
ATOM     35  C   UNL A   1      37.591  29.184  29.855  1.00  0.00     0.010 A 
ATOM     36  C   UNL A   1      38.537  29.255  28.822  1.00  0.00    -0.014 A 
BRANCH  36  37
ATOM     37  C   UNL A   1      39.939  28.832  29.071  1.00  0.00     0.031 A 
ATOM     38  C   UNL A   1      40.919  29.774  29.714  1.00  0.00     0.074 A 
ATOM     39  C   UNL A   1      40.349  27.616  28.661  1.00  0.00     0.049 A 
ATOM     40  N   UNL A   1      42.196  29.605  29.951  1.00  0.00    -0.248 NA
ATOM     41  C   UNL A   1      40.400  31.087  30.126  1.00  0.00     0.031 C 
ATOM     42  C   UNL A   1      39.508  26.625  27.987  1.00  0.00     0.029 A 
ATOM     43  N   UNL A   1      41.577  27.011  28.742  1.00  0.00    -0.354 N 
ATOM     44  C   UNL A   1      42.636  30.793  30.519  1.00  0.00     0.074 A 
ATOM     45  C   UNL A   1      41.499  31.689  30.558  1.00  0.00     0.031 C 
ATOM     46  C   UNL A   1      40.242  25.531  27.729  1.00  0.00     0.029 A 
ATOM     47  C   UNL A   1      41.609  25.753  28.190  1.00  0.00     0.049 A 
ATOM     48  H   UNL A   1      42.362  27.437  29.155  1.00  0.00     0.167 HD
ATOM     49  C   UNL A   1      43.870  31.104  30.983  1.00  0.00     0.037 A 
ATOM     50  C   UNL A   1      42.625  24.879  28.065  1.00  0.00     0.037 A 
ATOM     51  C   UNL A   1      44.994  30.204  30.972  1.00  0.00     0.049 A 
ATOM     52  C   UNL A   1      43.981  25.243  28.597  1.00  0.00     0.074 A 
ATOM     53  C   UNL A   1      46.266  30.406  31.479  1.00  0.00     0.029 A 
ATOM     54  N   UNL A   1      44.979  28.931  30.424  1.00  0.00    -0.354 N 
ATOM     55  N   UNL A   1      44.368  26.348  29.186  1.00  0.00    -0.248 NA
ATOM     56  C   UNL A   1      45.043  24.237  28.449  1.00  0.00     0.031 C 
ATOM     57  C   UNL A   1      47.032  29.266  31.208  1.00  0.00     0.029 A 
ATOM     58  C   UNL A   1      46.225  28.341  30.565  1.00  0.00     0.049 A 
ATOM     59  H   UNL A   1      44.199  28.508  29.998  1.00  0.00     0.167 HD
ATOM     60  C   UNL A   1      45.707  26.163  29.499  1.00  0.00     0.074 A 
ATOM     61  C   UNL A   1      46.064  24.834  29.046  1.00  0.00     0.031 C 
ATOM     62  C   UNL A   1      46.565  27.018  30.109  1.00  0.00     0.037 A 
BRANCH  49  63
ATOM     63  C   UNL A   1      44.068  32.481  31.546  1.00  0.00     0.057 A 
ATOM     64  C   UNL A   1      44.467  33.556  30.742  1.00  0.00     0.134 A 
ATOM     65  C   UNL A   1      43.829  32.741  32.902  1.00  0.00     0.134 A 
ATOM     66  F   UNL A   1      44.724  33.371  29.439  1.00  0.00    -0.206 F 
ATOM     67  C   UNL A   1      44.648  34.835  31.271  1.00  0.00     0.040 A 
ATOM     68  C   UNL A   1      43.982  34.022  33.437  1.00  0.00     0.040 A 
ATOM     69  F   UNL A   1      43.437  31.758  33.726  1.00  0.00    -0.206 F 
ATOM     70  C   UNL A   1      44.400  35.072  32.622  1.00  0.00     0.006 A 
ENDBRANCH  49  63
BRANCH  50  71
ATOM     71  C   UNL A   1      42.388  23.561  27.429  1.00  0.00     0.057 A 
ATOM     72  C   UNL A   1      42.037  22.445  28.196  1.00  0.00     0.134 A 
ATOM     73  C   UNL A   1      42.501  23.385  26.045  1.00  0.00     0.134 A 
ATOM     74  F   UNL A   1      41.933  22.550  29.530  1.00  0.00    -0.206 F 
ATOM     75  C   UNL A   1      41.816  21.197  27.613  1.00  0.00     0.040 A 
ATOM     76  C   UNL A   1      42.263  22.148  25.445  1.00  0.00     0.040 A 
ATOM     77  F   UNL A   1      42.828  24.420  25.256  1.00  0.00    -0.206 F 
ATOM     78  C   UNL A   1      41.924  21.048  26.231  1.00  0.00     0.006 A 
ENDBRANCH  50  71
BRANCH  62  79
ATOM     79  C   UNL A   1      47.965  26.532  30.341  1.00  0.00     0.057 A 
ATOM     80  C   UNL A   1      48.322  25.847  31.509  1.00  0.00     0.134 A 
ATOM     81  C   UNL A   1      48.957  26.725  29.372  1.00  0.00     0.134 A 
ATOM     82  F   UNL A   1      47.420  25.643  32.480  1.00  0.00    -0.206 F 
ATOM     83  C   UNL A   1      49.624  25.387  31.713  1.00  0.00     0.040 A 
ATOM     84  C   UNL A   1      50.256  26.251  29.555  1.00  0.00     0.040 A 
ATOM     85  F   UNL A   1      48.676  27.369  28.229  1.00  0.00    -0.206 F 
ATOM     86  C   UNL A   1      50.594  25.584  30.731  1.00  0.00     0.006 A 
ENDBRANCH  62  79
ENDBRANCH  36  37
ENDBRANCH  28  31
ENDBRANCH  26  27
ENDBRANCH   1  26
TORSDOF 13
ENDMDL
