MODEL 1
REMARK VINA RESULT:     -11.5      0.000      0.000
REMARK SMILES C[C@H]1C[N@H+]2CCCC[C@@H]2CN1C(=O)[C@H]([NH3+])CC(=O)NCCCNC(=O)c1ccc(-c2c3nc(c(-c4c(F)cccc4F)c4ccc([nH]4)c(-c4c(F)cccc4F)c4nc(c(-c5c(F)cccc5F)c5ccc2[nH]5)C=C4)C=C3)cc1
REMARK SMILES IDX 20 1 19 2 17 3 18 4 16 6 14 7 12 8 13 9 11 10 1 11 2 12 3 13
REMARK SMILES IDX 4 14 10 15 5 16 9 17 6 19 8 20 7 21 15 22 21 26 22 27 23 28
REMARK SMILES IDX 24 29 25 31 26 32 27 33 79 34 28 35 78 36 29 37 30 38 31 39
REMARK SMILES IDX 72 40 32 41 77 42 71 43 73 44 33 45 76 46 70 47 69 48 34 50
REMARK SMILES IDX 60 51 43 52 59 53 44 54 47 55 58 56 74 57 45 58 46 59 57 61
REMARK SMILES IDX 75 62 48 63 35 64 36 65 41 66 37 67 38 68 40 69 42 70 39 71
REMARK SMILES IDX 61 72 62 73 67 74 63 75 64 76 66 77 68 78 65 79 49 80 50 81
REMARK SMILES IDX 55 82 51 83 52 84 54 85 56 86 53 87
REMARK H PARENT 19 5 4 18 15 23 15 24 15 25 23 30 73 49 47 60
REMARK Flexibility Score: inf
ROOT
ATOM      1  C   UNL A   1      36.280  20.096  24.960  1.00  0.00     0.117 C 
ENDROOT
BRANCH   1   2
ATOM      2  N   UNL A   1      35.181  19.146  24.925  1.00  0.00    -0.356 N 
ATOM      3  C   UNL A   1      33.840  19.390  24.888  1.00  0.00     0.226 C 
ATOM      4  O   UNL A   1      33.075  18.437  25.051  1.00  0.00    -0.275 OA
ATOM      5  H   UNL A   1      35.441  18.197  24.930  1.00  0.00     0.163 HD
BRANCH   3   6
ATOM      6  C   UNL A   1      33.308  20.787  24.632  1.00  0.00     0.175 C 
BRANCH   6   7
ATOM      7  C   UNL A   1      32.951  21.553  25.916  1.00  0.00     0.280 C 
BRANCH   7   8
ATOM      8  C   UNL A   1      33.680  22.935  25.989  1.00  0.00     0.281 C 
ATOM      9  O   UNL A   1      34.593  23.093  26.800  1.00  0.00    -0.268 OA
BRANCH   8  10
ATOM     10  N   UNL A   1      33.194  23.986  25.189  1.00  0.00    -0.323 N 
ATOM     11  C   UNL A   1      35.037  23.720  23.419  1.00  0.00     0.037 C 
ATOM     12  C   UNL A   1      34.079  24.643  24.188  1.00  0.00     0.137 C 
ATOM     13  C   UNL A   1      33.300  25.460  23.108  1.00  0.00     0.287 C 
ATOM     14  N   UNL A   1      32.141  26.243  23.579  1.00  0.00    -0.329 N 
ATOM     15  C   UNL A   1      32.008  24.767  25.561  1.00  0.00     0.185 C 
ATOM     16  C   UNL A   1      31.421  26.801  22.420  1.00  0.00     0.262 C 
ATOM     17  C   UNL A   1      31.251  25.375  24.372  1.00  0.00     0.203 C 
ATOM     18  H   UNL A   1      32.460  27.012  24.168  1.00  0.00     0.348 HD
ATOM     19  C   UNL A   1      30.196  27.614  22.843  1.00  0.00     0.062 C 
ATOM     20  C   UNL A   1      30.061  26.194  24.901  1.00  0.00     0.067 C 
ATOM     21  C   UNL A   1      29.272  26.815  23.756  1.00  0.00     0.012 C 
ENDBRANCH   8  10
ENDBRANCH   7   8
BRANCH   7  22
ATOM     22  N   UNL A   1      33.384  20.752  27.087  1.00  0.00    -0.347 N 
ATOM     23  H   UNL A   1      32.750  20.921  27.868  1.00  0.00     0.345 HD
ATOM     24  H   UNL A   1      34.331  21.024  27.354  1.00  0.00     0.345 HD
ATOM     25  H   UNL A   1      33.371  19.761  26.846  1.00  0.00     0.345 HD
ENDBRANCH   7  22
ENDBRANCH   6   7
ENDBRANCH   3   6
ENDBRANCH   1   2
BRANCH   1  26
ATOM     26  C   UNL A   1      37.624  19.378  24.832  1.00  0.00     0.042 C 
BRANCH  26  27
ATOM     27  C   UNL A   1      38.775  20.112  25.499  1.00  0.00     0.118 C 
BRANCH  27  28
ATOM     28  N   UNL A   1      39.925  19.246  25.706  1.00  0.00    -0.352 N 
ATOM     29  C   UNL A   1      41.208  19.551  26.078  1.00  0.00     0.251 C 
ATOM     30  H   UNL A   1      39.754  18.289  25.555  1.00  0.00     0.163 HD
ATOM     31  O   UNL A   1      42.081  18.686  25.974  1.00  0.00    -0.269 OA
BRANCH  29  32
ATOM     32  C   UNL A   1      41.570  20.892  26.593  1.00  0.00     0.039 A 
ATOM     33  C   UNL A   1      41.399  21.154  27.957  1.00  0.00     0.014 A 
ATOM     34  C   UNL A   1      42.009  21.913  25.746  1.00  0.00     0.014 A 
ATOM     35  C   UNL A   1      41.694  22.420  28.470  1.00  0.00     0.010 A 
ATOM     36  C   UNL A   1      42.389  23.145  26.272  1.00  0.00     0.010 A 
ATOM     37  C   UNL A   1      42.210  23.422  27.635  1.00  0.00    -0.014 A 
BRANCH  37  38
ATOM     38  C   UNL A   1      42.518  24.779  28.156  1.00  0.00     0.031 A 
ATOM     39  C   UNL A   1      43.926  25.128  28.559  1.00  0.00     0.074 A 
ATOM     40  C   UNL A   1      41.530  25.679  28.315  1.00  0.00     0.049 A 
ATOM     41  N   UNL A   1      44.387  26.231  29.092  1.00  0.00    -0.248 NA
ATOM     42  C   UNL A   1      44.948  24.087  28.363  1.00  0.00     0.031 C 
ATOM     43  C   UNL A   1      40.118  25.454  28.000  1.00  0.00     0.029 A 
ATOM     44  N   UNL A   1      41.562  26.967  28.789  1.00  0.00    -0.354 N 
ATOM     45  C   UNL A   1      45.740  26.007  29.317  1.00  0.00     0.074 A 
ATOM     46  C   UNL A   1      46.014  24.645  28.912  1.00  0.00     0.031 C 
ATOM     47  C   UNL A   1      39.425  26.573  28.263  1.00  0.00     0.029 A 
ATOM     48  C   UNL A   1      40.335  27.582  28.798  1.00  0.00     0.049 A 
ATOM     49  H   UNL A   1      42.388  27.408  29.095  1.00  0.00     0.167 HD
ATOM     50  C   UNL A   1      46.675  26.862  29.794  1.00  0.00     0.037 A 
ATOM     51  C   UNL A   1      39.983  28.820  29.193  1.00  0.00     0.037 A 
ATOM     52  C   UNL A   1      46.407  28.228  30.161  1.00  0.00     0.049 A 
ATOM     53  C   UNL A   1      41.038  29.755  29.713  1.00  0.00     0.074 A 
ATOM     54  C   UNL A   1      47.297  29.195  30.593  1.00  0.00     0.029 A 
ATOM     55  N   UNL A   1      45.153  28.819  30.137  1.00  0.00    -0.354 N 
ATOM     56  N   UNL A   1      42.325  29.550  29.862  1.00  0.00    -0.248 NA
ATOM     57  C   UNL A   1      40.594  31.098  30.112  1.00  0.00     0.031 C 
ATOM     58  C   UNL A   1      46.574  30.361  30.871  1.00  0.00     0.029 A 
ATOM     59  C   UNL A   1      45.242  30.133  30.566  1.00  0.00     0.049 A 
ATOM     60  H   UNL A   1      44.323  28.370  29.857  1.00  0.00     0.167 HD
ATOM     61  C   UNL A   1      42.848  30.744  30.339  1.00  0.00     0.074 A 
ATOM     62  C   UNL A   1      41.741  31.672  30.447  1.00  0.00     0.031 C 
ATOM     63  C   UNL A   1      44.131  31.047  30.656  1.00  0.00     0.037 A 
BRANCH  50  64
ATOM     64  C   UNL A   1      48.075  26.340  29.945  1.00  0.00     0.057 A 
ATOM     65  C   UNL A   1      49.009  26.404  28.901  1.00  0.00     0.134 A 
ATOM     66  C   UNL A   1      48.501  25.779  31.157  1.00  0.00     0.134 A 
ATOM     67  F   UNL A   1      48.662  26.918  27.712  1.00  0.00    -0.206 F 
ATOM     68  C   UNL A   1      50.301  25.898  29.044  1.00  0.00     0.040 A 
ATOM     69  C   UNL A   1      49.801  25.296  31.321  1.00  0.00     0.040 A 
ATOM     70  F   UNL A   1      47.663  25.693  32.200  1.00  0.00    -0.206 F 
ATOM     71  C   UNL A   1      50.702  25.347  30.259  1.00  0.00     0.006 A 
ENDBRANCH  50  64
BRANCH  51  72
ATOM     72  C   UNL A   1      38.569  29.260  29.077  1.00  0.00     0.057 A 
ATOM     73  C   UNL A   1      37.714  29.229  30.184  1.00  0.00     0.134 A 
ATOM     74  C   UNL A   1      38.041  29.722  27.865  1.00  0.00     0.134 A 
ATOM     75  F   UNL A   1      38.158  28.780  31.366  1.00  0.00    -0.206 F 
ATOM     76  C   UNL A   1      36.379  29.625  30.088  1.00  0.00     0.040 A 
ATOM     77  C   UNL A   1      36.714  30.144  27.761  1.00  0.00     0.040 A 
ATOM     78  F   UNL A   1      38.812  29.785  26.769  1.00  0.00    -0.206 F 
ATOM     79  C   UNL A   1      35.877  30.090  28.874  1.00  0.00     0.006 A 
ENDBRANCH  51  72
BRANCH  63  80
ATOM     80  C   UNL A   1      44.414  32.449  31.108  1.00  0.00     0.057 A 
ATOM     81  C   UNL A   1      44.405  32.809  32.461  1.00  0.00     0.134 A 
ATOM     82  C   UNL A   1      44.735  33.444  30.176  1.00  0.00     0.134 A 
ATOM     83  F   UNL A   1      44.092  31.906  33.404  1.00  0.00    -0.206 F 
ATOM     84  C   UNL A   1      44.683  34.115  32.870  1.00  0.00     0.040 A 
ATOM     85  C   UNL A   1      45.041  34.747  30.573  1.00  0.00     0.040 A 
ATOM     86  F   UNL A   1      44.770  33.164  28.865  1.00  0.00    -0.206 F 
ATOM     87  C   UNL A   1      45.009  35.086  31.925  1.00  0.00     0.006 A 
ENDBRANCH  63  80
ENDBRANCH  37  38
ENDBRANCH  29  32
ENDBRANCH  27  28
ENDBRANCH  26  27
ENDBRANCH   1  26
TORSDOF 14
ENDMDL
MODEL 2
REMARK VINA RESULT:     -11.5      2.517      7.690
REMARK SMILES C[C@H]1C[N@H+]2CCCC[C@@H]2CN1C(=O)[C@H]([NH3+])CC(=O)NCCCNC(=O)c1ccc(-c2c3nc(c(-c4c(F)cccc4F)c4ccc([nH]4)c(-c4c(F)cccc4F)c4nc(c(-c5c(F)cccc5F)c5ccc2[nH]5)C=C4)C=C3)cc1
REMARK SMILES IDX 20 1 19 2 17 3 18 4 16 6 14 7 12 8 13 9 11 10 1 11 2 12 3 13
REMARK SMILES IDX 4 14 10 15 5 16 9 17 6 19 8 20 7 21 15 22 21 26 22 27 23 28
REMARK SMILES IDX 24 29 25 31 26 32 27 33 79 34 28 35 78 36 29 37 30 38 31 39
REMARK SMILES IDX 72 40 32 41 77 42 71 43 73 44 33 45 76 46 70 47 69 48 34 50
REMARK SMILES IDX 60 51 43 52 59 53 44 54 47 55 58 56 74 57 45 58 46 59 57 61
REMARK SMILES IDX 75 62 48 63 35 64 36 65 41 66 37 67 38 68 40 69 42 70 39 71
REMARK SMILES IDX 61 72 62 73 67 74 63 75 64 76 66 77 68 78 65 79 49 80 50 81
REMARK SMILES IDX 55 82 51 83 52 84 54 85 56 86 53 87
REMARK H PARENT 19 5 4 18 15 23 15 24 15 25 23 30 73 49 47 60
REMARK Flexibility Score: inf
ROOT
ATOM      1  C   UNL A   1      32.758  28.862  24.894  1.00  0.00     0.117 C 
ENDROOT
BRANCH   1   2
ATOM      2  N   UNL A   1      32.631  28.089  23.670  1.00  0.00    -0.356 N 
ATOM      3  C   UNL A   1      31.608  27.279  23.272  1.00  0.00     0.226 C 
ATOM      4  O   UNL A   1      31.786  26.571  22.279  1.00  0.00    -0.275 OA
ATOM      5  H   UNL A   1      33.387  28.159  23.043  1.00  0.00     0.163 HD
BRANCH   3   6
ATOM      6  C   UNL A   1      30.286  27.270  24.015  1.00  0.00     0.175 C 
BRANCH   6   7
ATOM      7  C   UNL A   1      29.999  25.945  24.739  1.00  0.00     0.280 C 
BRANCH   7   8
ATOM      8  C   UNL A   1      30.968  25.722  25.947  1.00  0.00     0.281 C 
ATOM      9  O   UNL A   1      30.967  26.529  26.878  1.00  0.00    -0.268 OA
BRANCH   8  10
ATOM     10  N   UNL A   1      31.882  24.655  25.876  1.00  0.00    -0.323 N 
ATOM     11  C   UNL A   1      30.236  22.953  26.872  1.00  0.00     0.037 C 
ATOM     12  C   UNL A   1      31.685  23.437  26.710  1.00  0.00     0.137 C 
ATOM     13  C   UNL A   1      32.504  22.203  26.213  1.00  0.00     0.287 C 
ATOM     14  N   UNL A   1      33.878  22.466  25.744  1.00  0.00    -0.329 N 
ATOM     15  C   UNL A   1      33.246  24.828  25.361  1.00  0.00     0.185 C 
ATOM     16  C   UNL A   1      34.439  21.239  25.149  1.00  0.00     0.262 C 
ATOM     17  C   UNL A   1      33.860  23.558  24.754  1.00  0.00     0.203 C 
ATOM     18  H   UNL A   1      34.464  22.746  26.531  1.00  0.00     0.348 HD
ATOM     19  C   UNL A   1      35.861  21.452  24.628  1.00  0.00     0.062 C 
ATOM     20  C   UNL A   1      35.294  23.866  24.290  1.00  0.00     0.067 C 
ATOM     21  C   UNL A   1      35.944  22.636  23.672  1.00  0.00     0.012 C 
ENDBRANCH   8  10
ENDBRANCH   7   8
BRANCH   7  22
ATOM     22  N   UNL A   1      30.199  24.826  23.787  1.00  0.00    -0.347 N 
ATOM     23  H   UNL A   1      31.175  24.530  23.811  1.00  0.00     0.345 HD
ATOM     24  H   UNL A   1      29.961  25.135  22.844  1.00  0.00     0.345 HD
ATOM     25  H   UNL A   1      29.600  24.044  24.049  1.00  0.00     0.345 HD
ENDBRANCH   7  22
ENDBRANCH   6   7
ENDBRANCH   3   6
ENDBRANCH   1   2
BRANCH   1  26
ATOM     26  C   UNL A   1      33.956  28.384  25.716  1.00  0.00     0.042 C 
BRANCH  26  27
ATOM     27  C   UNL A   1      33.758  28.517  27.217  1.00  0.00     0.118 C 
BRANCH  27  28
ATOM     28  N   UNL A   1      33.740  29.908  27.641  1.00  0.00    -0.352 N 
ATOM     29  C   UNL A   1      34.700  30.655  28.271  1.00  0.00     0.251 C 
ATOM     30  H   UNL A   1      32.904  30.390  27.442  1.00  0.00     0.163 HD
ATOM     31  O   UNL A   1      34.391  31.753  28.740  1.00  0.00    -0.269 OA
BRANCH  29  32
ATOM     32  C   UNL A   1      36.094  30.173  28.408  1.00  0.00     0.039 A 
ATOM     33  C   UNL A   1      36.521  29.702  29.655  1.00  0.00     0.014 A 
ATOM     34  C   UNL A   1      37.005  30.241  27.350  1.00  0.00     0.014 A 
ATOM     35  C   UNL A   1      37.840  29.275  29.830  1.00  0.00     0.010 A 
ATOM     36  C   UNL A   1      38.292  29.731  27.499  1.00  0.00     0.010 A 
ATOM     37  C   UNL A   1      38.733  29.268  28.748  1.00  0.00    -0.014 A 
BRANCH  37  38
ATOM     38  C   UNL A   1      40.144  28.832  28.914  1.00  0.00     0.031 A 
ATOM     39  C   UNL A   1      41.160  29.781  29.494  1.00  0.00     0.074 A 
ATOM     40  C   UNL A   1      40.524  27.609  28.502  1.00  0.00     0.049 A 
ATOM     41  N   UNL A   1      42.448  29.615  29.663  1.00  0.00    -0.248 NA
ATOM     42  C   UNL A   1      40.668  31.103  29.912  1.00  0.00     0.031 C 
ATOM     43  C   UNL A   1      39.647  26.610  27.889  1.00  0.00     0.029 A 
ATOM     44  N   UNL A   1      41.753  26.998  28.531  1.00  0.00    -0.354 N 
ATOM     45  C   UNL A   1      42.919  30.815  30.180  1.00  0.00     0.074 A 
ATOM     46  C   UNL A   1      41.791  31.718  30.248  1.00  0.00     0.031 C 
ATOM     47  C   UNL A   1      40.359  25.502  27.626  1.00  0.00     0.029 A 
ATOM     48  C   UNL A   1      41.748  25.725  28.018  1.00  0.00     0.049 A 
ATOM     49  H   UNL A   1      42.562  27.433  28.886  1.00  0.00     0.167 HD
ATOM     50  C   UNL A   1      44.172  31.131  30.585  1.00  0.00     0.037 A 
ATOM     51  C   UNL A   1      42.750  24.837  27.877  1.00  0.00     0.037 A 
ATOM     52  C   UNL A   1      45.286  30.220  30.552  1.00  0.00     0.049 A 
ATOM     53  C   UNL A   1      44.131  25.207  28.339  1.00  0.00     0.074 A 
ATOM     54  C   UNL A   1      46.579  30.422  30.999  1.00  0.00     0.029 A 
ATOM     55  N   UNL A   1      45.234  28.932  30.042  1.00  0.00    -0.354 N 
ATOM     56  N   UNL A   1      44.550  26.323  28.885  1.00  0.00    -0.248 NA
ATOM     57  C   UNL A   1      45.178  24.189  28.176  1.00  0.00     0.031 C 
ATOM     58  C   UNL A   1      47.322  29.268  30.721  1.00  0.00     0.029 A 
ATOM     59  C   UNL A   1      46.479  28.333  30.145  1.00  0.00     0.049 A 
ATOM     60  H   UNL A   1      44.432  28.507  29.662  1.00  0.00     0.167 HD
ATOM     61  C   UNL A   1      45.897  26.132  29.159  1.00  0.00     0.074 A 
ATOM     62  C   UNL A   1      46.224  24.788  28.728  1.00  0.00     0.031 C 
ATOM     63  C   UNL A   1      46.784  26.990  29.721  1.00  0.00     0.037 A 
BRANCH  50  64
ATOM     64  C   UNL A   1      44.401  32.524  31.100  1.00  0.00     0.057 A 
ATOM     65  C   UNL A   1      44.788  33.574  30.255  1.00  0.00     0.134 A 
ATOM     66  C   UNL A   1      44.218  32.824  32.457  1.00  0.00     0.134 A 
ATOM     67  F   UNL A   1      44.992  33.354  28.948  1.00  0.00    -0.206 F 
ATOM     68  C   UNL A   1      45.017  34.860  30.746  1.00  0.00     0.040 A 
ATOM     69  C   UNL A   1      44.416  34.113  32.954  1.00  0.00     0.040 A 
ATOM     70  F   UNL A   1      43.841  31.869  33.320  1.00  0.00    -0.206 F 
ATOM     71  C   UNL A   1      44.827  35.134  32.098  1.00  0.00     0.006 A 
ENDBRANCH  50  64
BRANCH  51  72
ATOM     72  C   UNL A   1      42.475  23.494  27.305  1.00  0.00     0.057 A 
ATOM     73  C   UNL A   1      42.612  23.258  25.932  1.00  0.00     0.134 A 
ATOM     74  C   UNL A   1      42.074  22.421  28.109  1.00  0.00     0.134 A 
ATOM     75  F   UNL A   1      42.976  24.251  25.109  1.00  0.00    -0.206 F 
ATOM     76  C   UNL A   1      42.343  22.006  25.376  1.00  0.00     0.040 A 
ATOM     77  C   UNL A   1      41.825  21.158  27.569  1.00  0.00     0.040 A 
ATOM     78  F   UNL A   1      41.934  22.581  29.433  1.00  0.00    -0.206 F 
ATOM     79  C   UNL A   1      41.954  20.950  26.197  1.00  0.00     0.006 A 
ENDBRANCH  51  72
BRANCH  63  80
ATOM     80  C   UNL A   1      48.181  26.487  29.940  1.00  0.00     0.057 A 
ATOM     81  C   UNL A   1      49.190  26.657  28.985  1.00  0.00     0.134 A 
ATOM     82  C   UNL A   1      48.526  25.856  31.142  1.00  0.00     0.134 A 
ATOM     83  F   UNL A   1      48.920  27.242  27.807  1.00  0.00    -0.206 F 
ATOM     84  C   UNL A   1      50.489  26.197  29.207  1.00  0.00     0.040 A 
ATOM     85  C   UNL A   1      49.828  25.415  31.387  1.00  0.00     0.040 A 
ATOM     86  F   UNL A   1      47.610  25.670  32.103  1.00  0.00    -0.206 F 
ATOM     87  C   UNL A   1      50.812  25.580  30.414  1.00  0.00     0.006 A 
ENDBRANCH  63  80
ENDBRANCH  37  38
ENDBRANCH  29  32
ENDBRANCH  27  28
ENDBRANCH  26  27
ENDBRANCH   1  26
TORSDOF 14
ENDMDL
MODEL 3
REMARK VINA RESULT:     -11.4      0.343      6.316
REMARK SMILES C[C@H]1C[N@H+]2CCCC[C@@H]2CN1C(=O)[C@H]([NH3+])CC(=O)NCCCNC(=O)c1ccc(-c2c3nc(c(-c4c(F)cccc4F)c4ccc([nH]4)c(-c4c(F)cccc4F)c4nc(c(-c5c(F)cccc5F)c5ccc2[nH]5)C=C4)C=C3)cc1
REMARK SMILES IDX 20 1 19 2 17 3 18 4 16 6 14 7 12 8 13 9 11 10 1 11 2 12 3 13
REMARK SMILES IDX 4 14 10 15 5 16 9 17 6 19 8 20 7 21 15 22 21 26 22 27 23 28
REMARK SMILES IDX 24 29 25 31 26 32 27 33 79 34 28 35 78 36 29 37 30 38 31 39
REMARK SMILES IDX 72 40 32 41 77 42 71 43 73 44 33 45 76 46 70 47 69 48 34 50
REMARK SMILES IDX 60 51 43 52 59 53 44 54 47 55 58 56 74 57 45 58 46 59 57 61
REMARK SMILES IDX 75 62 48 63 35 64 36 65 41 66 37 67 38 68 40 69 42 70 39 71
REMARK SMILES IDX 61 72 62 73 67 74 63 75 64 76 66 77 68 78 65 79 49 80 50 81
REMARK SMILES IDX 55 82 51 83 52 84 54 85 56 86 53 87
REMARK H PARENT 19 5 4 18 15 23 15 24 15 25 23 30 73 49 47 60
REMARK Flexibility Score: inf
ROOT
ATOM      1  C   UNL A   1      36.182  20.348  24.963  1.00  0.00     0.117 C 
ENDROOT
BRANCH   1   2
ATOM      2  N   UNL A   1      35.148  19.327  24.951  1.00  0.00    -0.356 N 
ATOM      3  C   UNL A   1      33.793  19.481  24.944  1.00  0.00     0.226 C 
ATOM      4  O   UNL A   1      33.097  18.479  25.122  1.00  0.00    -0.275 OA
ATOM      5  H   UNL A   1      35.470  18.397  24.948  1.00  0.00     0.163 HD
BRANCH   3   6
ATOM      6  C   UNL A   1      33.164  20.840  24.702  1.00  0.00     0.175 C 
BRANCH   6   7
ATOM      7  C   UNL A   1      32.878  21.622  25.993  1.00  0.00     0.280 C 
BRANCH   7   8
ATOM      8  C   UNL A   1      33.658  22.977  26.035  1.00  0.00     0.281 C 
ATOM      9  O   UNL A   1      34.581  23.118  26.839  1.00  0.00    -0.268 OA
BRANCH   8  10
ATOM     10  N   UNL A   1      33.207  24.029  25.216  1.00  0.00    -0.323 N 
ATOM     11  C   UNL A   1      35.070  23.703  23.478  1.00  0.00     0.037 C 
ATOM     12  C   UNL A   1      34.121  24.656  24.222  1.00  0.00     0.137 C 
ATOM     13  C   UNL A   1      33.376  25.477  23.122  1.00  0.00     0.287 C 
ATOM     14  N   UNL A   1      32.228  26.290  23.567  1.00  0.00    -0.329 N 
ATOM     15  C   UNL A   1      32.033  24.840  25.562  1.00  0.00     0.185 C 
ATOM     16  C   UNL A   1      31.537  26.851  22.391  1.00  0.00     0.262 C 
ATOM     17  C   UNL A   1      31.307  25.452  24.356  1.00  0.00     0.203 C 
ATOM     18  H   UNL A   1      32.555  27.059  24.152  1.00  0.00     0.348 HD
ATOM     19  C   UNL A   1      30.324  27.695  22.787  1.00  0.00     0.062 C 
ATOM     20  C   UNL A   1      30.128  26.302  24.858  1.00  0.00     0.067 C 
ATOM     21  C   UNL A   1      29.370  26.926  23.694  1.00  0.00     0.012 C 
ENDBRANCH   8  10
ENDBRANCH   7   8
BRANCH   7  22
ATOM     22  N   UNL A   1      33.321  20.810  27.153  1.00  0.00    -0.347 N 
ATOM     23  H   UNL A   1      33.046  19.838  27.013  1.00  0.00     0.345 HD
ATOM     24  H   UNL A   1      32.886  21.167  28.004  1.00  0.00     0.345 HD
ATOM     25  H   UNL A   1      34.335  20.867  27.241  1.00  0.00     0.345 HD
ENDBRANCH   7  22
ENDBRANCH   6   7
ENDBRANCH   3   6
ENDBRANCH   1   2
BRANCH   1  26
ATOM     26  C   UNL A   1      37.554  19.734  24.683  1.00  0.00     0.042 C 
BRANCH  26  27
ATOM     27  C   UNL A   1      38.673  20.333  25.520  1.00  0.00     0.118 C 
BRANCH  27  28
ATOM     28  N   UNL A   1      39.766  19.393  25.716  1.00  0.00    -0.352 N 
ATOM     29  C   UNL A   1      41.067  19.613  26.087  1.00  0.00     0.251 C 
ATOM     30  H   UNL A   1      39.534  18.450  25.557  1.00  0.00     0.163 HD
ATOM     31  O   UNL A   1      41.883  18.696  25.973  1.00  0.00    -0.269 OA
BRANCH  29  32
ATOM     32  C   UNL A   1      41.514  20.924  26.612  1.00  0.00     0.039 A 
ATOM     33  C   UNL A   1      41.402  21.169  27.986  1.00  0.00     0.014 A 
ATOM     34  C   UNL A   1      41.976  21.938  25.769  1.00  0.00     0.014 A 
ATOM     35  C   UNL A   1      41.779  22.408  28.511  1.00  0.00     0.010 A 
ATOM     36  C   UNL A   1      42.436  23.139  26.302  1.00  0.00     0.010 A 
ATOM     37  C   UNL A   1      42.318  23.398  27.676  1.00  0.00    -0.014 A 
BRANCH  37  38
ATOM     38  C   UNL A   1      42.711  24.728  28.210  1.00  0.00     0.031 A 
ATOM     39  C   UNL A   1      41.667  25.792  28.420  1.00  0.00     0.074 A 
ATOM     40  C   UNL A   1      44.006  24.997  28.457  1.00  0.00     0.049 A 
ATOM     41  N   UNL A   1      41.814  27.032  28.816  1.00  0.00    -0.248 NA
ATOM     42  C   UNL A   1      40.275  25.423  28.117  1.00  0.00     0.031 C 
ATOM     43  C   UNL A   1      45.119  24.067  28.259  1.00  0.00     0.029 A 
ATOM     44  N   UNL A   1      44.607  26.139  28.927  1.00  0.00    -0.354 N 
ATOM     45  C   UNL A   1      40.543  27.592  28.785  1.00  0.00     0.074 A 
ATOM     46  C   UNL A   1      39.645  26.576  28.281  1.00  0.00     0.031 C 
ATOM     47  C   UNL A   1      46.263  24.666  28.630  1.00  0.00     0.029 A 
ATOM     48  C   UNL A   1      45.970  26.031  29.057  1.00  0.00     0.049 A 
ATOM     49  H   UNL A   1      44.108  26.958  29.148  1.00  0.00     0.167 HD
ATOM     50  C   UNL A   1      40.152  28.833  29.163  1.00  0.00     0.037 A 
ATOM     51  C   UNL A   1      46.880  26.931  29.474  1.00  0.00     0.037 A 
ATOM     52  C   UNL A   1      41.040  29.830  29.699  1.00  0.00     0.049 A 
ATOM     53  C   UNL A   1      46.423  28.299  29.895  1.00  0.00     0.074 A 
ATOM     54  C   UNL A   1      40.733  31.093  30.173  1.00  0.00     0.029 A 
ATOM     55  N   UNL A   1      42.412  29.674  29.834  1.00  0.00    -0.354 N 
ATOM     56  N   UNL A   1      45.210  28.795  29.920  1.00  0.00    -0.248 NA
ATOM     57  C   UNL A   1      47.462  29.230  30.357  1.00  0.00     0.031 C 
ATOM     58  C   UNL A   1      41.926  31.718  30.555  1.00  0.00     0.029 A 
ATOM     59  C   UNL A   1      42.968  30.826  30.364  1.00  0.00     0.049 A 
ATOM     60  H   UNL A   1      42.914  28.864  29.587  1.00  0.00     0.167 HD
ATOM     61  C   UNL A   1      45.334  30.081  30.428  1.00  0.00     0.074 A 
ATOM     62  C   UNL A   1      46.740  30.286  30.708  1.00  0.00     0.031 C 
ATOM     63  C   UNL A   1      44.370  31.009  30.647  1.00  0.00     0.037 A 
BRANCH  50  64
ATOM     64  C   UNL A   1      38.698  29.176  29.008  1.00  0.00     0.057 A 
ATOM     65  C   UNL A   1      37.801  29.112  30.084  1.00  0.00     0.134 A 
ATOM     66  C   UNL A   1      38.190  29.590  27.769  1.00  0.00     0.134 A 
ATOM     67  F   UNL A   1      38.219  28.712  31.294  1.00  0.00    -0.206 F 
ATOM     68  C   UNL A   1      36.447  29.413  29.925  1.00  0.00     0.040 A 
ATOM     69  C   UNL A   1      36.844  29.921  27.606  1.00  0.00     0.040 A 
ATOM     70  F   UNL A   1      38.994  29.680  26.699  1.00  0.00    -0.206 F 
ATOM     71  C   UNL A   1      35.966  29.824  28.684  1.00  0.00     0.006 A 
ENDBRANCH  50  64
BRANCH  51  72
ATOM     72  C   UNL A   1      48.315  26.553  29.549  1.00  0.00     0.057 A 
ATOM     73  C   UNL A   1      49.181  26.809  28.480  1.00  0.00     0.134 A 
ATOM     74  C   UNL A   1      48.852  25.932  30.683  1.00  0.00     0.134 A 
ATOM     75  F   UNL A   1      48.720  27.385  27.361  1.00  0.00    -0.206 F 
ATOM     76  C   UNL A   1      50.529  26.447  28.528  1.00  0.00     0.040 A 
ATOM     77  C   UNL A   1      50.203  25.586  30.753  1.00  0.00     0.040 A 
ATOM     78  F   UNL A   1      48.076  25.669  31.744  1.00  0.00    -0.206 F 
ATOM     79  C   UNL A   1      51.044  25.839  29.671  1.00  0.00     0.006 A 
ENDBRANCH  51  72
BRANCH  63  80
ATOM     80  C   UNL A   1      44.796  32.312  31.256  1.00  0.00     0.057 A 
ATOM     81  C   UNL A   1      44.860  32.498  32.642  1.00  0.00     0.134 A 
ATOM     82  C   UNL A   1      45.183  33.383  30.441  1.00  0.00     0.134 A 
ATOM     83  F   UNL A   1      44.490  31.515  33.479  1.00  0.00    -0.206 F 
ATOM     84  C   UNL A   1      45.272  33.712  33.196  1.00  0.00     0.040 A 
ATOM     85  C   UNL A   1      45.622  34.592  30.983  1.00  0.00     0.040 A 
ATOM     86  F   UNL A   1      45.154  33.268  29.105  1.00  0.00    -0.206 F 
ATOM     87  C   UNL A   1      45.661  34.760  32.365  1.00  0.00     0.006 A 
ENDBRANCH  63  80
ENDBRANCH  37  38
ENDBRANCH  29  32
ENDBRANCH  27  28
ENDBRANCH  26  27
ENDBRANCH   1  26
TORSDOF 14
ENDMDL
