MODEL 1
REMARK VINA RESULT:     -11.3      0.000      0.000
REMARK SMILES CCC1(C(=O)NCCCNC(=O)c2ccc(-c3c4nc(c(-c5c(F)cccc5F)c5ccc([nH]5)c(-c5c(F)cccc5F)c5nc(c(-c6c(F)cccc6F)c6ccc3[nH]6)C=C5)C=C4)cc2)CCN(C(=O)C[C@H]2CSCC[NH2+]2)CC1
REMARK SMILES IDX 8 1 7 2 6 3 4 4 5 5 3 7 67 8 80 9 68 10 79 11 69 12 70 13
REMARK SMILES IDX 71 14 2 15 1 16 72 17 73 18 74 19 78 20 75 21 77 22 76 25
REMARK SMILES IDX 9 26 10 27 11 28 12 30 13 31 14 32 66 33 15 34 65 35 16 36
REMARK SMILES IDX 17 37 18 38 59 39 19 40 64 41 58 42 60 43 20 44 63 45 57 46
REMARK SMILES IDX 56 47 21 49 47 50 30 51 46 52 31 53 34 54 45 55 61 56 32 57
REMARK SMILES IDX 33 58 44 60 62 61 35 62 22 63 23 64 28 65 24 66 25 67 27 68
REMARK SMILES IDX 29 69 26 70 48 71 49 72 54 73 50 74 51 75 53 76 55 77 52 78
REMARK SMILES IDX 36 79 37 80 42 81 38 82 39 83 41 84 43 85 40 86
REMARK H PARENT 6 6 78 23 78 24 10 29 60 48 34 59
REMARK Flexibility Score: inf
ROOT
ATOM      1  C   UNL A   1      37.937  19.480  24.960  1.00  0.00     0.042 C 
ENDROOT
BRANCH   1   2
ATOM      2  C   UNL A   1      36.785  20.437  24.674  1.00  0.00     0.117 C 
BRANCH   2   3
ATOM      3  N   UNL A   1      35.922  20.671  25.828  1.00  0.00    -0.356 N 
ATOM      4  C   UNL A   1      35.060  21.681  26.154  1.00  0.00     0.226 C 
ATOM      5  O   UNL A   1      34.387  21.503  27.174  1.00  0.00    -0.274 OA
ATOM      6  H   UNL A   1      35.968  19.959  26.507  1.00  0.00     0.163 HD
BRANCH   4   7
ATOM      7  C   UNL A   1      34.901  22.963  25.294  1.00  0.00     0.052 C 
ATOM      8  C   UNL A   1      34.173  22.582  23.965  1.00  0.00     0.038 C 
ATOM      9  C   UNL A   1      34.129  24.010  26.131  1.00  0.00     0.038 C 
ATOM     10  C   UNL A   1      33.398  23.722  23.299  1.00  0.00     0.120 C 
ATOM     11  C   UNL A   1      33.547  25.126  25.277  1.00  0.00     0.120 C 
ATOM     12  N   UNL A   1      32.679  24.533  24.275  1.00  0.00    -0.342 N 
ATOM     13  C   UNL A   1      31.289  24.527  24.313  1.00  0.00     0.228 C 
ATOM     14  O   UNL A   1      30.621  23.773  23.599  1.00  0.00    -0.275 OA
BRANCH   7  15
ATOM     15  C   UNL A   1      36.316  23.522  24.894  1.00  0.00     0.013 C 
ATOM     16  C   UNL A   1      37.256  23.909  26.035  1.00  0.00     0.005 C 
ENDBRANCH   7  15
BRANCH  13  17
ATOM     17  C   UNL A   1      30.569  25.531  25.217  1.00  0.00     0.166 C 
BRANCH  17  18
ATOM     18  C   UNL A   1      30.312  26.932  24.614  1.00  0.00     0.201 C 
ATOM     19  C   UNL A   1      31.335  27.947  25.168  1.00  0.00     0.135 C 
ATOM     20  N   UNL A   1      30.220  26.855  23.147  1.00  0.00    -0.342 N 
ATOM     21  S   UNL A   1      31.060  29.630  24.530  1.00  0.00    -0.150 SA
ATOM     22  C   UNL A   1      30.064  28.134  22.449  1.00  0.00     0.271 C 
ATOM     23  H   UNL A   1      29.416  26.272  22.914  1.00  0.00     0.346 HD
ATOM     24  H   UNL A   1      31.113  26.476  22.833  1.00  0.00     0.346 HD
ATOM     25  C   UNL A   1      31.112  29.198  22.771  1.00  0.00     0.131 C 
ENDBRANCH  17  18
ENDBRANCH  13  17
ENDBRANCH   4   7
ENDBRANCH   2   3
ENDBRANCH   1   2
BRANCH   1  26
ATOM     26  C   UNL A   1      39.119  20.106  25.687  1.00  0.00     0.118 C 
BRANCH  26  27
ATOM     27  N   UNL A   1      40.280  19.227  25.749  1.00  0.00    -0.352 N 
ATOM     28  C   UNL A   1      41.591  19.501  26.049  1.00  0.00     0.251 C 
ATOM     29  H   UNL A   1      40.093  18.283  25.541  1.00  0.00     0.163 HD
ATOM     30  O   UNL A   1      42.443  18.630  25.871  1.00  0.00    -0.269 OA
BRANCH  28  31
ATOM     31  C   UNL A   1      41.997  20.828  26.567  1.00  0.00     0.039 A 
ATOM     32  C   UNL A   1      42.449  21.796  25.664  1.00  0.00     0.014 A 
ATOM     33  C   UNL A   1      41.965  21.118  27.932  1.00  0.00     0.014 A 
ATOM     34  C   UNL A   1      42.793  23.072  26.123  1.00  0.00     0.010 A 
ATOM     35  C   UNL A   1      42.219  22.414  28.376  1.00  0.00     0.010 A 
ATOM     36  C   UNL A   1      42.640  23.406  27.478  1.00  0.00    -0.014 A 
BRANCH  36  37
ATOM     37  C   UNL A   1      42.908  24.782  27.973  1.00  0.00     0.031 A 
ATOM     38  C   UNL A   1      44.297  25.186  28.390  1.00  0.00     0.074 A 
ATOM     39  C   UNL A   1      41.885  25.649  28.119  1.00  0.00     0.049 A 
ATOM     40  N   UNL A   1      44.707  26.310  28.922  1.00  0.00    -0.248 NA
ATOM     41  C   UNL A   1      45.361  24.185  28.214  1.00  0.00     0.031 C 
ATOM     42  C   UNL A   1      40.483  25.366  27.805  1.00  0.00     0.029 A 
ATOM     43  N   UNL A   1      41.863  26.940  28.586  1.00  0.00    -0.354 N 
ATOM     44  C   UNL A   1      46.066  26.143  29.161  1.00  0.00     0.074 A 
ATOM     45  C   UNL A   1      46.402  24.794  28.763  1.00  0.00     0.031 C 
ATOM     46  C   UNL A   1      39.743  26.453  28.071  1.00  0.00     0.029 A 
ATOM     47  C   UNL A   1      40.606  27.496  28.615  1.00  0.00     0.049 A 
ATOM     48  H   UNL A   1      42.673  27.423  28.872  1.00  0.00     0.167 HD
ATOM     49  C   UNL A   1      46.957  27.039  29.649  1.00  0.00     0.037 A 
ATOM     50  C   UNL A   1      40.192  28.703  29.048  1.00  0.00     0.037 A 
ATOM     51  C   UNL A   1      46.626  28.391  30.016  1.00  0.00     0.049 A 
ATOM     52  C   UNL A   1      41.203  29.679  29.583  1.00  0.00     0.074 A 
ATOM     53  C   UNL A   1      47.474  29.398  30.445  1.00  0.00     0.029 A 
ATOM     54  N   UNL A   1      45.347  28.924  30.004  1.00  0.00    -0.354 N 
ATOM     55  N   UNL A   1      42.498  29.535  29.724  1.00  0.00    -0.248 NA
ATOM     56  C   UNL A   1      40.695  30.990  30.014  1.00  0.00     0.031 C 
ATOM     57  C   UNL A   1      46.700  30.522  30.748  1.00  0.00     0.029 A 
ATOM     58  C   UNL A   1      45.378  30.236  30.448  1.00  0.00     0.049 A 
ATOM     59  H   UNL A   1      44.536  28.443  29.721  1.00  0.00     0.167 HD
ATOM     60  C   UNL A   1      42.963  30.742  30.230  1.00  0.00     0.074 A 
ATOM     61  C   UNL A   1      41.814  31.614  30.355  1.00  0.00     0.031 C 
ATOM     62  C   UNL A   1      44.229  31.097  30.560  1.00  0.00     0.037 A 
BRANCH  49  63
ATOM     63  C   UNL A   1      48.379  26.590  29.822  1.00  0.00     0.057 A 
ATOM     64  C   UNL A   1      48.813  25.923  30.974  1.00  0.00     0.134 A 
ATOM     65  C   UNL A   1      49.316  26.775  28.795  1.00  0.00     0.134 A 
ATOM     66  F   UNL A   1      47.972  25.719  32.000  1.00  0.00    -0.206 F 
ATOM     67  C   UNL A   1      50.130  25.476  31.110  1.00  0.00     0.040 A 
ATOM     68  C   UNL A   1      50.626  26.307  28.906  1.00  0.00     0.040 A 
ATOM     69  F   UNL A   1      48.967  27.399  27.660  1.00  0.00    -0.206 F 
ATOM     70  C   UNL A   1      51.038  25.660  30.069  1.00  0.00     0.006 A 
ENDBRANCH  49  63
BRANCH  50  71
ATOM     71  C   UNL A   1      38.750  29.061  28.991  1.00  0.00     0.057 A 
ATOM     72  C   UNL A   1      38.164  29.533  27.811  1.00  0.00     0.134 A 
ATOM     73  C   UNL A   1      37.929  28.963  30.123  1.00  0.00     0.134 A 
ATOM     74  F   UNL A   1      38.902  29.668  26.699  1.00  0.00    -0.206 F 
ATOM     75  C   UNL A   1      36.823  29.920  27.762  1.00  0.00     0.040 A 
ATOM     76  C   UNL A   1      36.579  29.318  30.080  1.00  0.00     0.040 A 
ATOM     77  F   UNL A   1      38.427  28.513  31.283  1.00  0.00    -0.206 F 
ATOM     78  C   UNL A   1      36.026  29.808  28.899  1.00  0.00     0.006 A 
ENDBRANCH  50  71
BRANCH  62  79
ATOM     79  C   UNL A   1      44.447  32.499  31.052  1.00  0.00     0.057 A 
ATOM     80  C   UNL A   1      44.694  33.565  30.177  1.00  0.00     0.134 A 
ATOM     81  C   UNL A   1      44.367  32.792  32.420  1.00  0.00     0.134 A 
ATOM     82  F   UNL A   1      44.795  33.351  28.856  1.00  0.00    -0.206 F 
ATOM     83  C   UNL A   1      44.878  34.866  30.647  1.00  0.00     0.040 A 
ATOM     84  C   UNL A   1      44.518  34.094  32.899  1.00  0.00     0.040 A 
ATOM     85  F   UNL A   1      44.122  31.821  33.312  1.00  0.00    -0.206 F 
ATOM     86  C   UNL A   1      44.782  35.134  32.012  1.00  0.00     0.006 A 
ENDBRANCH  62  79
ENDBRANCH  36  37
ENDBRANCH  28  31
ENDBRANCH  26  27
ENDBRANCH   1  26
TORSDOF 13
ENDMDL
MODEL 2
REMARK VINA RESULT:     -11.3      4.667      9.369
REMARK SMILES CCC1(C(=O)NCCCNC(=O)c2ccc(-c3c4nc(c(-c5c(F)cccc5F)c5ccc([nH]5)c(-c5c(F)cccc5F)c5nc(c(-c6c(F)cccc6F)c6ccc3[nH]6)C=C5)C=C4)cc2)CCN(C(=O)C[C@H]2CSCC[NH2+]2)CC1
REMARK SMILES IDX 8 1 7 2 6 3 4 4 5 5 3 7 67 8 80 9 68 10 79 11 69 12 70 13
REMARK SMILES IDX 71 14 2 15 1 16 72 17 73 18 74 19 78 20 75 21 77 22 76 25
REMARK SMILES IDX 9 26 10 27 11 28 12 30 13 31 14 32 66 33 15 34 65 35 16 36
REMARK SMILES IDX 17 37 18 38 59 39 19 40 64 41 58 42 60 43 20 44 63 45 57 46
REMARK SMILES IDX 56 47 21 49 47 50 30 51 46 52 31 53 34 54 45 55 61 56 32 57
REMARK SMILES IDX 33 58 44 60 62 61 35 62 22 63 23 64 28 65 24 66 25 67 27 68
REMARK SMILES IDX 29 69 26 70 48 71 49 72 54 73 50 74 51 75 53 76 55 77 52 78
REMARK SMILES IDX 36 79 37 80 42 81 38 82 39 83 41 84 43 85 40 86
REMARK H PARENT 6 6 78 23 78 24 10 29 60 48 34 59
REMARK Flexibility Score: inf
ROOT
ATOM      1  C   UNL A   1      31.399  32.119  26.469  1.00  0.00     0.042 C 
ENDROOT
BRANCH   1   2
ATOM      2  C   UNL A   1      31.408  30.606  26.278  1.00  0.00     0.117 C 
BRANCH   2   3
ATOM      3  N   UNL A   1      32.026  30.179  25.026  1.00  0.00    -0.356 N 
ATOM      4  C   UNL A   1      32.595  29.003  24.625  1.00  0.00     0.226 C 
ATOM      5  O   UNL A   1      32.923  28.945  23.436  1.00  0.00    -0.274 OA
ATOM      6  H   UNL A   1      32.035  30.878  24.332  1.00  0.00     0.163 HD
BRANCH   4   7
ATOM      7  C   UNL A   1      32.796  27.795  25.578  1.00  0.00     0.052 C 
ATOM      8  C   UNL A   1      31.402  27.151  25.864  1.00  0.00     0.038 C 
ATOM      9  C   UNL A   1      33.793  26.818  24.912  1.00  0.00     0.038 C 
ATOM     10  C   UNL A   1      31.437  25.667  26.240  1.00  0.00     0.120 C 
ATOM     11  C   UNL A   1      33.749  25.428  25.530  1.00  0.00     0.120 C 
ATOM     12  N   UNL A   1      32.391  24.922  25.426  1.00  0.00    -0.342 N 
ATOM     13  C   UNL A   1      31.950  23.975  24.509  1.00  0.00     0.228 C 
ATOM     14  O   UNL A   1      30.750  23.798  24.280  1.00  0.00    -0.275 OA
BRANCH   7  15
ATOM     15  C   UNL A   1      33.360  28.289  26.961  1.00  0.00     0.013 C 
ATOM     16  C   UNL A   1      34.747  28.931  26.954  1.00  0.00     0.005 C 
ENDBRANCH   7  15
BRANCH  13  17
ATOM     17  C   UNL A   1      32.982  23.081  23.815  1.00  0.00     0.166 C 
BRANCH  17  18
ATOM     18  C   UNL A   1      33.414  21.811  24.584  1.00  0.00     0.201 C 
ATOM     19  C   UNL A   1      32.471  20.636  24.248  1.00  0.00     0.135 C 
ATOM     20  N   UNL A   1      34.850  21.552  24.388  1.00  0.00    -0.342 N 
ATOM     21  S   UNL A   1      32.900  19.118  25.157  1.00  0.00    -0.150 SA
ATOM     22  C   UNL A   1      35.367  20.324  24.998  1.00  0.00     0.271 C 
ATOM     23  H   UNL A   1      35.367  22.338  24.784  1.00  0.00     0.346 HD
ATOM     24  H   UNL A   1      34.977  21.436  23.383  1.00  0.00     0.346 HD
ATOM     25  C   UNL A   1      34.631  19.038  24.625  1.00  0.00     0.131 C 
ENDBRANCH  17  18
ENDBRANCH  13  17
ENDBRANCH   4   7
ENDBRANCH   2   3
ENDBRANCH   1   2
BRANCH   1  26
ATOM     26  C   UNL A   1      32.587  32.670  27.244  1.00  0.00     0.118 C 
BRANCH  26  27
ATOM     27  N   UNL A   1      32.420  34.066  27.626  1.00  0.00    -0.352 N 
ATOM     28  C   UNL A   1      33.058  34.810  28.588  1.00  0.00     0.251 C 
ATOM     29  H   UNL A   1      31.739  34.555  27.110  1.00  0.00     0.163 HD
ATOM     30  O   UNL A   1      32.632  35.934  28.857  1.00  0.00    -0.269 OA
BRANCH  28  31
ATOM     31  C   UNL A   1      34.232  34.278  29.314  1.00  0.00     0.039 A 
ATOM     32  C   UNL A   1      34.028  33.570  30.503  1.00  0.00     0.014 A 
ATOM     33  C   UNL A   1      35.532  34.493  28.853  1.00  0.00     0.014 A 
ATOM     34  C   UNL A   1      35.118  33.017  31.183  1.00  0.00     0.010 A 
ATOM     35  C   UNL A   1      36.608  33.865  29.479  1.00  0.00     0.010 A 
ATOM     36  C   UNL A   1      36.415  33.123  30.653  1.00  0.00    -0.014 A 
BRANCH  36  37
ATOM     37  C   UNL A   1      37.576  32.462  31.307  1.00  0.00     0.031 A 
ATOM     38  C   UNL A   1      38.268  31.303  30.640  1.00  0.00     0.074 A 
ATOM     39  C   UNL A   1      37.962  32.855  32.537  1.00  0.00     0.049 A 
ATOM     40  N   UNL A   1      39.239  30.549  31.090  1.00  0.00    -0.248 NA
ATOM     41  C   UNL A   1      37.785  30.920  29.303  1.00  0.00     0.031 C 
ATOM     42  C   UNL A   1      37.341  33.928  33.318  1.00  0.00     0.029 A 
ATOM     43  N   UNL A   1      38.959  32.387  33.358  1.00  0.00    -0.354 N 
ATOM     44  C   UNL A   1      39.468  29.596  30.104  1.00  0.00     0.074 A 
ATOM     45  C   UNL A   1      38.502  29.835  29.054  1.00  0.00     0.031 C 
ATOM     46  C   UNL A   1      37.979  34.046  34.492  1.00  0.00     0.029 A 
ATOM     47  C   UNL A   1      39.026  33.033  34.569  1.00  0.00     0.049 A 
ATOM     48  H   UNL A   1      39.568  31.657  33.101  1.00  0.00     0.167 HD
ATOM     49  C   UNL A   1      40.410  28.624  30.068  1.00  0.00     0.037 A 
ATOM     50  C   UNL A   1      39.828  32.821  35.631  1.00  0.00     0.037 A 
ATOM     51  C   UNL A   1      41.389  28.408  31.101  1.00  0.00     0.049 A 
ATOM     52  C   UNL A   1      40.867  31.735  35.563  1.00  0.00     0.074 A 
ATOM     53  C   UNL A   1      42.435  27.500  31.119  1.00  0.00     0.029 A 
ATOM     54  N   UNL A   1      41.443  29.102  32.299  1.00  0.00    -0.354 N 
ATOM     55  N   UNL A   1      41.126  30.898  34.589  1.00  0.00    -0.248 NA
ATOM     56  C   UNL A   1      41.732  31.570  36.741  1.00  0.00     0.031 C 
ATOM     57  C   UNL A   1      43.083  27.604  32.352  1.00  0.00     0.029 A 
ATOM     58  C   UNL A   1      42.483  28.620  33.078  1.00  0.00     0.049 A 
ATOM     59  H   UNL A   1      40.832  29.829  32.559  1.00  0.00     0.167 HD
ATOM     60  C   UNL A   1      42.198  30.128  35.023  1.00  0.00     0.074 A 
ATOM     61  C   UNL A   1      42.553  30.610  36.341  1.00  0.00     0.031 C 
ATOM     62  C   UNL A   1      42.832  29.114  34.385  1.00  0.00     0.037 A 
BRANCH  49  63
ATOM     63  C   UNL A   1      40.430  27.711  28.876  1.00  0.00     0.057 A 
ATOM     64  C   UNL A   1      39.658  26.544  28.821  1.00  0.00     0.134 A 
ATOM     65  C   UNL A   1      41.187  28.035  27.742  1.00  0.00     0.134 A 
ATOM     66  F   UNL A   1      38.916  26.168  29.875  1.00  0.00    -0.206 F 
ATOM     67  C   UNL A   1      39.655  25.720  27.693  1.00  0.00     0.040 A 
ATOM     68  C   UNL A   1      41.169  27.237  26.597  1.00  0.00     0.040 A 
ATOM     69  F   UNL A   1      41.943  29.143  27.722  1.00  0.00    -0.206 F 
ATOM     70  C   UNL A   1      40.405  26.072  26.573  1.00  0.00     0.006 A 
ENDBRANCH  49  63
BRANCH  50  71
ATOM     71  C   UNL A   1      39.685  33.656  36.853  1.00  0.00     0.057 A 
ATOM     72  C   UNL A   1      38.822  33.285  37.890  1.00  0.00     0.134 A 
ATOM     73  C   UNL A   1      40.390  34.857  37.002  1.00  0.00     0.134 A 
ATOM     74  F   UNL A   1      38.104  32.155  37.798  1.00  0.00    -0.206 F 
ATOM     75  C   UNL A   1      38.643  34.088  39.018  1.00  0.00     0.040 A 
ATOM     76  C   UNL A   1      40.245  35.655  38.139  1.00  0.00     0.040 A 
ATOM     77  F   UNL A   1      41.238  35.267  36.048  1.00  0.00    -0.206 F 
ATOM     78  C   UNL A   1      39.360  35.275  39.146  1.00  0.00     0.006 A 
ENDBRANCH  50  71
BRANCH  62  79
ATOM     79  C   UNL A   1      44.000  28.481  35.086  1.00  0.00     0.057 A 
ATOM     80  C   UNL A   1      43.852  27.360  35.913  1.00  0.00     0.134 A 
ATOM     81  C   UNL A   1      45.296  28.978  34.897  1.00  0.00     0.134 A 
ATOM     82  F   UNL A   1      42.636  26.842  36.147  1.00  0.00    -0.206 F 
ATOM     83  C   UNL A   1      44.948  26.771  36.546  1.00  0.00     0.040 A 
ATOM     84  C   UNL A   1      46.403  28.380  35.499  1.00  0.00     0.040 A 
ATOM     85  F   UNL A   1      45.510  30.042  34.109  1.00  0.00    -0.206 F 
ATOM     86  C   UNL A   1      46.230  27.277  36.332  1.00  0.00     0.006 A 
ENDBRANCH  62  79
ENDBRANCH  36  37
ENDBRANCH  28  31
ENDBRANCH  26  27
ENDBRANCH   1  26
TORSDOF 13
ENDMDL
MODEL 3
REMARK VINA RESULT:     -11.3      2.382      7.314
REMARK SMILES CCC1(C(=O)NCCCNC(=O)c2ccc(-c3c4nc(c(-c5c(F)cccc5F)c5ccc([nH]5)c(-c5c(F)cccc5F)c5nc(c(-c6c(F)cccc6F)c6ccc3[nH]6)C=C5)C=C4)cc2)CCN(C(=O)C[C@H]2CSCC[NH2+]2)CC1
REMARK SMILES IDX 8 1 7 2 6 3 4 4 5 5 3 7 67 8 80 9 68 10 79 11 69 12 70 13
REMARK SMILES IDX 71 14 2 15 1 16 72 17 73 18 74 19 78 20 75 21 77 22 76 25
REMARK SMILES IDX 9 26 10 27 11 28 12 30 13 31 14 32 66 33 15 34 65 35 16 36
REMARK SMILES IDX 17 37 18 38 59 39 19 40 64 41 58 42 60 43 20 44 63 45 57 46
REMARK SMILES IDX 56 47 21 49 47 50 30 51 46 52 31 53 34 54 45 55 61 56 32 57
REMARK SMILES IDX 33 58 44 60 62 61 35 62 22 63 23 64 28 65 24 66 25 67 27 68
REMARK SMILES IDX 29 69 26 70 48 71 49 72 54 73 50 74 51 75 53 76 55 77 52 78
REMARK SMILES IDX 36 79 37 80 42 81 38 82 39 83 41 84 43 85 40 86
REMARK H PARENT 6 6 78 23 78 24 10 29 60 48 34 59
REMARK Flexibility Score: inf
ROOT
ATOM      1  C   UNL A   1      32.352  27.906  27.385  1.00  0.00     0.042 C 
ENDROOT
BRANCH   1   2
ATOM      2  C   UNL A   1      32.129  26.687  26.497  1.00  0.00     0.117 C 
BRANCH   2   3
ATOM      3  N   UNL A   1      33.261  25.764  26.479  1.00  0.00    -0.356 N 
ATOM      4  C   UNL A   1      33.918  25.120  25.468  1.00  0.00     0.226 C 
ATOM      5  O   UNL A   1      34.928  24.491  25.801  1.00  0.00    -0.274 OA
ATOM      6  H   UNL A   1      33.624  25.567  27.373  1.00  0.00     0.163 HD
BRANCH   4   7
ATOM      7  C   UNL A   1      33.460  25.187  23.987  1.00  0.00     0.052 C 
ATOM      8  C   UNL A   1      31.988  24.671  23.899  1.00  0.00     0.038 C 
ATOM      9  C   UNL A   1      33.623  26.646  23.500  1.00  0.00     0.038 C 
ATOM     10  C   UNL A   1      31.179  25.213  22.718  1.00  0.00     0.120 C 
ATOM     11  C   UNL A   1      32.828  26.931  22.234  1.00  0.00     0.120 C 
ATOM     12  N   UNL A   1      31.431  26.632  22.492  1.00  0.00    -0.342 N 
ATOM     13  C   UNL A   1      30.433  27.573  22.722  1.00  0.00     0.228 C 
ATOM     14  O   UNL A   1      29.343  27.260  23.211  1.00  0.00    -0.275 OA
BRANCH   7  15
ATOM     15  C   UNL A   1      34.334  24.219  23.108  1.00  0.00     0.013 C 
ATOM     16  C   UNL A   1      33.884  22.760  23.029  1.00  0.00     0.005 C 
ENDBRANCH   7  15
BRANCH  13  17
ATOM     17  C   UNL A   1      30.670  29.023  22.292  1.00  0.00     0.166 C 
BRANCH  17  18
ATOM     18  C   UNL A   1      29.416  29.925  22.206  1.00  0.00     0.201 C 
ATOM     19  C   UNL A   1      29.171  30.629  23.558  1.00  0.00     0.135 C 
ATOM     20  N   UNL A   1      29.495  30.809  21.031  1.00  0.00    -0.342 N 
ATOM     21  S   UNL A   1      27.681  31.675  23.537  1.00  0.00    -0.150 SA
ATOM     22  C   UNL A   1      28.404  31.776  20.886  1.00  0.00     0.271 C 
ATOM     23  H   UNL A   1      29.505  30.221  20.198  1.00  0.00     0.346 HD
ATOM     24  H   UNL A   1      30.341  31.364  21.158  1.00  0.00     0.346 HD
ATOM     25  C   UNL A   1      28.145  32.671  22.096  1.00  0.00     0.131 C 
ENDBRANCH  17  18
ENDBRANCH  13  17
ENDBRANCH   4   7
ENDBRANCH   2   3
ENDBRANCH   1   2
BRANCH   1  26
ATOM     26  C   UNL A   1      33.687  28.608  27.180  1.00  0.00     0.118 C 
BRANCH  26  27
ATOM     27  N   UNL A   1      33.690  29.981  27.668  1.00  0.00    -0.352 N 
ATOM     28  C   UNL A   1      34.655  30.685  28.345  1.00  0.00     0.251 C 
ATOM     29  H   UNL A   1      32.866  30.486  27.482  1.00  0.00     0.163 HD
ATOM     30  O   UNL A   1      34.375  31.788  28.815  1.00  0.00    -0.269 OA
BRANCH  28  31
ATOM     31  C   UNL A   1      36.016  30.133  28.532  1.00  0.00     0.039 A 
ATOM     32  C   UNL A   1      36.923  30.195  27.468  1.00  0.00     0.014 A 
ATOM     33  C   UNL A   1      36.399  29.530  29.732  1.00  0.00     0.014 A 
ATOM     34  C   UNL A   1      38.228  29.723  27.636  1.00  0.00     0.010 A 
ATOM     35  C   UNL A   1      37.724  29.145  29.927  1.00  0.00     0.010 A 
ATOM     36  C   UNL A   1      38.654  29.233  28.881  1.00  0.00    -0.014 A 
BRANCH  36  37
ATOM     37  C   UNL A   1      40.063  28.815  29.111  1.00  0.00     0.031 A 
ATOM     38  C   UNL A   1      41.055  29.777  29.710  1.00  0.00     0.074 A 
ATOM     39  C   UNL A   1      40.470  27.594  28.709  1.00  0.00     0.049 A 
ATOM     40  N   UNL A   1      42.340  29.622  29.908  1.00  0.00    -0.248 NA
ATOM     41  C   UNL A   1      40.542  31.096  30.112  1.00  0.00     0.031 C 
ATOM     42  C   UNL A   1      39.624  26.588  28.064  1.00  0.00     0.029 A 
ATOM     43  N   UNL A   1      41.705  26.996  28.768  1.00  0.00    -0.354 N 
ATOM     44  C   UNL A   1      42.789  30.826  30.437  1.00  0.00     0.074 A 
ATOM     45  C   UNL A   1      41.651  31.718  30.484  1.00  0.00     0.031 C 
ATOM     46  C   UNL A   1      40.358  25.495  27.803  1.00  0.00     0.029 A 
ATOM     47  C   UNL A   1      41.735  25.735  28.221  1.00  0.00     0.049 A 
ATOM     48  H   UNL A   1      42.495  27.430  29.166  1.00  0.00     0.167 HD
ATOM     49  C   UNL A   1      44.033  31.153  30.863  1.00  0.00     0.037 A 
ATOM     50  C   UNL A   1      42.759  24.876  28.057  1.00  0.00     0.037 A 
ATOM     51  C   UNL A   1      45.156  30.254  30.844  1.00  0.00     0.049 A 
ATOM     52  C   UNL A   1      44.130  25.264  28.542  1.00  0.00     0.074 A 
ATOM     53  C   UNL A   1      46.437  30.466  31.328  1.00  0.00     0.029 A 
ATOM     54  N   UNL A   1      45.139  28.975  30.309  1.00  0.00    -0.354 N 
ATOM     55  N   UNL A   1      44.520  26.375  29.118  1.00  0.00    -0.248 NA
ATOM     56  C   UNL A   1      45.202  24.273  28.361  1.00  0.00     0.031 C 
ATOM     57  C   UNL A   1      47.208  29.339  31.033  1.00  0.00     0.029 A 
ATOM     58  C   UNL A   1      46.394  28.399  30.421  1.00  0.00     0.049 A 
ATOM     59  H   UNL A   1      44.352  28.541  29.908  1.00  0.00     0.167 HD
ATOM     60  C   UNL A   1      45.871  26.207  29.393  1.00  0.00     0.074 A 
ATOM     61  C   UNL A   1      46.229  24.880  28.938  1.00  0.00     0.031 C 
ATOM     62  C   UNL A   1      46.736  27.074  29.973  1.00  0.00     0.037 A 
BRANCH  49  63
ATOM     63  C   UNL A   1      44.251  32.543  31.386  1.00  0.00     0.057 A 
ATOM     64  C   UNL A   1      44.151  32.848  32.750  1.00  0.00     0.134 A 
ATOM     65  C   UNL A   1      44.626  33.581  30.522  1.00  0.00     0.134 A 
ATOM     66  F   UNL A   1      43.789  31.905  33.633  1.00  0.00    -0.206 F 
ATOM     67  C   UNL A   1      44.393  34.137  33.232  1.00  0.00     0.040 A 
ATOM     68  C   UNL A   1      44.899  34.865  30.994  1.00  0.00     0.040 A 
ATOM     69  F   UNL A   1      44.749  33.358  29.204  1.00  0.00    -0.206 F 
ATOM     70  C   UNL A   1      44.778  35.147  32.353  1.00  0.00     0.006 A 
ENDBRANCH  49  63
BRANCH  50  71
ATOM     71  C   UNL A   1      42.532  23.559  27.406  1.00  0.00     0.057 A 
ATOM     72  C   UNL A   1      42.167  22.433  28.152  1.00  0.00     0.134 A 
ATOM     73  C   UNL A   1      42.698  23.390  26.025  1.00  0.00     0.134 A 
ATOM     74  F   UNL A   1      42.011  22.526  29.481  1.00  0.00    -0.206 F 
ATOM     75  C   UNL A   1      42.001  21.181  27.556  1.00  0.00     0.040 A 
ATOM     76  C   UNL A   1      42.505  22.150  25.411  1.00  0.00     0.040 A 
ATOM     77  F   UNL A   1      43.041  24.429  25.252  1.00  0.00    -0.206 F 
ATOM     78  C   UNL A   1      42.166  21.039  26.180  1.00  0.00     0.006 A 
ENDBRANCH  50  71
BRANCH  62  79
ATOM     79  C   UNL A   1      48.147  26.604  30.184  1.00  0.00     0.057 A 
ATOM     80  C   UNL A   1      48.531  25.895  31.329  1.00  0.00     0.134 A 
ATOM     81  C   UNL A   1      49.125  26.830  29.206  1.00  0.00     0.134 A 
ATOM     82  F   UNL A   1      47.646  25.655  32.310  1.00  0.00    -0.206 F 
ATOM     83  C   UNL A   1      49.842  25.448  31.506  1.00  0.00     0.040 A 
ATOM     84  C   UNL A   1      50.431  26.362  29.357  1.00  0.00     0.040 A 
ATOM     85  F   UNL A   1      48.823  27.493  28.080  1.00  0.00    -0.206 F 
ATOM     86  C   UNL A   1      50.794  25.675  30.513  1.00  0.00     0.006 A 
ENDBRANCH  62  79
ENDBRANCH  36  37
ENDBRANCH  28  31
ENDBRANCH  26  27
ENDBRANCH   1  26
TORSDOF 13
ENDMDL
