MODEL 1
REMARK VINA RESULT:     -11.9      0.000      0.000
REMARK SMILES O=C(NCCCNC(=O)c1ccc(-c2c3nc(c(-c4c(F)cccc4F)c4ccc([nH]4)c(-c4c(F)cccc4F)c4nc(c(-c5c(F)cccc5F)c5ccc2[nH]5)C=C4)C=C3)cc1)C1=Cc2c(cc(Cl)c(Cl)c2Cl)O[C@H]1C(F)(F)F
REMARK SMILES IDX 5 1 4 2 3 3 1 4 2 5 64 7 65 8 76 9 66 10 75 11 67 12 73 13
REMARK SMILES IDX 68 14 71 15 74 16 69 17 72 18 70 19 77 20 78 21 79 22 80 23
REMARK SMILES IDX 6 24 7 25 8 26 9 28 10 29 11 30 63 31 12 32 62 33 13 34
REMARK SMILES IDX 14 35 15 36 56 37 16 38 61 39 55 40 57 41 17 42 60 43 54 44
REMARK SMILES IDX 53 45 18 47 44 48 27 49 43 50 28 51 31 52 42 53 58 54 29 55
REMARK SMILES IDX 30 56 41 58 59 59 32 60 19 61 20 62 25 63 21 64 22 65 24 66
REMARK SMILES IDX 26 67 23 68 45 69 46 70 51 71 47 72 48 73 50 74 52 75 49 76
REMARK SMILES IDX 33 77 34 78 39 79 35 80 36 81 38 82 40 83 37 84
REMARK H PARENT 3 6 7 27 57 46 31 57
REMARK Flexibility Score: inf
ROOT
ATOM      1  C   UNL A   1      34.020  28.579  25.535  1.00  0.00     0.042 C 
ENDROOT
BRANCH   1   2
ATOM      2  C   UNL A   1      32.972  27.997  24.608  1.00  0.00     0.118 C 
BRANCH   2   3
ATOM      3  N   UNL A   1      33.431  27.077  23.589  1.00  0.00    -0.352 N 
ATOM      4  O   UNL A   1      34.120  25.086  22.782  1.00  0.00    -0.270 OA
ATOM      5  C   UNL A   1      33.691  25.737  23.729  1.00  0.00     0.251 C 
ATOM      6  H   UNL A   1      33.572  27.456  22.691  1.00  0.00     0.163 HD
BRANCH   5   7
ATOM      7  C   UNL A   1      33.518  25.072  25.052  1.00  0.00     0.067 C 
ATOM      8  C   UNL A   1      34.614  24.823  25.791  1.00  0.00     0.027 C 
ATOM      9  C   UNL A   1      32.286  24.212  25.172  1.00  0.00     0.314 C 
ATOM     10  C   UNL A   1      34.941  23.374  25.818  1.00  0.00     0.037 A 
ATOM     11  O   UNL A   1      32.582  22.819  25.507  1.00  0.00    -0.475 OA
ATOM     12  C   UNL A   1      33.902  22.456  25.604  1.00  0.00     0.131 A 
ATOM     13  C   UNL A   1      36.281  22.934  25.813  1.00  0.00     0.072 A 
ATOM     14  C   UNL A   1      34.193  21.125  25.318  1.00  0.00     0.069 A 
ATOM     15  C   UNL A   1      36.577  21.599  25.482  1.00  0.00     0.079 A 
ATOM     16  Cl  UNL A   1      37.551  24.088  26.100  1.00  0.00    -0.082 Cl
ATOM     17  C   UNL A   1      35.525  20.710  25.210  1.00  0.00     0.064 A 
ATOM     18  Cl  UNL A   1      38.225  21.074  25.332  1.00  0.00    -0.081 Cl
ATOM     19  Cl  UNL A   1      35.797  19.097  24.642  1.00  0.00    -0.083 Cl
BRANCH   9  20
ATOM     20  C   UNL A   1      31.264  24.796  26.167  1.00  0.00     0.429 C 
ATOM     21  F   UNL A   1      30.808  23.882  27.055  1.00  0.00    -0.167 F 
ATOM     22  F   UNL A   1      31.810  25.810  26.882  1.00  0.00    -0.167 F 
ATOM     23  F   UNL A   1      30.176  25.296  25.533  1.00  0.00    -0.167 F 
ENDBRANCH   9  20
ENDBRANCH   5   7
ENDBRANCH   2   3
ENDBRANCH   1   2
BRANCH   1  24
ATOM     24  C   UNL A   1      33.612  28.636  26.997  1.00  0.00     0.118 C 
BRANCH  24  25
ATOM     25  N   UNL A   1      33.707  29.967  27.594  1.00  0.00    -0.352 N 
ATOM     26  C   UNL A   1      34.726  30.635  28.234  1.00  0.00     0.251 C 
ATOM     27  H   UNL A   1      32.876  30.490  27.523  1.00  0.00     0.163 HD
ATOM     28  O   UNL A   1      34.498  31.746  28.711  1.00  0.00    -0.269 OA
BRANCH  26  29
ATOM     29  C   UNL A   1      36.073  30.042  28.401  1.00  0.00     0.039 A 
ATOM     30  C   UNL A   1      37.002  30.151  27.359  1.00  0.00     0.014 A 
ATOM     31  C   UNL A   1      36.431  29.358  29.559  1.00  0.00     0.014 A 
ATOM     32  C   UNL A   1      38.308  29.674  27.529  1.00  0.00     0.010 A 
ATOM     33  C   UNL A   1      37.758  29.012  29.780  1.00  0.00     0.010 A 
ATOM     34  C   UNL A   1      38.714  29.156  28.767  1.00  0.00    -0.014 A 
BRANCH  34  35
ATOM     35  C   UNL A   1      40.115  28.734  29.040  1.00  0.00     0.031 A 
ATOM     36  C   UNL A   1      41.084  29.709  29.660  1.00  0.00     0.074 A 
ATOM     37  C   UNL A   1      40.550  27.527  28.625  1.00  0.00     0.049 A 
ATOM     38  N   UNL A   1      42.382  29.615  29.801  1.00  0.00    -0.248 NA
ATOM     39  C   UNL A   1      40.523  30.985  30.136  1.00  0.00     0.031 C 
ATOM     40  C   UNL A   1      39.732  26.509  27.960  1.00  0.00     0.029 A 
ATOM     41  N   UNL A   1      41.798  26.957  28.686  1.00  0.00    -0.354 N 
ATOM     42  C   UNL A   1      42.793  30.829  30.337  1.00  0.00     0.074 A 
ATOM     43  C   UNL A   1      41.617  31.665  30.441  1.00  0.00     0.031 C 
ATOM     44  C   UNL A   1      40.493  25.433  27.699  1.00  0.00     0.029 A 
ATOM     45  C   UNL A   1      41.860  25.701  28.132  1.00  0.00     0.049 A 
ATOM     46  H   UNL A   1      42.576  27.408  29.087  1.00  0.00     0.167 HD
ATOM     47  C   UNL A   1      44.031  31.207  30.737  1.00  0.00     0.037 A 
ATOM     48  C   UNL A   1      42.902  24.863  27.980  1.00  0.00     0.037 A 
ATOM     49  C   UNL A   1      45.184  30.349  30.693  1.00  0.00     0.049 A 
ATOM     50  C   UNL A   1      44.260  25.288  28.466  1.00  0.00     0.074 A 
ATOM     51  C   UNL A   1      46.467  30.604  31.146  1.00  0.00     0.029 A 
ATOM     52  N   UNL A   1      45.189  29.061  30.179  1.00  0.00    -0.354 N 
ATOM     53  N   UNL A   1      44.623  26.421  29.019  1.00  0.00    -0.248 NA
ATOM     54  C   UNL A   1      45.354  24.318  28.311  1.00  0.00     0.031 C 
ATOM     55  C   UNL A   1      47.257  29.482  30.876  1.00  0.00     0.029 A 
ATOM     56  C   UNL A   1      46.455  28.513  30.293  1.00  0.00     0.049 A 
ATOM     57  H   UNL A   1      44.408  28.605  29.789  1.00  0.00     0.167 HD
ATOM     58  C   UNL A   1      45.975  26.288  29.305  1.00  0.00     0.074 A 
ATOM     59  C   UNL A   1      46.366  24.961  28.875  1.00  0.00     0.031 C 
ATOM     60  C   UNL A   1      46.819  27.184  29.873  1.00  0.00     0.037 A 
BRANCH  47  61
ATOM     61  C   UNL A   1      44.194  32.601  31.269  1.00  0.00     0.057 A 
ATOM     62  C   UNL A   1      44.526  33.678  30.438  1.00  0.00     0.134 A 
ATOM     63  C   UNL A   1      43.993  32.876  32.629  1.00  0.00     0.134 A 
ATOM     64  F   UNL A   1      44.745  33.483  29.127  1.00  0.00    -0.206 F 
ATOM     65  C   UNL A   1      44.687  34.970  30.941  1.00  0.00     0.040 A 
ATOM     66  C   UNL A   1      44.121  34.170  33.140  1.00  0.00     0.040 A 
ATOM     67  F   UNL A   1      43.665  31.895  33.482  1.00  0.00    -0.206 F 
ATOM     68  C   UNL A   1      44.477  35.220  32.296  1.00  0.00     0.006 A 
ENDBRANCH  47  61
BRANCH  48  69
ATOM     69  C   UNL A   1      42.701  23.525  27.368  1.00  0.00     0.057 A 
ATOM     70  C   UNL A   1      42.885  23.332  25.993  1.00  0.00     0.134 A 
ATOM     71  C   UNL A   1      42.319  22.416  28.130  1.00  0.00     0.134 A 
ATOM     72  F   UNL A   1      43.234  24.361  25.208  1.00  0.00    -0.206 F 
ATOM     73  C   UNL A   1      42.676  22.087  25.394  1.00  0.00     0.040 A 
ATOM     74  C   UNL A   1      42.131  21.159  27.548  1.00  0.00     0.040 A 
ATOM     75  F   UNL A   1      42.136  22.532  29.453  1.00  0.00    -0.206 F 
ATOM     76  C   UNL A   1      42.302  20.996  26.175  1.00  0.00     0.006 A 
ENDBRANCH  48  69
BRANCH  60  77
ATOM     77  C   UNL A   1      48.235  26.745  30.102  1.00  0.00     0.057 A 
ATOM     78  C   UNL A   1      48.609  26.019  31.239  1.00  0.00     0.134 A 
ATOM     79  C   UNL A   1      49.223  27.014  29.148  1.00  0.00     0.134 A 
ATOM     80  F   UNL A   1      47.711  25.741  32.195  1.00  0.00    -0.206 F 
ATOM     81  C   UNL A   1      49.925  25.593  31.429  1.00  0.00     0.040 A 
ATOM     82  C   UNL A   1      50.536  26.572  29.314  1.00  0.00     0.040 A 
ATOM     83  F   UNL A   1      48.926  27.698  28.032  1.00  0.00    -0.206 F 
ATOM     84  C   UNL A   1      50.891  25.864  30.460  1.00  0.00     0.006 A 
ENDBRANCH  60  77
ENDBRANCH  34  35
ENDBRANCH  26  29
ENDBRANCH  24  25
ENDBRANCH   1  24
TORSDOF 11
ENDMDL
MODEL 2
REMARK VINA RESULT:     -11.8      3.295      6.916
REMARK SMILES O=C(NCCCNC(=O)c1ccc(-c2c3nc(c(-c4c(F)cccc4F)c4ccc([nH]4)c(-c4c(F)cccc4F)c4nc(c(-c5c(F)cccc5F)c5ccc2[nH]5)C=C4)C=C3)cc1)C1=Cc2c(cc(Cl)c(Cl)c2Cl)O[C@H]1C(F)(F)F
REMARK SMILES IDX 5 1 4 2 3 3 1 4 2 5 64 7 65 8 76 9 66 10 75 11 67 12 73 13
REMARK SMILES IDX 68 14 71 15 74 16 69 17 72 18 70 19 77 20 78 21 79 22 80 23
REMARK SMILES IDX 6 24 7 25 8 26 9 28 10 29 11 30 63 31 12 32 62 33 13 34
REMARK SMILES IDX 14 35 15 36 56 37 16 38 61 39 55 40 57 41 17 42 60 43 54 44
REMARK SMILES IDX 53 45 18 47 44 48 27 49 43 50 28 51 31 52 42 53 58 54 29 55
REMARK SMILES IDX 30 56 41 58 59 59 32 60 19 61 20 62 25 63 21 64 22 65 24 66
REMARK SMILES IDX 26 67 23 68 45 69 46 70 51 71 47 72 48 73 50 74 52 75 49 76
REMARK SMILES IDX 33 77 34 78 39 79 35 80 36 81 38 82 40 83 37 84
REMARK H PARENT 3 6 7 27 57 46 31 57
REMARK Flexibility Score: inf
ROOT
ATOM      1  C   UNL A   1      33.533  29.282  24.041  1.00  0.00     0.042 C 
ENDROOT
BRANCH   1   2
ATOM      2  C   UNL A   1      32.761  28.926  22.787  1.00  0.00     0.118 C 
BRANCH   2   3
ATOM      3  N   UNL A   1      33.257  27.818  21.999  1.00  0.00    -0.352 N 
ATOM      4  O   UNL A   1      33.653  25.646  21.533  1.00  0.00    -0.270 OA
ATOM      5  C   UNL A   1      33.141  26.478  22.274  1.00  0.00     0.251 C 
ATOM      6  H   UNL A   1      33.734  28.051  21.169  1.00  0.00     0.163 HD
BRANCH   5   7
ATOM      7  C   UNL A   1      32.446  26.024  23.512  1.00  0.00     0.067 C 
ATOM      8  C   UNL A   1      33.192  25.557  24.529  1.00  0.00     0.027 C 
ATOM      9  C   UNL A   1      31.029  25.552  23.307  1.00  0.00     0.314 C 
ATOM     10  C   UNL A   1      33.063  24.084  24.677  1.00  0.00     0.037 A 
ATOM     11  O   UNL A   1      30.808  24.172  23.739  1.00  0.00    -0.475 OA
ATOM     12  C   UNL A   1      31.893  23.471  24.204  1.00  0.00     0.131 A 
ATOM     13  C   UNL A   1      34.170  23.294  25.050  1.00  0.00     0.072 A 
ATOM     14  C   UNL A   1      31.845  22.090  24.038  1.00  0.00     0.069 A 
ATOM     15  C   UNL A   1      34.137  21.903  24.843  1.00  0.00     0.079 A 
ATOM     16  Cl  UNL A   1      35.602  24.077  25.651  1.00  0.00    -0.082 Cl
ATOM     17  C   UNL A   1      32.979  21.315  24.310  1.00  0.00     0.064 A 
ATOM     18  Cl  UNL A   1      35.540  20.933  25.164  1.00  0.00    -0.081 Cl
ATOM     19  Cl  UNL A   1      32.904  19.641  23.874  1.00  0.00    -0.083 Cl
BRANCH   9  20
ATOM     20  C   UNL A   1      30.002  26.492  23.969  1.00  0.00     0.429 C 
ATOM     21  F   UNL A   1      29.958  27.716  23.393  1.00  0.00    -0.167 F 
ATOM     22  F   UNL A   1      28.753  25.971  23.896  1.00  0.00    -0.167 F 
ATOM     23  F   UNL A   1      30.276  26.691  25.281  1.00  0.00    -0.167 F 
ENDBRANCH   9  20
ENDBRANCH   5   7
ENDBRANCH   2   3
ENDBRANCH   1   2
BRANCH   1  24
ATOM     24  C   UNL A   1      32.754  29.115  25.334  1.00  0.00     0.118 C 
BRANCH  24  25
ATOM     25  N   UNL A   1      32.308  30.373  25.932  1.00  0.00    -0.352 N 
ATOM     26  C   UNL A   1      32.863  31.212  26.871  1.00  0.00     0.251 C 
ATOM     27  H   UNL A   1      31.435  30.681  25.594  1.00  0.00     0.163 HD
ATOM     28  O   UNL A   1      32.216  32.188  27.248  1.00  0.00    -0.269 OA
BRANCH  26  29
ATOM     29  C   UNL A   1      34.194  30.954  27.467  1.00  0.00     0.039 A 
ATOM     30  C   UNL A   1      35.089  32.018  27.628  1.00  0.00     0.014 A 
ATOM     31  C   UNL A   1      34.586  29.675  27.851  1.00  0.00     0.014 A 
ATOM     32  C   UNL A   1      36.318  31.812  28.268  1.00  0.00     0.010 A 
ATOM     33  C   UNL A   1      35.737  29.497  28.608  1.00  0.00     0.010 A 
ATOM     34  C   UNL A   1      36.624  30.560  28.821  1.00  0.00    -0.014 A 
BRANCH  34  35
ATOM     35  C   UNL A   1      37.864  30.310  29.604  1.00  0.00     0.031 A 
ATOM     36  C   UNL A   1      38.946  29.426  29.034  1.00  0.00     0.074 A 
ATOM     37  C   UNL A   1      37.971  30.771  30.867  1.00  0.00     0.049 A 
ATOM     38  N   UNL A   1      40.004  28.925  29.619  1.00  0.00    -0.248 NA
ATOM     39  C   UNL A   1      38.784  29.007  27.632  1.00  0.00     0.031 C 
ATOM     40  C   UNL A   1      36.974  31.589  31.561  1.00  0.00     0.029 A 
ATOM     41  N   UNL A   1      38.963  30.599  31.801  1.00  0.00    -0.354 N 
ATOM     42  C   UNL A   1      40.603  28.101  28.674  1.00  0.00     0.074 A 
ATOM     43  C   UNL A   1      39.760  28.123  27.498  1.00  0.00     0.031 C 
ATOM     44  C   UNL A   1      37.417  31.869  32.798  1.00  0.00     0.029 A 
ATOM     45  C   UNL A   1      38.703  31.212  33.003  1.00  0.00     0.049 A 
ATOM     46  H   UNL A   1      39.784  30.084  31.625  1.00  0.00     0.167 HD
ATOM     47  C   UNL A   1      41.766  27.412  28.762  1.00  0.00     0.037 A 
ATOM     48  C   UNL A   1      39.415  31.234  34.144  1.00  0.00     0.037 A 
ATOM     49  C   UNL A   1      42.634  27.446  29.908  1.00  0.00     0.049 A 
ATOM     50  C   UNL A   1      40.721  30.493  34.207  1.00  0.00     0.074 A 
ATOM     51  C   UNL A   1      43.872  26.849  30.071  1.00  0.00     0.029 A 
ATOM     52  N   UNL A   1      42.360  28.129  31.083  1.00  0.00    -0.354 N 
ATOM     53  N   UNL A   1      41.301  29.761  33.287  1.00  0.00    -0.248 NA
ATOM     54  C   UNL A   1      41.476  30.584  35.465  1.00  0.00     0.031 C 
ATOM     55  C   UNL A   1      44.333  27.144  31.358  1.00  0.00     0.029 A 
ATOM     56  C   UNL A   1      43.400  27.959  31.981  1.00  0.00     0.049 A 
ATOM     57  H   UNL A   1      41.546  28.655  31.255  1.00  0.00     0.167 HD
ATOM     58  C   UNL A   1      42.499  29.331  33.841  1.00  0.00     0.074 A 
ATOM     59  C   UNL A   1      42.569  29.893  35.175  1.00  0.00     0.031 C 
ATOM     60  C   UNL A   1      43.457  28.541  33.297  1.00  0.00     0.037 A 
BRANCH  47  61
ATOM     61  C   UNL A   1      42.171  26.578  27.580  1.00  0.00     0.057 A 
ATOM     62  C   UNL A   1      42.901  27.113  26.511  1.00  0.00     0.134 A 
ATOM     63  C   UNL A   1      41.845  25.217  27.521  1.00  0.00     0.134 A 
ATOM     64  F   UNL A   1      43.235  28.413  26.499  1.00  0.00    -0.206 F 
ATOM     65  C   UNL A   1      43.265  26.334  25.411  1.00  0.00     0.040 A 
ATOM     66  C   UNL A   1      42.230  24.420  26.439  1.00  0.00     0.040 A 
ATOM     67  F   UNL A   1      41.153  24.636  28.512  1.00  0.00    -0.206 F 
ATOM     68  C   UNL A   1      42.934  24.982  25.376  1.00  0.00     0.006 A 
ENDBRANCH  47  61
BRANCH  48  69
ATOM     69  C   UNL A   1      38.925  32.008  35.314  1.00  0.00     0.057 A 
ATOM     70  C   UNL A   1      39.147  33.387  35.404  1.00  0.00     0.134 A 
ATOM     71  C   UNL A   1      38.234  31.395  36.365  1.00  0.00     0.134 A 
ATOM     72  F   UNL A   1      39.820  34.027  34.437  1.00  0.00    -0.206 F 
ATOM     73  C   UNL A   1      38.717  34.128  36.508  1.00  0.00     0.040 A 
ATOM     74  C   UNL A   1      37.776  32.129  37.463  1.00  0.00     0.040 A 
ATOM     75  F   UNL A   1      37.981  30.079  36.335  1.00  0.00    -0.206 F 
ATOM     76  C   UNL A   1      38.025  33.497  37.539  1.00  0.00     0.006 A 
ENDBRANCH  48  69
BRANCH  60  77
ATOM     77  C   UNL A   1      44.679  28.274  34.124  1.00  0.00     0.057 A 
ATOM     78  C   UNL A   1      45.788  29.129  34.103  1.00  0.00     0.134 A 
ATOM     79  C   UNL A   1      44.725  27.171  34.985  1.00  0.00     0.134 A 
ATOM     80  F   UNL A   1      45.809  30.195  33.290  1.00  0.00    -0.206 F 
ATOM     81  C   UNL A   1      46.909  28.885  34.896  1.00  0.00     0.040 A 
ATOM     82  C   UNL A   1      45.830  26.930  35.802  1.00  0.00     0.040 A 
ATOM     83  F   UNL A   1      43.692  26.319  35.058  1.00  0.00    -0.206 F 
ATOM     84  C   UNL A   1      46.929  27.785  35.755  1.00  0.00     0.006 A 
ENDBRANCH  60  77
ENDBRANCH  34  35
ENDBRANCH  26  29
ENDBRANCH  24  25
ENDBRANCH   1  24
TORSDOF 11
ENDMDL
MODEL 3
REMARK VINA RESULT:     -11.7      3.370      6.517
REMARK SMILES O=C(NCCCNC(=O)c1ccc(-c2c3nc(c(-c4c(F)cccc4F)c4ccc([nH]4)c(-c4c(F)cccc4F)c4nc(c(-c5c(F)cccc5F)c5ccc2[nH]5)C=C4)C=C3)cc1)C1=Cc2c(cc(Cl)c(Cl)c2Cl)O[C@H]1C(F)(F)F
REMARK SMILES IDX 5 1 4 2 3 3 1 4 2 5 64 7 65 8 76 9 66 10 75 11 67 12 73 13
REMARK SMILES IDX 68 14 71 15 74 16 69 17 72 18 70 19 77 20 78 21 79 22 80 23
REMARK SMILES IDX 6 24 7 25 8 26 9 28 10 29 11 30 63 31 12 32 62 33 13 34
REMARK SMILES IDX 14 35 15 36 56 37 16 38 61 39 55 40 57 41 17 42 60 43 54 44
REMARK SMILES IDX 53 45 18 47 44 48 27 49 43 50 28 51 31 52 42 53 58 54 29 55
REMARK SMILES IDX 30 56 41 58 59 59 32 60 19 61 20 62 25 63 21 64 22 65 24 66
REMARK SMILES IDX 26 67 23 68 45 69 46 70 51 71 47 72 48 73 50 74 52 75 49 76
REMARK SMILES IDX 33 77 34 78 39 79 35 80 36 81 38 82 40 83 37 84
REMARK H PARENT 3 6 7 27 57 46 31 57
REMARK Flexibility Score: inf
ROOT
ATOM      1  C   UNL A   1      35.105  22.121  27.136  1.00  0.00     0.042 C 
ENDROOT
BRANCH   1   2
ATOM      2  C   UNL A   1      33.752  21.444  27.083  1.00  0.00     0.118 C 
BRANCH   2   3
ATOM      3  N   UNL A   1      32.605  22.230  27.486  1.00  0.00    -0.352 N 
ATOM      4  O   UNL A   1      31.023  23.822  27.251  1.00  0.00    -0.270 OA
ATOM      5  C   UNL A   1      31.963  23.203  26.762  1.00  0.00     0.251 C 
ATOM      6  H   UNL A   1      32.242  22.045  28.382  1.00  0.00     0.163 HD
BRANCH   5   7
ATOM      7  C   UNL A   1      32.443  23.564  25.398  1.00  0.00     0.067 C 
ATOM      8  C   UNL A   1      33.110  24.721  25.240  1.00  0.00     0.027 C 
ATOM      9  C   UNL A   1      31.646  22.965  24.267  1.00  0.00     0.314 C 
ATOM     10  C   UNL A   1      32.290  25.737  24.530  1.00  0.00     0.037 A 
ATOM     11  O   UNL A   1      31.075  23.965  23.366  1.00  0.00    -0.475 OA
ATOM     12  C   UNL A   1      31.268  25.288  23.680  1.00  0.00     0.131 A 
ATOM     13  C   UNL A   1      32.366  27.101  24.878  1.00  0.00     0.072 A 
ATOM     14  C   UNL A   1      30.289  26.171  23.235  1.00  0.00     0.069 A 
ATOM     15  C   UNL A   1      31.354  27.986  24.465  1.00  0.00     0.079 A 
ATOM     16  Cl  UNL A   1      33.653  27.637  25.918  1.00  0.00    -0.082 Cl
ATOM     17  C   UNL A   1      30.305  27.503  23.665  1.00  0.00     0.064 A 
ATOM     18  Cl  UNL A   1      31.354  29.637  25.000  1.00  0.00    -0.081 Cl
ATOM     19  Cl  UNL A   1      28.937  28.477  23.241  1.00  0.00    -0.083 Cl
BRANCH   9  20
ATOM     20  C   UNL A   1      32.461  21.927  23.469  1.00  0.00     0.429 C 
ATOM     21  F   UNL A   1      32.743  20.814  24.184  1.00  0.00    -0.167 F 
ATOM     22  F   UNL A   1      31.787  21.531  22.362  1.00  0.00    -0.167 F 
ATOM     23  F   UNL A   1      33.648  22.432  23.053  1.00  0.00    -0.167 F 
ENDBRANCH   9  20
ENDBRANCH   5   7
ENDBRANCH   2   3
ENDBRANCH   1   2
BRANCH   1  24
ATOM     24  C   UNL A   1      35.801  22.255  25.792  1.00  0.00     0.118 C 
BRANCH  24  25
ATOM     25  N   UNL A   1      36.851  21.265  25.559  1.00  0.00    -0.352 N 
ATOM     26  C   UNL A   1      38.213  21.282  25.751  1.00  0.00     0.251 C 
ATOM     27  H   UNL A   1      36.514  20.415  25.191  1.00  0.00     0.163 HD
ATOM     28  O   UNL A   1      38.874  20.308  25.390  1.00  0.00    -0.269 OA
BRANCH  26  29
ATOM     29  C   UNL A   1      38.910  22.448  26.341  1.00  0.00     0.039 A 
ATOM     30  C   UNL A   1      40.030  22.236  27.154  1.00  0.00     0.014 A 
ATOM     31  C   UNL A   1      38.465  23.749  26.125  1.00  0.00     0.014 A 
ATOM     32  C   UNL A   1      40.754  23.328  27.650  1.00  0.00     0.010 A 
ATOM     33  C   UNL A   1      39.259  24.826  26.497  1.00  0.00     0.010 A 
ATOM     34  C   UNL A   1      40.410  24.633  27.273  1.00  0.00    -0.014 A 
BRANCH  34  35
ATOM     35  C   UNL A   1      41.205  25.823  27.680  1.00  0.00     0.031 A 
ATOM     36  C   UNL A   1      40.557  26.915  28.495  1.00  0.00     0.074 A 
ATOM     37  C   UNL A   1      42.463  25.985  27.222  1.00  0.00     0.049 A 
ATOM     38  N   UNL A   1      41.002  28.110  28.787  1.00  0.00    -0.248 NA
ATOM     39  C   UNL A   1      39.202  26.642  29.004  1.00  0.00     0.031 C 
ATOM     40  C   UNL A   1      43.190  25.034  26.378  1.00  0.00     0.029 A 
ATOM     41  N   UNL A   1      43.349  27.022  27.389  1.00  0.00    -0.354 N 
ATOM     42  C   UNL A   1      39.970  28.742  29.470  1.00  0.00     0.074 A 
ATOM     43  C   UNL A   1      38.855  27.820  29.497  1.00  0.00     0.031 C 
ATOM     44  C   UNL A   1      44.417  25.519  26.124  1.00  0.00     0.029 A 
ATOM     45  C   UNL A   1      44.547  26.833  26.743  1.00  0.00     0.049 A 
ATOM     46  H   UNL A   1      43.143  27.825  27.920  1.00  0.00     0.167 HD
ATOM     47  C   UNL A   1      39.958  29.965  30.049  1.00  0.00     0.037 A 
ATOM     48  C   UNL A   1      45.625  27.633  26.652  1.00  0.00     0.037 A 
ATOM     49  C   UNL A   1      41.090  30.852  30.077  1.00  0.00     0.049 A 
ATOM     50  C   UNL A   1      45.604  28.972  27.335  1.00  0.00     0.074 A 
ATOM     51  C   UNL A   1      41.210  32.079  30.704  1.00  0.00     0.029 A 
ATOM     52  N   UNL A   1      42.306  30.595  29.461  1.00  0.00    -0.354 N 
ATOM     53  N   UNL A   1      44.638  29.534  28.022  1.00  0.00    -0.248 NA
ATOM     54  C   UNL A   1      46.823  29.787  27.235  1.00  0.00     0.031 C 
ATOM     55  C   UNL A   1      42.489  32.581  30.441  1.00  0.00     0.029 A 
ATOM     56  C   UNL A   1      43.178  31.647  29.684  1.00  0.00     0.049 A 
ATOM     57  H   UNL A   1      42.516  29.786  28.941  1.00  0.00     0.167 HD
ATOM     58  C   UNL A   1      45.142  30.751  28.461  1.00  0.00     0.074 A 
ATOM     59  C   UNL A   1      46.503  30.841  27.973  1.00  0.00     0.031 C 
ATOM     60  C   UNL A   1      44.534  31.709  29.202  1.00  0.00     0.037 A 
BRANCH  47  61
ATOM     61  C   UNL A   1      38.685  30.407  30.714  1.00  0.00     0.057 A 
ATOM     62  C   UNL A   1      37.708  31.142  30.029  1.00  0.00     0.134 A 
ATOM     63  C   UNL A   1      38.422  30.074  32.049  1.00  0.00     0.134 A 
ATOM     64  F   UNL A   1      37.902  31.505  28.751  1.00  0.00    -0.206 F 
ATOM     65  C   UNL A   1      36.533  31.559  30.656  1.00  0.00     0.040 A 
ATOM     66  C   UNL A   1      37.236  30.460  32.678  1.00  0.00     0.040 A 
ATOM     67  F   UNL A   1      39.310  29.367  32.764  1.00  0.00    -0.206 F 
ATOM     68  C   UNL A   1      36.291  31.212  31.983  1.00  0.00     0.006 A 
ENDBRANCH  47  61
BRANCH  48  69
ATOM     69  C   UNL A   1      46.830  27.181  25.909  1.00  0.00     0.057 A 
ATOM     70  C   UNL A   1      47.834  26.446  26.552  1.00  0.00     0.134 A 
ATOM     71  C   UNL A   1      47.010  27.470  24.552  1.00  0.00     0.134 A 
ATOM     72  F   UNL A   1      47.726  26.154  27.856  1.00  0.00    -0.206 F 
ATOM     73  C   UNL A   1      48.985  26.033  25.877  1.00  0.00     0.040 A 
ATOM     74  C   UNL A   1      48.145  27.041  23.859  1.00  0.00     0.040 A 
ATOM     75  F   UNL A   1      46.081  28.161  23.876  1.00  0.00    -0.206 F 
ATOM     76  C   UNL A   1      49.139  26.328  24.524  1.00  0.00     0.006 A 
ENDBRANCH  48  69
BRANCH  60  77
ATOM     77  C   UNL A   1      45.347  32.915  29.567  1.00  0.00     0.057 A 
ATOM     78  C   UNL A   1      46.147  32.949  30.715  1.00  0.00     0.134 A 
ATOM     79  C   UNL A   1      45.363  34.038  28.730  1.00  0.00     0.134 A 
ATOM     80  F   UNL A   1      46.164  31.910  31.562  1.00  0.00    -0.206 F 
ATOM     81  C   UNL A   1      46.920  34.068  31.030  1.00  0.00     0.040 A 
ATOM     82  C   UNL A   1      46.151  35.153  29.021  1.00  0.00     0.040 A 
ATOM     83  F   UNL A   1      44.625  34.065  27.610  1.00  0.00    -0.206 F 
ATOM     84  C   UNL A   1      46.928  35.171  30.177  1.00  0.00     0.006 A 
ENDBRANCH  60  77
ENDBRANCH  34  35
ENDBRANCH  26  29
ENDBRANCH  24  25
ENDBRANCH   1  24
TORSDOF 11
ENDMDL
