MODEL 1
REMARK VINA RESULT:     -12.2      0.000      0.000
REMARK SMILES Cc1ccc(N)cc1S(=O)(=O)Nc1cccc(C(=O)NCCCNC(=O)c2ccc(-c3c4nc(c(-c5c(F)cccc5F)c5ccc([nH]5)c(-c5c(F)cccc5F)c5nc(c(-c6c(F)cccc6F)c6ccc3[nH]6)C=C5)C=C4)cc2)c1
REMARK SMILES IDX 21 1 20 2 18 3 19 4 17 6 13 7 14 8 81 9 15 10 16 11 12 12
REMARK SMILES IDX 9 14 10 15 11 16 8 17 1 18 2 19 3 20 4 21 7 22 5 23 6 24
REMARK SMILES IDX 22 27 23 28 24 29 25 30 26 32 27 33 28 34 80 35 29 36 79 37
REMARK SMILES IDX 30 38 31 39 32 40 73 41 33 42 78 43 72 44 74 45 34 46 77 47
REMARK SMILES IDX 71 48 70 49 35 51 61 52 44 53 60 54 45 55 48 56 59 57 75 58
REMARK SMILES IDX 46 59 47 60 58 62 76 63 49 64 36 65 37 66 42 67 38 68 39 69
REMARK SMILES IDX 41 70 43 71 40 72 62 73 63 74 68 75 64 76 65 77 67 78 69 79
REMARK SMILES IDX 66 80 50 81 51 82 56 83 52 84 53 85 55 86 57 87 54 88
REMARK H PARENT 20 5 12 13 6 25 6 26 24 31 74 50 48 61
REMARK Flexibility Score: inf
ROOT
ATOM      1  C   UNL A   1      31.403  30.620  26.428  1.00  0.00     0.118 C 
ENDROOT
BRANCH   1   2
ATOM      2  N   UNL A   1      32.291  30.323  25.317  1.00  0.00    -0.352 N 
ATOM      3  C   UNL A   1      32.410  29.237  24.486  1.00  0.00     0.251 C 
ATOM      4  O   UNL A   1      33.278  29.289  23.613  1.00  0.00    -0.269 OA
ATOM      5  H   UNL A   1      32.934  31.042  25.122  1.00  0.00     0.163 HD
BRANCH   3   6
ATOM      6  C   UNL A   1      31.498  28.056  24.527  1.00  0.00     0.041 A 
ATOM      7  C   UNL A   1      30.709  25.979  25.482  1.00  0.00     0.050 A 
ATOM      8  C   UNL A   1      29.537  26.068  24.725  1.00  0.00     0.027 A 
ATOM      9  C   UNL A   1      31.730  26.905  25.281  1.00  0.00     0.040 A 
ATOM     10  C   UNL A   1      29.335  27.153  23.876  1.00  0.00     0.003 A 
ATOM     11  C   UNL A   1      30.296  28.161  23.808  1.00  0.00     0.014 A 
BRANCH   7  12
ATOM     12  N   UNL A   1      30.718  25.023  26.532  1.00  0.00    -0.280 N 
ATOM     13  H   UNL A   1      30.340  25.315  27.393  1.00  0.00     0.180 HD
BRANCH  12  14
ATOM     14  S   UNL A   1      31.299  23.462  26.467  1.00  0.00     0.262 S 
ATOM     15  O   UNL A   1      30.156  22.581  26.285  1.00  0.00    -0.201 OA
ATOM     16  O   UNL A   1      32.149  23.328  27.626  1.00  0.00    -0.201 OA
BRANCH  14  17
ATOM     17  C   UNL A   1      32.362  23.198  25.046  1.00  0.00     0.092 A 
ATOM     18  C   UNL A   1      34.471  24.542  25.740  1.00  0.00     0.046 C 
ATOM     19  C   UNL A   1      33.623  23.758  24.790  1.00  0.00    -0.030 A 
ATOM     20  C   UNL A   1      34.166  23.592  23.498  1.00  0.00     0.007 A 
ATOM     21  C   UNL A   1      33.551  22.788  22.539  1.00  0.00     0.026 A 
ATOM     22  C   UNL A   1      31.775  22.354  24.073  1.00  0.00     0.048 A 
ATOM     23  C   UNL A   1      32.389  22.095  22.847  1.00  0.00     0.033 A 
BRANCH  23  24
ATOM     24  N   UNL A   1      31.778  21.289  21.903  1.00  0.00    -0.399 N 
ATOM     25  H   UNL A   1      32.029  21.366  20.954  1.00  0.00     0.156 HD
ATOM     26  H   UNL A   1      31.093  20.639  22.180  1.00  0.00     0.156 HD
ENDBRANCH  23  24
ENDBRANCH  14  17
ENDBRANCH  12  14
ENDBRANCH   7  12
ENDBRANCH   3   6
ENDBRANCH   1   2
BRANCH   1  27
ATOM     27  C   UNL A   1      31.304  32.125  26.663  1.00  0.00     0.042 C 
BRANCH  27  28
ATOM     28  C   UNL A   1      32.655  32.755  26.958  1.00  0.00     0.118 C 
BRANCH  28  29
ATOM     29  N   UNL A   1      32.521  34.046  27.617  1.00  0.00    -0.352 N 
ATOM     30  C   UNL A   1      33.197  34.551  28.698  1.00  0.00     0.251 C 
ATOM     31  H   UNL A   1      31.842  34.645  27.229  1.00  0.00     0.163 HD
ATOM     32  O   UNL A   1      32.820  35.601  29.212  1.00  0.00    -0.269 OA
BRANCH  30  33
ATOM     33  C   UNL A   1      34.361  33.833  29.264  1.00  0.00     0.039 A 
ATOM     34  C   UNL A   1      35.641  34.223  28.859  1.00  0.00     0.014 A 
ATOM     35  C   UNL A   1      34.205  32.765  30.151  1.00  0.00     0.014 A 
ATOM     36  C   UNL A   1      36.760  33.564  29.367  1.00  0.00     0.010 A 
ATOM     37  C   UNL A   1      35.324  32.165  30.722  1.00  0.00     0.010 A 
ATOM     38  C   UNL A   1      36.613  32.542  30.318  1.00  0.00    -0.014 A 
BRANCH  38  39
ATOM     39  C   UNL A   1      37.798  31.839  30.866  1.00  0.00     0.031 A 
ATOM     40  C   UNL A   1      38.287  32.148  32.255  1.00  0.00     0.074 A 
ATOM     41  C   UNL A   1      38.452  30.942  30.104  1.00  0.00     0.049 A 
ATOM     42  N   UNL A   1      39.293  31.630  32.913  1.00  0.00    -0.248 NA
ATOM     43  C   UNL A   1      37.568  33.200  32.992  1.00  0.00     0.031 C 
ATOM     44  C   UNL A   1      38.109  30.596  28.724  1.00  0.00     0.029 A 
ATOM     45  N   UNL A   1      39.539  30.155  30.385  1.00  0.00    -0.354 N 
ATOM     46  C   UNL A   1      39.340  32.305  34.126  1.00  0.00     0.074 A 
ATOM     47  C   UNL A   1      38.297  33.307  34.093  1.00  0.00     0.031 C 
ATOM     48  C   UNL A   1      38.938  29.631  28.295  1.00  0.00     0.029 A 
ATOM     49  C   UNL A   1      39.887  29.312  29.358  1.00  0.00     0.049 A 
ATOM     50  H   UNL A   1      40.024  30.189  31.242  1.00  0.00     0.167 HD
ATOM     51  C   UNL A   1      40.159  32.093  35.183  1.00  0.00     0.037 A 
ATOM     52  C   UNL A   1      40.853  28.377  29.289  1.00  0.00     0.037 A 
ATOM     53  C   UNL A   1      41.169  31.070  35.228  1.00  0.00     0.049 A 
ATOM     54  C   UNL A   1      41.735  28.145  30.483  1.00  0.00     0.074 A 
ATOM     55  C   UNL A   1      41.999  30.720  36.278  1.00  0.00     0.029 A 
ATOM     56  N   UNL A   1      41.485  30.231  34.171  1.00  0.00    -0.354 N 
ATOM     57  N   UNL A   1      41.716  28.733  31.654  1.00  0.00    -0.248 NA
ATOM     58  C   UNL A   1      42.769  27.109  30.346  1.00  0.00     0.031 C 
ATOM     59  C   UNL A   1      42.845  29.694  35.843  1.00  0.00     0.029 A 
ATOM     60  C   UNL A   1      42.512  29.376  34.536  1.00  0.00     0.049 A 
ATOM     61  H   UNL A   1      41.045  30.241  33.290  1.00  0.00     0.167 HD
ATOM     62  C   UNL A   1      42.708  28.120  32.405  1.00  0.00     0.074 A 
ATOM     63  C   UNL A   1      43.307  27.108  31.558  1.00  0.00     0.031 C 
ATOM     64  C   UNL A   1      43.089  28.368  33.682  1.00  0.00     0.037 A 
BRANCH  51  65
ATOM     65  C   UNL A   1      39.988  32.989  36.376  1.00  0.00     0.057 A 
ATOM     66  C   UNL A   1      40.759  34.147  36.550  1.00  0.00     0.134 A 
ATOM     67  C   UNL A   1      39.038  32.694  37.362  1.00  0.00     0.134 A 
ATOM     68  F   UNL A   1      41.696  34.481  35.650  1.00  0.00    -0.206 F 
ATOM     69  C   UNL A   1      40.616  34.959  37.678  1.00  0.00     0.040 A 
ATOM     70  C   UNL A   1      38.868  33.512  38.480  1.00  0.00     0.040 A 
ATOM     71  F   UNL A   1      38.263  31.605  37.256  1.00  0.00    -0.206 F 
ATOM     72  C   UNL A   1      39.664  34.643  38.645  1.00  0.00     0.006 A 
ENDBRANCH  51  65
BRANCH  52  73
ATOM     73  C   UNL A   1      40.991  27.546  28.069  1.00  0.00     0.057 A 
ATOM     74  C   UNL A   1      40.301  26.334  27.948  1.00  0.00     0.134 A 
ATOM     75  C   UNL A   1      41.798  27.940  26.997  1.00  0.00     0.134 A 
ATOM     76  F   UNL A   1      39.526  25.897  28.951  1.00  0.00    -0.206 F 
ATOM     77  C   UNL A   1      40.420  25.535  26.810  1.00  0.00     0.040 A 
ATOM     78  C   UNL A   1      41.910  27.161  25.843  1.00  0.00     0.040 A 
ATOM     79  F   UNL A   1      42.478  29.095  27.049  1.00  0.00    -0.206 F 
ATOM     80  C   UNL A   1      41.222  25.952  25.751  1.00  0.00     0.006 A 
ENDBRANCH  52  73
BRANCH  64  81
ATOM     81  C   UNL A   1      44.175  27.506  34.251  1.00  0.00     0.057 A 
ATOM     82  C   UNL A   1      43.902  26.271  34.851  1.00  0.00     0.134 A 
ATOM     83  C   UNL A   1      45.515  27.906  34.171  1.00  0.00     0.134 A 
ATOM     84  F   UNL A   1      42.637  25.838  34.970  1.00  0.00    -0.206 F 
ATOM     85  C   UNL A   1      44.922  25.473  35.372  1.00  0.00     0.040 A 
ATOM     86  C   UNL A   1      46.545  27.107  34.667  1.00  0.00     0.040 A 
ATOM     87  F   UNL A   1      45.844  29.075  33.602  1.00  0.00    -0.206 F 
ATOM     88  C   UNL A   1      46.249  25.889  35.276  1.00  0.00     0.006 A 
ENDBRANCH  64  81
ENDBRANCH  38  39
ENDBRANCH  30  33
ENDBRANCH  28  29
ENDBRANCH  27  28
ENDBRANCH   1  27
TORSDOF 14
ENDMDL
MODEL 2
REMARK VINA RESULT:     -12.2      4.259      9.252
REMARK SMILES Cc1ccc(N)cc1S(=O)(=O)Nc1cccc(C(=O)NCCCNC(=O)c2ccc(-c3c4nc(c(-c5c(F)cccc5F)c5ccc([nH]5)c(-c5c(F)cccc5F)c5nc(c(-c6c(F)cccc6F)c6ccc3[nH]6)C=C5)C=C4)cc2)c1
REMARK SMILES IDX 21 1 20 2 18 3 19 4 17 6 13 7 14 8 81 9 15 10 16 11 12 12
REMARK SMILES IDX 9 14 10 15 11 16 8 17 1 18 2 19 3 20 4 21 7 22 5 23 6 24
REMARK SMILES IDX 22 27 23 28 24 29 25 30 26 32 27 33 28 34 80 35 29 36 79 37
REMARK SMILES IDX 30 38 31 39 32 40 73 41 33 42 78 43 72 44 74 45 34 46 77 47
REMARK SMILES IDX 71 48 70 49 35 51 61 52 44 53 60 54 45 55 48 56 59 57 75 58
REMARK SMILES IDX 46 59 47 60 58 62 76 63 49 64 36 65 37 66 42 67 38 68 39 69
REMARK SMILES IDX 41 70 43 71 40 72 62 73 63 74 68 75 64 76 65 77 67 78 69 79
REMARK SMILES IDX 66 80 50 81 51 82 56 83 52 84 53 85 55 86 57 87 54 88
REMARK H PARENT 20 5 12 13 6 25 6 26 24 31 74 50 48 61
REMARK Flexibility Score: inf
ROOT
ATOM      1  C   UNL A   1      37.274  20.912  24.550  1.00  0.00     0.118 C 
ENDROOT
BRANCH   1   2
ATOM      2  N   UNL A   1      37.867  22.119  25.099  1.00  0.00    -0.352 N 
ATOM      3  C   UNL A   1      37.326  23.281  25.591  1.00  0.00     0.251 C 
ATOM      4  O   UNL A   1      38.110  24.138  26.001  1.00  0.00    -0.269 OA
ATOM      5  H   UNL A   1      38.851  22.100  25.125  1.00  0.00     0.163 HD
BRANCH   3   6
ATOM      6  C   UNL A   1      35.859  23.517  25.736  1.00  0.00     0.041 A 
ATOM      7  C   UNL A   1      33.698  24.207  24.898  1.00  0.00     0.050 A 
ATOM      8  C   UNL A   1      33.072  23.603  25.993  1.00  0.00     0.027 A 
ATOM      9  C   UNL A   1      35.088  24.268  24.847  1.00  0.00     0.040 A 
ATOM     10  C   UNL A   1      33.833  22.946  26.957  1.00  0.00     0.003 A 
ATOM     11  C   UNL A   1      35.218  22.872  26.806  1.00  0.00     0.014 A 
BRANCH   7  12
ATOM     12  N   UNL A   1      32.860  24.591  23.818  1.00  0.00    -0.280 N 
ATOM     13  H   UNL A   1      32.889  24.020  23.016  1.00  0.00     0.180 HD
BRANCH  12  14
ATOM     14  S   UNL A   1      31.832  25.903  23.758  1.00  0.00     0.262 S 
ATOM     15  O   UNL A   1      30.526  25.452  24.213  1.00  0.00    -0.201 OA
ATOM     16  O   UNL A   1      31.997  26.449  22.433  1.00  0.00    -0.201 OA
BRANCH  14  17
ATOM     17  C   UNL A   1      32.332  27.202  24.890  1.00  0.00     0.092 A 
ATOM     18  C   UNL A   1      34.146  28.420  23.487  1.00  0.00     0.046 C 
ATOM     19  C   UNL A   1      33.362  28.143  24.730  1.00  0.00    -0.030 A 
ATOM     20  C   UNL A   1      33.727  28.914  25.854  1.00  0.00     0.007 A 
ATOM     21  C   UNL A   1      33.012  28.856  27.050  1.00  0.00     0.026 A 
ATOM     22  C   UNL A   1      31.596  27.188  26.099  1.00  0.00     0.048 A 
ATOM     23  C   UNL A   1      31.888  28.050  27.156  1.00  0.00     0.033 A 
BRANCH  23  24
ATOM     24  N   UNL A   1      31.170  27.994  28.337  1.00  0.00    -0.399 N 
ATOM     25  H   UNL A   1      30.435  27.345  28.435  1.00  0.00     0.156 HD
ATOM     26  H   UNL A   1      31.393  28.600  29.079  1.00  0.00     0.156 HD
ENDBRANCH  23  24
ENDBRANCH  14  17
ENDBRANCH  12  14
ENDBRANCH   7  12
ENDBRANCH   3   6
ENDBRANCH   1   2
BRANCH   1  27
ATOM     27  C   UNL A   1      38.161  19.698  24.813  1.00  0.00     0.042 C 
BRANCH  27  28
ATOM     28  C   UNL A   1      39.105  19.913  25.985  1.00  0.00     0.118 C 
BRANCH  28  29
ATOM     29  N   UNL A   1      40.359  19.194  25.812  1.00  0.00    -0.352 N 
ATOM     30  C   UNL A   1      41.649  19.639  25.945  1.00  0.00     0.251 C 
ATOM     31  H   UNL A   1      40.266  18.246  25.561  1.00  0.00     0.163 HD
ATOM     32  O   UNL A   1      42.578  18.919  25.592  1.00  0.00    -0.269 OA
BRANCH  30  33
ATOM     33  C   UNL A   1      41.930  20.986  26.491  1.00  0.00     0.039 A 
ATOM     34  C   UNL A   1      41.960  21.146  27.879  1.00  0.00     0.014 A 
ATOM     35  C   UNL A   1      42.125  22.090  25.657  1.00  0.00     0.014 A 
ATOM     36  C   UNL A   1      42.216  22.403  28.428  1.00  0.00     0.010 A 
ATOM     37  C   UNL A   1      42.464  23.325  26.204  1.00  0.00     0.010 A 
ATOM     38  C   UNL A   1      42.490  23.500  27.595  1.00  0.00    -0.014 A 
BRANCH  38  39
ATOM     39  C   UNL A   1      42.766  24.839  28.170  1.00  0.00     0.031 A 
ATOM     40  C   UNL A   1      44.174  25.234  28.524  1.00  0.00     0.074 A 
ATOM     41  C   UNL A   1      41.747  25.688  28.400  1.00  0.00     0.049 A 
ATOM     42  N   UNL A   1      44.616  26.361  29.022  1.00  0.00    -0.248 NA
ATOM     43  C   UNL A   1      45.220  24.219  28.320  1.00  0.00     0.031 C 
ATOM     44  C   UNL A   1      40.334  25.401  28.151  1.00  0.00     0.029 A 
ATOM     45  N   UNL A   1      41.746  26.969  28.891  1.00  0.00    -0.354 N 
ATOM     46  C   UNL A   1      45.982  26.182  29.209  1.00  0.00     0.074 A 
ATOM     47  C   UNL A   1      46.286  24.822  28.824  1.00  0.00     0.031 C 
ATOM     48  C   UNL A   1      39.607  26.491  28.444  1.00  0.00     0.029 A 
ATOM     49  C   UNL A   1      40.498  27.540  28.928  1.00  0.00     0.049 A 
ATOM     50  H   UNL A   1      42.561  27.434  29.188  1.00  0.00     0.167 HD
ATOM     51  C   UNL A   1      46.903  27.077  29.636  1.00  0.00     0.037 A 
ATOM     52  C   UNL A   1      40.119  28.778  29.298  1.00  0.00     0.037 A 
ATOM     53  C   UNL A   1      46.603  28.441  29.981  1.00  0.00     0.049 A 
ATOM     54  C   UNL A   1      41.162  29.761  29.748  1.00  0.00     0.074 A 
ATOM     55  C   UNL A   1      47.474  29.451  30.351  1.00  0.00     0.029 A 
ATOM     56  N   UNL A   1      45.328  28.986  29.998  1.00  0.00    -0.354 N 
ATOM     57  N   UNL A   1      42.461  29.606  29.841  1.00  0.00    -0.248 NA
ATOM     58  C   UNL A   1      40.686  31.097  30.136  1.00  0.00     0.031 C 
ATOM     59  C   UNL A   1      46.720  30.597  30.629  1.00  0.00     0.029 A 
ATOM     60  C   UNL A   1      45.385  30.312  30.392  1.00  0.00     0.049 A 
ATOM     61  H   UNL A   1      44.503  28.501  29.765  1.00  0.00     0.167 HD
ATOM     62  C   UNL A   1      42.961  30.829  30.265  1.00  0.00     0.074 A 
ATOM     63  C   UNL A   1      41.826  31.719  30.404  1.00  0.00     0.031 C 
ATOM     64  C   UNL A   1      44.245  31.185  30.514  1.00  0.00     0.037 A 
BRANCH  51  65
ATOM     65  C   UNL A   1      48.322  26.601  29.751  1.00  0.00     0.057 A 
ATOM     66  C   UNL A   1      49.249  26.773  28.714  1.00  0.00     0.134 A 
ATOM     67  C   UNL A   1      48.771  25.966  30.917  1.00  0.00     0.134 A 
ATOM     68  F   UNL A   1      48.881  27.362  27.565  1.00  0.00    -0.206 F 
ATOM     69  C   UNL A   1      50.559  26.300  28.816  1.00  0.00     0.040 A 
ATOM     70  C   UNL A   1      50.085  25.513  31.041  1.00  0.00     0.040 A 
ATOM     71  F   UNL A   1      47.939  25.773  31.951  1.00  0.00    -0.206 F 
ATOM     72  C   UNL A   1      50.981  25.671  29.985  1.00  0.00     0.006 A 
ENDBRANCH  51  65
BRANCH  52  73
ATOM     73  C   UNL A   1      38.695  29.177  29.192  1.00  0.00     0.057 A 
ATOM     74  C   UNL A   1      37.858  29.143  30.313  1.00  0.00     0.134 A 
ATOM     75  C   UNL A   1      38.139  29.610  27.983  1.00  0.00     0.134 A 
ATOM     76  F   UNL A   1      38.330  28.720  31.495  1.00  0.00    -0.206 F 
ATOM     77  C   UNL A   1      36.513  29.510  30.234  1.00  0.00     0.040 A 
ATOM     78  C   UNL A   1      36.802  30.002  27.894  1.00  0.00     0.040 A 
ATOM     79  F   UNL A   1      38.892  29.673  26.876  1.00  0.00    -0.206 F 
ATOM     80  C   UNL A   1      35.984  29.948  29.022  1.00  0.00     0.006 A 
ENDBRANCH  52  73
BRANCH  64  81
ATOM     81  C   UNL A   1      44.492  32.606  30.922  1.00  0.00     0.057 A 
ATOM     82  C   UNL A   1      44.526  32.996  32.267  1.00  0.00     0.134 A 
ATOM     83  C   UNL A   1      44.727  33.593  29.955  1.00  0.00     0.134 A 
ATOM     84  F   UNL A   1      44.296  32.101  33.240  1.00  0.00    -0.206 F 
ATOM     85  C   UNL A   1      44.763  34.321  32.635  1.00  0.00     0.040 A 
ATOM     86  C   UNL A   1      44.988  34.916  30.312  1.00  0.00     0.040 A 
ATOM     87  F   UNL A   1      44.714  33.284  28.650  1.00  0.00    -0.206 F 
ATOM     88  C   UNL A   1      45.000  35.284  31.656  1.00  0.00     0.006 A 
ENDBRANCH  64  81
ENDBRANCH  38  39
ENDBRANCH  30  33
ENDBRANCH  28  29
ENDBRANCH  27  28
ENDBRANCH   1  27
TORSDOF 14
ENDMDL
MODEL 3
REMARK VINA RESULT:     -12.1      1.340      1.923
REMARK SMILES Cc1ccc(N)cc1S(=O)(=O)Nc1cccc(C(=O)NCCCNC(=O)c2ccc(-c3c4nc(c(-c5c(F)cccc5F)c5ccc([nH]5)c(-c5c(F)cccc5F)c5nc(c(-c6c(F)cccc6F)c6ccc3[nH]6)C=C5)C=C4)cc2)c1
REMARK SMILES IDX 21 1 20 2 18 3 19 4 17 6 13 7 14 8 81 9 15 10 16 11 12 12
REMARK SMILES IDX 9 14 10 15 11 16 8 17 1 18 2 19 3 20 4 21 7 22 5 23 6 24
REMARK SMILES IDX 22 27 23 28 24 29 25 30 26 32 27 33 28 34 80 35 29 36 79 37
REMARK SMILES IDX 30 38 31 39 32 40 73 41 33 42 78 43 72 44 74 45 34 46 77 47
REMARK SMILES IDX 71 48 70 49 35 51 61 52 44 53 60 54 45 55 48 56 59 57 75 58
REMARK SMILES IDX 46 59 47 60 58 62 76 63 49 64 36 65 37 66 42 67 38 68 39 69
REMARK SMILES IDX 41 70 43 71 40 72 62 73 63 74 68 75 64 76 65 77 67 78 69 79
REMARK SMILES IDX 66 80 50 81 51 82 56 83 52 84 53 85 55 86 57 87 54 88
REMARK H PARENT 20 5 12 13 6 25 6 26 24 31 74 50 48 61
REMARK Flexibility Score: inf
ROOT
ATOM      1  C   UNL A   1      31.778  30.529  26.825  1.00  0.00     0.118 C 
ENDROOT
BRANCH   1   2
ATOM      2  N   UNL A   1      33.137  30.272  27.269  1.00  0.00    -0.352 N 
ATOM      3  C   UNL A   1      34.059  29.311  26.936  1.00  0.00     0.251 C 
ATOM      4  O   UNL A   1      35.155  29.365  27.495  1.00  0.00    -0.269 OA
ATOM      5  H   UNL A   1      33.461  30.914  27.942  1.00  0.00     0.163 HD
BRANCH   3   6
ATOM      6  C   UNL A   1      33.837  28.278  25.882  1.00  0.00     0.041 A 
ATOM      7  C   UNL A   1      33.274  26.045  25.143  1.00  0.00     0.050 A 
ATOM      8  C   UNL A   1      33.112  26.511  23.835  1.00  0.00     0.027 A 
ATOM      9  C   UNL A   1      33.757  26.906  26.126  1.00  0.00     0.040 A 
ATOM     10  C   UNL A   1      33.301  27.860  23.546  1.00  0.00     0.003 A 
ATOM     11  C   UNL A   1      33.624  28.744  24.574  1.00  0.00     0.014 A 
BRANCH   7  12
ATOM     12  N   UNL A   1      32.782  24.742  25.420  1.00  0.00    -0.280 N 
ATOM     13  H   UNL A   1      31.835  24.577  25.208  1.00  0.00     0.180 HD
BRANCH  12  14
ATOM     14  S   UNL A   1      33.632  23.462  26.066  1.00  0.00     0.262 S 
ATOM     15  O   UNL A   1      33.163  23.273  27.430  1.00  0.00    -0.201 OA
ATOM     16  O   UNL A   1      35.020  23.761  25.804  1.00  0.00    -0.201 OA
BRANCH  14  17
ATOM     17  C   UNL A   1      33.291  21.925  25.206  1.00  0.00     0.092 A 
ATOM     18  C   UNL A   1      33.105  22.753  22.752  1.00  0.00     0.046 C 
ATOM     19  C   UNL A   1      32.996  21.739  23.846  1.00  0.00    -0.030 A 
ATOM     20  C   UNL A   1      32.528  20.470  23.442  1.00  0.00     0.007 A 
ATOM     21  C   UNL A   1      32.484  19.388  24.322  1.00  0.00     0.026 A 
ATOM     22  C   UNL A   1      33.277  20.805  26.070  1.00  0.00     0.048 A 
ATOM     23  C   UNL A   1      32.936  19.527  25.626  1.00  0.00     0.033 A 
BRANCH  23  24
ATOM     24  N   UNL A   1      32.903  18.456  26.501  1.00  0.00    -0.399 N 
ATOM     25  H   UNL A   1      33.697  18.238  27.041  1.00  0.00     0.156 HD
ATOM     26  H   UNL A   1      32.087  17.913  26.585  1.00  0.00     0.156 HD
ENDBRANCH  23  24
ENDBRANCH  14  17
ENDBRANCH  12  14
ENDBRANCH   7  12
ENDBRANCH   3   6
ENDBRANCH   1   2
BRANCH   1  27
ATOM     27  C   UNL A   1      31.458  32.020  26.875  1.00  0.00     0.042 C 
BRANCH  27  28
ATOM     28  C   UNL A   1      32.711  32.882  26.883  1.00  0.00     0.118 C 
BRANCH  28  29
ATOM     29  N   UNL A   1      32.513  34.123  27.618  1.00  0.00    -0.352 N 
ATOM     30  C   UNL A   1      33.137  34.578  28.751  1.00  0.00     0.251 C 
ATOM     31  H   UNL A   1      31.828  34.725  27.246  1.00  0.00     0.163 HD
ATOM     32  O   UNL A   1      32.710  35.580  29.317  1.00  0.00    -0.269 OA
BRANCH  30  33
ATOM     33  C   UNL A   1      34.305  33.860  29.310  1.00  0.00     0.039 A 
ATOM     34  C   UNL A   1      35.584  34.318  28.980  1.00  0.00     0.014 A 
ATOM     35  C   UNL A   1      34.156  32.729  30.117  1.00  0.00     0.014 A 
ATOM     36  C   UNL A   1      36.707  33.663  29.484  1.00  0.00     0.010 A 
ATOM     37  C   UNL A   1      35.274  32.128  30.688  1.00  0.00     0.010 A 
ATOM     38  C   UNL A   1      36.562  32.573  30.358  1.00  0.00    -0.014 A 
BRANCH  38  39
ATOM     39  C   UNL A   1      37.751  31.873  30.901  1.00  0.00     0.031 A 
ATOM     40  C   UNL A   1      38.240  32.177  32.292  1.00  0.00     0.074 A 
ATOM     41  C   UNL A   1      38.409  30.983  30.133  1.00  0.00     0.049 A 
ATOM     42  N   UNL A   1      39.249  31.660  32.945  1.00  0.00    -0.248 NA
ATOM     43  C   UNL A   1      37.517  33.221  33.035  1.00  0.00     0.031 C 
ATOM     44  C   UNL A   1      38.066  30.643  28.752  1.00  0.00     0.029 A 
ATOM     45  N   UNL A   1      39.500  30.199  30.409  1.00  0.00    -0.354 N 
ATOM     46  C   UNL A   1      39.294  32.329  34.162  1.00  0.00     0.074 A 
ATOM     47  C   UNL A   1      38.247  33.326  34.135  1.00  0.00     0.031 C 
ATOM     48  C   UNL A   1      38.899  29.684  28.317  1.00  0.00     0.029 A 
ATOM     49  C   UNL A   1      39.850  29.364  29.377  1.00  0.00     0.049 A 
ATOM     50  H   UNL A   1      39.985  30.232  31.266  1.00  0.00     0.167 HD
ATOM     51  C   UNL A   1      40.115  32.115  35.217  1.00  0.00     0.037 A 
ATOM     52  C   UNL A   1      40.821  28.434  29.302  1.00  0.00     0.037 A 
ATOM     53  C   UNL A   1      41.130  31.096  35.256  1.00  0.00     0.049 A 
ATOM     54  C   UNL A   1      41.705  28.200  30.494  1.00  0.00     0.074 A 
ATOM     55  C   UNL A   1      41.963  30.745  36.303  1.00  0.00     0.029 A 
ATOM     56  N   UNL A   1      41.450  30.265  34.193  1.00  0.00    -0.354 N 
ATOM     57  N   UNL A   1      41.684  28.781  31.669  1.00  0.00    -0.248 NA
ATOM     58  C   UNL A   1      42.744  27.170  30.351  1.00  0.00     0.031 C 
ATOM     59  C   UNL A   1      42.813  29.725  35.862  1.00  0.00     0.029 A 
ATOM     60  C   UNL A   1      42.481  29.413  34.553  1.00  0.00     0.049 A 
ATOM     61  H   UNL A   1      41.008  30.277  33.313  1.00  0.00     0.167 HD
ATOM     62  C   UNL A   1      42.680  28.169  32.415  1.00  0.00     0.074 A 
ATOM     63  C   UNL A   1      43.283  27.164  31.562  1.00  0.00     0.031 C 
ATOM     64  C   UNL A   1      43.061  28.412  33.693  1.00  0.00     0.037 A 
BRANCH  51  65
ATOM     65  C   UNL A   1      39.942  33.004  36.415  1.00  0.00     0.057 A 
ATOM     66  C   UNL A   1      40.712  34.161  36.599  1.00  0.00     0.134 A 
ATOM     67  C   UNL A   1      38.989  32.703  37.396  1.00  0.00     0.134 A 
ATOM     68  F   UNL A   1      41.652  34.499  35.703  1.00  0.00    -0.206 F 
ATOM     69  C   UNL A   1      40.567  34.965  37.730  1.00  0.00     0.040 A 
ATOM     70  C   UNL A   1      38.815  33.515  38.519  1.00  0.00     0.040 A 
ATOM     71  F   UNL A   1      38.213  31.615  37.282  1.00  0.00    -0.206 F 
ATOM     72  C   UNL A   1      39.612  34.644  38.693  1.00  0.00     0.006 A 
ENDBRANCH  51  65
BRANCH  52  73
ATOM     73  C   UNL A   1      40.961  27.610  28.078  1.00  0.00     0.057 A 
ATOM     74  C   UNL A   1      40.287  26.389  27.957  1.00  0.00     0.134 A 
ATOM     75  C   UNL A   1      41.756  28.019  27.001  1.00  0.00     0.134 A 
ATOM     76  F   UNL A   1      39.525  25.937  28.963  1.00  0.00    -0.206 F 
ATOM     77  C   UNL A   1      40.410  25.596  26.815  1.00  0.00     0.040 A 
ATOM     78  C   UNL A   1      41.870  27.247  25.844  1.00  0.00     0.040 A 
ATOM     79  F   UNL A   1      42.420  29.183  27.055  1.00  0.00    -0.206 F 
ATOM     80  C   UNL A   1      41.198  26.030  25.751  1.00  0.00     0.006 A 
ENDBRANCH  52  73
BRANCH  64  81
ATOM     81  C   UNL A   1      44.152  27.552  34.257  1.00  0.00     0.057 A 
ATOM     82  C   UNL A   1      45.493  27.953  34.242  1.00  0.00     0.134 A 
ATOM     83  C   UNL A   1      43.850  26.318  34.848  1.00  0.00     0.134 A 
ATOM     84  F   UNL A   1      45.848  29.117  33.679  1.00  0.00    -0.206 F 
ATOM     85  C   UNL A   1      46.500  27.146  34.775  1.00  0.00     0.040 A 
ATOM     86  C   UNL A   1      44.844  25.514  35.405  1.00  0.00     0.040 A 
ATOM     87  F   UNL A   1      42.583  25.880  34.900  1.00  0.00    -0.206 F 
ATOM     88  C   UNL A   1      46.175  25.925  35.364  1.00  0.00     0.006 A 
ENDBRANCH  64  81
ENDBRANCH  38  39
ENDBRANCH  30  33
ENDBRANCH  28  29
ENDBRANCH  27  28
ENDBRANCH   1  27
TORSDOF 14
ENDMDL
