MODEL 1
REMARK VINA RESULT:     -11.8      0.000      0.000
REMARK SMILES O=C(NCCCNC(=O)c1c(F)cccc1NC(=O)c1ccc(Cl)nc1)c1ccc(-c2c3nc(c(-c4c(F)cccc4F)c4ccc([nH]4)c(-c4c(F)cccc4F)c4nc(c(-c5c(F)cccc5F)c5ccc2[nH]5)C=C4)C=C3)cc1
REMARK SMILES IDX 5 1 4 2 3 3 1 4 2 5 27 7 28 8 80 9 29 10 79 11 30 12 31 13
REMARK SMILES IDX 32 14 73 15 33 16 78 17 72 18 74 19 34 20 77 21 71 22 70 23
REMARK SMILES IDX 35 25 61 26 44 27 60 28 45 29 48 30 59 31 75 32 46 33 47 34
REMARK SMILES IDX 58 36 76 37 49 38 36 39 37 40 42 41 38 42 39 43 41 44 43 45
REMARK SMILES IDX 40 46 62 47 63 48 68 49 64 50 65 51 67 52 69 53 66 54 50 55
REMARK SMILES IDX 51 56 56 57 52 58 53 59 55 60 57 61 54 62 6 63 7 64 8 65
REMARK SMILES IDX 9 67 10 68 11 69 16 70 12 71 13 72 15 73 14 74 17 75 18 76
REMARK SMILES IDX 19 78 20 79 21 80 26 81 22 82 25 83 23 84 24 85
REMARK H PARENT 3 6 74 24 48 35 7 66 17 77
REMARK Flexibility Score: inf
ROOT
ATOM      1  C   UNL A   1      37.517  19.593  24.908  1.00  0.00     0.042 C 
ENDROOT
BRANCH   1   2
ATOM      2  C   UNL A   1      38.746  20.222  25.545  1.00  0.00     0.118 C 
BRANCH   2   3
ATOM      3  N   UNL A   1      39.869  19.298  25.645  1.00  0.00    -0.352 N 
ATOM      4  O   UNL A   1      41.996  18.608  25.876  1.00  0.00    -0.269 OA
ATOM      5  C   UNL A   1      41.174  19.503  26.030  1.00  0.00     0.251 C 
ATOM      6  H   UNL A   1      39.659  18.370  25.395  1.00  0.00     0.163 HD
BRANCH   5   7
ATOM      7  C   UNL A   1      41.601  20.802  26.598  1.00  0.00     0.039 A 
ATOM      8  C   UNL A   1      41.636  21.012  27.976  1.00  0.00     0.014 A 
ATOM      9  C   UNL A   1      42.003  21.824  25.730  1.00  0.00     0.014 A 
ATOM     10  C   UNL A   1      41.890  22.284  28.478  1.00  0.00     0.010 A 
ATOM     11  C   UNL A   1      42.362  23.074  26.242  1.00  0.00     0.010 A 
ATOM     12  C   UNL A   1      42.265  23.328  27.618  1.00  0.00    -0.014 A 
BRANCH  12  13
ATOM     13  C   UNL A   1      42.584  24.661  28.191  1.00  0.00     0.031 A 
ATOM     14  C   UNL A   1      43.999  25.049  28.520  1.00  0.00     0.074 A 
ATOM     15  C   UNL A   1      41.585  25.548  28.369  1.00  0.00     0.049 A 
ATOM     16  N   UNL A   1      44.454  26.184  28.990  1.00  0.00    -0.248 NA
ATOM     17  C   UNL A   1      45.040  24.032  28.301  1.00  0.00     0.031 C 
ATOM     18  C   UNL A   1      40.171  25.288  28.089  1.00  0.00     0.029 A 
ATOM     19  N   UNL A   1      41.606  26.850  28.797  1.00  0.00    -0.354 N 
ATOM     20  C   UNL A   1      45.824  26.015  29.137  1.00  0.00     0.074 A 
ATOM     21  C   UNL A   1      46.125  24.657  28.737  1.00  0.00     0.031 C 
ATOM     22  C   UNL A   1      39.471  26.412  28.291  1.00  0.00     0.029 A 
ATOM     23  C   UNL A   1      40.372  27.453  28.774  1.00  0.00     0.049 A 
ATOM     24  H   UNL A   1      42.426  27.309  29.091  1.00  0.00     0.167 HD
ATOM     25  C   UNL A   1      46.747  26.913  29.556  1.00  0.00     0.037 A 
ATOM     26  C   UNL A   1      40.000  28.701  29.110  1.00  0.00     0.037 A 
ATOM     27  C   UNL A   1      46.445  28.268  29.939  1.00  0.00     0.049 A 
ATOM     28  C   UNL A   1      41.036  29.671  29.592  1.00  0.00     0.074 A 
ATOM     29  C   UNL A   1      47.317  29.257  30.363  1.00  0.00     0.029 A 
ATOM     30  N   UNL A   1      45.176  28.827  29.944  1.00  0.00    -0.354 N 
ATOM     31  N   UNL A   1      42.328  29.497  29.722  1.00  0.00    -0.248 NA
ATOM     32  C   UNL A   1      40.565  31.006  29.981  1.00  0.00     0.031 C 
ATOM     33  C   UNL A   1      46.569  30.401  30.664  1.00  0.00     0.029 A 
ATOM     34  C   UNL A   1      45.238  30.140  30.379  1.00  0.00     0.049 A 
ATOM     35  H   UNL A   1      44.352  28.359  29.677  1.00  0.00     0.167 HD
ATOM     36  C   UNL A   1      42.829  30.703  30.192  1.00  0.00     0.074 A 
ATOM     37  C   UNL A   1      41.701  31.605  30.312  1.00  0.00     0.031 C 
ATOM     38  C   UNL A   1      44.109  31.029  30.495  1.00  0.00     0.037 A 
BRANCH  25  39
ATOM     39  C   UNL A   1      48.176  26.457  29.634  1.00  0.00     0.057 A 
ATOM     40  C   UNL A   1      48.670  25.849  30.796  1.00  0.00     0.134 A 
ATOM     41  C   UNL A   1      49.076  26.662  28.580  1.00  0.00     0.134 A 
ATOM     42  F   UNL A   1      47.864  25.630  31.845  1.00  0.00    -0.206 F 
ATOM     43  C   UNL A   1      50.007  25.467  30.909  1.00  0.00     0.040 A 
ATOM     44  C   UNL A   1      50.412  26.261  28.672  1.00  0.00     0.040 A 
ATOM     45  F   UNL A   1      48.666  27.227  27.435  1.00  0.00    -0.206 F 
ATOM     46  C   UNL A   1      50.882  25.668  29.842  1.00  0.00     0.006 A 
ENDBRANCH  25  39
BRANCH  26  47
ATOM     47  C   UNL A   1      38.576  29.092  28.971  1.00  0.00     0.057 A 
ATOM     48  C   UNL A   1      38.073  29.593  27.763  1.00  0.00     0.134 A 
ATOM     49  C   UNL A   1      37.705  29.043  30.064  1.00  0.00     0.134 A 
ATOM     50  F   UNL A   1      38.863  29.675  26.683  1.00  0.00    -0.206 F 
ATOM     51  C   UNL A   1      36.762  30.057  27.656  1.00  0.00     0.040 A 
ATOM     52  C   UNL A   1      36.385  29.482  29.964  1.00  0.00     0.040 A 
ATOM     53  F   UNL A   1      38.128  28.561  31.241  1.00  0.00    -0.206 F 
ATOM     54  C   UNL A   1      35.914  30.003  28.760  1.00  0.00     0.006 A 
ENDBRANCH  26  47
BRANCH  38  55
ATOM     55  C   UNL A   1      44.370  32.428  30.967  1.00  0.00     0.057 A 
ATOM     56  C   UNL A   1      44.675  33.443  30.050  1.00  0.00     0.134 A 
ATOM     57  C   UNL A   1      44.386  32.756  32.327  1.00  0.00     0.134 A 
ATOM     58  F   UNL A   1      44.685  33.190  28.732  1.00  0.00    -0.206 F 
ATOM     59  C   UNL A   1      44.996  34.733  30.471  1.00  0.00     0.040 A 
ATOM     60  C   UNL A   1      44.684  34.050  32.760  1.00  0.00     0.040 A 
ATOM     61  F   UNL A   1      44.092  31.831  33.253  1.00  0.00    -0.206 F 
ATOM     62  C   UNL A   1      44.999  35.040  31.831  1.00  0.00     0.006 A 
ENDBRANCH  38  55
ENDBRANCH  12  13
ENDBRANCH   5   7
ENDBRANCH   2   3
ENDBRANCH   1   2
BRANCH   1  63
ATOM     63  C   UNL A   1      36.277  20.473  24.950  1.00  0.00     0.118 C 
BRANCH  63  64
ATOM     64  N   UNL A   1      36.595  21.894  25.038  1.00  0.00    -0.352 N 
ATOM     65  C   UNL A   1      35.758  22.975  25.181  1.00  0.00     0.256 C 
ATOM     66  H   UNL A   1      37.554  22.112  24.987  1.00  0.00     0.163 HD
ATOM     67  O   UNL A   1      36.206  24.115  25.083  1.00  0.00    -0.269 OA
BRANCH  65  68
ATOM     68  C   UNL A   1      34.307  22.774  25.346  1.00  0.00     0.099 A 
ATOM     69  C   UNL A   1      33.833  22.173  26.516  1.00  0.00     0.138 A 
ATOM     70  C   UNL A   1      33.405  23.156  24.335  1.00  0.00     0.057 A 
ATOM     71  F   UNL A   1      34.661  21.916  27.539  1.00  0.00    -0.206 F 
ATOM     72  C   UNL A   1      32.506  21.784  26.633  1.00  0.00     0.040 A 
ATOM     73  C   UNL A   1      32.099  22.659  24.422  1.00  0.00     0.027 A 
ATOM     74  C   UNL A   1      31.647  21.985  25.562  1.00  0.00     0.005 A 
BRANCH  70  75
ATOM     75  N   UNL A   1      33.842  24.008  23.287  1.00  0.00    -0.321 N 
ATOM     76  C   UNL A   1      33.719  25.368  23.085  1.00  0.00     0.257 C 
ATOM     77  H   UNL A   1      34.324  23.540  22.567  1.00  0.00     0.170 HD
ATOM     78  O   UNL A   1      34.043  25.884  22.018  1.00  0.00    -0.269 OA
BRANCH  76  79
ATOM     79  C   UNL A   1      33.241  26.249  24.157  1.00  0.00     0.058 A 
ATOM     80  C   UNL A   1      34.096  26.762  25.137  1.00  0.00     0.018 A 
ATOM     81  C   UNL A   1      31.883  26.519  24.244  1.00  0.00     0.126 A 
ATOM     82  C   UNL A   1      33.543  27.437  26.222  1.00  0.00     0.042 A 
ATOM     83  N   UNL A   1      31.321  27.168  25.292  1.00  0.00    -0.244 NA
ATOM     84  C   UNL A   1      32.165  27.594  26.257  1.00  0.00     0.129 A 
ATOM     85  Cl  UNL A   1      31.397  28.309  27.613  1.00  0.00    -0.062 Cl
ENDBRANCH  76  79
ENDBRANCH  70  75
ENDBRANCH  65  68
ENDBRANCH  63  64
ENDBRANCH   1  63
TORSDOF 12
ENDMDL
MODEL 2
REMARK VINA RESULT:     -11.8      4.363      9.133
REMARK SMILES O=C(NCCCNC(=O)c1c(F)cccc1NC(=O)c1ccc(Cl)nc1)c1ccc(-c2c3nc(c(-c4c(F)cccc4F)c4ccc([nH]4)c(-c4c(F)cccc4F)c4nc(c(-c5c(F)cccc5F)c5ccc2[nH]5)C=C4)C=C3)cc1
REMARK SMILES IDX 5 1 4 2 3 3 1 4 2 5 27 7 28 8 80 9 29 10 79 11 30 12 31 13
REMARK SMILES IDX 32 14 73 15 33 16 78 17 72 18 74 19 34 20 77 21 71 22 70 23
REMARK SMILES IDX 35 25 61 26 44 27 60 28 45 29 48 30 59 31 75 32 46 33 47 34
REMARK SMILES IDX 58 36 76 37 49 38 36 39 37 40 42 41 38 42 39 43 41 44 43 45
REMARK SMILES IDX 40 46 62 47 63 48 68 49 64 50 65 51 67 52 69 53 66 54 50 55
REMARK SMILES IDX 51 56 56 57 52 58 53 59 55 60 57 61 54 62 6 63 7 64 8 65
REMARK SMILES IDX 9 67 10 68 11 69 16 70 12 71 13 72 15 73 14 74 17 75 18 76
REMARK SMILES IDX 19 78 20 79 21 80 26 81 22 82 25 83 23 84 24 85
REMARK H PARENT 3 6 74 24 48 35 7 66 17 77
REMARK Flexibility Score: inf
ROOT
ATOM      1  C   UNL A   1      30.820  31.364  25.840  1.00  0.00     0.042 C 
ENDROOT
BRANCH   1   2
ATOM      2  C   UNL A   1      32.101  31.760  26.556  1.00  0.00     0.118 C 
BRANCH   2   3
ATOM      3  N   UNL A   1      32.103  33.151  26.989  1.00  0.00    -0.352 N 
ATOM      4  O   UNL A   1      32.641  34.963  28.207  1.00  0.00    -0.269 OA
ATOM      5  C   UNL A   1      32.929  33.824  27.859  1.00  0.00     0.251 C 
ATOM      6  H   UNL A   1      31.393  33.705  26.590  1.00  0.00     0.163 HD
BRANCH   5   7
ATOM      7  C   UNL A   1      34.144  33.177  28.403  1.00  0.00     0.039 A 
ATOM      8  C   UNL A   1      34.092  31.908  28.979  1.00  0.00     0.014 A 
ATOM      9  C   UNL A   1      35.370  33.846  28.308  1.00  0.00     0.014 A 
ATOM     10  C   UNL A   1      35.212  31.391  29.620  1.00  0.00     0.010 A 
ATOM     11  C   UNL A   1      36.522  33.275  28.860  1.00  0.00     0.010 A 
ATOM     12  C   UNL A   1      36.443  32.064  29.560  1.00  0.00    -0.014 A 
BRANCH  12  13
ATOM     13  C   UNL A   1      37.634  31.456  30.209  1.00  0.00     0.031 A 
ATOM     14  C   UNL A   1      37.956  31.727  31.652  1.00  0.00     0.074 A 
ATOM     15  C   UNL A   1      38.404  30.611  29.495  1.00  0.00     0.049 A 
ATOM     16  N   UNL A   1      38.934  31.248  32.381  1.00  0.00    -0.248 NA
ATOM     17  C   UNL A   1      37.075  32.659  32.372  1.00  0.00     0.031 C 
ATOM     18  C   UNL A   1      38.194  30.272  28.086  1.00  0.00     0.029 A 
ATOM     19  N   UNL A   1      39.493  29.864  29.859  1.00  0.00    -0.354 N 
ATOM     20  C   UNL A   1      38.795  31.829  33.635  1.00  0.00     0.074 A 
ATOM     21  C   UNL A   1      37.659  32.721  33.561  1.00  0.00     0.031 C 
ATOM     22  C   UNL A   1      39.082  29.338  27.723  1.00  0.00     0.029 A 
ATOM     23  C   UNL A   1      39.964  29.058  28.851  1.00  0.00     0.049 A 
ATOM     24  H   UNL A   1      39.898  29.900  30.755  1.00  0.00     0.167 HD
ATOM     25  C   UNL A   1      39.541  31.627  34.747  1.00  0.00     0.037 A 
ATOM     26  C   UNL A   1      40.995  28.194  28.830  1.00  0.00     0.037 A 
ATOM     27  C   UNL A   1      40.663  30.727  34.820  1.00  0.00     0.049 A 
ATOM     28  C   UNL A   1      41.820  28.004  30.067  1.00  0.00     0.074 A 
ATOM     29  C   UNL A   1      41.471  30.445  35.909  1.00  0.00     0.029 A 
ATOM     30  N   UNL A   1      41.136  29.962  33.765  1.00  0.00    -0.354 N 
ATOM     31  N   UNL A   1      41.673  28.558  31.246  1.00  0.00    -0.248 NA
ATOM     32  C   UNL A   1      42.954  27.077  29.972  1.00  0.00     0.031 C 
ATOM     33  C   UNL A   1      42.457  29.541  35.501  1.00  0.00     0.029 A 
ATOM     34  C   UNL A   1      42.233  29.220  34.171  1.00  0.00     0.049 A 
ATOM     35  H   UNL A   1      40.748  29.947  32.860  1.00  0.00     0.167 HD
ATOM     36  C   UNL A   1      42.686  28.037  32.039  1.00  0.00     0.074 A 
ATOM     37  C   UNL A   1      43.433  27.112  31.209  1.00  0.00     0.031 C 
ATOM     38  C   UNL A   1      42.969  28.304  33.337  1.00  0.00     0.037 A 
BRANCH  25  39
ATOM     39  C   UNL A   1      39.176  32.404  35.979  1.00  0.00     0.057 A 
ATOM     40  C   UNL A   1      38.271  31.881  36.913  1.00  0.00     0.134 A 
ATOM     41  C   UNL A   1      39.678  33.690  36.219  1.00  0.00     0.134 A 
ATOM     42  F   UNL A   1      37.745  30.659  36.741  1.00  0.00    -0.206 F 
ATOM     43  C   UNL A   1      37.877  32.609  38.036  1.00  0.00     0.040 A 
ATOM     44  C   UNL A   1      39.310  34.419  37.353  1.00  0.00     0.040 A 
ATOM     45  F   UNL A   1      40.557  34.245  35.371  1.00  0.00    -0.206 F 
ATOM     46  C   UNL A   1      38.401  33.881  38.261  1.00  0.00     0.006 A 
ENDBRANCH  25  39
BRANCH  26  47
ATOM     47  C   UNL A   1      41.273  27.432  27.588  1.00  0.00     0.057 A 
ATOM     48  C   UNL A   1      40.742  26.153  27.384  1.00  0.00     0.134 A 
ATOM     49  C   UNL A   1      42.136  27.939  26.610  1.00  0.00     0.134 A 
ATOM     50  F   UNL A   1      39.918  25.609  28.291  1.00  0.00    -0.206 F 
ATOM     51  C   UNL A   1      41.082  25.391  26.265  1.00  0.00     0.040 A 
ATOM     52  C   UNL A   1      42.466  27.197  25.476  1.00  0.00     0.040 A 
ATOM     53  F   UNL A   1      42.664  29.163  26.746  1.00  0.00    -0.206 F 
ATOM     54  C   UNL A   1      41.947  25.914  25.307  1.00  0.00     0.006 A 
ENDBRANCH  26  47
BRANCH  38  55
ATOM     55  C   UNL A   1      44.121  27.571  33.955  1.00  0.00     0.057 A 
ATOM     56  C   UNL A   1      45.415  28.106  33.904  1.00  0.00     0.134 A 
ATOM     57  C   UNL A   1      43.964  26.309  34.540  1.00  0.00     0.134 A 
ATOM     58  F   UNL A   1      45.634  29.307  33.347  1.00  0.00    -0.206 F 
ATOM     59  C   UNL A   1      46.513  27.406  34.404  1.00  0.00     0.040 A 
ATOM     60  C   UNL A   1      45.052  25.609  35.065  1.00  0.00     0.040 A 
ATOM     61  F   UNL A   1      42.748  25.748  34.630  1.00  0.00    -0.206 F 
ATOM     62  C   UNL A   1      46.333  26.154  34.990  1.00  0.00     0.006 A 
ENDBRANCH  38  55
ENDBRANCH  12  13
ENDBRANCH   5   7
ENDBRANCH   2   3
ENDBRANCH   1   2
BRANCH   1  63
ATOM     63  C   UNL A   1      30.979  30.188  24.887  1.00  0.00     0.118 C 
BRANCH  63  64
ATOM     64  N   UNL A   1      30.494  30.481  23.543  1.00  0.00    -0.352 N 
ATOM     65  C   UNL A   1      29.928  29.644  22.611  1.00  0.00     0.256 C 
ATOM     66  H   UNL A   1      30.587  31.420  23.260  1.00  0.00     0.163 HD
ATOM     67  O   UNL A   1      29.721  30.048  21.470  1.00  0.00    -0.269 OA
BRANCH  65  68
ATOM     68  C   UNL A   1      29.665  28.233  22.943  1.00  0.00     0.099 A 
ATOM     69  C   UNL A   1      28.398  27.868  23.409  1.00  0.00     0.138 A 
ATOM     70  C   UNL A   1      30.676  27.261  22.820  1.00  0.00     0.057 A 
ATOM     71  F   UNL A   1      27.389  28.752  23.415  1.00  0.00    -0.206 F 
ATOM     72  C   UNL A   1      28.161  26.600  23.920  1.00  0.00     0.040 A 
ATOM     73  C   UNL A   1      30.453  26.025  23.439  1.00  0.00     0.027 A 
ATOM     74  C   UNL A   1      29.206  25.690  23.978  1.00  0.00     0.005 A 
BRANCH  70  75
ATOM     75  N   UNL A   1      31.858  27.562  22.094  1.00  0.00    -0.321 N 
ATOM     76  C   UNL A   1      33.187  27.275  22.327  1.00  0.00     0.257 C 
ATOM     77  H   UNL A   1      31.699  28.072  21.267  1.00  0.00     0.170 HD
ATOM     78  O   UNL A   1      34.076  27.769  21.636  1.00  0.00    -0.269 OA
BRANCH  76  79
ATOM     79  C   UNL A   1      33.582  26.330  23.379  1.00  0.00     0.058 A 
ATOM     80  C   UNL A   1      33.719  26.717  24.715  1.00  0.00     0.018 A 
ATOM     81  C   UNL A   1      33.905  25.030  23.020  1.00  0.00     0.126 A 
ATOM     82  C   UNL A   1      34.272  25.815  25.620  1.00  0.00     0.042 A 
ATOM     83  N   UNL A   1      34.450  24.136  23.881  1.00  0.00    -0.244 NA
ATOM     84  C   UNL A   1      34.632  24.560  25.151  1.00  0.00     0.129 A 
ATOM     85  Cl  UNL A   1      35.426  23.436  26.173  1.00  0.00    -0.062 Cl
ENDBRANCH  76  79
ENDBRANCH  70  75
ENDBRANCH  65  68
ENDBRANCH  63  64
ENDBRANCH   1  63
TORSDOF 12
ENDMDL
MODEL 3
REMARK VINA RESULT:     -11.7      4.326      9.217
REMARK SMILES O=C(NCCCNC(=O)c1c(F)cccc1NC(=O)c1ccc(Cl)nc1)c1ccc(-c2c3nc(c(-c4c(F)cccc4F)c4ccc([nH]4)c(-c4c(F)cccc4F)c4nc(c(-c5c(F)cccc5F)c5ccc2[nH]5)C=C4)C=C3)cc1
REMARK SMILES IDX 5 1 4 2 3 3 1 4 2 5 27 7 28 8 80 9 29 10 79 11 30 12 31 13
REMARK SMILES IDX 32 14 73 15 33 16 78 17 72 18 74 19 34 20 77 21 71 22 70 23
REMARK SMILES IDX 35 25 61 26 44 27 60 28 45 29 48 30 59 31 75 32 46 33 47 34
REMARK SMILES IDX 58 36 76 37 49 38 36 39 37 40 42 41 38 42 39 43 41 44 43 45
REMARK SMILES IDX 40 46 62 47 63 48 68 49 64 50 65 51 67 52 69 53 66 54 50 55
REMARK SMILES IDX 51 56 56 57 52 58 53 59 55 60 57 61 54 62 6 63 7 64 8 65
REMARK SMILES IDX 9 67 10 68 11 69 16 70 12 71 13 72 15 73 14 74 17 75 18 76
REMARK SMILES IDX 19 78 20 79 21 80 26 81 22 82 25 83 23 84 24 85
REMARK H PARENT 3 6 74 24 48 35 7 66 17 77
REMARK Flexibility Score: inf
ROOT
ATOM      1  C   UNL A   1      31.228  31.843  26.510  1.00  0.00     0.042 C 
ENDROOT
BRANCH   1   2
ATOM      2  C   UNL A   1      32.545  32.461  26.948  1.00  0.00     0.118 C 
BRANCH   2   3
ATOM      3  N   UNL A   1      32.395  33.819  27.455  1.00  0.00    -0.352 N 
ATOM      4  O   UNL A   1      32.655  35.582  28.826  1.00  0.00    -0.269 OA
ATOM      5  C   UNL A   1      33.066  34.490  28.451  1.00  0.00     0.251 C 
ATOM      6  H   UNL A   1      31.694  34.347  27.009  1.00  0.00     0.163 HD
BRANCH   5   7
ATOM      7  C   UNL A   1      34.258  33.894  29.095  1.00  0.00     0.039 A 
ATOM      8  C   UNL A   1      35.544  34.332  28.783  1.00  0.00     0.014 A 
ATOM      9  C   UNL A   1      34.081  32.891  30.056  1.00  0.00     0.014 A 
ATOM     10  C   UNL A   1      36.649  33.653  29.284  1.00  0.00     0.010 A 
ATOM     11  C   UNL A   1      35.194  32.280  30.641  1.00  0.00     0.010 A 
ATOM     12  C   UNL A   1      36.488  32.624  30.226  1.00  0.00    -0.014 A 
BRANCH  12  13
ATOM     13  C   UNL A   1      37.692  31.955  30.783  1.00  0.00     0.031 A 
ATOM     14  C   UNL A   1      38.160  32.238  32.184  1.00  0.00     0.074 A 
ATOM     15  C   UNL A   1      38.338  31.045  30.029  1.00  0.00     0.049 A 
ATOM     16  N   UNL A   1      39.168  31.713  32.836  1.00  0.00    -0.248 NA
ATOM     17  C   UNL A   1      37.410  33.243  32.952  1.00  0.00     0.031 C 
ATOM     18  C   UNL A   1      37.979  30.686  28.655  1.00  0.00     0.029 A 
ATOM     19  N   UNL A   1      39.406  30.236  30.316  1.00  0.00    -0.354 N 
ATOM     20  C   UNL A   1      39.182  32.332  34.080  1.00  0.00     0.074 A 
ATOM     21  C   UNL A   1      38.102  33.296  34.081  1.00  0.00     0.031 C 
ATOM     22  C   UNL A   1      38.770  29.688  28.242  1.00  0.00     0.029 A 
ATOM     23  C   UNL A   1      39.732  29.377  29.295  1.00  0.00     0.049 A 
ATOM     24  H   UNL A   1      39.893  30.267  31.172  1.00  0.00     0.167 HD
ATOM     25  C   UNL A   1      40.011  32.108  35.127  1.00  0.00     0.037 A 
ATOM     26  C   UNL A   1      40.699  28.447  29.207  1.00  0.00     0.037 A 
ATOM     27  C   UNL A   1      41.076  31.138  35.126  1.00  0.00     0.049 A 
ATOM     28  C   UNL A   1      41.620  28.232  30.370  1.00  0.00     0.074 A 
ATOM     29  C   UNL A   1      41.960  30.830  36.146  1.00  0.00     0.029 A 
ATOM     30  N   UNL A   1      41.401  30.319  34.055  1.00  0.00    -0.354 N 
ATOM     31  N   UNL A   1      41.617  28.823  31.541  1.00  0.00    -0.248 NA
ATOM     32  C   UNL A   1      42.680  27.231  30.203  1.00  0.00     0.031 C 
ATOM     33  C   UNL A   1      42.845  29.853  35.678  1.00  0.00     0.029 A 
ATOM     34  C   UNL A   1      42.481  29.517  34.384  1.00  0.00     0.049 A 
ATOM     35  H   UNL A   1      40.933  30.308  33.190  1.00  0.00     0.167 HD
ATOM     36  C   UNL A   1      42.663  28.255  32.255  1.00  0.00     0.074 A 
ATOM     37  C   UNL A   1      43.270  27.264  31.390  1.00  0.00     0.031 C 
ATOM     38  C   UNL A   1      43.078  28.534  33.514  1.00  0.00     0.037 A 
BRANCH  25  39
ATOM     39  C   UNL A   1      39.809  32.937  36.363  1.00  0.00     0.057 A 
ATOM     40  C   UNL A   1      38.871  32.558  37.332  1.00  0.00     0.134 A 
ATOM     41  C   UNL A   1      40.505  34.135  36.572  1.00  0.00     0.134 A 
ATOM     42  F   UNL A   1      38.164  31.427  37.191  1.00  0.00    -0.206 F 
ATOM     43  C   UNL A   1      38.630  33.342  38.461  1.00  0.00     0.040 A 
ATOM     44  C   UNL A   1      40.290  34.915  37.710  1.00  0.00     0.040 A 
ATOM     45  F   UNL A   1      41.427  34.549  35.689  1.00  0.00    -0.206 F 
ATOM     46  C   UNL A   1      39.345  34.523  38.655  1.00  0.00     0.006 A 
ENDBRANCH  25  39
BRANCH  26  47
ATOM     47  C   UNL A   1      40.814  27.639  27.969  1.00  0.00     0.057 A 
ATOM     48  C   UNL A   1      40.185  26.394  27.850  1.00  0.00     0.134 A 
ATOM     49  C   UNL A   1      41.616  28.064  26.904  1.00  0.00     0.134 A 
ATOM     50  F   UNL A   1      39.413  25.928  28.842  1.00  0.00    -0.206 F 
ATOM     51  C   UNL A   1      40.372  25.585  26.728  1.00  0.00     0.040 A 
ATOM     52  C   UNL A   1      41.794  27.275  25.767  1.00  0.00     0.040 A 
ATOM     53  F   UNL A   1      42.233  29.253  26.957  1.00  0.00    -0.206 F 
ATOM     54  C   UNL A   1      41.180  26.026  25.682  1.00  0.00     0.006 A 
ENDBRANCH  26  47
BRANCH  38  55
ATOM     55  C   UNL A   1      44.234  27.741  34.049  1.00  0.00     0.057 A 
ATOM     56  C   UNL A   1      44.019  26.519  34.700  1.00  0.00     0.134 A 
ATOM     57  C   UNL A   1      45.548  28.217  33.980  1.00  0.00     0.134 A 
ATOM     58  F   UNL A   1      42.780  26.014  34.807  1.00  0.00    -0.206 F 
ATOM     59  C   UNL A   1      45.070  25.804  35.272  1.00  0.00     0.040 A 
ATOM     60  C   UNL A   1      46.612  27.498  34.530  1.00  0.00     0.040 A 
ATOM     61  F   UNL A   1      45.821  29.376  33.360  1.00  0.00    -0.206 F 
ATOM     62  C   UNL A   1      46.372  26.292  35.185  1.00  0.00     0.006 A 
ENDBRANCH  38  55
ENDBRANCH  12  13
ENDBRANCH   5   7
ENDBRANCH   2   3
ENDBRANCH   1   2
BRANCH   1  63
ATOM     63  C   UNL A   1      31.376  30.507  25.796  1.00  0.00     0.118 C 
BRANCH  63  64
ATOM     64  N   UNL A   1      32.323  29.616  26.456  1.00  0.00    -0.352 N 
ATOM     65  C   UNL A   1      32.770  28.372  26.077  1.00  0.00     0.256 C 
ATOM     66  H   UNL A   1      32.698  29.956  27.300  1.00  0.00     0.163 HD
ATOM     67  O   UNL A   1      33.458  27.707  26.847  1.00  0.00    -0.269 OA
BRANCH  65  68
ATOM     68  C   UNL A   1      32.341  27.788  24.794  1.00  0.00     0.099 A 
ATOM     69  C   UNL A   1      32.745  28.395  23.601  1.00  0.00     0.138 A 
ATOM     70  C   UNL A   1      31.515  26.649  24.759  1.00  0.00     0.057 A 
ATOM     71  F   UNL A   1      33.630  29.403  23.610  1.00  0.00    -0.206 F 
ATOM     72  C   UNL A   1      32.209  28.005  22.382  1.00  0.00     0.040 A 
ATOM     73  C   UNL A   1      30.900  26.341  23.539  1.00  0.00     0.027 A 
ATOM     74  C   UNL A   1      31.248  27.005  22.357  1.00  0.00     0.005 A 
BRANCH  70  75
ATOM     75  N   UNL A   1      31.335  25.872  25.935  1.00  0.00    -0.321 N 
ATOM     76  C   UNL A   1      31.924  24.705  26.373  1.00  0.00     0.257 C 
ATOM     77  H   UNL A   1      30.662  26.238  26.554  1.00  0.00     0.170 HD
ATOM     78  O   UNL A   1      31.504  24.115  27.366  1.00  0.00    -0.269 OA
BRANCH  76  79
ATOM     79  C   UNL A   1      33.103  24.154  25.696  1.00  0.00     0.058 A 
ATOM     80  C   UNL A   1      34.405  24.522  26.048  1.00  0.00     0.018 A 
ATOM     81  C   UNL A   1      32.916  23.299  24.619  1.00  0.00     0.126 A 
ATOM     82  C   UNL A   1      35.461  24.102  25.244  1.00  0.00     0.042 A 
ATOM     83  N   UNL A   1      33.926  22.882  23.819  1.00  0.00    -0.244 NA
ATOM     84  C   UNL A   1      35.167  23.308  24.145  1.00  0.00     0.129 A 
ATOM     85  Cl  UNL A   1      36.394  22.847  23.041  1.00  0.00    -0.062 Cl
ENDBRANCH  76  79
ENDBRANCH  70  75
ENDBRANCH  65  68
ENDBRANCH  63  64
ENDBRANCH   1  63
TORSDOF 12
ENDMDL
