MODEL 1
REMARK VINA RESULT:     -10.2      0.000      0.000
REMARK SMILES C#CCN(CC(=O)NCCCNC(=O)c1ccc(-c2c3nc(c(-c4c(F)cccc4F)c4ccc([nH]4)c(-c4c(F)cccc4F)c4nc(c(-c5c(F)cccc5F)c5ccc2[nH]5)C=C4)C=C3)cc1)C(=O)NCC[C@@H]1CCCO1
REMARK SMILES IDX 6 1 7 2 8 3 5 5 4 6 3 7 2 8 1 9 69 10 70 11 71 12 72 14
REMARK SMILES IDX 73 15 74 16 75 17 78 18 76 19 77 20 9 21 10 22 11 23 12 24
REMARK SMILES IDX 13 25 14 27 15 28 16 29 68 30 17 31 67 32 18 33 19 34 20 35
REMARK SMILES IDX 61 36 21 37 66 38 60 39 62 40 22 41 65 42 59 43 58 44 23 46
REMARK SMILES IDX 49 47 32 48 48 49 33 50 36 51 47 52 63 53 34 54 35 55 46 57
REMARK SMILES IDX 64 58 37 59 24 60 25 61 30 62 26 63 27 64 29 65 31 66 28 67
REMARK SMILES IDX 50 68 51 69 56 70 52 71 53 72 55 73 57 74 54 75 38 76 39 77
REMARK SMILES IDX 44 78 40 79 41 80 43 81 45 82 42 83
REMARK H PARENT 8 4 71 13 12 26 62 45 36 56
REMARK Flexibility Score: inf
ROOT
ATOM      1  C   UNL A   1      37.276  23.161  25.670  1.00  0.00     0.239 C 
ATOM      2  O   UNL A   1      38.047  24.000  26.145  1.00  0.00    -0.273 OA
ATOM      3  N   UNL A   1      37.832  22.170  24.913  1.00  0.00    -0.354 N 
ATOM      4  H   UNL A   1      38.734  22.362  24.570  1.00  0.00     0.163 HD
ENDROOT
BRANCH   1   5
ATOM      5  C   UNL A   1      35.786  23.155  26.052  1.00  0.00     0.222 C 
BRANCH   5   6
ATOM      6  N   UNL A   1      34.890  23.691  25.032  1.00  0.00    -0.304 N 
BRANCH   6   7
ATOM      7  C   UNL A   1      34.349  25.018  25.287  1.00  0.00     0.211 C 
BRANCH   7   8
ATOM      8  C   UNL A   1      32.962  24.996  25.908  1.00  0.00    -0.085 C 
ATOM      9  C   UNL A   1      31.772  24.977  26.441  1.00  0.00     0.006 C 
ENDBRANCH   7   8
ENDBRANCH   6   7
BRANCH   6  10
ATOM     10  C   UNL A   1      34.503  23.096  23.865  1.00  0.00     0.318 C 
ATOM     11  O   UNL A   1      34.981  23.444  22.780  1.00  0.00    -0.249 OA
ATOM     12  N   UNL A   1      33.581  22.126  23.779  1.00  0.00    -0.338 N 
ATOM     13  H   UNL A   1      33.406  21.892  22.840  1.00  0.00     0.165 HD
BRANCH  12  14
ATOM     14  C   UNL A   1      32.766  21.321  24.674  1.00  0.00     0.120 C 
BRANCH  14  15
ATOM     15  C   UNL A   1      33.598  20.260  25.395  1.00  0.00     0.053 C 
BRANCH  15  16
ATOM     16  C   UNL A   1      33.213  18.832  25.006  1.00  0.00     0.120 C 
ATOM     17  C   UNL A   1      34.356  18.084  24.328  1.00  0.00     0.034 C 
ATOM     18  O   UNL A   1      32.122  18.861  24.067  1.00  0.00    -0.378 OA
ATOM     19  C   UNL A   1      33.635  17.231  23.312  1.00  0.00     0.031 C 
ATOM     20  C   UNL A   1      32.505  18.139  22.892  1.00  0.00     0.160 C 
ENDBRANCH  15  16
ENDBRANCH  14  15
ENDBRANCH  12  14
ENDBRANCH   6  10
ENDBRANCH   5   6
ENDBRANCH   1   5
BRANCH   3  21
ATOM     21  C   UNL A   1      37.290  20.880  24.541  1.00  0.00     0.117 C 
BRANCH  21  22
ATOM     22  C   UNL A   1      38.215  19.712  24.867  1.00  0.00     0.042 C 
BRANCH  22  23
ATOM     23  C   UNL A   1      39.196  19.980  26.003  1.00  0.00     0.118 C 
BRANCH  23  24
ATOM     24  N   UNL A   1      40.389  19.147  25.926  1.00  0.00    -0.352 N 
ATOM     25  C   UNL A   1      41.715  19.464  26.052  1.00  0.00     0.251 C 
ATOM     26  H   UNL A   1      40.212  18.194  25.753  1.00  0.00     0.163 HD
ATOM     27  O   UNL A   1      42.564  18.627  25.733  1.00  0.00    -0.269 OA
BRANCH  25  28
ATOM     28  C   UNL A   1      42.150  20.784  26.556  1.00  0.00     0.039 A 
ATOM     29  C   UNL A   1      42.640  21.724  25.643  1.00  0.00     0.014 A 
ATOM     30  C   UNL A   1      42.140  21.081  27.921  1.00  0.00     0.014 A 
ATOM     31  C   UNL A   1      43.058  22.980  26.092  1.00  0.00     0.010 A 
ATOM     32  C   UNL A   1      42.486  22.359  28.358  1.00  0.00     0.010 A 
ATOM     33  C   UNL A   1      42.953  23.319  27.449  1.00  0.00    -0.014 A 
BRANCH  33  34
ATOM     34  C   UNL A   1      43.325  24.671  27.938  1.00  0.00     0.031 A 
ATOM     35  C   UNL A   1      42.261  25.695  28.224  1.00  0.00     0.074 A 
ATOM     36  C   UNL A   1      44.626  24.999  28.058  1.00  0.00     0.049 A 
ATOM     37  N   UNL A   1      42.392  26.949  28.575  1.00  0.00    -0.248 NA
ATOM     38  C   UNL A   1      40.863  25.259  28.069  1.00  0.00     0.031 C 
ATOM     39  C   UNL A   1      45.752  24.112  27.766  1.00  0.00     0.029 A 
ATOM     40  N   UNL A   1      45.220  26.175  28.442  1.00  0.00    -0.354 N 
ATOM     41  C   UNL A   1      41.101  27.455  28.664  1.00  0.00     0.074 A 
ATOM     42  C   UNL A   1      40.203  26.386  28.285  1.00  0.00     0.031 C 
ATOM     43  C   UNL A   1      46.901  24.768  27.998  1.00  0.00     0.029 A 
ATOM     44  C   UNL A   1      46.592  26.131  28.415  1.00  0.00     0.049 A 
ATOM     45  H   UNL A   1      44.710  26.974  28.709  1.00  0.00     0.167 HD
ATOM     46  C   UNL A   1      40.701  28.692  29.045  1.00  0.00     0.037 A 
ATOM     47  C   UNL A   1      47.501  27.087  28.687  1.00  0.00     0.037 A 
ATOM     48  C   UNL A   1      41.597  29.745  29.447  1.00  0.00     0.049 A 
ATOM     49  C   UNL A   1      47.031  28.451  29.109  1.00  0.00     0.074 A 
ATOM     50  C   UNL A   1      41.285  31.011  29.912  1.00  0.00     0.029 A 
ATOM     51  N   UNL A   1      42.980  29.653  29.431  1.00  0.00    -0.354 N 
ATOM     52  N   UNL A   1      45.806  28.895  29.252  1.00  0.00    -0.248 NA
ATOM     53  C   UNL A   1      48.070  29.445  29.411  1.00  0.00     0.031 C 
ATOM     54  C   UNL A   1      42.481  31.701  30.137  1.00  0.00     0.029 A 
ATOM     55  C   UNL A   1      43.537  30.848  29.858  1.00  0.00     0.049 A 
ATOM     56  H   UNL A   1      43.491  28.858  29.157  1.00  0.00     0.167 HD
ATOM     57  C   UNL A   1      45.926  30.208  29.686  1.00  0.00     0.074 A 
ATOM     58  C   UNL A   1      47.344  30.484  29.796  1.00  0.00     0.031 C 
ATOM     59  C   UNL A   1      44.950  31.105  29.969  1.00  0.00     0.037 A 
BRANCH  46  60
ATOM     60  C   UNL A   1      39.226  28.972  29.048  1.00  0.00     0.057 A 
ATOM     61  C   UNL A   1      38.451  28.838  30.208  1.00  0.00     0.134 A 
ATOM     62  C   UNL A   1      38.579  29.418  27.889  1.00  0.00     0.134 A 
ATOM     63  F   UNL A   1      39.007  28.406  31.350  1.00  0.00    -0.206 F 
ATOM     64  C   UNL A   1      37.081  29.110  30.208  1.00  0.00     0.040 A 
ATOM     65  C   UNL A   1      37.216  29.718  27.882  1.00  0.00     0.040 A 
ATOM     66  F   UNL A   1      39.262  29.576  26.745  1.00  0.00    -0.206 F 
ATOM     67  C   UNL A   1      36.462  29.559  29.043  1.00  0.00     0.006 A 
ENDBRANCH  46  60
BRANCH  47  68
ATOM     68  C   UNL A   1      48.951  26.781  28.589  1.00  0.00     0.057 A 
ATOM     69  C   UNL A   1      49.637  26.921  27.378  1.00  0.00     0.134 A 
ATOM     70  C   UNL A   1      49.683  26.341  29.698  1.00  0.00     0.134 A 
ATOM     71  F   UNL A   1      48.985  27.323  26.277  1.00  0.00    -0.206 F 
ATOM     72  C   UNL A   1      50.995  26.617  27.266  1.00  0.00     0.040 A 
ATOM     73  C   UNL A   1      51.046  26.056  29.607  1.00  0.00     0.040 A 
ATOM     74  F   UNL A   1      49.085  26.194  30.890  1.00  0.00    -0.206 F 
ATOM     75  C   UNL A   1      51.703  26.187  28.386  1.00  0.00     0.006 A 
ENDBRANCH  47  68
BRANCH  59  76
ATOM     76  C   UNL A   1      45.381  32.456  30.458  1.00  0.00     0.057 A 
ATOM     77  C   UNL A   1      45.595  32.718  31.817  1.00  0.00     0.134 A 
ATOM     78  C   UNL A   1      45.622  33.497  29.552  1.00  0.00     0.134 A 
ATOM     79  F   UNL A   1      45.369  31.768  32.737  1.00  0.00    -0.206 F 
ATOM     80  C   UNL A   1      46.012  33.975  32.260  1.00  0.00     0.040 A 
ATOM     81  C   UNL A   1      46.063  34.749  29.980  1.00  0.00     0.040 A 
ATOM     82  F   UNL A   1      45.444  33.309  28.235  1.00  0.00    -0.206 F 
ATOM     83  C   UNL A   1      46.254  34.992  31.338  1.00  0.00     0.006 A 
ENDBRANCH  59  76
ENDBRANCH  33  34
ENDBRANCH  25  28
ENDBRANCH  23  24
ENDBRANCH  22  23
ENDBRANCH  21  22
ENDBRANCH   3  21
TORSDOF 17
ENDMDL
MODEL 2
REMARK VINA RESULT:     -10.1      5.524     10.310
REMARK SMILES C#CCN(CC(=O)NCCCNC(=O)c1ccc(-c2c3nc(c(-c4c(F)cccc4F)c4ccc([nH]4)c(-c4c(F)cccc4F)c4nc(c(-c5c(F)cccc5F)c5ccc2[nH]5)C=C4)C=C3)cc1)C(=O)NCC[C@@H]1CCCO1
REMARK SMILES IDX 6 1 7 2 8 3 5 5 4 6 3 7 2 8 1 9 69 10 70 11 71 12 72 14
REMARK SMILES IDX 73 15 74 16 75 17 78 18 76 19 77 20 9 21 10 22 11 23 12 24
REMARK SMILES IDX 13 25 14 27 15 28 16 29 68 30 17 31 67 32 18 33 19 34 20 35
REMARK SMILES IDX 61 36 21 37 66 38 60 39 62 40 22 41 65 42 59 43 58 44 23 46
REMARK SMILES IDX 49 47 32 48 48 49 33 50 36 51 47 52 63 53 34 54 35 55 46 57
REMARK SMILES IDX 64 58 37 59 24 60 25 61 30 62 26 63 27 64 29 65 31 66 28 67
REMARK SMILES IDX 50 68 51 69 56 70 52 71 53 72 55 73 57 74 54 75 38 76 39 77
REMARK SMILES IDX 44 78 40 79 41 80 43 81 45 82 42 83
REMARK H PARENT 8 4 71 13 12 26 62 45 36 56
REMARK Flexibility Score: inf
ROOT
ATOM      1  C   UNL A   1      33.061  29.033  24.551  1.00  0.00     0.239 C 
ATOM      2  O   UNL A   1      33.432  28.968  23.375  1.00  0.00    -0.273 OA
ATOM      3  N   UNL A   1      32.277  30.098  24.893  1.00  0.00    -0.354 N 
ATOM      4  H   UNL A   1      32.313  30.860  24.272  1.00  0.00     0.163 HD
ENDROOT
BRANCH   1   5
ATOM      5  C   UNL A   1      33.343  27.882  25.531  1.00  0.00     0.222 C 
BRANCH   5   6
ATOM      6  N   UNL A   1      32.515  26.695  25.337  1.00  0.00    -0.304 N 
BRANCH   6   7
ATOM      7  C   UNL A   1      33.211  25.492  24.903  1.00  0.00     0.211 C 
BRANCH   7   8
ATOM      8  C   UNL A   1      33.139  25.263  23.402  1.00  0.00    -0.085 C 
ATOM      9  C   UNL A   1      33.078  25.066  22.114  1.00  0.00     0.006 C 
ENDBRANCH   7   8
ENDBRANCH   6   7
BRANCH   6  10
ATOM     10  C   UNL A   1      31.167  26.579  25.520  1.00  0.00     0.318 C 
ATOM     11  O   UNL A   1      30.699  26.155  26.582  1.00  0.00    -0.249 OA
ATOM     12  N   UNL A   1      30.248  26.880  24.591  1.00  0.00    -0.338 N 
ATOM     13  H   UNL A   1      29.344  26.657  24.907  1.00  0.00     0.165 HD
BRANCH  12  14
ATOM     14  C   UNL A   1      30.204  27.443  23.251  1.00  0.00     0.120 C 
BRANCH  14  15
ATOM     15  C   UNL A   1      29.044  28.427  23.089  1.00  0.00     0.053 C 
BRANCH  15  16
ATOM     16  C   UNL A   1      29.498  29.822  22.661  1.00  0.00     0.120 C 
ATOM     17  C   UNL A   1      28.860  30.926  23.497  1.00  0.00     0.034 C 
ATOM     18  O   UNL A   1      29.111  30.061  21.295  1.00  0.00    -0.378 OA
ATOM     19  C   UNL A   1      28.668  32.034  22.490  1.00  0.00     0.031 C 
ATOM     20  C   UNL A   1      28.331  31.260  21.240  1.00  0.00     0.160 C 
ENDBRANCH  15  16
ENDBRANCH  14  15
ENDBRANCH  12  14
ENDBRANCH   6  10
ENDBRANCH   5   6
ENDBRANCH   1   5
BRANCH   3  21
ATOM     21  C   UNL A   1      31.403  30.271  26.033  1.00  0.00     0.117 C 
BRANCH  21  22
ATOM     22  C   UNL A   1      31.291  31.717  26.503  1.00  0.00     0.042 C 
BRANCH  22  23
ATOM     23  C   UNL A   1      32.620  32.369  26.866  1.00  0.00     0.118 C 
BRANCH  23  24
ATOM     24  N   UNL A   1      32.464  33.733  27.356  1.00  0.00    -0.352 N 
ATOM     25  C   UNL A   1      33.072  34.390  28.391  1.00  0.00     0.251 C 
ATOM     26  H   UNL A   1      31.810  34.274  26.856  1.00  0.00     0.163 HD
ATOM     27  O   UNL A   1      32.622  35.480  28.755  1.00  0.00    -0.269 OA
BRANCH  25  28
ATOM     28  C   UNL A   1      34.249  33.823  29.083  1.00  0.00     0.039 A 
ATOM     29  C   UNL A   1      34.046  32.838  30.057  1.00  0.00     0.014 A 
ATOM     30  C   UNL A   1      35.539  34.292  28.829  1.00  0.00     0.014 A 
ATOM     31  C   UNL A   1      35.140  32.284  30.727  1.00  0.00     0.010 A 
ATOM     32  C   UNL A   1      36.634  33.686  29.442  1.00  0.00     0.010 A 
ATOM     33  C   UNL A   1      36.446  32.681  30.400  1.00  0.00    -0.014 A 
BRANCH  33  34
ATOM     34  C   UNL A   1      37.627  32.055  31.048  1.00  0.00     0.031 A 
ATOM     35  C   UNL A   1      38.399  30.976  30.340  1.00  0.00     0.074 A 
ATOM     36  C   UNL A   1      37.961  32.411  32.304  1.00  0.00     0.049 A 
ATOM     37  N   UNL A   1      39.402  30.255  30.775  1.00  0.00    -0.248 NA
ATOM     38  C   UNL A   1      37.971  30.644  28.972  1.00  0.00     0.031 C 
ATOM     39  C   UNL A   1      37.264  33.410  33.114  1.00  0.00     0.029 A 
ATOM     40  N   UNL A   1      38.965  31.960  33.123  1.00  0.00    -0.354 N 
ATOM     41  C   UNL A   1      39.710  29.375  29.745  1.00  0.00     0.074 A 
ATOM     42  C   UNL A   1      38.759  29.620  28.683  1.00  0.00     0.031 C 
ATOM     43  C   UNL A   1      37.870  33.509  34.308  1.00  0.00     0.029 A 
ATOM     44  C   UNL A   1      38.972  32.554  34.362  1.00  0.00     0.049 A 
ATOM     45  H   UNL A   1      39.617  31.274  32.851  1.00  0.00     0.167 HD
ATOM     46  C   UNL A   1      40.707  28.459  29.684  1.00  0.00     0.037 A 
ATOM     47  C   UNL A   1      39.771  32.346  35.425  1.00  0.00     0.037 A 
ATOM     48  C   UNL A   1      41.668  28.237  30.732  1.00  0.00     0.049 A 
ATOM     49  C   UNL A   1      40.870  31.325  35.331  1.00  0.00     0.074 A 
ATOM     50  C   UNL A   1      42.754  27.379  30.739  1.00  0.00     0.029 A 
ATOM     51  N   UNL A   1      41.657  28.877  31.962  1.00  0.00    -0.354 N 
ATOM     52  N   UNL A   1      41.191  30.547  34.326  1.00  0.00    -0.248 NA
ATOM     53  C   UNL A   1      41.721  31.157  36.518  1.00  0.00     0.031 C 
ATOM     54  C   UNL A   1      43.376  27.469  31.989  1.00  0.00     0.029 A 
ATOM     55  C   UNL A   1      42.705  28.418  32.743  1.00  0.00     0.049 A 
ATOM     56  H   UNL A   1      41.002  29.558  32.239  1.00  0.00     0.167 HD
ATOM     57  C   UNL A   1      42.296  29.818  34.748  1.00  0.00     0.074 A 
ATOM     58  C   UNL A   1      42.597  30.258  36.094  1.00  0.00     0.031 C 
ATOM     59  C   UNL A   1      42.997  28.871  34.079  1.00  0.00     0.037 A 
BRANCH  46  60
ATOM     60  C   UNL A   1      40.811  27.631  28.436  1.00  0.00     0.057 A 
ATOM     61  C   UNL A   1      41.655  27.992  27.377  1.00  0.00     0.134 A 
ATOM     62  C   UNL A   1      40.087  26.439  28.306  1.00  0.00     0.134 A 
ATOM     63  F   UNL A   1      42.368  29.127  27.433  1.00  0.00    -0.206 F 
ATOM     64  C   UNL A   1      41.754  27.212  26.223  1.00  0.00     0.040 A 
ATOM     65  C   UNL A   1      40.199  25.637  27.169  1.00  0.00     0.040 A 
ATOM     66  F   UNL A   1      39.266  26.029  29.285  1.00  0.00    -0.206 F 
ATOM     67  C   UNL A   1      41.030  26.026  26.121  1.00  0.00     0.006 A 
ENDBRANCH  46  60
BRANCH  47  68
ATOM     68  C   UNL A   1      39.575  33.136  36.667  1.00  0.00     0.057 A 
ATOM     69  C   UNL A   1      38.661  32.727  37.645  1.00  0.00     0.134 A 
ATOM     70  C   UNL A   1      40.289  34.316  36.905  1.00  0.00     0.134 A 
ATOM     71  F   UNL A   1      37.935  31.614  37.465  1.00  0.00    -0.206 F 
ATOM     72  C   UNL A   1      38.450  33.471  38.807  1.00  0.00     0.040 A 
ATOM     73  C   UNL A   1      40.106  35.058  38.073  1.00  0.00     0.040 A 
ATOM     74  F   UNL A   1      41.185  34.758  36.010  1.00  0.00    -0.206 F 
ATOM     75  C   UNL A   1      39.179  34.639  39.024  1.00  0.00     0.006 A 
ENDBRANCH  47  68
BRANCH  59  76
ATOM     76  C   UNL A   1      44.179  28.271  34.780  1.00  0.00     0.057 A 
ATOM     77  C   UNL A   1      45.452  28.851  34.714  1.00  0.00     0.134 A 
ATOM     78  C   UNL A   1      44.033  27.118  35.563  1.00  0.00     0.134 A 
ATOM     79  F   UNL A   1      45.662  29.948  33.971  1.00  0.00    -0.206 F 
ATOM     80  C   UNL A   1      46.543  28.294  35.384  1.00  0.00     0.040 A 
ATOM     81  C   UNL A   1      45.110  26.566  36.258  1.00  0.00     0.040 A 
ATOM     82  F   UNL A   1      42.838  26.518  35.676  1.00  0.00    -0.206 F 
ATOM     83  C   UNL A   1      46.370  27.152  36.164  1.00  0.00     0.006 A 
ENDBRANCH  59  76
ENDBRANCH  33  34
ENDBRANCH  25  28
ENDBRANCH  23  24
ENDBRANCH  22  23
ENDBRANCH  21  22
ENDBRANCH   3  21
TORSDOF 17
ENDMDL
MODEL 3
REMARK VINA RESULT:     -10.0      1.011      1.969
REMARK SMILES C#CCN(CC(=O)NCCCNC(=O)c1ccc(-c2c3nc(c(-c4c(F)cccc4F)c4ccc([nH]4)c(-c4c(F)cccc4F)c4nc(c(-c5c(F)cccc5F)c5ccc2[nH]5)C=C4)C=C3)cc1)C(=O)NCC[C@@H]1CCCO1
REMARK SMILES IDX 6 1 7 2 8 3 5 5 4 6 3 7 2 8 1 9 69 10 70 11 71 12 72 14
REMARK SMILES IDX 73 15 74 16 75 17 78 18 76 19 77 20 9 21 10 22 11 23 12 24
REMARK SMILES IDX 13 25 14 27 15 28 16 29 68 30 17 31 67 32 18 33 19 34 20 35
REMARK SMILES IDX 61 36 21 37 66 38 60 39 62 40 22 41 65 42 59 43 58 44 23 46
REMARK SMILES IDX 49 47 32 48 48 49 33 50 36 51 47 52 63 53 34 54 35 55 46 57
REMARK SMILES IDX 64 58 37 59 24 60 25 61 30 62 26 63 27 64 29 65 31 66 28 67
REMARK SMILES IDX 50 68 51 69 56 70 52 71 53 72 55 73 57 74 54 75 38 76 39 77
REMARK SMILES IDX 44 78 40 79 41 80 43 81 45 82 42 83
REMARK H PARENT 8 4 71 13 12 26 62 45 36 56
REMARK Flexibility Score: inf
ROOT
ATOM      1  C   UNL A   1      36.273  22.966  25.767  1.00  0.00     0.239 C 
ATOM      2  O   UNL A   1      36.926  24.012  25.820  1.00  0.00    -0.273 OA
ATOM      3  N   UNL A   1      36.723  22.000  24.913  1.00  0.00    -0.354 N 
ATOM      4  H   UNL A   1      37.339  22.314  24.213  1.00  0.00     0.163 HD
ENDROOT
BRANCH   1   5
ATOM      5  C   UNL A   1      35.105  22.716  26.735  1.00  0.00     0.222 C 
BRANCH   5   6
ATOM      6  N   UNL A   1      33.787  23.061  26.208  1.00  0.00    -0.304 N 
BRANCH   6   7
ATOM      7  C   UNL A   1      33.765  24.026  25.118  1.00  0.00     0.211 C 
BRANCH   7   8
ATOM      8  C   UNL A   1      33.626  25.465  25.589  1.00  0.00    -0.085 C 
ATOM      9  C   UNL A   1      33.506  26.699  25.992  1.00  0.00     0.006 C 
ENDBRANCH   7   8
ENDBRANCH   6   7
BRANCH   6  10
ATOM     10  C   UNL A   1      32.575  22.582  26.613  1.00  0.00     0.318 C 
ATOM     11  O   UNL A   1      31.983  23.075  27.580  1.00  0.00    -0.249 OA
ATOM     12  N   UNL A   1      31.938  21.551  26.040  1.00  0.00    -0.338 N 
ATOM     13  H   UNL A   1      31.116  21.329  26.532  1.00  0.00     0.165 HD
BRANCH  12  14
ATOM     14  C   UNL A   1      32.112  20.667  24.899  1.00  0.00     0.120 C 
BRANCH  14  15
ATOM     15  C   UNL A   1      33.065  19.514  25.217  1.00  0.00     0.053 C 
BRANCH  15  16
ATOM     16  C   UNL A   1      32.575  18.168  24.685  1.00  0.00     0.120 C 
ATOM     17  C   UNL A   1      32.790  17.032  25.680  1.00  0.00     0.034 C 
ATOM     18  O   UNL A   1      33.308  17.819  23.495  1.00  0.00    -0.378 OA
ATOM     19  C   UNL A   1      33.119  15.864  24.783  1.00  0.00     0.031 C 
ATOM     20  C   UNL A   1      33.905  16.532  23.681  1.00  0.00     0.160 C 
ENDBRANCH  15  16
ENDBRANCH  14  15
ENDBRANCH  12  14
ENDBRANCH   6  10
ENDBRANCH   5   6
ENDBRANCH   1   5
BRANCH   3  21
ATOM     21  C   UNL A   1      36.427  20.583  24.885  1.00  0.00     0.117 C 
BRANCH  21  22
ATOM     22  C   UNL A   1      37.669  19.699  24.919  1.00  0.00     0.042 C 
BRANCH  22  23
ATOM     23  C   UNL A   1      38.846  20.291  25.686  1.00  0.00     0.118 C 
BRANCH  23  24
ATOM     24  N   UNL A   1      39.970  19.369  25.794  1.00  0.00    -0.352 N 
ATOM     25  C   UNL A   1      41.288  19.591  26.091  1.00  0.00     0.251 C 
ATOM     26  H   UNL A   1      39.742  18.426  25.625  1.00  0.00     0.163 HD
ATOM     27  O   UNL A   1      42.102  18.681  25.912  1.00  0.00    -0.269 OA
BRANCH  25  28
ATOM     28  C   UNL A   1      41.755  20.892  26.613  1.00  0.00     0.039 A 
ATOM     29  C   UNL A   1      42.105  21.896  25.703  1.00  0.00     0.014 A 
ATOM     30  C   UNL A   1      41.911  21.112  27.984  1.00  0.00     0.014 A 
ATOM     31  C   UNL A   1      42.550  23.136  26.169  1.00  0.00     0.010 A 
ATOM     32  C   UNL A   1      42.282  22.373  28.449  1.00  0.00     0.010 A 
ATOM     33  C   UNL A   1      42.610  23.395  27.547  1.00  0.00    -0.014 A 
BRANCH  33  34
ATOM     34  C   UNL A   1      43.011  24.728  28.065  1.00  0.00     0.031 A 
ATOM     35  C   UNL A   1      41.973  25.781  28.338  1.00  0.00     0.074 A 
ATOM     36  C   UNL A   1      44.319  25.013  28.222  1.00  0.00     0.049 A 
ATOM     37  N   UNL A   1      42.135  27.026  28.710  1.00  0.00    -0.248 NA
ATOM     38  C   UNL A   1      40.567  25.393  28.141  1.00  0.00     0.031 C 
ATOM     39  C   UNL A   1      45.424  24.093  27.947  1.00  0.00     0.029 A 
ATOM     40  N   UNL A   1      44.939  26.163  28.638  1.00  0.00    -0.354 N 
ATOM     41  C   UNL A   1      40.859  27.572  28.773  1.00  0.00     0.074 A 
ATOM     42  C   UNL A   1      39.937  26.537  28.356  1.00  0.00     0.031 C 
ATOM     43  C   UNL A   1      46.586  24.709  28.217  1.00  0.00     0.029 A 
ATOM     44  C   UNL A   1      46.310  26.076  28.646  1.00  0.00     0.049 A 
ATOM     45  H   UNL A   1      44.449  26.975  28.903  1.00  0.00     0.167 HD
ATOM     46  C   UNL A   1      40.488  28.816  29.161  1.00  0.00     0.037 A 
ATOM     47  C   UNL A   1      47.241  26.999  28.955  1.00  0.00     0.037 A 
ATOM     48  C   UNL A   1      41.406  29.834  29.601  1.00  0.00     0.049 A 
ATOM     49  C   UNL A   1      46.804  28.371  29.383  1.00  0.00     0.074 A 
ATOM     50  C   UNL A   1      41.123  31.103  30.076  1.00  0.00     0.029 A 
ATOM     51  N   UNL A   1      42.786  29.698  29.619  1.00  0.00    -0.354 N 
ATOM     52  N   UNL A   1      45.590  28.852  29.502  1.00  0.00    -0.248 NA
ATOM     53  C   UNL A   1      47.866  29.327  29.726  1.00  0.00     0.031 C 
ATOM     54  C   UNL A   1      42.334  31.751  30.341  1.00  0.00     0.029 A 
ATOM     55  C   UNL A   1      43.369  30.868  30.077  1.00  0.00     0.049 A 
ATOM     56  H   UNL A   1      43.278  28.891  29.346  1.00  0.00     0.167 HD
ATOM     57  C   UNL A   1      45.741  30.155  29.958  1.00  0.00     0.074 A 
ATOM     58  C   UNL A   1      47.163  30.384  30.108  1.00  0.00     0.031 C 
ATOM     59  C   UNL A   1      44.786  31.078  30.228  1.00  0.00     0.037 A 
BRANCH  46  60
ATOM     60  C   UNL A   1      39.023  29.143  29.131  1.00  0.00     0.057 A 
ATOM     61  C   UNL A   1      38.378  29.535  27.950  1.00  0.00     0.134 A 
ATOM     62  C   UNL A   1      38.240  29.027  30.286  1.00  0.00     0.134 A 
ATOM     63  F   UNL A   1      39.072  29.675  26.811  1.00  0.00    -0.206 F 
ATOM     64  C   UNL A   1      37.013  29.828  27.927  1.00  0.00     0.040 A 
ATOM     65  C   UNL A   1      36.870  29.292  30.269  1.00  0.00     0.040 A 
ATOM     66  F   UNL A   1      38.793  28.649  31.449  1.00  0.00    -0.206 F 
ATOM     67  C   UNL A   1      36.254  29.699  29.088  1.00  0.00     0.006 A 
ENDBRANCH  46  60
BRANCH  47  68
ATOM     68  C   UNL A   1      48.683  26.648  28.890  1.00  0.00     0.057 A 
ATOM     69  C   UNL A   1      49.336  26.074  29.987  1.00  0.00     0.134 A 
ATOM     70  C   UNL A   1      49.441  26.879  27.736  1.00  0.00     0.134 A 
ATOM     71  F   UNL A   1      48.665  25.845  31.126  1.00  0.00    -0.206 F 
ATOM     72  C   UNL A   1      50.695  25.760  29.947  1.00  0.00     0.040 A 
ATOM     73  C   UNL A   1      50.795  26.547  27.674  1.00  0.00     0.040 A 
ATOM     74  F   UNL A   1      48.872  27.419  26.648  1.00  0.00    -0.206 F 
ATOM     75  C   UNL A   1      51.427  25.993  28.784  1.00  0.00     0.006 A 
ENDBRANCH  47  68
BRANCH  59  76
ATOM     76  C   UNL A   1      45.247  32.408  30.747  1.00  0.00     0.057 A 
ATOM     77  C   UNL A   1      45.496  33.490  29.894  1.00  0.00     0.134 A 
ATOM     78  C   UNL A   1      45.408  32.619  32.123  1.00  0.00     0.134 A 
ATOM     79  F   UNL A   1      45.374  33.350  28.565  1.00  0.00    -0.206 F 
ATOM     80  C   UNL A   1      45.909  34.729  30.389  1.00  0.00     0.040 A 
ATOM     81  C   UNL A   1      45.795  33.858  32.632  1.00  0.00     0.040 A 
ATOM     82  F   UNL A   1      45.178  31.625  32.996  1.00  0.00    -0.206 F 
ATOM     83  C   UNL A   1      46.052  34.916  31.762  1.00  0.00     0.006 A 
ENDBRANCH  59  76
ENDBRANCH  33  34
ENDBRANCH  25  28
ENDBRANCH  23  24
ENDBRANCH  22  23
ENDBRANCH  21  22
ENDBRANCH   3  21
TORSDOF 17
ENDMDL
