MODEL 1
REMARK VINA RESULT:     -13.5      0.000      0.000
REMARK SMILES CC1(C)Oc2ccc(NC(=O)[C@H]3CC=CC[C@@H]3C(=O)NCCCNC(=O)c3ccc(-c4c5nc(c(-c6c(F)cccc6F)c6ccc([nH]6)c(-c6c(F)cccc6F)c6nc(c(-c7c(F)cccc7F)c7ccc4[nH]7)C=C6)C=C5)cc3)cc2NC1=O
REMARK SMILES IDX 22 1 21 2 20 3 18 4 19 5 17 7 12 8 13 9 14 10 16 11 15 12
REMARK SMILES IDX 10 13 9 14 11 16 8 17 1 18 2 19 3 20 4 21 84 22 5 23 83 24
REMARK SMILES IDX 85 25 6 26 82 27 7 29 81 30 23 31 24 32 25 33 26 35 27 36
REMARK SMILES IDX 28 37 80 38 29 39 79 40 30 41 31 42 32 43 73 44 33 45 78 46
REMARK SMILES IDX 72 47 74 48 34 49 77 50 71 51 70 52 35 54 61 55 44 56 60 57
REMARK SMILES IDX 45 58 48 59 59 60 75 61 46 62 47 63 58 65 76 66 49 67 36 68
REMARK SMILES IDX 37 69 42 70 38 71 39 72 41 73 43 74 40 75 62 76 63 77 68 78
REMARK SMILES IDX 64 79 65 80 67 81 69 82 66 83 50 84 51 85 56 86 52 87 53 88
REMARK SMILES IDX 55 89 57 90 54 91
REMARK H PARENT 20 6 9 15 83 28 24 34 74 53 48 64
REMARK Flexibility Score: inf
ROOT
ATOM      1  C   UNL A   1      31.943  28.286  27.360  1.00  0.00     0.042 C 
ENDROOT
BRANCH   1   2
ATOM      2  C   UNL A   1      31.625  27.213  26.329  1.00  0.00     0.117 C 
BRANCH   2   3
ATOM      3  N   UNL A   1      31.429  25.914  26.940  1.00  0.00    -0.356 N 
ATOM      4  C   UNL A   1      31.960  24.703  26.646  1.00  0.00     0.224 C 
ATOM      5  O   UNL A   1      31.523  23.749  27.293  1.00  0.00    -0.275 OA
ATOM      6  H   UNL A   1      30.801  25.911  27.699  1.00  0.00     0.163 HD
BRANCH   4   7
ATOM      7  C   UNL A   1      33.001  24.546  25.535  1.00  0.00     0.095 C 
ATOM      8  C   UNL A   1      32.256  24.181  24.224  1.00  0.00     0.095 C 
ATOM      9  C   UNL A   1      31.757  22.718  24.222  1.00  0.00     0.041 C 
ATOM     10  C   UNL A   1      32.609  21.742  24.974  1.00  0.00    -0.030 C 
ATOM     11  C   UNL A   1      34.089  23.518  25.890  1.00  0.00     0.041 C 
ATOM     12  C   UNL A   1      33.670  22.095  25.703  1.00  0.00    -0.030 C 
BRANCH   8  13
ATOM     13  C   UNL A   1      33.056  24.504  22.973  1.00  0.00     0.228 C 
ATOM     14  N   UNL A   1      32.893  25.677  22.286  1.00  0.00    -0.326 N 
ATOM     15  H   UNL A   1      33.398  25.695  21.442  1.00  0.00     0.169 HD
ATOM     16  O   UNL A   1      33.885  23.706  22.521  1.00  0.00    -0.274 OA
BRANCH  14  17
ATOM     17  C   UNL A   1      32.165  26.866  22.507  1.00  0.00     0.043 A 
ATOM     18  C   UNL A   1      27.716  31.245  23.681  1.00  0.00     0.067 C 
ATOM     19  C   UNL A   1      28.436  30.151  22.886  1.00  0.00     0.182 C 
ATOM     20  C   UNL A   1      28.318  30.459  21.384  1.00  0.00     0.067 C 
ATOM     21  O   UNL A   1      29.818  30.245  23.245  1.00  0.00    -0.476 OA
ATOM     22  C   UNL A   1      27.763  28.786  23.167  1.00  0.00     0.268 C 
ATOM     23  C   UNL A   1      30.538  29.113  22.984  1.00  0.00     0.144 A 
ATOM     24  N   UNL A   1      28.590  27.697  23.044  1.00  0.00    -0.319 N 
ATOM     25  O   UNL A   1      26.562  28.640  23.384  1.00  0.00    -0.270 OA
ATOM     26  C   UNL A   1      31.907  29.266  22.842  1.00  0.00     0.051 A 
ATOM     27  C   UNL A   1      29.968  27.845  22.883  1.00  0.00     0.086 A 
ATOM     28  H   UNL A   1      28.202  26.793  23.072  1.00  0.00     0.170 HD
ATOM     29  C   UNL A   1      32.709  28.151  22.581  1.00  0.00     0.030 A 
ATOM     30  C   UNL A   1      30.774  26.727  22.649  1.00  0.00     0.056 A 
ENDBRANCH  14  17
ENDBRANCH   8  13
ENDBRANCH   4   7
ENDBRANCH   2   3
ENDBRANCH   1   2
BRANCH   1  31
ATOM     31  C   UNL A   1      33.367  28.825  27.290  1.00  0.00     0.118 C 
BRANCH  31  32
ATOM     32  N   UNL A   1      33.489  30.204  27.747  1.00  0.00    -0.352 N 
ATOM     33  C   UNL A   1      34.560  30.859  28.309  1.00  0.00     0.251 C 
ATOM     34  H   UNL A   1      32.679  30.753  27.637  1.00  0.00     0.163 HD
ATOM     35  O   UNL A   1      34.427  31.990  28.767  1.00  0.00    -0.269 OA
BRANCH  33  36
ATOM     36  C   UNL A   1      35.864  30.172  28.406  1.00  0.00     0.039 A 
ATOM     37  C   UNL A   1      36.234  29.522  29.582  1.00  0.00     0.014 A 
ATOM     38  C   UNL A   1      36.750  30.232  27.327  1.00  0.00     0.014 A 
ATOM     39  C   UNL A   1      37.555  29.137  29.764  1.00  0.00     0.010 A 
ATOM     40  C   UNL A   1      38.049  29.741  27.473  1.00  0.00     0.010 A 
ATOM     41  C   UNL A   1      38.481  29.249  28.715  1.00  0.00    -0.014 A 
BRANCH  41  42
ATOM     42  C   UNL A   1      39.900  28.873  28.946  1.00  0.00     0.031 A 
ATOM     43  C   UNL A   1      40.830  29.801  29.680  1.00  0.00     0.074 A 
ATOM     44  C   UNL A   1      40.337  27.664  28.542  1.00  0.00     0.049 A 
ATOM     45  N   UNL A   1      42.109  29.666  29.927  1.00  0.00    -0.248 NA
ATOM     46  C   UNL A   1      40.250  31.048  30.206  1.00  0.00     0.031 C 
ATOM     47  C   UNL A   1      39.526  26.659  27.852  1.00  0.00     0.029 A 
ATOM     48  N   UNL A   1      41.564  27.067  28.675  1.00  0.00    -0.354 N 
ATOM     49  C   UNL A   1      42.492  30.818  30.602  1.00  0.00     0.074 A 
ATOM     50  C   UNL A   1      41.315  31.652  30.714  1.00  0.00     0.031 C 
ATOM     51  C   UNL A   1      40.258  25.551  27.673  1.00  0.00     0.029 A 
ATOM     52  C   UNL A   1      41.611  25.795  28.159  1.00  0.00     0.049 A 
ATOM     53  H   UNL A   1      42.336  27.507  29.099  1.00  0.00     0.167 HD
ATOM     54  C   UNL A   1      43.712  31.147  31.091  1.00  0.00     0.037 A 
ATOM     55  C   UNL A   1      42.637  24.933  28.058  1.00  0.00     0.037 A 
ATOM     56  C   UNL A   1      44.874  30.300  31.009  1.00  0.00     0.049 A 
ATOM     57  C   UNL A   1      43.992  25.351  28.542  1.00  0.00     0.074 A 
ATOM     58  C   UNL A   1      46.148  30.530  31.500  1.00  0.00     0.029 A 
ATOM     59  N   UNL A   1      44.900  29.056  30.398  1.00  0.00    -0.354 N 
ATOM     60  N   UNL A   1      44.346  26.454  29.153  1.00  0.00    -0.248 NA
ATOM     61  C   UNL A   1      45.097  24.415  28.293  1.00  0.00     0.031 C 
ATOM     62  C   UNL A   1      46.953  29.439  31.154  1.00  0.00     0.029 A 
ATOM     63  C   UNL A   1      46.173  28.516  30.476  1.00  0.00     0.049 A 
ATOM     64  H   UNL A   1      44.127  28.620  29.972  1.00  0.00     0.167 HD
ATOM     65  C   UNL A   1      45.714  26.350  29.361  1.00  0.00     0.074 A 
ATOM     66  C   UNL A   1      46.120  25.062  28.833  1.00  0.00     0.031 C 
ATOM     67  C   UNL A   1      46.560  27.243  29.928  1.00  0.00     0.037 A 
BRANCH  54  68
ATOM     68  C   UNL A   1      43.858  32.492  31.740  1.00  0.00     0.057 A 
ATOM     69  C   UNL A   1      43.650  32.644  33.117  1.00  0.00     0.134 A 
ATOM     70  C   UNL A   1      44.177  33.640  31.004  1.00  0.00     0.134 A 
ATOM     71  F   UNL A   1      43.337  31.585  33.879  1.00  0.00    -0.206 F 
ATOM     72  C   UNL A   1      43.752  33.890  33.738  1.00  0.00     0.040 A 
ATOM     73  C   UNL A   1      44.304  34.888  31.617  1.00  0.00     0.040 A 
ATOM     74  F   UNL A   1      44.404  33.560  29.684  1.00  0.00    -0.206 F 
ATOM     75  C   UNL A   1      44.085  35.016  32.988  1.00  0.00     0.006 A 
ENDBRANCH  54  68
BRANCH  55  76
ATOM     76  C   UNL A   1      42.425  23.604  27.434  1.00  0.00     0.057 A 
ATOM     77  C   UNL A   1      42.101  22.481  28.205  1.00  0.00     0.134 A 
ATOM     78  C   UNL A   1      42.554  23.426  26.053  1.00  0.00     0.134 A 
ATOM     79  F   UNL A   1      41.966  22.589  29.536  1.00  0.00    -0.206 F 
ATOM     80  C   UNL A   1      41.931  21.224  27.628  1.00  0.00     0.040 A 
ATOM     81  C   UNL A   1      42.364  22.179  25.459  1.00  0.00     0.040 A 
ATOM     82  F   UNL A   1      42.843  24.470  25.263  1.00  0.00    -0.206 F 
ATOM     83  C   UNL A   1      42.058  21.071  26.249  1.00  0.00     0.006 A 
ENDBRANCH  55  76
BRANCH  67  84
ATOM     84  C   UNL A   1      48.003  26.850  30.000  1.00  0.00     0.057 A 
ATOM     85  C   UNL A   1      48.909  27.258  29.014  1.00  0.00     0.134 A 
ATOM     86  C   UNL A   1      48.491  26.058  31.046  1.00  0.00     0.134 A 
ATOM     87  F   UNL A   1      48.501  28.015  27.985  1.00  0.00    -0.206 F 
ATOM     88  C   UNL A   1      50.253  26.890  29.067  1.00  0.00     0.040 A 
ATOM     89  C   UNL A   1      49.838  25.700  31.120  1.00  0.00     0.040 A 
ATOM     90  F   UNL A   1      47.674  25.654  32.030  1.00  0.00    -0.206 F 
ATOM     91  C   UNL A   1      50.722  26.114  30.125  1.00  0.00     0.006 A 
ENDBRANCH  67  84
ENDBRANCH  41  42
ENDBRANCH  33  36
ENDBRANCH  31  32
ENDBRANCH   1  31
TORSDOF 12
ENDMDL
MODEL 2
REMARK VINA RESULT:     -13.4      3.028      6.542
REMARK SMILES CC1(C)Oc2ccc(NC(=O)[C@H]3CC=CC[C@@H]3C(=O)NCCCNC(=O)c3ccc(-c4c5nc(c(-c6c(F)cccc6F)c6ccc([nH]6)c(-c6c(F)cccc6F)c6nc(c(-c7c(F)cccc7F)c7ccc4[nH]7)C=C6)C=C5)cc3)cc2NC1=O
REMARK SMILES IDX 22 1 21 2 20 3 18 4 19 5 17 7 12 8 13 9 14 10 16 11 15 12
REMARK SMILES IDX 10 13 9 14 11 16 8 17 1 18 2 19 3 20 4 21 84 22 5 23 83 24
REMARK SMILES IDX 85 25 6 26 82 27 7 29 81 30 23 31 24 32 25 33 26 35 27 36
REMARK SMILES IDX 28 37 80 38 29 39 79 40 30 41 31 42 32 43 73 44 33 45 78 46
REMARK SMILES IDX 72 47 74 48 34 49 77 50 71 51 70 52 35 54 61 55 44 56 60 57
REMARK SMILES IDX 45 58 48 59 59 60 75 61 46 62 47 63 58 65 76 66 49 67 36 68
REMARK SMILES IDX 37 69 42 70 38 71 39 72 41 73 43 74 40 75 62 76 63 77 68 78
REMARK SMILES IDX 64 79 65 80 67 81 69 82 66 83 50 84 51 85 56 86 52 87 53 88
REMARK SMILES IDX 55 89 57 90 54 91
REMARK H PARENT 20 6 9 15 83 28 24 34 74 53 48 64
REMARK Flexibility Score: inf
ROOT
ATOM      1  C   UNL A   1      31.789  28.542  26.871  1.00  0.00     0.042 C 
ENDROOT
BRANCH   1   2
ATOM      2  C   UNL A   1      31.200  27.437  26.007  1.00  0.00     0.117 C 
BRANCH   2   3
ATOM      3  N   UNL A   1      31.112  26.178  26.720  1.00  0.00    -0.356 N 
ATOM      4  C   UNL A   1      31.765  25.005  26.537  1.00  0.00     0.224 C 
ATOM      5  O   UNL A   1      31.404  24.068  27.252  1.00  0.00    -0.275 OA
ATOM      6  H   UNL A   1      30.468  26.175  27.464  1.00  0.00     0.163 HD
BRANCH   4   7
ATOM      7  C   UNL A   1      32.845  24.861  25.462  1.00  0.00     0.095 C 
ATOM      8  C   UNL A   1      32.181  24.280  24.186  1.00  0.00     0.095 C 
ATOM      9  C   UNL A   1      31.856  22.775  24.329  1.00  0.00     0.041 C 
ATOM     10  C   UNL A   1      32.797  21.988  25.188  1.00  0.00    -0.030 C 
ATOM     11  C   UNL A   1      34.036  24.011  25.935  1.00  0.00     0.041 C 
ATOM     12  C   UNL A   1      33.792  22.537  25.891  1.00  0.00    -0.030 C 
BRANCH   8  13
ATOM     13  C   UNL A   1      32.969  24.567  22.918  1.00  0.00     0.228 C 
ATOM     14  N   UNL A   1      32.801  25.721  22.201  1.00  0.00    -0.326 N 
ATOM     15  H   UNL A   1      33.298  25.715  21.353  1.00  0.00     0.169 HD
ATOM     16  O   UNL A   1      33.792  23.756  22.480  1.00  0.00    -0.274 OA
BRANCH  14  17
ATOM     17  C   UNL A   1      32.077  26.917  22.397  1.00  0.00     0.043 A 
ATOM     18  C   UNL A   1      27.655  31.332  23.538  1.00  0.00     0.067 C 
ATOM     19  C   UNL A   1      28.352  30.208  22.765  1.00  0.00     0.182 C 
ATOM     20  C   UNL A   1      28.182  30.453  21.257  1.00  0.00     0.067 C 
ATOM     21  O   UNL A   1      29.745  30.319  23.073  1.00  0.00    -0.476 OA
ATOM     22  C   UNL A   1      27.693  28.854  23.126  1.00  0.00     0.268 C 
ATOM     23  C   UNL A   1      30.459  29.179  22.835  1.00  0.00     0.144 A 
ATOM     24  N   UNL A   1      28.519  27.763  23.020  1.00  0.00    -0.319 N 
ATOM     25  O   UNL A   1      26.501  28.715  23.389  1.00  0.00    -0.270 OA
ATOM     26  C   UNL A   1      31.822  29.328  22.640  1.00  0.00     0.051 A 
ATOM     27  C   UNL A   1      29.890  27.907  22.806  1.00  0.00     0.086 A 
ATOM     28  H   UNL A   1      28.135  26.860  23.100  1.00  0.00     0.170 HD
ATOM     29  C   UNL A   1      32.618  28.205  22.399  1.00  0.00     0.030 A 
ATOM     30  C   UNL A   1      30.691  26.782  22.593  1.00  0.00     0.056 A 
ENDBRANCH  14  17
ENDBRANCH   8  13
ENDBRANCH   4   7
ENDBRANCH   2   3
ENDBRANCH   1   2
BRANCH   1  31
ATOM     31  C   UNL A   1      32.696  29.511  26.123  1.00  0.00     0.118 C 
BRANCH  31  32
ATOM     32  N   UNL A   1      32.472  30.907  26.477  1.00  0.00    -0.352 N 
ATOM     33  C   UNL A   1      33.228  31.757  27.251  1.00  0.00     0.251 C 
ATOM     34  H   UNL A   1      31.652  31.305  26.105  1.00  0.00     0.163 HD
ATOM     35  O   UNL A   1      32.800  32.865  27.558  1.00  0.00    -0.269 OA
BRANCH  33  36
ATOM     36  C   UNL A   1      34.541  31.307  27.756  1.00  0.00     0.039 A 
ATOM     37  C   UNL A   1      34.771  29.959  28.024  1.00  0.00     0.014 A 
ATOM     38  C   UNL A   1      35.532  32.256  28.021  1.00  0.00     0.014 A 
ATOM     39  C   UNL A   1      35.887  29.588  28.761  1.00  0.00     0.010 A 
ATOM     40  C   UNL A   1      36.709  31.862  28.663  1.00  0.00     0.010 A 
ATOM     41  C   UNL A   1      36.867  30.537  29.097  1.00  0.00    -0.014 A 
BRANCH  41  42
ATOM     42  C   UNL A   1      38.031  30.128  29.924  1.00  0.00     0.031 A 
ATOM     43  C   UNL A   1      39.116  29.260  29.345  1.00  0.00     0.074 A 
ATOM     44  C   UNL A   1      38.140  30.589  31.185  1.00  0.00     0.049 A 
ATOM     45  N   UNL A   1      40.176  28.760  29.930  1.00  0.00    -0.248 NA
ATOM     46  C   UNL A   1      38.996  28.901  27.922  1.00  0.00     0.031 C 
ATOM     47  C   UNL A   1      37.174  31.466  31.851  1.00  0.00     0.029 A 
ATOM     48  N   UNL A   1      39.122  30.403  32.123  1.00  0.00    -0.354 N 
ATOM     49  C   UNL A   1      40.827  28.005  28.963  1.00  0.00     0.074 A 
ATOM     50  C   UNL A   1      40.036  28.097  27.754  1.00  0.00     0.031 C 
ATOM     51  C   UNL A   1      37.639  31.788  33.065  1.00  0.00     0.029 A 
ATOM     52  C   UNL A   1      38.890  31.077  33.297  1.00  0.00     0.049 A 
ATOM     53  H   UNL A   1      39.917  29.842  31.970  1.00  0.00     0.167 HD
ATOM     54  C   UNL A   1      41.983  27.306  29.070  1.00  0.00     0.037 A 
ATOM     55  C   UNL A   1      39.588  31.093  34.445  1.00  0.00     0.037 A 
ATOM     56  C   UNL A   1      42.786  27.245  30.263  1.00  0.00     0.049 A 
ATOM     57  C   UNL A   1      40.824  30.253  34.560  1.00  0.00     0.074 A 
ATOM     58  C   UNL A   1      43.989  26.589  30.464  1.00  0.00     0.029 A 
ATOM     59  N   UNL A   1      42.468  27.870  31.460  1.00  0.00    -0.354 N 
ATOM     60  N   UNL A   1      41.413  29.522  33.646  1.00  0.00    -0.248 NA
ATOM     61  C   UNL A   1      41.475  30.218  35.876  1.00  0.00     0.031 C 
ATOM     62  C   UNL A   1      44.379  26.788  31.793  1.00  0.00     0.029 A 
ATOM     63  C   UNL A   1      43.437  27.594  32.410  1.00  0.00     0.049 A 
ATOM     64  H   UNL A   1      41.671  28.427  31.610  1.00  0.00     0.167 HD
ATOM     65  C   UNL A   1      42.502  28.936  34.274  1.00  0.00     0.074 A 
ATOM     66  C   UNL A   1      42.507  29.418  35.641  1.00  0.00     0.031 C 
ATOM     67  C   UNL A   1      43.412  28.068  33.769  1.00  0.00     0.037 A 
BRANCH  54  68
ATOM     68  C   UNL A   1      42.437  26.531  27.868  1.00  0.00     0.057 A 
ATOM     69  C   UNL A   1      43.244  27.134  26.895  1.00  0.00     0.134 A 
ATOM     70  C   UNL A   1      42.055  25.200  27.656  1.00  0.00     0.134 A 
ATOM     71  F   UNL A   1      43.642  28.408  27.036  1.00  0.00    -0.206 F 
ATOM     72  C   UNL A   1      43.656  26.442  25.755  1.00  0.00     0.040 A 
ATOM     73  C   UNL A   1      42.478  24.490  26.530  1.00  0.00     0.040 A 
ATOM     74  F   UNL A   1      41.294  24.560  28.557  1.00  0.00    -0.206 F 
ATOM     75  C   UNL A   1      43.277  25.114  25.573  1.00  0.00     0.006 A 
ENDBRANCH  54  68
BRANCH  55  76
ATOM     76  C   UNL A   1      39.107  31.903  35.590  1.00  0.00     0.057 A 
ATOM     77  C   UNL A   1      38.258  31.359  36.562  1.00  0.00     0.134 A 
ATOM     78  C   UNL A   1      39.477  33.244  35.731  1.00  0.00     0.134 A 
ATOM     79  F   UNL A   1      37.866  30.079  36.479  1.00  0.00    -0.206 F 
ATOM     80  C   UNL A   1      37.778  32.125  37.623  1.00  0.00     0.040 A 
ATOM     81  C   UNL A   1      39.023  34.016  36.801  1.00  0.00     0.040 A 
ATOM     82  F   UNL A   1      40.304  33.813  34.842  1.00  0.00    -0.206 F 
ATOM     83  C   UNL A   1      38.165  33.458  37.747  1.00  0.00     0.006 A 
ENDBRANCH  55  76
BRANCH  67  84
ATOM     84  C   UNL A   1      44.478  27.591  34.705  1.00  0.00     0.057 A 
ATOM     85  C   UNL A   1      45.670  28.307  34.862  1.00  0.00     0.134 A 
ATOM     86  C   UNL A   1      44.322  26.413  35.446  1.00  0.00     0.134 A 
ATOM     87  F   UNL A   1      45.879  29.441  34.177  1.00  0.00    -0.206 F 
ATOM     88  C   UNL A   1      46.674  27.866  35.725  1.00  0.00     0.040 A 
ATOM     89  C   UNL A   1      45.311  25.973  36.328  1.00  0.00     0.040 A 
ATOM     90  F   UNL A   1      43.193  25.696  35.353  1.00  0.00    -0.206 F 
ATOM     91  C   UNL A   1      46.493  26.699  36.465  1.00  0.00     0.006 A 
ENDBRANCH  67  84
ENDBRANCH  41  42
ENDBRANCH  33  36
ENDBRANCH  31  32
ENDBRANCH   1  31
TORSDOF 12
ENDMDL
MODEL 3
REMARK VINA RESULT:     -13.2      2.797      3.717
REMARK SMILES CC1(C)Oc2ccc(NC(=O)[C@H]3CC=CC[C@@H]3C(=O)NCCCNC(=O)c3ccc(-c4c5nc(c(-c6c(F)cccc6F)c6ccc([nH]6)c(-c6c(F)cccc6F)c6nc(c(-c7c(F)cccc7F)c7ccc4[nH]7)C=C6)C=C5)cc3)cc2NC1=O
REMARK SMILES IDX 22 1 21 2 20 3 18 4 19 5 17 7 12 8 13 9 14 10 16 11 15 12
REMARK SMILES IDX 10 13 9 14 11 16 8 17 1 18 2 19 3 20 4 21 84 22 5 23 83 24
REMARK SMILES IDX 85 25 6 26 82 27 7 29 81 30 23 31 24 32 25 33 26 35 27 36
REMARK SMILES IDX 28 37 80 38 29 39 79 40 30 41 31 42 32 43 73 44 33 45 78 46
REMARK SMILES IDX 72 47 74 48 34 49 77 50 71 51 70 52 35 54 61 55 44 56 60 57
REMARK SMILES IDX 45 58 48 59 59 60 75 61 46 62 47 63 58 65 76 66 49 67 36 68
REMARK SMILES IDX 37 69 42 70 38 71 39 72 41 73 43 74 40 75 62 76 63 77 68 78
REMARK SMILES IDX 64 79 65 80 67 81 69 82 66 83 50 84 51 85 56 86 52 87 53 88
REMARK SMILES IDX 55 89 57 90 54 91
REMARK H PARENT 20 6 9 15 83 28 24 34 74 53 48 64
REMARK Flexibility Score: inf
ROOT
ATOM      1  C   UNL A   1      31.730  28.486  26.958  1.00  0.00     0.042 C 
ENDROOT
BRANCH   1   2
ATOM      2  C   UNL A   1      31.214  27.377  26.054  1.00  0.00     0.117 C 
BRANCH   2   3
ATOM      3  N   UNL A   1      31.120  26.109  26.749  1.00  0.00    -0.356 N 
ATOM      4  C   UNL A   1      31.769  24.936  26.553  1.00  0.00     0.224 C 
ATOM      5  O   UNL A   1      31.402  23.991  27.255  1.00  0.00    -0.275 OA
ATOM      6  H   UNL A   1      30.472  26.098  27.491  1.00  0.00     0.163 HD
BRANCH   4   7
ATOM      7  C   UNL A   1      32.853  24.803  25.481  1.00  0.00     0.095 C 
ATOM      8  C   UNL A   1      32.192  24.244  24.194  1.00  0.00     0.095 C 
ATOM      9  C   UNL A   1      31.860  22.739  24.312  1.00  0.00     0.041 C 
ATOM     10  C   UNL A   1      32.792  21.934  25.164  1.00  0.00    -0.030 C 
ATOM     11  C   UNL A   1      34.038  23.940  25.948  1.00  0.00     0.041 C 
ATOM     12  C   UNL A   1      33.786  22.467  25.880  1.00  0.00    -0.030 C 
BRANCH   8  13
ATOM     13  C   UNL A   1      32.989  24.546  22.934  1.00  0.00     0.228 C 
ATOM     14  N   UNL A   1      32.824  25.710  22.230  1.00  0.00    -0.326 N 
ATOM     15  H   UNL A   1      33.326  25.714  21.385  1.00  0.00     0.169 HD
ATOM     16  O   UNL A   1      33.814  23.741  22.492  1.00  0.00    -0.274 OA
BRANCH  14  17
ATOM     17  C   UNL A   1      32.099  26.903  22.436  1.00  0.00     0.043 A 
ATOM     18  C   UNL A   1      27.666  31.305  23.582  1.00  0.00     0.067 C 
ATOM     19  C   UNL A   1      28.374  30.194  22.801  1.00  0.00     0.182 C 
ATOM     20  C   UNL A   1      28.231  30.468  21.294  1.00  0.00     0.067 C 
ATOM     21  O   UNL A   1      29.762  30.296  23.135  1.00  0.00    -0.476 OA
ATOM     22  C   UNL A   1      27.707  28.835  23.123  1.00  0.00     0.268 C 
ATOM     23  C   UNL A   1      30.478  29.159  22.888  1.00  0.00     0.144 A 
ATOM     24  N   UNL A   1      28.532  27.744  23.012  1.00  0.00    -0.319 N 
ATOM     25  O   UNL A   1      26.510  28.694  23.363  1.00  0.00    -0.270 OA
ATOM     26  C   UNL A   1      31.844  29.310  22.720  1.00  0.00     0.051 A 
ATOM     27  C   UNL A   1      29.907  27.889  22.825  1.00  0.00     0.086 A 
ATOM     28  H   UNL A   1      28.146  26.841  23.067  1.00  0.00     0.170 HD
ATOM     29  C   UNL A   1      32.643  28.190  22.472  1.00  0.00     0.030 A 
ATOM     30  C   UNL A   1      30.710  26.767  22.604  1.00  0.00     0.056 A 
ENDBRANCH  14  17
ENDBRANCH   8  13
ENDBRANCH   4   7
ENDBRANCH   2   3
ENDBRANCH   1   2
BRANCH   1  31
ATOM     31  C   UNL A   1      32.739  29.419  26.299  1.00  0.00     0.118 C 
BRANCH  31  32
ATOM     32  N   UNL A   1      32.525  30.825  26.619  1.00  0.00    -0.352 N 
ATOM     33  C   UNL A   1      33.314  31.701  27.327  1.00  0.00     0.251 C 
ATOM     34  H   UNL A   1      31.685  31.208  26.276  1.00  0.00     0.163 HD
ATOM     35  O   UNL A   1      32.895  32.818  27.620  1.00  0.00    -0.269 OA
BRANCH  33  36
ATOM     36  C   UNL A   1      34.653  31.273  27.781  1.00  0.00     0.039 A 
ATOM     37  C   UNL A   1      34.916  29.928  28.033  1.00  0.00     0.014 A 
ATOM     38  C   UNL A   1      35.636  32.238  28.013  1.00  0.00     0.014 A 
ATOM     39  C   UNL A   1      36.065  29.575  28.726  1.00  0.00     0.010 A 
ATOM     40  C   UNL A   1      36.843  31.863  28.608  1.00  0.00     0.010 A 
ATOM     41  C   UNL A   1      37.040  30.539  29.030  1.00  0.00    -0.014 A 
BRANCH  41  42
ATOM     42  C   UNL A   1      38.241  30.147  29.811  1.00  0.00     0.031 A 
ATOM     43  C   UNL A   1      38.411  30.601  31.236  1.00  0.00     0.074 A 
ATOM     44  C   UNL A   1      39.155  29.330  29.252  1.00  0.00     0.049 A 
ATOM     45  N   UNL A   1      39.416  30.404  32.053  1.00  0.00    -0.248 NA
ATOM     46  C   UNL A   1      37.310  31.384  31.823  1.00  0.00     0.031 C 
ATOM     47  C   UNL A   1      39.088  28.791  27.892  1.00  0.00     0.029 A 
ATOM     48  N   UNL A   1      40.306  28.792  29.766  1.00  0.00    -0.354 N 
ATOM     49  C   UNL A   1      39.086  31.061  33.231  1.00  0.00     0.074 A 
ATOM     50  C   UNL A   1      37.794  31.680  33.021  1.00  0.00     0.031 C 
ATOM     51  C   UNL A   1      40.118  27.956  27.700  1.00  0.00     0.029 A 
ATOM     52  C   UNL A   1      40.962  27.964  28.888  1.00  0.00     0.049 A 
ATOM     53  H   UNL A   1      40.631  28.979  30.677  1.00  0.00     0.167 HD
ATOM     54  C   UNL A   1      39.791  31.136  34.386  1.00  0.00     0.037 A 
ATOM     55  C   UNL A   1      42.130  27.311  29.013  1.00  0.00     0.037 A 
ATOM     56  C   UNL A   1      41.060  30.491  34.604  1.00  0.00     0.049 A 
ATOM     57  C   UNL A   1      42.924  27.469  30.274  1.00  0.00     0.074 A 
ATOM     58  C   UNL A   1      41.839  30.481  35.748  1.00  0.00     0.029 A 
ATOM     59  N   UNL A   1      41.732  29.735  33.656  1.00  0.00    -0.354 N 
ATOM     60  N   UNL A   1      42.613  28.117  31.369  1.00  0.00    -0.248 NA
ATOM     61  C   UNL A   1      44.247  26.831  30.303  1.00  0.00     0.031 C 
ATOM     62  C   UNL A   1      43.001  29.749  35.480  1.00  0.00     0.029 A 
ATOM     63  C   UNL A   1      42.929  29.276  34.180  1.00  0.00     0.049 A 
ATOM     64  H   UNL A   1      41.406  29.552  32.746  1.00  0.00     0.167 HD
ATOM     65  C   UNL A   1      43.700  27.969  32.218  1.00  0.00     0.074 A 
ATOM     66  C   UNL A   1      44.668  27.146  31.519  1.00  0.00     0.031 C 
ATOM     67  C   UNL A   1      43.885  28.475  33.461  1.00  0.00     0.037 A 
BRANCH  54  68
ATOM     68  C   UNL A   1      39.215  31.965  35.497  1.00  0.00     0.057 A 
ATOM     69  C   UNL A   1      38.360  31.389  36.445  1.00  0.00     0.134 A 
ATOM     70  C   UNL A   1      39.481  33.335  35.614  1.00  0.00     0.134 A 
ATOM     71  F   UNL A   1      38.062  30.082  36.387  1.00  0.00    -0.206 F 
ATOM     72  C   UNL A   1      37.791  32.145  37.471  1.00  0.00     0.040 A 
ATOM     73  C   UNL A   1      38.934  34.098  36.647  1.00  0.00     0.040 A 
ATOM     74  F   UNL A   1      40.303  33.945  34.746  1.00  0.00    -0.206 F 
ATOM     75  C   UNL A   1      38.081  33.504  37.576  1.00  0.00     0.006 A 
ENDBRANCH  54  68
BRANCH  55  76
ATOM     76  C   UNL A   1      42.634  26.480  27.892  1.00  0.00     0.057 A 
ATOM     77  C   UNL A   1      43.443  27.026  26.888  1.00  0.00     0.134 A 
ATOM     78  C   UNL A   1      42.308  25.124  27.796  1.00  0.00     0.134 A 
ATOM     79  F   UNL A   1      43.787  28.323  26.925  1.00  0.00    -0.206 F 
ATOM     80  C   UNL A   1      43.894  26.258  25.816  1.00  0.00     0.040 A 
ATOM     81  C   UNL A   1      42.771  24.338  26.741  1.00  0.00     0.040 A 
ATOM     82  F   UNL A   1      41.553  24.543  28.739  1.00  0.00    -0.206 F 
ATOM     83  C   UNL A   1      43.561  24.907  25.743  1.00  0.00     0.006 A 
ENDBRANCH  55  76
BRANCH  67  84
ATOM     84  C   UNL A   1      45.184  28.151  34.132  1.00  0.00     0.057 A 
ATOM     85  C   UNL A   1      46.290  28.998  34.004  1.00  0.00     0.134 A 
ATOM     86  C   UNL A   1      45.337  26.990  34.900  1.00  0.00     0.134 A 
ATOM     87  F   UNL A   1      46.207  30.124  33.279  1.00  0.00    -0.206 F 
ATOM     88  C   UNL A   1      47.508  28.701  34.618  1.00  0.00     0.040 A 
ATOM     89  C   UNL A   1      46.544  26.692  35.535  1.00  0.00     0.040 A 
ATOM     90  F   UNL A   1      44.306  26.150  35.074  1.00  0.00    -0.206 F 
ATOM     91  C   UNL A   1      47.635  27.548  35.391  1.00  0.00     0.006 A 
ENDBRANCH  67  84
ENDBRANCH  41  42
ENDBRANCH  33  36
ENDBRANCH  31  32
ENDBRANCH   1  31
TORSDOF 12
ENDMDL
