MODEL 1
REMARK VINA RESULT:     -11.7      0.000      0.000
REMARK SMILES CO[C@@]1(C(=O)NCCCNC(=O)c2ccc(-c3c4nc(c(-c5c(F)cccc5F)c5ccc([nH]5)c(-c5c(F)cccc5F)c5nc(c(-c6c(F)cccc6F)c6ccc3[nH]6)C=C5)C=C4)cc2)CC(c2ccccc2)=CC=C1C
REMARK SMILES IDX 8 1 7 2 6 3 4 4 5 5 3 7 67 8 77 9 68 10 76 11 78 12 75 13
REMARK SMILES IDX 2 14 1 15 69 16 70 17 74 18 71 19 73 20 72 21 9 22 10 23
REMARK SMILES IDX 11 24 12 26 13 27 14 28 66 29 15 30 65 31 16 32 17 33 18 34
REMARK SMILES IDX 59 35 19 36 64 37 58 38 60 39 20 40 63 41 57 42 56 43 21 45
REMARK SMILES IDX 47 46 30 47 46 48 31 49 34 50 45 51 61 52 32 53 33 54 44 56
REMARK SMILES IDX 62 57 35 58 22 59 23 60 28 61 24 62 25 63 27 64 29 65 26 66
REMARK SMILES IDX 48 67 49 68 54 69 50 70 51 71 53 72 55 73 52 74 36 75 37 76
REMARK SMILES IDX 42 77 38 78 39 79 41 80 43 81 40 82
REMARK H PARENT 6 6 10 25 60 44 34 55
REMARK Flexibility Score: inf
ROOT
ATOM      1  C   UNL A   1      32.392  27.918  27.164  1.00  0.00     0.042 C 
ENDROOT
BRANCH   1   2
ATOM      2  C   UNL A   1      32.297  26.724  26.214  1.00  0.00     0.117 C 
BRANCH   2   3
ATOM      3  N   UNL A   1      31.702  25.589  26.885  1.00  0.00    -0.353 N 
ATOM      4  C   UNL A   1      31.484  24.299  26.525  1.00  0.00     0.256 C 
ATOM      5  O   UNL A   1      30.732  23.699  27.313  1.00  0.00    -0.271 OA
ATOM      6  H   UNL A   1      31.390  25.796  27.796  1.00  0.00     0.163 HD
BRANCH   4   7
ATOM      7  C   UNL A   1      32.144  23.511  25.305  1.00  0.00     0.171 C 
ATOM      8  C   UNL A   1      33.629  23.294  25.803  1.00  0.00     0.086 C 
ATOM      9  C   UNL A   1      32.093  24.143  23.910  1.00  0.00    -0.032 C 
ATOM     10  C   UNL A   1      34.740  23.514  24.803  1.00  0.00    -0.037 C 
ATOM     11  C   UNL A   1      33.192  24.468  23.204  1.00  0.00     0.003 C 
ATOM     12  C   UNL A   1      30.775  24.182  23.178  1.00  0.00     0.043 C 
ATOM     13  C   UNL A   1      34.518  24.120  23.629  1.00  0.00     0.004 C 
BRANCH   7  14
ATOM     14  O   UNL A   1      31.414  22.280  25.090  1.00  0.00    -0.364 OA
ATOM     15  C   UNL A   1      32.103  21.045  25.124  1.00  0.00     0.197 C 
ENDBRANCH   7  14
BRANCH  10  16
ATOM     16  C   UNL A   1      36.081  22.991  25.126  1.00  0.00    -0.022 A 
ATOM     17  C   UNL A   1      36.465  21.695  24.755  1.00  0.00     0.008 A 
ATOM     18  C   UNL A   1      36.990  23.784  25.841  1.00  0.00     0.008 A 
ATOM     19  C   UNL A   1      37.732  21.208  25.089  1.00  0.00     0.001 A 
ATOM     20  C   UNL A   1      38.256  23.299  26.171  1.00  0.00     0.001 A 
ATOM     21  C   UNL A   1      38.626  22.010  25.795  1.00  0.00     0.000 A 
ENDBRANCH  10  16
ENDBRANCH   4   7
ENDBRANCH   2   3
ENDBRANCH   1   2
BRANCH   1  22
ATOM     22  C   UNL A   1      33.779  28.545  27.218  1.00  0.00     0.118 C 
BRANCH  22  23
ATOM     23  N   UNL A   1      33.725  29.932  27.657  1.00  0.00    -0.352 N 
ATOM     24  C   UNL A   1      34.662  30.675  28.325  1.00  0.00     0.251 C 
ATOM     25  H   UNL A   1      32.889  30.407  27.440  1.00  0.00     0.163 HD
ATOM     26  O   UNL A   1      34.337  31.763  28.802  1.00  0.00    -0.269 OA
BRANCH  24  27
ATOM     27  C   UNL A   1      36.050  30.190  28.486  1.00  0.00     0.039 A 
ATOM     28  C   UNL A   1      36.442  29.683  29.729  1.00  0.00     0.014 A 
ATOM     29  C   UNL A   1      36.986  30.291  27.452  1.00  0.00     0.014 A 
ATOM     30  C   UNL A   1      37.756  29.251  29.926  1.00  0.00     0.010 A 
ATOM     31  C   UNL A   1      38.278  29.798  27.627  1.00  0.00     0.010 A 
ATOM     32  C   UNL A   1      38.681  29.292  28.872  1.00  0.00    -0.014 A 
BRANCH  32  33
ATOM     33  C   UNL A   1      40.086  28.856  29.066  1.00  0.00     0.031 A 
ATOM     34  C   UNL A   1      41.082  29.796  29.689  1.00  0.00     0.074 A 
ATOM     35  C   UNL A   1      40.474  27.637  28.647  1.00  0.00     0.049 A 
ATOM     36  N   UNL A   1      42.367  29.633  29.880  1.00  0.00    -0.248 NA
ATOM     37  C   UNL A   1      40.572  31.102  30.135  1.00  0.00     0.031 C 
ATOM     38  C   UNL A   1      39.610  26.649  27.997  1.00  0.00     0.029 A 
ATOM     39  N   UNL A   1      41.700  27.024  28.696  1.00  0.00    -0.354 N 
ATOM     40  C   UNL A   1      42.818  30.818  30.449  1.00  0.00     0.074 A 
ATOM     41  C   UNL A   1      41.681  31.708  30.529  1.00  0.00     0.031 C 
ATOM     42  C   UNL A   1      40.328  25.546  27.729  1.00  0.00     0.029 A 
ATOM     43  C   UNL A   1      41.707  25.761  28.156  1.00  0.00     0.049 A 
ATOM     44  H   UNL A   1      42.500  27.449  29.082  1.00  0.00     0.167 HD
ATOM     45  C   UNL A   1      44.062  31.128  30.887  1.00  0.00     0.037 A 
ATOM     46  C   UNL A   1      42.715  24.878  28.019  1.00  0.00     0.037 A 
ATOM     47  C   UNL A   1      45.184  30.229  30.836  1.00  0.00     0.049 A 
ATOM     48  C   UNL A   1      44.083  25.244  28.522  1.00  0.00     0.074 A 
ATOM     49  C   UNL A   1      46.476  30.433  31.287  1.00  0.00     0.029 A 
ATOM     50  N   UNL A   1      45.141  28.947  30.310  1.00  0.00    -0.354 N 
ATOM     51  N   UNL A   1      44.485  26.352  29.096  1.00  0.00    -0.248 NA
ATOM     52  C   UNL A   1      45.138  24.232  28.366  1.00  0.00     0.031 C 
ATOM     53  C   UNL A   1      47.222  29.283  31.010  1.00  0.00     0.029 A 
ATOM     54  C   UNL A   1      46.384  28.350  30.420  1.00  0.00     0.049 A 
ATOM     55  H   UNL A   1      44.344  28.524  29.915  1.00  0.00     0.167 HD
ATOM     56  C   UNL A   1      45.826  26.160  29.398  1.00  0.00     0.074 A 
ATOM     57  C   UNL A   1      46.168  24.825  28.954  1.00  0.00     0.031 C 
ATOM     58  C   UNL A   1      46.698  27.012  29.990  1.00  0.00     0.037 A 
BRANCH  45  59
ATOM     59  C   UNL A   1      44.269  32.494  31.470  1.00  0.00     0.057 A 
ATOM     60  C   UNL A   1      44.644  33.584  30.673  1.00  0.00     0.134 A 
ATOM     61  C   UNL A   1      44.062  32.732  32.834  1.00  0.00     0.134 A 
ATOM     62  F   UNL A   1      44.872  33.421  29.361  1.00  0.00    -0.206 F 
ATOM     63  C   UNL A   1      44.826  34.858  31.216  1.00  0.00     0.040 A 
ATOM     64  C   UNL A   1      44.216  34.007  33.384  1.00  0.00     0.040 A 
ATOM     65  F   UNL A   1      43.697  31.734  33.652  1.00  0.00    -0.206 F 
ATOM     66  C   UNL A   1      44.606  35.072  32.575  1.00  0.00     0.006 A 
ENDBRANCH  45  59
BRANCH  46  67
ATOM     67  C   UNL A   1      42.465  23.550  27.405  1.00  0.00     0.057 A 
ATOM     68  C   UNL A   1      42.139  22.443  28.195  1.00  0.00     0.134 A 
ATOM     69  C   UNL A   1      42.563  23.351  26.023  1.00  0.00     0.134 A 
ATOM     70  F   UNL A   1      42.048  22.567  29.528  1.00  0.00    -0.206 F 
ATOM     71  C   UNL A   1      41.941  21.178  27.638  1.00  0.00     0.040 A 
ATOM     72  C   UNL A   1      42.346  22.098  25.448  1.00  0.00     0.040 A 
ATOM     73  F   UNL A   1      42.866  24.374  25.211  1.00  0.00    -0.206 F 
ATOM     74  C   UNL A   1      42.042  21.005  26.259  1.00  0.00     0.006 A 
ENDBRANCH  46  67
BRANCH  58  75
ATOM     75  C   UNL A   1      48.088  26.508  30.232  1.00  0.00     0.057 A 
ATOM     76  C   UNL A   1      49.111  26.680  29.292  1.00  0.00     0.134 A 
ATOM     77  C   UNL A   1      48.413  25.872  31.437  1.00  0.00     0.134 A 
ATOM     78  F   UNL A   1      48.859  27.269  28.113  1.00  0.00    -0.206 F 
ATOM     79  C   UNL A   1      50.405  26.218  29.534  1.00  0.00     0.040 A 
ATOM     80  C   UNL A   1      49.709  25.428  31.699  1.00  0.00     0.040 A 
ATOM     81  F   UNL A   1      47.478  25.683  32.382  1.00  0.00    -0.206 F 
ATOM     82  C   UNL A   1      50.708  25.595  30.743  1.00  0.00     0.006 A 
ENDBRANCH  58  75
ENDBRANCH  32  33
ENDBRANCH  24  27
ENDBRANCH  22  23
ENDBRANCH   1  22
TORSDOF 12
ENDMDL
MODEL 2
REMARK VINA RESULT:     -11.6      1.853      2.444
REMARK SMILES CO[C@@]1(C(=O)NCCCNC(=O)c2ccc(-c3c4nc(c(-c5c(F)cccc5F)c5ccc([nH]5)c(-c5c(F)cccc5F)c5nc(c(-c6c(F)cccc6F)c6ccc3[nH]6)C=C5)C=C4)cc2)CC(c2ccccc2)=CC=C1C
REMARK SMILES IDX 8 1 7 2 6 3 4 4 5 5 3 7 67 8 77 9 68 10 76 11 78 12 75 13
REMARK SMILES IDX 2 14 1 15 69 16 70 17 74 18 71 19 73 20 72 21 9 22 10 23
REMARK SMILES IDX 11 24 12 26 13 27 14 28 66 29 15 30 65 31 16 32 17 33 18 34
REMARK SMILES IDX 59 35 19 36 64 37 58 38 60 39 20 40 63 41 57 42 56 43 21 45
REMARK SMILES IDX 47 46 30 47 46 48 31 49 34 50 45 51 61 52 32 53 33 54 44 56
REMARK SMILES IDX 62 57 35 58 22 59 23 60 28 61 24 62 25 63 27 64 29 65 26 66
REMARK SMILES IDX 48 67 49 68 54 69 50 70 51 71 53 72 55 73 52 74 36 75 37 76
REMARK SMILES IDX 42 77 38 78 39 79 41 80 43 81 40 82
REMARK H PARENT 6 6 10 25 60 44 34 55
REMARK Flexibility Score: inf
ROOT
ATOM      1  C   UNL A   1      32.943  27.909  26.875  1.00  0.00     0.042 C 
ENDROOT
BRANCH   1   2
ATOM      2  C   UNL A   1      32.242  26.901  25.965  1.00  0.00     0.117 C 
BRANCH   2   3
ATOM      3  N   UNL A   1      31.688  25.816  26.744  1.00  0.00    -0.353 N 
ATOM      4  C   UNL A   1      31.491  24.496  26.500  1.00  0.00     0.256 C 
ATOM      5  O   UNL A   1      30.771  23.950  27.355  1.00  0.00    -0.271 OA
ATOM      6  H   UNL A   1      31.392  26.094  27.641  1.00  0.00     0.163 HD
BRANCH   4   7
ATOM      7  C   UNL A   1      32.141  23.621  25.336  1.00  0.00     0.171 C 
ATOM      8  C   UNL A   1      33.625  23.423  25.845  1.00  0.00     0.086 C 
ATOM      9  C   UNL A   1      32.092  24.157  23.900  1.00  0.00    -0.032 C 
ATOM     10  C   UNL A   1      34.736  23.564  24.831  1.00  0.00    -0.037 C 
ATOM     11  C   UNL A   1      33.194  24.423  23.173  1.00  0.00     0.003 C 
ATOM     12  C   UNL A   1      30.774  24.158  23.169  1.00  0.00     0.043 C 
ATOM     13  C   UNL A   1      34.517  24.091  23.618  1.00  0.00     0.004 C 
BRANCH   7  14
ATOM     14  O   UNL A   1      31.399  22.384  25.205  1.00  0.00    -0.364 OA
ATOM     15  C   UNL A   1      32.097  21.156  25.125  1.00  0.00     0.197 C 
ENDBRANCH   7  14
BRANCH  10  16
ATOM     16  C   UNL A   1      36.073  23.051  25.186  1.00  0.00    -0.022 A 
ATOM     17  C   UNL A   1      37.002  23.852  25.863  1.00  0.00     0.008 A 
ATOM     18  C   UNL A   1      36.443  21.749  24.824  1.00  0.00     0.008 A 
ATOM     19  C   UNL A   1      38.272  23.358  26.173  1.00  0.00     0.001 A 
ATOM     20  C   UNL A   1      37.711  21.254  25.135  1.00  0.00     0.001 A 
ATOM     21  C   UNL A   1      38.625  22.059  25.809  1.00  0.00     0.000 A 
ENDBRANCH  10  16
ENDBRANCH   4   7
ENDBRANCH   2   3
ENDBRANCH   1   2
BRANCH   1  22
ATOM     22  C   UNL A   1      33.876  28.856  26.131  1.00  0.00     0.118 C 
BRANCH  22  23
ATOM     23  N   UNL A   1      33.770  30.219  26.631  1.00  0.00    -0.352 N 
ATOM     24  C   UNL A   1      34.520  30.864  27.579  1.00  0.00     0.251 C 
ATOM     25  H   UNL A   1      33.051  30.758  26.227  1.00  0.00     0.163 HD
ATOM     26  O   UNL A   1      34.129  31.944  28.022  1.00  0.00    -0.269 OA
BRANCH  24  27
ATOM     27  C   UNL A   1      35.784  30.281  28.081  1.00  0.00     0.039 A 
ATOM     28  C   UNL A   1      35.787  29.670  29.339  1.00  0.00     0.014 A 
ATOM     29  C   UNL A   1      36.977  30.389  27.359  1.00  0.00     0.014 A 
ATOM     30  C   UNL A   1      36.972  29.144  29.859  1.00  0.00     0.010 A 
ATOM     31  C   UNL A   1      38.144  29.803  27.847  1.00  0.00     0.010 A 
ATOM     32  C   UNL A   1      38.158  29.193  29.110  1.00  0.00    -0.014 A 
BRANCH  32  33
ATOM     33  C   UNL A   1      39.431  28.656  29.651  1.00  0.00     0.031 A 
ATOM     34  C   UNL A   1      40.062  29.299  30.857  1.00  0.00     0.074 A 
ATOM     35  C   UNL A   1      40.038  27.624  29.037  1.00  0.00     0.049 A 
ATOM     36  N   UNL A   1      41.202  29.026  31.439  1.00  0.00    -0.248 NA
ATOM     37  C   UNL A   1      39.324  30.411  31.477  1.00  0.00     0.031 C 
ATOM     38  C   UNL A   1      39.544  26.939  27.842  1.00  0.00     0.029 A 
ATOM     39  N   UNL A   1      41.210  26.974  29.331  1.00  0.00    -0.354 N 
ATOM     40  C   UNL A   1      41.326  29.942  32.477  1.00  0.00     0.074 A 
ATOM     41  C   UNL A   1      40.167  30.807  32.417  1.00  0.00     0.031 C 
ATOM     42  C   UNL A   1      40.395  25.952  27.517  1.00  0.00     0.029 A 
ATOM     43  C   UNL A   1      41.509  25.955  28.459  1.00  0.00     0.049 A 
ATOM     44  H   UNL A   1      41.783  27.215  30.095  1.00  0.00     0.167 HD
ATOM     45  C   UNL A   1      42.302  30.039  33.411  1.00  0.00     0.037 A 
ATOM     46  C   UNL A   1      42.566  25.121  28.425  1.00  0.00     0.037 A 
ATOM     47  C   UNL A   1      43.435  29.156  33.488  1.00  0.00     0.049 A 
ATOM     48  C   UNL A   1      43.631  25.244  29.479  1.00  0.00     0.074 A 
ATOM     49  C   UNL A   1      44.461  29.146  34.416  1.00  0.00     0.029 A 
ATOM     50  N   UNL A   1      43.684  28.117  32.604  1.00  0.00    -0.354 N 
ATOM     51  N   UNL A   1      43.712  26.087  30.480  1.00  0.00    -0.248 NA
ATOM     52  C   UNL A   1      44.749  24.291  29.404  1.00  0.00     0.031 C 
ATOM     53  C   UNL A   1      45.346  28.116  34.080  1.00  0.00     0.029 A 
ATOM     54  C   UNL A   1      44.850  27.462  32.963  1.00  0.00     0.049 A 
ATOM     55  H   UNL A   1      43.117  27.880  31.835  1.00  0.00     0.167 HD
ATOM     56  C   UNL A   1      44.868  25.749  31.170  1.00  0.00     0.074 A 
ATOM     57  C   UNL A   1      45.451  24.616  30.481  1.00  0.00     0.031 C 
ATOM     58  C   UNL A   1      45.401  26.323  32.275  1.00  0.00     0.037 A 
BRANCH  45  59
ATOM     59  C   UNL A   1      42.179  31.131  34.430  1.00  0.00     0.057 A 
ATOM     60  C   UNL A   1      42.736  32.400  34.219  1.00  0.00     0.134 A 
ATOM     61  C   UNL A   1      41.470  30.927  35.620  1.00  0.00     0.134 A 
ATOM     62  F   UNL A   1      43.439  32.657  33.106  1.00  0.00    -0.206 F 
ATOM     63  C   UNL A   1      42.611  33.420  35.165  1.00  0.00     0.040 A 
ATOM     64  C   UNL A   1      41.316  31.946  36.563  1.00  0.00     0.040 A 
ATOM     65  F   UNL A   1      40.908  29.738  35.883  1.00  0.00    -0.206 F 
ATOM     66  C   UNL A   1      41.893  33.195  36.339  1.00  0.00     0.006 A 
ENDBRANCH  45  59
BRANCH  46  67
ATOM     67  C   UNL A   1      42.658  24.076  27.375  1.00  0.00     0.057 A 
ATOM     68  C   UNL A   1      43.223  24.359  26.127  1.00  0.00     0.134 A 
ATOM     69  C   UNL A   1      42.171  22.781  27.585  1.00  0.00     0.134 A 
ATOM     70  F   UNL A   1      43.691  25.587  25.861  1.00  0.00    -0.206 F 
ATOM     71  C   UNL A   1      43.281  23.399  25.115  1.00  0.00     0.040 A 
ATOM     72  C   UNL A   1      42.242  21.804  26.591  1.00  0.00     0.040 A 
ATOM     73  F   UNL A   1      41.623  22.445  28.762  1.00  0.00    -0.206 F 
ATOM     74  C   UNL A   1      42.791  22.116  25.349  1.00  0.00     0.006 A 
ENDBRANCH  46  67
BRANCH  58  75
ATOM     75  C   UNL A   1      46.649  25.708  32.832  1.00  0.00     0.057 A 
ATOM     76  C   UNL A   1      47.922  26.100  32.402  1.00  0.00     0.134 A 
ATOM     77  C   UNL A   1      46.572  24.733  33.835  1.00  0.00     0.134 A 
ATOM     78  F   UNL A   1      48.060  27.019  31.435  1.00  0.00    -0.206 F 
ATOM     79  C   UNL A   1      49.077  25.529  32.937  1.00  0.00     0.040 A 
ATOM     80  C   UNL A   1      47.721  24.172  34.394  1.00  0.00     0.040 A 
ATOM     81  F   UNL A   1      45.381  24.319  34.295  1.00  0.00    -0.206 F 
ATOM     82  C   UNL A   1      48.977  24.566  33.941  1.00  0.00     0.006 A 
ENDBRANCH  58  75
ENDBRANCH  32  33
ENDBRANCH  24  27
ENDBRANCH  22  23
ENDBRANCH   1  22
TORSDOF 12
ENDMDL
MODEL 3
REMARK VINA RESULT:     -11.5      2.670      7.489
REMARK SMILES CO[C@@]1(C(=O)NCCCNC(=O)c2ccc(-c3c4nc(c(-c5c(F)cccc5F)c5ccc([nH]5)c(-c5c(F)cccc5F)c5nc(c(-c6c(F)cccc6F)c6ccc3[nH]6)C=C5)C=C4)cc2)CC(c2ccccc2)=CC=C1C
REMARK SMILES IDX 8 1 7 2 6 3 4 4 5 5 3 7 67 8 77 9 68 10 76 11 78 12 75 13
REMARK SMILES IDX 2 14 1 15 69 16 70 17 74 18 71 19 73 20 72 21 9 22 10 23
REMARK SMILES IDX 11 24 12 26 13 27 14 28 66 29 15 30 65 31 16 32 17 33 18 34
REMARK SMILES IDX 59 35 19 36 64 37 58 38 60 39 20 40 63 41 57 42 56 43 21 45
REMARK SMILES IDX 47 46 30 47 46 48 31 49 34 50 45 51 61 52 32 53 33 54 44 56
REMARK SMILES IDX 62 57 35 58 22 59 23 60 28 61 24 62 25 63 27 64 29 65 26 66
REMARK SMILES IDX 48 67 49 68 54 69 50 70 51 71 53 72 55 73 52 74 36 75 37 76
REMARK SMILES IDX 42 77 38 78 39 79 41 80 43 81 40 82
REMARK H PARENT 6 6 10 25 60 44 34 55
REMARK Flexibility Score: inf
ROOT
ATOM      1  C   UNL A   1      38.674  20.450  25.027  1.00  0.00     0.042 C 
ENDROOT
BRANCH   1   2
ATOM      2  C   UNL A   1      38.092  21.780  25.505  1.00  0.00     0.117 C 
BRANCH   2   3
ATOM      3  N   UNL A   1      37.460  22.480  24.408  1.00  0.00    -0.353 N 
ATOM      4  C   UNL A   1      36.181  22.551  23.959  1.00  0.00     0.256 C 
ATOM      5  O   UNL A   1      36.094  23.086  22.839  1.00  0.00    -0.271 OA
ATOM      6  H   UNL A   1      38.090  23.017  23.876  1.00  0.00     0.163 HD
BRANCH   4   7
ATOM      7  C   UNL A   1      34.857  22.122  24.737  1.00  0.00     0.171 C 
ATOM      8  C   UNL A   1      34.942  20.543  24.708  1.00  0.00     0.086 C 
ATOM      9  C   UNL A   1      33.507  22.634  24.225  1.00  0.00    -0.032 C 
ATOM     10  C   UNL A   1      33.672  19.780  24.412  1.00  0.00    -0.037 C 
ATOM     11  C   UNL A   1      32.519  21.821  23.805  1.00  0.00     0.003 C 
ATOM     12  C   UNL A   1      33.157  24.087  24.424  1.00  0.00     0.043 C 
ATOM     13  C   UNL A   1      32.581  20.393  23.933  1.00  0.00     0.004 C 
BRANCH   7  14
ATOM     14  O   UNL A   1      34.891  22.684  26.070  1.00  0.00    -0.364 OA
ATOM     15  C   UNL A   1      34.429  21.915  27.164  1.00  0.00     0.197 C 
ENDBRANCH   7  14
BRANCH  10  16
ATOM     16  C   UNL A   1      33.638  18.338  24.718  1.00  0.00    -0.022 A 
ATOM     17  C   UNL A   1      32.538  17.757  25.361  1.00  0.00     0.008 A 
ATOM     18  C   UNL A   1      34.733  17.525  24.389  1.00  0.00     0.008 A 
ATOM     19  C   UNL A   1      32.532  16.392  25.664  1.00  0.00     0.001 A 
ATOM     20  C   UNL A   1      34.726  16.162  24.689  1.00  0.00     0.001 A 
ATOM     21  C   UNL A   1      33.625  15.596  25.326  1.00  0.00     0.000 A 
ENDBRANCH  10  16
ENDBRANCH   4   7
ENDBRANCH   2   3
ENDBRANCH   1   2
BRANCH   1  22
ATOM     22  C   UNL A   1      39.233  19.589  26.152  1.00  0.00     0.118 C 
BRANCH  22  23
ATOM     23  N   UNL A   1      40.537  19.039  25.812  1.00  0.00    -0.352 N 
ATOM     24  C   UNL A   1      41.765  19.645  25.795  1.00  0.00     0.251 C 
ATOM     25  H   UNL A   1      40.535  18.088  25.555  1.00  0.00     0.163 HD
ATOM     26  O   UNL A   1      42.713  19.068  25.261  1.00  0.00    -0.269 OA
BRANCH  24  27
ATOM     27  C   UNL A   1      41.968  20.980  26.400  1.00  0.00     0.039 A 
ATOM     28  C   UNL A   1      42.285  22.054  25.561  1.00  0.00     0.014 A 
ATOM     29  C   UNL A   1      41.916  21.172  27.784  1.00  0.00     0.014 A 
ATOM     30  C   UNL A   1      42.519  23.320  26.104  1.00  0.00     0.010 A 
ATOM     31  C   UNL A   1      42.083  22.448  28.319  1.00  0.00     0.010 A 
ATOM     32  C   UNL A   1      42.406  23.530  27.487  1.00  0.00    -0.014 A 
BRANCH  32  33
ATOM     33  C   UNL A   1      42.669  24.863  28.085  1.00  0.00     0.031 A 
ATOM     34  C   UNL A   1      44.055  25.211  28.556  1.00  0.00     0.074 A 
ATOM     35  C   UNL A   1      41.659  25.738  28.242  1.00  0.00     0.049 A 
ATOM     36  N   UNL A   1      44.476  26.290  29.167  1.00  0.00    -0.248 NA
ATOM     37  C   UNL A   1      45.104  24.204  28.330  1.00  0.00     0.031 C 
ATOM     38  C   UNL A   1      40.266  25.504  27.858  1.00  0.00     0.029 A 
ATOM     39  N   UNL A   1      41.648  27.002  28.777  1.00  0.00    -0.354 N 
ATOM     40  C   UNL A   1      45.827  26.082  29.415  1.00  0.00     0.074 A 
ATOM     41  C   UNL A   1      46.147  24.757  28.929  1.00  0.00     0.031 C 
ATOM     42  C   UNL A   1      39.540  26.596  28.149  1.00  0.00     0.029 A 
ATOM     43  C   UNL A   1      40.408  27.592  28.770  1.00  0.00     0.049 A 
ATOM     44  H   UNL A   1      42.453  27.444  29.132  1.00  0.00     0.167 HD
ATOM     45  C   UNL A   1      46.726  26.927  29.973  1.00  0.00     0.037 A 
ATOM     46  C   UNL A   1      40.017  28.801  29.217  1.00  0.00     0.037 A 
ATOM     47  C   UNL A   1      46.413  28.257  30.424  1.00  0.00     0.049 A 
ATOM     48  C   UNL A   1      41.036  29.723  29.824  1.00  0.00     0.074 A 
ATOM     49  C   UNL A   1      47.258  29.206  30.970  1.00  0.00     0.029 A 
ATOM     50  N   UNL A   1      45.150  28.829  30.369  1.00  0.00    -0.354 N 
ATOM     51  N   UNL A   1      42.319  29.530  30.012  1.00  0.00    -0.248 NA
ATOM     52  C   UNL A   1      40.555  31.038  30.272  1.00  0.00     0.031 C 
ATOM     53  C   UNL A   1      46.503  30.344  31.270  1.00  0.00     0.029 A 
ATOM     54  C   UNL A   1      45.194  30.115  30.876  1.00  0.00     0.049 A 
ATOM     55  H   UNL A   1      44.343  28.384  30.023  1.00  0.00     0.167 HD
ATOM     56  C   UNL A   1      42.804  30.704  30.570  1.00  0.00     0.074 A 
ATOM     57  C   UNL A   1      41.680  31.611  30.680  1.00  0.00     0.031 C 
ATOM     58  C   UNL A   1      44.067  31.008  30.957  1.00  0.00     0.037 A 
BRANCH  45  59
ATOM     59  C   UNL A   1      48.138  26.441  30.115  1.00  0.00     0.057 A 
ATOM     60  C   UNL A   1      49.090  26.643  29.107  1.00  0.00     0.134 A 
ATOM     61  C   UNL A   1      48.561  25.794  31.282  1.00  0.00     0.134 A 
ATOM     62  F   UNL A   1      48.746  27.245  27.958  1.00  0.00    -0.206 F 
ATOM     63  C   UNL A   1      50.407  26.199  29.245  1.00  0.00     0.040 A 
ATOM     64  C   UNL A   1      49.881  25.368  31.443  1.00  0.00     0.040 A 
ATOM     65  F   UNL A   1      47.702  25.572  32.288  1.00  0.00    -0.206 F 
ATOM     66  C   UNL A   1      50.806  25.565  30.420  1.00  0.00     0.006 A 
ENDBRANCH  45  59
BRANCH  46  67
ATOM     67  C   UNL A   1      38.600  29.224  29.082  1.00  0.00     0.057 A 
ATOM     68  C   UNL A   1      37.726  29.166  30.173  1.00  0.00     0.134 A 
ATOM     69  C   UNL A   1      38.083  29.676  27.863  1.00  0.00     0.134 A 
ATOM     70  F   UNL A   1      38.160  28.725  31.363  1.00  0.00    -0.206 F 
ATOM     71  C   UNL A   1      36.382  29.522  30.054  1.00  0.00     0.040 A 
ATOM     72  C   UNL A   1      36.746  30.057  27.733  1.00  0.00     0.040 A 
ATOM     73  F   UNL A   1      38.870  29.760  26.781  1.00  0.00    -0.206 F 
ATOM     74  C   UNL A   1      35.890  29.972  28.830  1.00  0.00     0.006 A 
ENDBRANCH  46  67
BRANCH  58  75
ATOM     75  C   UNL A   1      44.305  32.388  31.491  1.00  0.00     0.057 A 
ATOM     76  C   UNL A   1      44.631  33.459  30.651  1.00  0.00     0.134 A 
ATOM     77  C   UNL A   1      44.172  32.652  32.859  1.00  0.00     0.134 A 
ATOM     78  F   UNL A   1      44.785  33.267  29.332  1.00  0.00    -0.206 F 
ATOM     79  C   UNL A   1      44.836  34.742  31.157  1.00  0.00     0.040 A 
ATOM     80  C   UNL A   1      44.352  33.936  33.374  1.00  0.00     0.040 A 
ATOM     81  F   UNL A   1      43.854  31.669  33.717  1.00  0.00    -0.206 F 
ATOM     82  C   UNL A   1      44.692  34.985  32.523  1.00  0.00     0.006 A 
ENDBRANCH  58  75
ENDBRANCH  32  33
ENDBRANCH  24  27
ENDBRANCH  22  23
ENDBRANCH   1  22
TORSDOF 12
ENDMDL
