MODEL 1
REMARK VINA RESULT:     -14.1      0.000      0.000
REMARK SMILES Cc1ccc(S(=O)(=O)N2c3ccc(C(=O)NCCCNC(=O)c4ccc(-c5c6nc(c(-c7c(F)cccc7F)c7ccc([nH]7)c(-c7c(F)cccc7F)c7nc(c(-c8c(F)cccc8F)c8ccc5[nH]8)C=C7)C=C6)cc4)cc3C[C@H]2C)cc1
REMARK SMILES IDX 18 1 17 2 16 3 14 4 15 5 13 7 9 8 10 9 80 10 11 11 78 12
REMARK SMILES IDX 79 13 81 14 12 15 77 16 6 17 7 18 8 19 5 20 1 21 2 22 3 23
REMARK SMILES IDX 83 24 4 25 82 26 19 27 20 28 21 29 22 31 23 32 24 33 76 34
REMARK SMILES IDX 25 35 75 36 26 37 27 38 28 39 69 40 29 41 74 42 68 43 70 44
REMARK SMILES IDX 30 45 73 46 67 47 66 48 31 50 57 51 40 52 56 53 41 54 44 55
REMARK SMILES IDX 55 56 71 57 42 58 43 59 54 61 72 62 45 63 32 64 33 65 38 66
REMARK SMILES IDX 34 67 35 68 37 69 39 70 36 71 58 72 59 73 64 74 60 75 61 76
REMARK SMILES IDX 63 77 65 78 62 79 46 80 47 81 52 82 48 83 49 84 51 85 53 86
REMARK SMILES IDX 50 87
REMARK H PARENT 16 6 20 30 70 49 44 60
REMARK Flexibility Score: inf
ROOT
ATOM      1  C   UNL A   1      32.432  30.626  26.806  1.00  0.00     0.042 C 
ENDROOT
BRANCH   1   2
ATOM      2  C   UNL A   1      31.846  29.531  25.911  1.00  0.00     0.118 C 
BRANCH   2   3
ATOM      3  N   UNL A   1      32.371  29.600  24.557  1.00  0.00    -0.352 N 
ATOM      4  C   UNL A   1      32.988  28.683  23.740  1.00  0.00     0.251 C 
ATOM      5  O   UNL A   1      33.247  29.061  22.595  1.00  0.00    -0.269 OA
ATOM      6  H   UNL A   1      32.261  30.484  24.139  1.00  0.00     0.163 HD
BRANCH   4   7
ATOM      7  C   UNL A   1      33.378  27.292  24.141  1.00  0.00     0.040 A 
ATOM      8  N   UNL A   1      34.635  23.304  24.801  1.00  0.00    -0.263 N 
ATOM      9  C   UNL A   1      34.222  24.682  24.709  1.00  0.00     0.055 A 
ATOM     10  C   UNL A   1      34.917  22.919  23.357  1.00  0.00     0.101 C 
ATOM     11  C   UNL A   1      34.066  25.565  25.750  1.00  0.00     0.028 A 
ATOM     12  C   UNL A   1      33.966  25.069  23.400  1.00  0.00    -0.021 A 
ATOM     13  C   UNL A   1      34.132  23.914  22.471  1.00  0.00     0.063 C 
ATOM     14  C   UNL A   1      36.431  23.072  23.130  1.00  0.00     0.032 C 
ATOM     15  C   UNL A   1      33.629  26.860  25.455  1.00  0.00     0.016 A 
ATOM     16  C   UNL A   1      33.547  26.360  23.100  1.00  0.00     0.019 A 
BRANCH   8  17
ATOM     17  S   UNL A   1      33.450  22.357  25.630  1.00  0.00     0.264 S 
ATOM     18  O   UNL A   1      32.143  22.793  25.179  1.00  0.00    -0.201 OA
ATOM     19  O   UNL A   1      33.788  22.357  27.042  1.00  0.00    -0.201 OA
BRANCH  17  20
ATOM     20  C   UNL A   1      33.613  20.660  25.116  1.00  0.00     0.088 A 
ATOM     21  C   UNL A   1      33.825  16.716  23.407  1.00  0.00     0.044 C 
ATOM     22  C   UNL A   1      33.743  18.073  24.041  1.00  0.00    -0.051 A 
ATOM     23  C   UNL A   1      32.528  18.764  24.063  1.00  0.00     0.005 A 
ATOM     24  C   UNL A   1      34.871  18.658  24.626  1.00  0.00     0.005 A 
ATOM     25  C   UNL A   1      32.462  20.052  24.593  1.00  0.00     0.022 A 
ATOM     26  C   UNL A   1      34.802  19.941  25.176  1.00  0.00     0.022 A 
ENDBRANCH  17  20
ENDBRANCH   8  17
ENDBRANCH   4   7
ENDBRANCH   2   3
ENDBRANCH   1   2
BRANCH   1  27
ATOM     27  C   UNL A   1      33.618  30.170  27.626  1.00  0.00     0.118 C 
BRANCH  27  28
ATOM     28  N   UNL A   1      34.306  31.254  28.318  1.00  0.00    -0.352 N 
ATOM     29  C   UNL A   1      35.547  31.256  28.937  1.00  0.00     0.251 C 
ATOM     30  H   UNL A   1      33.820  32.108  28.350  1.00  0.00     0.163 HD
ATOM     31  O   UNL A   1      35.948  32.254  29.505  1.00  0.00    -0.269 OA
BRANCH  29  32
ATOM     32  C   UNL A   1      36.436  30.080  28.764  1.00  0.00     0.039 A 
ATOM     33  C   UNL A   1      36.694  29.296  29.893  1.00  0.00     0.014 A 
ATOM     34  C   UNL A   1      37.201  29.930  27.612  1.00  0.00     0.014 A 
ATOM     35  C   UNL A   1      37.884  28.578  29.959  1.00  0.00     0.010 A 
ATOM     36  C   UNL A   1      38.437  29.334  27.724  1.00  0.00     0.010 A 
ATOM     37  C   UNL A   1      38.803  28.712  28.919  1.00  0.00    -0.014 A 
BRANCH  37  38
ATOM     38  C   UNL A   1      40.201  28.330  29.040  1.00  0.00     0.031 A 
ATOM     39  C   UNL A   1      40.680  27.069  28.442  1.00  0.00     0.074 A 
ATOM     40  C   UNL A   1      41.080  29.149  29.660  1.00  0.00     0.049 A 
ATOM     41  N   UNL A   1      41.656  26.380  28.928  1.00  0.00    -0.248 NA
ATOM     42  C   UNL A   1      40.070  26.461  27.262  1.00  0.00     0.031 C 
ATOM     43  C   UNL A   1      42.536  29.043  29.651  1.00  0.00     0.029 A 
ATOM     44  N   UNL A   1      40.809  30.158  30.593  1.00  0.00    -0.354 N 
ATOM     45  C   UNL A   1      41.974  25.416  28.004  1.00  0.00     0.074 A 
ATOM     46  C   UNL A   1      40.919  25.457  27.019  1.00  0.00     0.031 C 
ATOM     47  C   UNL A   1      43.031  29.731  30.692  1.00  0.00     0.029 A 
ATOM     48  C   UNL A   1      41.902  30.189  31.483  1.00  0.00     0.049 A 
ATOM     49  H   UNL A   1      40.010  30.734  30.621  1.00  0.00     0.167 HD
ATOM     50  C   UNL A   1      43.170  24.773  28.073  1.00  0.00     0.037 A 
ATOM     51  C   UNL A   1      41.750  29.966  32.818  1.00  0.00     0.037 A 
ATOM     52  C   UNL A   1      43.986  25.261  29.175  1.00  0.00     0.049 A 
ATOM     53  C   UNL A   1      42.539  28.787  33.330  1.00  0.00     0.074 A 
ATOM     54  C   UNL A   1      44.985  26.218  29.231  1.00  0.00     0.029 A 
ATOM     55  N   UNL A   1      43.599  25.017  30.488  1.00  0.00    -0.354 N 
ATOM     56  N   UNL A   1      42.963  27.814  32.572  1.00  0.00    -0.248 NA
ATOM     57  C   UNL A   1      42.900  28.601  34.732  1.00  0.00     0.031 C 
ATOM     58  C   UNL A   1      45.189  26.567  30.585  1.00  0.00     0.029 A 
ATOM     59  C   UNL A   1      44.321  25.814  31.356  1.00  0.00     0.049 A 
ATOM     60  H   UNL A   1      42.909  24.371  30.761  1.00  0.00     0.167 HD
ATOM     61  C   UNL A   1      43.612  26.882  33.344  1.00  0.00     0.074 A 
ATOM     62  C   UNL A   1      43.560  27.430  34.685  1.00  0.00     0.031 C 
ATOM     63  C   UNL A   1      44.132  25.742  32.797  1.00  0.00     0.037 A 
BRANCH  50  64
ATOM     64  C   UNL A   1      43.677  23.945  26.928  1.00  0.00     0.057 A 
ATOM     65  C   UNL A   1      44.445  24.509  25.894  1.00  0.00     0.134 A 
ATOM     66  C   UNL A   1      43.386  22.578  26.780  1.00  0.00     0.134 A 
ATOM     67  F   UNL A   1      44.847  25.785  25.928  1.00  0.00    -0.206 F 
ATOM     68  C   UNL A   1      44.816  23.791  24.752  1.00  0.00     0.040 A 
ATOM     69  C   UNL A   1      43.712  21.860  25.622  1.00  0.00     0.040 A 
ATOM     70  F   UNL A   1      42.768  21.895  27.755  1.00  0.00    -0.206 F 
ATOM     71  C   UNL A   1      44.423  22.470  24.597  1.00  0.00     0.006 A 
ENDBRANCH  50  64
BRANCH  51  72
ATOM     72  C   UNL A   1      40.433  30.399  33.345  1.00  0.00     0.057 A 
ATOM     73  C   UNL A   1      40.232  31.765  33.609  1.00  0.00     0.134 A 
ATOM     74  C   UNL A   1      39.294  29.599  33.215  1.00  0.00     0.134 A 
ATOM     75  F   UNL A   1      41.285  32.586  33.745  1.00  0.00    -0.206 F 
ATOM     76  C   UNL A   1      38.955  32.332  33.628  1.00  0.00     0.040 A 
ATOM     77  C   UNL A   1      38.010  30.157  33.234  1.00  0.00     0.040 A 
ATOM     78  F   UNL A   1      39.407  28.292  32.944  1.00  0.00    -0.206 F 
ATOM     79  C   UNL A   1      37.840  31.530  33.402  1.00  0.00     0.006 A 
ENDBRANCH  51  72
BRANCH  63  80
ATOM     80  C   UNL A   1      44.630  24.518  33.537  1.00  0.00     0.057 A 
ATOM     81  C   UNL A   1      45.975  24.129  33.626  1.00  0.00     0.134 A 
ATOM     82  C   UNL A   1      43.742  23.744  34.325  1.00  0.00     0.134 A 
ATOM     83  F   UNL A   1      46.952  24.828  33.037  1.00  0.00    -0.206 F 
ATOM     84  C   UNL A   1      46.394  23.025  34.384  1.00  0.00     0.040 A 
ATOM     85  C   UNL A   1      44.157  22.677  35.128  1.00  0.00     0.040 A 
ATOM     86  F   UNL A   1      42.427  24.003  34.376  1.00  0.00    -0.206 F 
ATOM     87  C   UNL A   1      45.488  22.302  35.148  1.00  0.00     0.006 A 
ENDBRANCH  63  80
ENDBRANCH  37  38
ENDBRANCH  29  32
ENDBRANCH  27  28
ENDBRANCH   1  27
TORSDOF 12
ENDMDL
MODEL 2
REMARK VINA RESULT:     -13.9      1.175      1.901
REMARK SMILES Cc1ccc(S(=O)(=O)N2c3ccc(C(=O)NCCCNC(=O)c4ccc(-c5c6nc(c(-c7c(F)cccc7F)c7ccc([nH]7)c(-c7c(F)cccc7F)c7nc(c(-c8c(F)cccc8F)c8ccc5[nH]8)C=C7)C=C6)cc4)cc3C[C@H]2C)cc1
REMARK SMILES IDX 18 1 17 2 16 3 14 4 15 5 13 7 9 8 10 9 80 10 11 11 78 12
REMARK SMILES IDX 79 13 81 14 12 15 77 16 6 17 7 18 8 19 5 20 1 21 2 22 3 23
REMARK SMILES IDX 83 24 4 25 82 26 19 27 20 28 21 29 22 31 23 32 24 33 76 34
REMARK SMILES IDX 25 35 75 36 26 37 27 38 28 39 69 40 29 41 74 42 68 43 70 44
REMARK SMILES IDX 30 45 73 46 67 47 66 48 31 50 57 51 40 52 56 53 41 54 44 55
REMARK SMILES IDX 55 56 71 57 42 58 43 59 54 61 72 62 45 63 32 64 33 65 38 66
REMARK SMILES IDX 34 67 35 68 37 69 39 70 36 71 58 72 59 73 64 74 60 75 61 76
REMARK SMILES IDX 63 77 65 78 62 79 46 80 47 81 52 82 48 83 49 84 51 85 53 86
REMARK SMILES IDX 50 87
REMARK H PARENT 16 6 20 30 70 49 44 60
REMARK Flexibility Score: inf
ROOT
ATOM      1  C   UNL A   1      32.608  30.738  26.566  1.00  0.00     0.042 C 
ENDROOT
BRANCH   1   2
ATOM      2  C   UNL A   1      32.243  29.700  25.502  1.00  0.00     0.118 C 
BRANCH   2   3
ATOM      3  N   UNL A   1      33.238  29.637  24.443  1.00  0.00    -0.352 N 
ATOM      4  C   UNL A   1      33.658  28.632  23.606  1.00  0.00     0.251 C 
ATOM      5  O   UNL A   1      34.493  28.946  22.753  1.00  0.00    -0.269 OA
ATOM      6  H   UNL A   1      33.707  30.490  24.296  1.00  0.00     0.163 HD
BRANCH   4   7
ATOM      7  C   UNL A   1      33.198  27.206  23.669  1.00  0.00     0.040 A 
ATOM      8  N   UNL A   1      31.907  23.231  24.343  1.00  0.00    -0.263 N 
ATOM      9  C   UNL A   1      32.289  24.576  23.991  1.00  0.00     0.055 A 
ATOM     10  C   UNL A   1      32.120  23.183  25.848  1.00  0.00     0.101 C 
ATOM     11  C   UNL A   1      32.075  25.204  22.789  1.00  0.00     0.028 A 
ATOM     12  C   UNL A   1      32.945  25.226  25.030  1.00  0.00    -0.021 A 
ATOM     13  C   UNL A   1      33.121  24.309  26.192  1.00  0.00     0.063 C 
ATOM     14  C   UNL A   1      30.758  23.450  26.511  1.00  0.00     0.032 C 
ATOM     15  C   UNL A   1      32.547  26.511  22.635  1.00  0.00     0.016 A 
ATOM     16  C   UNL A   1      33.402  26.531  24.887  1.00  0.00     0.019 A 
BRANCH   8  17
ATOM     17  S   UNL A   1      32.786  22.074  23.406  1.00  0.00     0.264 S 
ATOM     18  O   UNL A   1      32.908  22.599  22.060  1.00  0.00    -0.201 OA
ATOM     19  O   UNL A   1      32.197  20.768  23.644  1.00  0.00    -0.201 OA
BRANCH  17  20
ATOM     20  C   UNL A   1      34.442  21.957  24.048  1.00  0.00     0.088 A 
ATOM     21  C   UNL A   1      38.398  22.183  25.729  1.00  0.00     0.044 C 
ATOM     22  C   UNL A   1      37.033  22.075  25.116  1.00  0.00    -0.051 A 
ATOM     23  C   UNL A   1      36.662  22.933  24.076  1.00  0.00     0.005 A 
ATOM     24  C   UNL A   1      36.122  21.112  25.562  1.00  0.00     0.005 A 
ATOM     25  C   UNL A   1      35.373  22.880  23.548  1.00  0.00     0.022 A 
ATOM     26  C   UNL A   1      34.836  21.043  25.020  1.00  0.00     0.022 A 
ENDBRANCH  17  20
ENDBRANCH   8  17
ENDBRANCH   4   7
ENDBRANCH   2   3
ENDBRANCH   1   2
BRANCH   1  27
ATOM     27  C   UNL A   1      33.608  30.237  27.583  1.00  0.00     0.118 C 
BRANCH  27  28
ATOM     28  N   UNL A   1      34.283  31.302  28.318  1.00  0.00    -0.352 N 
ATOM     29  C   UNL A   1      35.509  31.285  28.965  1.00  0.00     0.251 C 
ATOM     30  H   UNL A   1      33.797  32.157  28.360  1.00  0.00     0.163 HD
ATOM     31  O   UNL A   1      35.899  32.268  29.567  1.00  0.00    -0.269 OA
BRANCH  29  32
ATOM     32  C   UNL A   1      36.400  30.112  28.782  1.00  0.00     0.039 A 
ATOM     33  C   UNL A   1      36.668  29.326  29.908  1.00  0.00     0.014 A 
ATOM     34  C   UNL A   1      37.156  29.967  27.625  1.00  0.00     0.014 A 
ATOM     35  C   UNL A   1      37.860  28.612  29.963  1.00  0.00     0.010 A 
ATOM     36  C   UNL A   1      38.395  29.374  27.726  1.00  0.00     0.010 A 
ATOM     37  C   UNL A   1      38.772  28.750  28.917  1.00  0.00    -0.014 A 
BRANCH  37  38
ATOM     38  C   UNL A   1      40.171  28.371  29.027  1.00  0.00     0.031 A 
ATOM     39  C   UNL A   1      40.644  27.100  28.444  1.00  0.00     0.074 A 
ATOM     40  C   UNL A   1      41.057  29.202  29.621  1.00  0.00     0.049 A 
ATOM     41  N   UNL A   1      41.627  26.421  28.930  1.00  0.00    -0.248 NA
ATOM     42  C   UNL A   1      40.019  26.472  27.283  1.00  0.00     0.031 C 
ATOM     43  C   UNL A   1      42.513  29.096  29.595  1.00  0.00     0.029 A 
ATOM     44  N   UNL A   1      40.797  30.226  30.540  1.00  0.00    -0.354 N 
ATOM     45  C   UNL A   1      41.934  25.441  28.018  1.00  0.00     0.074 A 
ATOM     46  C   UNL A   1      40.866  25.465  27.046  1.00  0.00     0.031 C 
ATOM     47  C   UNL A   1      43.020  29.803  30.618  1.00  0.00     0.029 A 
ATOM     48  C   UNL A   1      41.901  30.274  31.415  1.00  0.00     0.049 A 
ATOM     49  H   UNL A   1      39.998  30.802  30.568  1.00  0.00     0.167 HD
ATOM     50  C   UNL A   1      43.132  24.801  28.083  1.00  0.00     0.037 A 
ATOM     51  C   UNL A   1      41.767  30.074  32.756  1.00  0.00     0.037 A 
ATOM     52  C   UNL A   1      43.961  25.308  29.166  1.00  0.00     0.049 A 
ATOM     53  C   UNL A   1      42.564  28.904  33.278  1.00  0.00     0.074 A 
ATOM     54  C   UNL A   1      44.960  26.267  29.193  1.00  0.00     0.029 A 
ATOM     55  N   UNL A   1      43.590  25.086  30.488  1.00  0.00    -0.354 N 
ATOM     56  N   UNL A   1      42.979  27.918  32.531  1.00  0.00    -0.248 NA
ATOM     57  C   UNL A   1      42.942  28.742  34.678  1.00  0.00     0.031 C 
ATOM     58  C   UNL A   1      45.180  26.640  30.538  1.00  0.00     0.029 A 
ATOM     59  C   UNL A   1      44.323  25.898  31.332  1.00  0.00     0.049 A 
ATOM     60  H   UNL A   1      42.905  24.445  30.781  1.00  0.00     0.167 HD
ATOM     61  C   UNL A   1      43.638  27.001  33.311  1.00  0.00     0.074 A 
ATOM     62  C   UNL A   1      43.602  27.571  34.643  1.00  0.00     0.031 C 
ATOM     63  C   UNL A   1      44.153  25.852  32.777  1.00  0.00     0.037 A 
BRANCH  50  64
ATOM     64  C   UNL A   1      43.625  23.953  26.946  1.00  0.00     0.057 A 
ATOM     65  C   UNL A   1      44.368  24.502  25.887  1.00  0.00     0.134 A 
ATOM     66  C   UNL A   1      43.343  22.582  26.831  1.00  0.00     0.134 A 
ATOM     67  F   UNL A   1      44.760  25.782  25.887  1.00  0.00    -0.206 F 
ATOM     68  C   UNL A   1      44.725  23.765  24.753  1.00  0.00     0.040 A 
ATOM     69  C   UNL A   1      43.654  21.842  25.682  1.00  0.00     0.040 A 
ATOM     70  F   UNL A   1      42.749  21.913  27.832  1.00  0.00    -0.206 F 
ATOM     71  C   UNL A   1      44.341  22.437  24.632  1.00  0.00     0.006 A 
ENDBRANCH  50  64
BRANCH  51  72
ATOM     72  C   UNL A   1      40.456  30.514  33.292  1.00  0.00     0.057 A 
ATOM     73  C   UNL A   1      40.251  31.886  33.520  1.00  0.00     0.134 A 
ATOM     74  C   UNL A   1      39.319  29.705  33.203  1.00  0.00     0.134 A 
ATOM     75  F   UNL A   1      41.302  32.716  33.616  1.00  0.00    -0.206 F 
ATOM     76  C   UNL A   1      38.972  32.446  33.544  1.00  0.00     0.040 A 
ATOM     77  C   UNL A   1      38.033  30.256  33.229  1.00  0.00     0.040 A 
ATOM     78  F   UNL A   1      39.436  28.391  32.968  1.00  0.00    -0.206 F 
ATOM     79  C   UNL A   1      37.858  31.633  33.360  1.00  0.00     0.006 A 
ENDBRANCH  51  72
BRANCH  63  80
ATOM     80  C   UNL A   1      44.661  24.640  33.531  1.00  0.00     0.057 A 
ATOM     81  C   UNL A   1      46.009  24.265  33.625  1.00  0.00     0.134 A 
ATOM     82  C   UNL A   1      43.780  23.868  34.329  1.00  0.00     0.134 A 
ATOM     83  F   UNL A   1      46.981  24.965  33.028  1.00  0.00    -0.206 F 
ATOM     84  C   UNL A   1      46.438  23.173  34.396  1.00  0.00     0.040 A 
ATOM     85  C   UNL A   1      44.204  22.815  35.144  1.00  0.00     0.040 A 
ATOM     86  F   UNL A   1      42.463  24.117  34.376  1.00  0.00    -0.206 F 
ATOM     87  C   UNL A   1      45.538  22.451  35.168  1.00  0.00     0.006 A 
ENDBRANCH  63  80
ENDBRANCH  37  38
ENDBRANCH  29  32
ENDBRANCH  27  28
ENDBRANCH   1  27
TORSDOF 12
ENDMDL
MODEL 3
REMARK VINA RESULT:     -13.8      1.790      2.532
REMARK SMILES Cc1ccc(S(=O)(=O)N2c3ccc(C(=O)NCCCNC(=O)c4ccc(-c5c6nc(c(-c7c(F)cccc7F)c7ccc([nH]7)c(-c7c(F)cccc7F)c7nc(c(-c8c(F)cccc8F)c8ccc5[nH]8)C=C7)C=C6)cc4)cc3C[C@H]2C)cc1
REMARK SMILES IDX 18 1 17 2 16 3 14 4 15 5 13 7 9 8 10 9 80 10 11 11 78 12
REMARK SMILES IDX 79 13 81 14 12 15 77 16 6 17 7 18 8 19 5 20 1 21 2 22 3 23
REMARK SMILES IDX 83 24 4 25 82 26 19 27 20 28 21 29 22 31 23 32 24 33 76 34
REMARK SMILES IDX 25 35 75 36 26 37 27 38 28 39 69 40 29 41 74 42 68 43 70 44
REMARK SMILES IDX 30 45 73 46 67 47 66 48 31 50 57 51 40 52 56 53 41 54 44 55
REMARK SMILES IDX 55 56 71 57 42 58 43 59 54 61 72 62 45 63 32 64 33 65 38 66
REMARK SMILES IDX 34 67 35 68 37 69 39 70 36 71 58 72 59 73 64 74 60 75 61 76
REMARK SMILES IDX 63 77 65 78 62 79 46 80 47 81 52 82 48 83 49 84 51 85 53 86
REMARK SMILES IDX 50 87
REMARK H PARENT 16 6 20 30 70 49 44 60
REMARK Flexibility Score: inf
ROOT
ATOM      1  C   UNL A   1      33.575  31.336  27.093  1.00  0.00     0.042 C 
ENDROOT
BRANCH   1   2
ATOM      2  C   UNL A   1      32.594  30.431  26.345  1.00  0.00     0.118 C 
BRANCH   2   3
ATOM      3  N   UNL A   1      31.837  29.585  27.253  1.00  0.00    -0.352 N 
ATOM      4  C   UNL A   1      31.623  28.229  27.317  1.00  0.00     0.251 C 
ATOM      5  O   UNL A   1      30.971  27.825  28.283  1.00  0.00    -0.269 OA
ATOM      6  H   UNL A   1      31.385  30.086  27.970  1.00  0.00     0.163 HD
BRANCH   4   7
ATOM      7  C   UNL A   1      32.099  27.230  26.304  1.00  0.00     0.040 A 
ATOM      8  N   UNL A   1      33.155  24.652  23.116  1.00  0.00    -0.263 N 
ATOM      9  C   UNL A   1      32.911  25.494  24.261  1.00  0.00     0.055 A 
ATOM     10  C   UNL A   1      32.149  25.148  22.090  1.00  0.00     0.101 C 
ATOM     11  C   UNL A   1      33.699  25.608  25.381  1.00  0.00     0.028 A 
ATOM     12  C   UNL A   1      31.734  26.221  24.140  1.00  0.00    -0.021 A 
ATOM     13  C   UNL A   1      31.027  25.864  22.877  1.00  0.00     0.063 C 
ATOM     14  C   UNL A   1      32.883  26.140  21.172  1.00  0.00     0.032 C 
ATOM     15  C   UNL A   1      33.274  26.465  26.401  1.00  0.00     0.016 A 
ATOM     16  C   UNL A   1      31.316  27.087  25.143  1.00  0.00     0.019 A 
BRANCH   8  17
ATOM     17  S   UNL A   1      33.054  22.981  23.546  1.00  0.00     0.264 S 
ATOM     18  O   UNL A   1      32.802  22.229  22.332  1.00  0.00    -0.201 OA
ATOM     19  O   UNL A   1      32.167  22.867  24.690  1.00  0.00    -0.201 OA
BRANCH  17  20
ATOM     20  C   UNL A   1      34.645  22.447  24.140  1.00  0.00     0.088 A 
ATOM     21  C   UNL A   1      38.571  21.656  25.717  1.00  0.00     0.044 C 
ATOM     22  C   UNL A   1      37.209  21.900  25.139  1.00  0.00    -0.051 A 
ATOM     23  C   UNL A   1      37.037  22.847  24.125  1.00  0.00     0.005 A 
ATOM     24  C   UNL A   1      36.099  21.180  25.594  1.00  0.00     0.005 A 
ATOM     25  C   UNL A   1      35.763  23.124  23.631  1.00  0.00     0.022 A 
ATOM     26  C   UNL A   1      34.824  21.442  25.086  1.00  0.00     0.022 A 
ENDBRANCH  17  20
ENDBRANCH   8  17
ENDBRANCH   4   7
ENDBRANCH   2   3
ENDBRANCH   1   2
BRANCH   1  27
ATOM     27  C   UNL A   1      34.554  30.580  27.964  1.00  0.00     0.118 C 
BRANCH  27  28
ATOM     28  N   UNL A   1      35.439  31.443  28.740  1.00  0.00    -0.352 N 
ATOM     29  C   UNL A   1      36.678  31.162  29.294  1.00  0.00     0.251 C 
ATOM     30  H   UNL A   1      35.108  32.357  28.891  1.00  0.00     0.163 HD
ATOM     31  O   UNL A   1      37.262  32.004  29.951  1.00  0.00    -0.269 OA
BRANCH  29  32
ATOM     32  C   UNL A   1      37.346  29.883  28.946  1.00  0.00     0.039 A 
ATOM     33  C   UNL A   1      37.506  28.942  29.967  1.00  0.00     0.014 A 
ATOM     34  C   UNL A   1      38.032  29.743  27.744  1.00  0.00     0.014 A 
ATOM     35  C   UNL A   1      38.557  28.034  29.890  1.00  0.00     0.010 A 
ATOM     36  C   UNL A   1      39.151  28.941  27.723  1.00  0.00     0.010 A 
ATOM     37  C   UNL A   1      39.448  28.132  28.822  1.00  0.00    -0.014 A 
BRANCH  37  38
ATOM     38  C   UNL A   1      40.763  27.511  28.824  1.00  0.00     0.031 A 
ATOM     39  C   UNL A   1      40.917  26.097  28.431  1.00  0.00     0.074 A 
ATOM     40  C   UNL A   1      41.858  28.238  29.140  1.00  0.00     0.049 A 
ATOM     41  N   UNL A   1      41.835  25.326  28.907  1.00  0.00    -0.248 NA
ATOM     42  C   UNL A   1      40.021  25.426  27.493  1.00  0.00     0.031 C 
ATOM     43  C   UNL A   1      43.254  27.850  28.952  1.00  0.00     0.029 A 
ATOM     44  N   UNL A   1      41.922  29.426  29.879  1.00  0.00    -0.354 N 
ATOM     45  C   UNL A   1      41.825  24.174  28.160  1.00  0.00     0.074 A 
ATOM     46  C   UNL A   1      40.638  24.250  27.342  1.00  0.00     0.031 C 
ATOM     47  C   UNL A   1      44.026  28.598  29.755  1.00  0.00     0.029 A 
ATOM     48  C   UNL A   1      43.142  29.397  30.586  1.00  0.00     0.049 A 
ATOM     49  H   UNL A   1      41.247  30.142  29.900  1.00  0.00     0.167 HD
ATOM     50  C   UNL A   1      42.892  23.332  28.192  1.00  0.00     0.037 A 
ATOM     51  C   UNL A   1      43.187  29.441  31.947  1.00  0.00     0.037 A 
ATOM     52  C   UNL A   1      43.954  23.834  29.051  1.00  0.00     0.049 A 
ATOM     53  C   UNL A   1      43.847  28.237  32.572  1.00  0.00     0.074 A 
ATOM     54  C   UNL A   1      45.093  24.573  28.776  1.00  0.00     0.029 A 
ATOM     55  N   UNL A   1      43.764  23.900  30.427  1.00  0.00    -0.354 N 
ATOM     56  N   UNL A   1      43.967  27.084  31.973  1.00  0.00    -0.248 NA
ATOM     57  C   UNL A   1      44.407  28.229  33.919  1.00  0.00     0.031 C 
ATOM     58  C   UNL A   1      45.581  25.104  29.991  1.00  0.00     0.029 A 
ATOM     59  C   UNL A   1      44.746  24.678  31.009  1.00  0.00     0.049 A 
ATOM     60  H   UNL A   1      43.034  23.458  30.916  1.00  0.00     0.167 HD
ATOM     61  C   UNL A   1      44.576  26.191  32.820  1.00  0.00     0.074 A 
ATOM     62  C   UNL A   1      44.846  26.961  34.018  1.00  0.00     0.031 C 
ATOM     63  C   UNL A   1      44.799  24.895  32.447  1.00  0.00     0.037 A 
BRANCH  50  64
ATOM     64  C   UNL A   1      43.051  22.236  27.178  1.00  0.00     0.057 A 
ATOM     65  C   UNL A   1      42.258  21.076  27.218  1.00  0.00     0.134 A 
ATOM     66  C   UNL A   1      44.020  22.263  26.162  1.00  0.00     0.134 A 
ATOM     67  F   UNL A   1      41.257  20.934  28.095  1.00  0.00    -0.206 F 
ATOM     68  C   UNL A   1      42.474  19.985  26.370  1.00  0.00     0.040 A 
ATOM     69  C   UNL A   1      44.278  21.161  25.336  1.00  0.00     0.040 A 
ATOM     70  F   UNL A   1      44.757  23.363  25.940  1.00  0.00    -0.206 F 
ATOM     71  C   UNL A   1      43.507  20.011  25.445  1.00  0.00     0.006 A 
ENDBRANCH  50  64
BRANCH  51  72
ATOM     72  C   UNL A   1      42.070  30.207  32.552  1.00  0.00     0.057 A 
ATOM     73  C   UNL A   1      42.170  31.607  32.609  1.00  0.00     0.134 A 
ATOM     74  C   UNL A   1      40.795  29.651  32.695  1.00  0.00     0.134 A 
ATOM     75  F   UNL A   1      43.366  32.202  32.479  1.00  0.00    -0.206 F 
ATOM     76  C   UNL A   1      41.040  32.424  32.690  1.00  0.00     0.040 A 
ATOM     77  C   UNL A   1      39.657  30.460  32.779  1.00  0.00     0.040 A 
ATOM     78  F   UNL A   1      40.620  28.324  32.632  1.00  0.00    -0.206 F 
ATOM     79  C   UNL A   1      39.774  31.849  32.738  1.00  0.00     0.006 A 
ENDBRANCH  51  72
BRANCH  63  80
ATOM     80  C   UNL A   1      45.207  23.742  33.342  1.00  0.00     0.057 A 
ATOM     81  C   UNL A   1      46.486  23.571  33.891  1.00  0.00     0.134 A 
ATOM     82  C   UNL A   1      44.241  22.813  33.802  1.00  0.00     0.134 A 
ATOM     83  F   UNL A   1      47.479  24.435  33.651  1.00  0.00    -0.206 F 
ATOM     84  C   UNL A   1      46.796  22.525  34.773  1.00  0.00     0.040 A 
ATOM     85  C   UNL A   1      44.525  21.802  34.725  1.00  0.00     0.040 A 
ATOM     86  F   UNL A   1      42.963  22.858  33.399  1.00  0.00    -0.206 F 
ATOM     87  C   UNL A   1      45.814  21.643  35.203  1.00  0.00     0.006 A 
ENDBRANCH  63  80
ENDBRANCH  37  38
ENDBRANCH  29  32
ENDBRANCH  27  28
ENDBRANCH   1  27
TORSDOF 12
ENDMDL
