MODEL 1
REMARK VINA RESULT:     -11.7      0.000      0.000
REMARK SMILES Cc1cccc(C[C@H](CC(=O)NCCCNC(=O)c2ccc(-c3c4nc(c(-c5c(F)cccc5F)c5ccc([nH]5)c(-c5c(F)cccc5F)c5nc(c(-c6c(F)cccc6F)c6ccc3[nH]6)C=C5)C=C4)cc2)NC(=O)OC(C)(C)C)c1
REMARK SMILES IDX 13 1 12 2 10 3 11 4 9 6 8 7 7 8 6 9 1 10 2 11 3 12 81 13
REMARK SMILES IDX 4 14 5 15 73 16 74 17 75 19 76 20 77 21 78 22 79 23 80 24
REMARK SMILES IDX 14 25 15 26 16 27 17 28 18 30 19 31 20 32 72 33 21 34 71 35
REMARK SMILES IDX 22 36 23 37 24 38 65 39 25 40 70 41 64 42 66 43 26 44 69 45
REMARK SMILES IDX 63 46 62 47 27 49 53 50 36 51 52 52 37 53 40 54 51 55 67 56
REMARK SMILES IDX 38 57 39 58 50 60 68 61 41 62 28 63 29 64 34 65 30 66 31 67
REMARK SMILES IDX 33 68 35 69 32 70 54 71 55 72 60 73 56 74 57 75 59 76 61 77
REMARK SMILES IDX 58 78 42 79 43 80 48 81 44 82 45 83 47 84 49 85 46 86
REMARK H PARENT 12 5 73 18 16 29 66 48 40 59
REMARK Flexibility Score: inf
ROOT
ATOM      1  C   UNL A   1      33.117  30.716  27.115  1.00  0.00     0.117 C 
ENDROOT
BRANCH   1   2
ATOM      2  N   UNL A   1      32.454  29.530  27.630  1.00  0.00    -0.356 N 
ATOM      3  C   UNL A   1      31.771  28.534  26.999  1.00  0.00     0.222 C 
ATOM      4  O   UNL A   1      31.318  27.625  27.698  1.00  0.00    -0.275 OA
ATOM      5  H   UNL A   1      32.508  29.428  28.609  1.00  0.00     0.163 HD
BRANCH   3   6
ATOM      6  C   UNL A   1      31.548  28.522  25.493  1.00  0.00     0.125 C 
BRANCH   6   7
ATOM      7  C   UNL A   1      31.555  27.137  24.802  1.00  0.00     0.099 C 
BRANCH   7   8
ATOM      8  C   UNL A   1      30.952  27.206  23.364  1.00  0.00     0.061 C 
BRANCH   8   9
ATOM      9  C   UNL A   1      29.700  28.025  23.127  1.00  0.00    -0.046 A 
ATOM     10  C   UNL A   1      28.721  31.240  21.299  1.00  0.00     0.044 C 
ATOM     11  C   UNL A   1      28.635  29.982  22.111  1.00  0.00    -0.051 A 
ATOM     12  C   UNL A   1      27.398  29.564  22.607  1.00  0.00     0.003 A 
ATOM     13  C   UNL A   1      29.780  29.220  22.391  1.00  0.00     0.007 A 
ATOM     14  C   UNL A   1      27.294  28.359  23.290  1.00  0.00     0.001 A 
ATOM     15  C   UNL A   1      28.429  27.580  23.510  1.00  0.00     0.004 A 
ENDBRANCH   8   9
ENDBRANCH   7   8
BRANCH   7  16
ATOM     16  N   UNL A   1      32.917  26.615  24.873  1.00  0.00    -0.318 N 
ATOM     17  C   UNL A   1      33.426  25.364  24.783  1.00  0.00     0.407 C 
ATOM     18  H   UNL A   1      33.600  27.311  25.012  1.00  0.00     0.167 HD
ATOM     19  O   UNL A   1      34.637  25.227  24.826  1.00  0.00    -0.225 OA
BRANCH  17  20
ATOM     20  O   UNL A   1      32.503  24.397  24.626  1.00  0.00    -0.444 OA
BRANCH  20  21
ATOM     21  C   UNL A   1      32.590  23.551  23.450  1.00  0.00     0.106 C 
ATOM     22  C   UNL A   1      33.016  24.366  22.221  1.00  0.00     0.056 C 
ATOM     23  C   UNL A   1      33.511  22.343  23.678  1.00  0.00     0.056 C 
ATOM     24  C   UNL A   1      31.162  23.039  23.230  1.00  0.00     0.056 C 
ENDBRANCH  20  21
ENDBRANCH  17  20
ENDBRANCH   7  16
ENDBRANCH   6   7
ENDBRANCH   3   6
ENDBRANCH   1   2
BRANCH   1  25
ATOM     25  C   UNL A   1      34.610  30.725  27.435  1.00  0.00     0.042 C 
BRANCH  25  26
ATOM     26  C   UNL A   1      34.963  31.136  28.845  1.00  0.00     0.118 C 
BRANCH  26  27
ATOM     27  N   UNL A   1      36.242  31.828  28.915  1.00  0.00    -0.352 N 
ATOM     28  C   UNL A   1      37.531  31.336  29.002  1.00  0.00     0.251 C 
ATOM     29  H   UNL A   1      36.179  32.811  28.896  1.00  0.00     0.163 HD
ATOM     30  O   UNL A   1      38.463  32.121  29.151  1.00  0.00    -0.269 OA
BRANCH  28  31
ATOM     31  C   UNL A   1      37.808  29.912  28.679  1.00  0.00     0.039 A 
ATOM     32  C   UNL A   1      37.860  29.078  29.804  1.00  0.00     0.014 A 
ATOM     33  C   UNL A   1      38.515  29.585  27.532  1.00  0.00     0.014 A 
ATOM     34  C   UNL A   1      38.917  28.195  29.927  1.00  0.00     0.010 A 
ATOM     35  C   UNL A   1      39.652  28.841  27.701  1.00  0.00     0.010 A 
ATOM     36  C   UNL A   1      39.882  28.216  28.930  1.00  0.00    -0.014 A 
BRANCH  36  37
ATOM     37  C   UNL A   1      41.156  27.544  29.027  1.00  0.00     0.031 A 
ATOM     38  C   UNL A   1      41.158  26.115  28.694  1.00  0.00     0.074 A 
ATOM     39  C   UNL A   1      42.261  28.285  29.254  1.00  0.00     0.049 A 
ATOM     40  N   UNL A   1      42.064  25.281  29.046  1.00  0.00    -0.248 NA
ATOM     41  C   UNL A   1      40.054  25.489  27.968  1.00  0.00     0.031 C 
ATOM     42  C   UNL A   1      43.657  27.903  29.086  1.00  0.00     0.029 A 
ATOM     43  N   UNL A   1      42.321  29.538  29.878  1.00  0.00    -0.354 N 
ATOM     44  C   UNL A   1      41.835  24.106  28.362  1.00  0.00     0.074 A 
ATOM     45  C   UNL A   1      40.522  24.252  27.794  1.00  0.00     0.031 C 
ATOM     46  C   UNL A   1      44.425  28.724  29.824  1.00  0.00     0.029 A 
ATOM     47  C   UNL A   1      43.528  29.559  30.609  1.00  0.00     0.049 A 
ATOM     48  H   UNL A   1      41.654  30.261  29.817  1.00  0.00     0.167 HD
ATOM     49  C   UNL A   1      42.868  23.226  28.244  1.00  0.00     0.037 A 
ATOM     50  C   UNL A   1      43.498  29.589  31.976  1.00  0.00     0.037 A 
ATOM     51  C   UNL A   1      44.001  23.706  29.038  1.00  0.00     0.049 A 
ATOM     52  C   UNL A   1      44.047  28.318  32.579  1.00  0.00     0.074 A 
ATOM     53  C   UNL A   1      45.089  24.494  28.700  1.00  0.00     0.029 A 
ATOM     54  N   UNL A   1      43.887  23.756  30.423  1.00  0.00    -0.354 N 
ATOM     55  N   UNL A   1      44.039  27.162  31.970  1.00  0.00    -0.248 NA
ATOM     56  C   UNL A   1      44.692  28.261  33.888  1.00  0.00     0.031 C 
ATOM     57  C   UNL A   1      45.560  25.110  29.888  1.00  0.00     0.029 A 
ATOM     58  C   UNL A   1      44.784  24.668  30.948  1.00  0.00     0.049 A 
ATOM     59  H   UNL A   1      43.258  23.218  30.956  1.00  0.00     0.167 HD
ATOM     60  C   UNL A   1      44.664  26.232  32.757  1.00  0.00     0.074 A 
ATOM     61  C   UNL A   1      45.052  26.967  33.948  1.00  0.00     0.031 C 
ATOM     62  C   UNL A   1      44.835  24.932  32.378  1.00  0.00     0.037 A 
BRANCH  49  63
ATOM     63  C   UNL A   1      42.983  22.130  27.204  1.00  0.00     0.057 A 
ATOM     64  C   UNL A   1      42.125  21.013  27.269  1.00  0.00     0.134 A 
ATOM     65  C   UNL A   1      43.929  22.059  26.166  1.00  0.00     0.134 A 
ATOM     66  F   UNL A   1      41.120  20.947  28.153  1.00  0.00    -0.206 F 
ATOM     67  C   UNL A   1      42.249  19.894  26.433  1.00  0.00     0.040 A 
ATOM     68  C   UNL A   1      44.086  20.934  25.340  1.00  0.00     0.040 A 
ATOM     69  F   UNL A   1      44.725  23.082  25.851  1.00  0.00    -0.206 F 
ATOM     70  C   UNL A   1      43.249  19.840  25.477  1.00  0.00     0.006 A 
ENDBRANCH  49  63
BRANCH  50  71
ATOM     71  C   UNL A   1      42.338  30.376  32.493  1.00  0.00     0.057 A 
ATOM     72  C   UNL A   1      42.430  31.780  32.430  1.00  0.00     0.134 A 
ATOM     73  C   UNL A   1      41.054  29.827  32.559  1.00  0.00     0.134 A 
ATOM     74  F   UNL A   1      43.633  32.374  32.395  1.00  0.00    -0.206 F 
ATOM     75  C   UNL A   1      41.303  32.587  32.246  1.00  0.00     0.040 A 
ATOM     76  C   UNL A   1      39.917  30.632  32.400  1.00  0.00     0.040 A 
ATOM     77  F   UNL A   1      40.878  28.501  32.635  1.00  0.00    -0.206 F 
ATOM     78  C   UNL A   1      40.042  32.003  32.178  1.00  0.00     0.006 A 
ENDBRANCH  50  71
BRANCH  62  79
ATOM     79  C   UNL A   1      45.174  23.811  33.325  1.00  0.00     0.057 A 
ATOM     80  C   UNL A   1      46.441  23.645  33.904  1.00  0.00     0.134 A 
ATOM     81  C   UNL A   1      44.172  22.945  33.813  1.00  0.00     0.134 A 
ATOM     82  F   UNL A   1      47.452  24.485  33.637  1.00  0.00    -0.206 F 
ATOM     83  C   UNL A   1      46.716  22.636  34.831  1.00  0.00     0.040 A 
ATOM     84  C   UNL A   1      44.420  21.976  34.787  1.00  0.00     0.040 A 
ATOM     85  F   UNL A   1      42.902  23.021  33.387  1.00  0.00    -0.206 F 
ATOM     86  C   UNL A   1      45.701  21.802  35.283  1.00  0.00     0.006 A 
ENDBRANCH  62  79
ENDBRANCH  36  37
ENDBRANCH  28  31
ENDBRANCH  26  27
ENDBRANCH  25  26
ENDBRANCH   1  25
TORSDOF 16
ENDMDL
MODEL 2
REMARK VINA RESULT:     -11.5      2.768      4.366
REMARK SMILES Cc1cccc(C[C@H](CC(=O)NCCCNC(=O)c2ccc(-c3c4nc(c(-c5c(F)cccc5F)c5ccc([nH]5)c(-c5c(F)cccc5F)c5nc(c(-c6c(F)cccc6F)c6ccc3[nH]6)C=C5)C=C4)cc2)NC(=O)OC(C)(C)C)c1
REMARK SMILES IDX 13 1 12 2 10 3 11 4 9 6 8 7 7 8 6 9 1 10 2 11 3 12 81 13
REMARK SMILES IDX 4 14 5 15 73 16 74 17 75 19 76 20 77 21 78 22 79 23 80 24
REMARK SMILES IDX 14 25 15 26 16 27 17 28 18 30 19 31 20 32 72 33 21 34 71 35
REMARK SMILES IDX 22 36 23 37 24 38 65 39 25 40 70 41 64 42 66 43 26 44 69 45
REMARK SMILES IDX 63 46 62 47 27 49 53 50 36 51 52 52 37 53 40 54 51 55 67 56
REMARK SMILES IDX 38 57 39 58 50 60 68 61 41 62 28 63 29 64 34 65 30 66 31 67
REMARK SMILES IDX 33 68 35 69 32 70 54 71 55 72 60 73 56 74 57 75 59 76 61 77
REMARK SMILES IDX 58 78 42 79 43 80 48 81 44 82 45 83 47 84 49 85 46 86
REMARK H PARENT 12 5 73 18 16 29 66 48 40 59
REMARK Flexibility Score: inf
ROOT
ATOM      1  C   UNL A   1      35.288  30.214  27.814  1.00  0.00     0.117 C 
ENDROOT
BRANCH   1   2
ATOM      2  N   UNL A   1      34.050  29.476  28.005  1.00  0.00    -0.356 N 
ATOM      3  C   UNL A   1      33.379  28.617  27.189  1.00  0.00     0.222 C 
ATOM      4  O   UNL A   1      32.341  28.114  27.625  1.00  0.00    -0.275 OA
ATOM      5  H   UNL A   1      33.621  29.624  28.880  1.00  0.00     0.163 HD
BRANCH   3   6
ATOM      6  C   UNL A   1      33.859  28.279  25.784  1.00  0.00     0.125 C 
BRANCH   6   7
ATOM      7  C   UNL A   1      32.766  28.078  24.707  1.00  0.00     0.099 C 
BRANCH   7   8
ATOM      8  C   UNL A   1      31.964  29.392  24.445  1.00  0.00     0.061 C 
BRANCH   8   9
ATOM      9  C   UNL A   1      30.532  29.298  23.961  1.00  0.00    -0.046 A 
ATOM     10  C   UNL A   1      27.644  31.682  23.179  1.00  0.00     0.044 C 
ATOM     11  C   UNL A   1      28.449  30.428  23.344  1.00  0.00    -0.051 A 
ATOM     12  C   UNL A   1      27.880  29.195  23.015  1.00  0.00     0.003 A 
ATOM     13  C   UNL A   1      29.764  30.468  23.833  1.00  0.00     0.007 A 
ATOM     14  C   UNL A   1      28.644  28.036  23.086  1.00  0.00     0.001 A 
ATOM     15  C   UNL A   1      29.968  28.096  23.516  1.00  0.00     0.004 A 
ENDBRANCH   8   9
ENDBRANCH   7   8
BRANCH   7  16
ATOM     16  N   UNL A   1      33.409  27.506  23.528  1.00  0.00    -0.318 N 
ATOM     17  C   UNL A   1      33.447  26.251  23.021  1.00  0.00     0.407 C 
ATOM     18  H   UNL A   1      33.914  28.162  22.995  1.00  0.00     0.167 HD
ATOM     19  O   UNL A   1      34.031  26.070  21.966  1.00  0.00    -0.225 OA
BRANCH  17  20
ATOM     20  O   UNL A   1      32.789  25.334  23.754  1.00  0.00    -0.444 OA
BRANCH  20  21
ATOM     21  C   UNL A   1      33.538  24.206  24.275  1.00  0.00     0.106 C 
ATOM     22  C   UNL A   1      33.838  23.189  23.165  1.00  0.00     0.056 C 
ATOM     23  C   UNL A   1      34.818  24.652  24.998  1.00  0.00     0.056 C 
ATOM     24  C   UNL A   1      32.602  23.555  25.300  1.00  0.00     0.056 C 
ENDBRANCH  20  21
ENDBRANCH  17  20
ENDBRANCH   7  16
ENDBRANCH   6   7
ENDBRANCH   3   6
ENDBRANCH   1   2
BRANCH   1  25
ATOM     25  C   UNL A   1      35.188  31.648  28.328  1.00  0.00     0.042 C 
BRANCH  25  26
ATOM     26  C   UNL A   1      35.458  31.822  29.804  1.00  0.00     0.118 C 
BRANCH  26  27
ATOM     27  N   UNL A   1      34.482  32.691  30.446  1.00  0.00    -0.352 N 
ATOM     28  C   UNL A   1      34.500  33.309  31.682  1.00  0.00     0.251 C 
ATOM     29  H   UNL A   1      33.675  32.868  29.910  1.00  0.00     0.163 HD
ATOM     30  O   UNL A   1      33.506  33.926  32.058  1.00  0.00    -0.269 OA
BRANCH  28  31
ATOM     31  C   UNL A   1      35.775  33.434  32.435  1.00  0.00     0.039 A 
ATOM     32  C   UNL A   1      36.750  34.192  31.773  1.00  0.00     0.014 A 
ATOM     33  C   UNL A   1      36.146  32.450  33.338  1.00  0.00     0.014 A 
ATOM     34  C   UNL A   1      38.035  33.689  31.687  1.00  0.00     0.010 A 
ATOM     35  C   UNL A   1      37.362  31.854  33.133  1.00  0.00     0.010 A 
ATOM     36  C   UNL A   1      38.267  32.439  32.243  1.00  0.00    -0.014 A 
BRANCH  36  37
ATOM     37  C   UNL A   1      39.472  31.672  32.029  1.00  0.00     0.031 A 
ATOM     38  C   UNL A   1      39.342  30.495  31.163  1.00  0.00     0.074 A 
ATOM     39  C   UNL A   1      40.640  32.162  32.494  1.00  0.00     0.049 A 
ATOM     40  N   UNL A   1      40.163  29.513  31.133  1.00  0.00    -0.248 NA
ATOM     41  C   UNL A   1      38.189  30.306  30.283  1.00  0.00     0.031 C 
ATOM     42  C   UNL A   1      41.995  31.754  32.148  1.00  0.00     0.029 A 
ATOM     43  N   UNL A   1      40.813  33.059  33.558  1.00  0.00    -0.354 N 
ATOM     44  C   UNL A   1      39.830  28.727  30.049  1.00  0.00     0.074 A 
ATOM     45  C   UNL A   1      38.540  29.201  29.625  1.00  0.00     0.031 C 
ATOM     46  C   UNL A   1      42.832  32.148  33.126  1.00  0.00     0.029 A 
ATOM     47  C   UNL A   1      42.012  32.683  34.201  1.00  0.00     0.049 A 
ATOM     48  H   UNL A   1      40.218  33.804  33.806  1.00  0.00     0.167 HD
ATOM     49  C   UNL A   1      40.776  27.876  29.564  1.00  0.00     0.037 A 
ATOM     50  C   UNL A   1      41.975  32.176  35.471  1.00  0.00     0.037 A 
ATOM     51  C   UNL A   1      41.943  27.902  30.448  1.00  0.00     0.049 A 
ATOM     52  C   UNL A   1      42.399  30.726  35.511  1.00  0.00     0.074 A 
ATOM     53  C   UNL A   1      43.104  28.659  30.413  1.00  0.00     0.029 A 
ATOM     54  N   UNL A   1      41.826  27.413  31.745  1.00  0.00    -0.354 N 
ATOM     55  N   UNL A   1      42.286  29.909  34.497  1.00  0.00    -0.248 NA
ATOM     56  C   UNL A   1      43.026  30.102  36.672  1.00  0.00     0.031 C 
ATOM     57  C   UNL A   1      43.622  28.713  31.733  1.00  0.00     0.029 A 
ATOM     58  C   UNL A   1      42.801  27.962  32.558  1.00  0.00     0.049 A 
ATOM     59  H   UNL A   1      41.145  26.768  32.043  1.00  0.00     0.167 HD
ATOM     60  C   UNL A   1      42.816  28.693  34.838  1.00  0.00     0.074 A 
ATOM     61  C   UNL A   1      43.262  28.863  36.209  1.00  0.00     0.031 C 
ATOM     62  C   UNL A   1      42.866  27.636  33.975  1.00  0.00     0.037 A 
BRANCH  49  63
ATOM     63  C   UNL A   1      40.795  27.271  28.175  1.00  0.00     0.057 A 
ATOM     64  C   UNL A   1      40.105  26.066  27.929  1.00  0.00     0.134 A 
ATOM     65  C   UNL A   1      41.502  27.759  27.061  1.00  0.00     0.134 A 
ATOM     66  F   UNL A   1      39.324  25.498  28.858  1.00  0.00    -0.206 F 
ATOM     67  C   UNL A   1      40.179  25.370  26.714  1.00  0.00     0.040 A 
ATOM     68  C   UNL A   1      41.610  27.058  25.849  1.00  0.00     0.040 A 
ATOM     69  F   UNL A   1      42.090  28.957  27.054  1.00  0.00    -0.206 F 
ATOM     70  C   UNL A   1      40.954  25.853  25.673  1.00  0.00     0.006 A 
ENDBRANCH  49  63
BRANCH  50  71
ATOM     71  C   UNL A   1      40.891  32.796  36.290  1.00  0.00     0.057 A 
ATOM     72  C   UNL A   1      41.096  34.114  36.743  1.00  0.00     0.134 A 
ATOM     73  C   UNL A   1      39.567  32.355  36.205  1.00  0.00     0.134 A 
ATOM     74  F   UNL A   1      42.344  34.592  36.878  1.00  0.00    -0.206 F 
ATOM     75  C   UNL A   1      40.037  35.009  36.917  1.00  0.00     0.040 A 
ATOM     76  C   UNL A   1      38.498  33.239  36.402  1.00  0.00     0.040 A 
ATOM     77  F   UNL A   1      39.284  31.110  35.796  1.00  0.00    -0.206 F 
ATOM     78  C   UNL A   1      38.732  34.583  36.694  1.00  0.00     0.006 A 
ENDBRANCH  50  71
BRANCH  62  79
ATOM     79  C   UNL A   1      43.092  26.209  34.395  1.00  0.00     0.057 A 
ATOM     80  C   UNL A   1      42.129  25.437  35.062  1.00  0.00     0.134 A 
ATOM     81  C   UNL A   1      44.249  25.508  33.991  1.00  0.00     0.134 A 
ATOM     82  F   UNL A   1      40.926  25.937  35.382  1.00  0.00    -0.206 F 
ATOM     83  C   UNL A   1      42.336  24.093  35.385  1.00  0.00     0.040 A 
ATOM     84  C   UNL A   1      44.438  24.149  34.250  1.00  0.00     0.040 A 
ATOM     85  F   UNL A   1      45.233  26.104  33.301  1.00  0.00    -0.206 F 
ATOM     86  C   UNL A   1      43.490  23.441  34.971  1.00  0.00     0.006 A 
ENDBRANCH  62  79
ENDBRANCH  36  37
ENDBRANCH  28  31
ENDBRANCH  26  27
ENDBRANCH  25  26
ENDBRANCH   1  25
TORSDOF 16
ENDMDL
MODEL 3
REMARK VINA RESULT:     -11.4      0.841      1.814
REMARK SMILES Cc1cccc(C[C@H](CC(=O)NCCCNC(=O)c2ccc(-c3c4nc(c(-c5c(F)cccc5F)c5ccc([nH]5)c(-c5c(F)cccc5F)c5nc(c(-c6c(F)cccc6F)c6ccc3[nH]6)C=C5)C=C4)cc2)NC(=O)OC(C)(C)C)c1
REMARK SMILES IDX 13 1 12 2 10 3 11 4 9 6 8 7 7 8 6 9 1 10 2 11 3 12 81 13
REMARK SMILES IDX 4 14 5 15 73 16 74 17 75 19 76 20 77 21 78 22 79 23 80 24
REMARK SMILES IDX 14 25 15 26 16 27 17 28 18 30 19 31 20 32 72 33 21 34 71 35
REMARK SMILES IDX 22 36 23 37 24 38 65 39 25 40 70 41 64 42 66 43 26 44 69 45
REMARK SMILES IDX 63 46 62 47 27 49 53 50 36 51 52 52 37 53 40 54 51 55 67 56
REMARK SMILES IDX 38 57 39 58 50 60 68 61 41 62 28 63 29 64 34 65 30 66 31 67
REMARK SMILES IDX 33 68 35 69 32 70 54 71 55 72 60 73 56 74 57 75 59 76 61 77
REMARK SMILES IDX 58 78 42 79 43 80 48 81 44 82 45 83 47 84 49 85 46 86
REMARK H PARENT 12 5 73 18 16 29 66 48 40 59
REMARK Flexibility Score: inf
ROOT
ATOM      1  C   UNL A   1      32.826  30.553  26.481  1.00  0.00     0.117 C 
ENDROOT
BRANCH   1   2
ATOM      2  N   UNL A   1      32.061  29.509  27.142  1.00  0.00    -0.356 N 
ATOM      3  C   UNL A   1      32.255  28.162  27.218  1.00  0.00     0.222 C 
ATOM      4  O   UNL A   1      31.441  27.508  27.873  1.00  0.00    -0.275 OA
ATOM      5  H   UNL A   1      31.262  29.832  27.620  1.00  0.00     0.163 HD
BRANCH   3   6
ATOM      6  C   UNL A   1      33.414  27.462  26.523  1.00  0.00     0.125 C 
BRANCH   6   7
ATOM      7  C   UNL A   1      33.094  26.750  25.187  1.00  0.00     0.099 C 
BRANCH   7   8
ATOM      8  C   UNL A   1      32.912  27.769  24.019  1.00  0.00     0.061 C 
BRANCH   8   9
ATOM      9  C   UNL A   1      31.513  28.105  23.544  1.00  0.00    -0.046 A 
ATOM     10  C   UNL A   1      27.988  26.653  23.861  1.00  0.00     0.044 C 
ATOM     11  C   UNL A   1      29.129  27.552  23.486  1.00  0.00    -0.051 A 
ATOM     12  C   UNL A   1      28.881  28.704  22.736  1.00  0.00     0.003 A 
ATOM     13  C   UNL A   1      30.446  27.251  23.868  1.00  0.00     0.007 A 
ATOM     14  C   UNL A   1      29.918  29.586  22.454  1.00  0.00     0.001 A 
ATOM     15  C   UNL A   1      31.212  29.306  22.890  1.00  0.00     0.004 A 
ENDBRANCH   8   9
ENDBRANCH   7   8
BRANCH   7  16
ATOM     16  N   UNL A   1      34.126  25.740  24.967  1.00  0.00    -0.318 N 
ATOM     17  C   UNL A   1      34.181  24.640  24.180  1.00  0.00     0.407 C 
ATOM     18  H   UNL A   1      34.944  25.889  25.494  1.00  0.00     0.167 HD
ATOM     19  O   UNL A   1      35.216  23.996  24.156  1.00  0.00    -0.225 OA
BRANCH  17  20
ATOM     20  O   UNL A   1      33.058  24.402  23.476  1.00  0.00    -0.444 OA
BRANCH  20  21
ATOM     21  C   UNL A   1      32.222  23.286  23.875  1.00  0.00     0.106 C 
ATOM     22  C   UNL A   1      32.611  22.012  23.113  1.00  0.00     0.056 C 
ATOM     23  C   UNL A   1      32.244  23.067  25.396  1.00  0.00     0.056 C 
ATOM     24  C   UNL A   1      30.803  23.693  23.463  1.00  0.00     0.056 C 
ENDBRANCH  20  21
ENDBRANCH  17  20
ENDBRANCH   7  16
ENDBRANCH   6   7
ENDBRANCH   3   6
ENDBRANCH   1   2
BRANCH   1  25
ATOM     25  C   UNL A   1      34.280  30.584  26.946  1.00  0.00     0.042 C 
BRANCH  25  26
ATOM     26  C   UNL A   1      34.481  30.913  28.406  1.00  0.00     0.118 C 
BRANCH  26  27
ATOM     27  N   UNL A   1      35.711  31.657  28.640  1.00  0.00    -0.352 N 
ATOM     28  C   UNL A   1      36.996  31.218  28.894  1.00  0.00     0.251 C 
ATOM     29  H   UNL A   1      35.609  32.636  28.613  1.00  0.00     0.163 HD
ATOM     30  O   UNL A   1      37.868  32.040  29.162  1.00  0.00    -0.269 OA
BRANCH  28  31
ATOM     31  C   UNL A   1      37.372  29.808  28.611  1.00  0.00     0.039 A 
ATOM     32  C   UNL A   1      37.458  29.006  29.757  1.00  0.00     0.014 A 
ATOM     33  C   UNL A   1      38.118  29.502  27.484  1.00  0.00     0.014 A 
ATOM     34  C   UNL A   1      38.568  28.198  29.918  1.00  0.00     0.010 A 
ATOM     35  C   UNL A   1      39.298  28.838  27.690  1.00  0.00     0.010 A 
ATOM     36  C   UNL A   1      39.547  28.259  28.937  1.00  0.00    -0.014 A 
BRANCH  36  37
ATOM     37  C   UNL A   1      40.860  27.675  29.071  1.00  0.00     0.031 A 
ATOM     38  C   UNL A   1      40.977  26.259  28.702  1.00  0.00     0.074 A 
ATOM     39  C   UNL A   1      41.900  28.483  29.363  1.00  0.00     0.049 A 
ATOM     40  N   UNL A   1      41.925  25.481  29.071  1.00  0.00    -0.248 NA
ATOM     41  C   UNL A   1      39.951  25.578  27.913  1.00  0.00     0.031 C 
ATOM     42  C   UNL A   1      43.326  28.204  29.245  1.00  0.00     0.029 A 
ATOM     43  N   UNL A   1      41.846  29.719  30.021  1.00  0.00    -0.354 N 
ATOM     44  C   UNL A   1      41.808  24.312  28.347  1.00  0.00     0.074 A 
ATOM     45  C   UNL A   1      40.512  24.383  27.728  1.00  0.00     0.031 C 
ATOM     46  C   UNL A   1      44.003  29.056  30.037  1.00  0.00     0.029 A 
ATOM     47  C   UNL A   1      43.018  29.804  30.804  1.00  0.00     0.049 A 
ATOM     48  H   UNL A   1      41.133  30.396  29.951  1.00  0.00     0.167 HD
ATOM     49  C   UNL A   1      42.904  23.510  28.251  1.00  0.00     0.037 A 
ATOM     50  C   UNL A   1      42.930  29.792  32.169  1.00  0.00     0.037 A 
ATOM     51  C   UNL A   1      43.967  24.045  29.105  1.00  0.00     0.049 A 
ATOM     52  C   UNL A   1      43.543  28.546  32.762  1.00  0.00     0.074 A 
ATOM     53  C   UNL A   1      45.010  24.916  28.834  1.00  0.00     0.029 A 
ATOM     54  N   UNL A   1      43.794  24.047  30.485  1.00  0.00    -0.354 N 
ATOM     55  N   UNL A   1      43.642  27.410  32.123  1.00  0.00    -0.248 NA
ATOM     56  C   UNL A   1      44.136  28.496  34.096  1.00  0.00     0.031 C 
ATOM     57  C   UNL A   1      45.387  25.529  30.057  1.00  0.00     0.029 A 
ATOM     58  C   UNL A   1      44.602  25.004  31.071  1.00  0.00     0.049 A 
ATOM     59  H   UNL A   1      43.183  23.451  30.976  1.00  0.00     0.167 HD
ATOM     60  C   UNL A   1      44.298  26.504  32.913  1.00  0.00     0.074 A 
ATOM     61  C   UNL A   1      44.584  27.230  34.137  1.00  0.00     0.031 C 
ATOM     62  C   UNL A   1      44.575  25.230  32.508  1.00  0.00     0.037 A 
BRANCH  49  63
ATOM     63  C   UNL A   1      43.139  22.455  27.190  1.00  0.00     0.057 A 
ATOM     64  C   UNL A   1      42.363  21.276  27.193  1.00  0.00     0.134 A 
ATOM     65  C   UNL A   1      44.126  22.482  26.188  1.00  0.00     0.134 A 
ATOM     66  F   UNL A   1      41.334  21.113  28.034  1.00  0.00    -0.206 F 
ATOM     67  C   UNL A   1      42.601  20.194  26.334  1.00  0.00     0.040 A 
ATOM     68  C   UNL A   1      44.396  21.395  25.341  1.00  0.00     0.040 A 
ATOM     69  F   UNL A   1      44.855  23.569  25.931  1.00  0.00    -0.206 F 
ATOM     70  C   UNL A   1      43.638  20.240  25.417  1.00  0.00     0.006 A 
ENDBRANCH  49  63
BRANCH  50  71
ATOM     71  C   UNL A   1      41.697  30.481  32.655  1.00  0.00     0.057 A 
ATOM     72  C   UNL A   1      40.631  29.669  33.090  1.00  0.00     0.134 A 
ATOM     73  C   UNL A   1      41.736  31.790  33.144  1.00  0.00     0.134 A 
ATOM     74  F   UNL A   1      40.516  28.411  32.635  1.00  0.00    -0.206 F 
ATOM     75  C   UNL A   1      39.761  30.074  34.107  1.00  0.00     0.040 A 
ATOM     76  C   UNL A   1      40.851  32.212  34.146  1.00  0.00     0.040 A 
ATOM     77  F   UNL A   1      42.709  32.633  32.771  1.00  0.00    -0.206 F 
ATOM     78  C   UNL A   1      39.905  31.335  34.675  1.00  0.00     0.006 A 
ENDBRANCH  50  71
BRANCH  62  79
ATOM     79  C   UNL A   1      44.954  24.109  33.439  1.00  0.00     0.057 A 
ATOM     80  C   UNL A   1      44.063  23.102  33.839  1.00  0.00     0.134 A 
ATOM     81  C   UNL A   1      46.295  23.920  33.839  1.00  0.00     0.134 A 
ATOM     82  F   UNL A   1      42.791  23.080  33.418  1.00  0.00    -0.206 F 
ATOM     83  C   UNL A   1      44.455  22.033  34.652  1.00  0.00     0.040 A 
ATOM     84  C   UNL A   1      46.710  22.822  34.595  1.00  0.00     0.040 A 
ATOM     85  F   UNL A   1      47.266  24.776  33.488  1.00  0.00    -0.206 F 
ATOM     86  C   UNL A   1      45.784  21.886  35.026  1.00  0.00     0.006 A 
ENDBRANCH  62  79
ENDBRANCH  36  37
ENDBRANCH  28  31
ENDBRANCH  26  27
ENDBRANCH  25  26
ENDBRANCH   1  25
TORSDOF 16
ENDMDL
