MODEL 1
REMARK VINA RESULT:     -12.3      0.000      0.000
REMARK SMILES O=C(NCCCNC(=O)[C@H](c1ccc(O)cc1)[NH+]1CC[NH+](Cc2cccc(Cl)c2)CC1)c1ccc(-c2c3nc(c(-c4c(F)cccc4F)c4ccc([nH]4)c(-c4c(F)cccc4F)c4nc(c(-c5c(F)cccc5F)c5ccc2[nH]5)C=C4)C=C3)cc1
REMARK SMILES IDX 5 1 4 2 3 3 1 4 2 5 32 7 33 8 85 9 34 10 84 11 35 12 36 13
REMARK SMILES IDX 37 14 78 15 38 16 83 17 77 18 79 19 39 20 82 21 76 22 75 23
REMARK SMILES IDX 40 25 66 26 49 27 65 28 50 29 53 30 64 31 80 32 51 33 52 34
REMARK SMILES IDX 63 36 81 37 54 38 41 39 42 40 47 41 43 42 44 43 46 44 48 45
REMARK SMILES IDX 45 46 67 47 68 48 73 49 69 50 70 51 72 52 74 53 71 54 55 55
REMARK SMILES IDX 56 56 61 57 57 58 58 59 60 60 62 61 59 62 6 63 7 64 8 65
REMARK SMILES IDX 9 67 10 68 18 69 19 70 31 71 20 73 30 74 21 75 22 77 23 78
REMARK SMILES IDX 24 79 29 80 25 81 27 82 26 83 28 84 11 85 12 86 17 87 13 88
REMARK SMILES IDX 16 89 14 90 15 91
REMARK H PARENT 3 6 79 24 53 35 7 66 18 72 21 76 15 92
REMARK Flexibility Score: inf
ROOT
ATOM      1  C   UNL A   1      33.464  27.842  26.819  1.00  0.00     0.042 C 
ENDROOT
BRANCH   1   2
ATOM      2  C   UNL A   1      34.145  28.951  26.042  1.00  0.00     0.118 C 
BRANCH   2   3
ATOM      3  N   UNL A   1      33.882  30.264  26.611  1.00  0.00    -0.352 N 
ATOM      4  O   UNL A   1      34.018  31.921  28.130  1.00  0.00    -0.269 OA
ATOM      5  C   UNL A   1      34.515  30.907  27.645  1.00  0.00     0.251 C 
ATOM      6  H   UNL A   1      33.143  30.762  26.195  1.00  0.00     0.163 HD
BRANCH   5   7
ATOM      7  C   UNL A   1      35.785  30.373  28.180  1.00  0.00     0.039 A 
ATOM      8  C   UNL A   1      36.986  30.598  27.506  1.00  0.00     0.014 A 
ATOM      9  C   UNL A   1      35.779  29.663  29.383  1.00  0.00     0.014 A 
ATOM     10  C   UNL A   1      38.151  29.990  27.947  1.00  0.00     0.010 A 
ATOM     11  C   UNL A   1      36.975  29.148  29.890  1.00  0.00     0.010 A 
ATOM     12  C   UNL A   1      38.168  29.293  29.166  1.00  0.00    -0.014 A 
BRANCH  12  13
ATOM     13  C   UNL A   1      39.470  28.828  29.700  1.00  0.00     0.031 A 
ATOM     14  C   UNL A   1      40.095  29.465  30.905  1.00  0.00     0.074 A 
ATOM     15  C   UNL A   1      40.068  27.787  29.088  1.00  0.00     0.049 A 
ATOM     16  N   UNL A   1      41.219  29.159  31.504  1.00  0.00    -0.248 NA
ATOM     17  C   UNL A   1      39.378  30.594  31.516  1.00  0.00     0.031 C 
ATOM     18  C   UNL A   1      39.553  27.101  27.898  1.00  0.00     0.029 A 
ATOM     19  N   UNL A   1      41.222  27.111  29.383  1.00  0.00    -0.354 N 
ATOM     20  C   UNL A   1      41.351  30.062  32.551  1.00  0.00     0.074 A 
ATOM     21  C   UNL A   1      40.208  30.948  32.489  1.00  0.00     0.031 C 
ATOM     22  C   UNL A   1      40.356  26.071  27.600  1.00  0.00     0.029 A 
ATOM     23  C   UNL A   1      41.482  26.071  28.524  1.00  0.00     0.049 A 
ATOM     24  H   UNL A   1      41.808  27.346  30.139  1.00  0.00     0.167 HD
ATOM     25  C   UNL A   1      42.335  30.135  33.479  1.00  0.00     0.037 A 
ATOM     26  C   UNL A   1      42.525  25.225  28.466  1.00  0.00     0.037 A 
ATOM     27  C   UNL A   1      43.467  29.243  33.530  1.00  0.00     0.049 A 
ATOM     28  C   UNL A   1      43.618  25.360  29.484  1.00  0.00     0.074 A 
ATOM     29  C   UNL A   1      44.503  29.217  34.448  1.00  0.00     0.029 A 
ATOM     30  N   UNL A   1      43.717  28.226  32.619  1.00  0.00    -0.354 N 
ATOM     31  N   UNL A   1      43.711  26.195  30.491  1.00  0.00    -0.248 NA
ATOM     32  C   UNL A   1      44.754  24.439  29.356  1.00  0.00     0.031 C 
ATOM     33  C   UNL A   1      45.406  28.222  34.062  1.00  0.00     0.029 A 
ATOM     34  C   UNL A   1      44.905  27.586  32.938  1.00  0.00     0.049 A 
ATOM     35  H   UNL A   1      43.136  27.993  31.859  1.00  0.00     0.167 HD
ATOM     36  C   UNL A   1      44.904  25.887  31.128  1.00  0.00     0.074 A 
ATOM     37  C   UNL A   1      45.486  24.773  30.409  1.00  0.00     0.031 C 
ATOM     38  C   UNL A   1      45.470  26.478  32.209  1.00  0.00     0.037 A 
BRANCH  25  39
ATOM     39  C   UNL A   1      42.247  31.227  34.508  1.00  0.00     0.057 A 
ATOM     40  C   UNL A   1      42.822  32.488  34.303  1.00  0.00     0.134 A 
ATOM     41  C   UNL A   1      41.530  31.032  35.696  1.00  0.00     0.134 A 
ATOM     42  F   UNL A   1      43.533  32.740  33.193  1.00  0.00    -0.206 F 
ATOM     43  C   UNL A   1      42.701  33.509  35.248  1.00  0.00     0.040 A 
ATOM     44  C   UNL A   1      41.381  32.053  36.636  1.00  0.00     0.040 A 
ATOM     45  F   UNL A   1      40.948  29.851  35.956  1.00  0.00    -0.206 F 
ATOM     46  C   UNL A   1      41.970  33.295  36.416  1.00  0.00     0.006 A 
ENDBRANCH  25  39
BRANCH  26  47
ATOM     47  C   UNL A   1      42.589  24.196  27.399  1.00  0.00     0.057 A 
ATOM     48  C   UNL A   1      42.122  22.895  27.614  1.00  0.00     0.134 A 
ATOM     49  C   UNL A   1      43.125  24.490  26.137  1.00  0.00     0.134 A 
ATOM     50  F   UNL A   1      41.612  22.549  28.804  1.00  0.00    -0.206 F 
ATOM     51  C   UNL A   1      42.206  21.916  26.622  1.00  0.00     0.040 A 
ATOM     52  C   UNL A   1      43.184  23.530  25.127  1.00  0.00     0.040 A 
ATOM     53  F   UNL A   1      43.579  25.721  25.863  1.00  0.00    -0.206 F 
ATOM     54  C   UNL A   1      42.734  22.235  25.372  1.00  0.00     0.006 A 
ENDBRANCH  26  47
BRANCH  38  55
ATOM     55  C   UNL A   1      46.769  25.903  32.692  1.00  0.00     0.057 A 
ATOM     56  C   UNL A   1      46.819  24.904  33.673  1.00  0.00     0.134 A 
ATOM     57  C   UNL A   1      47.986  26.348  32.159  1.00  0.00     0.134 A 
ATOM     58  F   UNL A   1      45.689  24.447  34.237  1.00  0.00    -0.206 F 
ATOM     59  C   UNL A   1      48.034  24.390  34.128  1.00  0.00     0.040 A 
ATOM     60  C   UNL A   1      49.205  25.817  32.583  1.00  0.00     0.040 A 
ATOM     61  F   UNL A   1      48.009  27.297  31.212  1.00  0.00    -0.206 F 
ATOM     62  C   UNL A   1      49.231  24.842  33.577  1.00  0.00     0.006 A 
ENDBRANCH  38  55
ENDBRANCH  12  13
ENDBRANCH   5   7
ENDBRANCH   2   3
ENDBRANCH   1   2
BRANCH   1  63
ATOM     63  C   UNL A   1      32.089  28.230  27.350  1.00  0.00     0.118 C 
BRANCH  63  64
ATOM     64  N   UNL A   1      31.104  27.178  27.164  1.00  0.00    -0.351 N 
ATOM     65  C   UNL A   1      30.618  26.486  26.097  1.00  0.00     0.283 C 
ATOM     66  H   UNL A   1      30.690  26.898  28.012  1.00  0.00     0.163 HD
ATOM     67  O   UNL A   1      29.770  25.632  26.412  1.00  0.00    -0.268 OA
BRANCH  65  68
ATOM     68  C   UNL A   1      31.011  26.654  24.594  1.00  0.00     0.305 C 
BRANCH  68  69
ATOM     69  N   UNL A   1      31.591  25.426  23.980  1.00  0.00    -0.312 N 
ATOM     70  C   UNL A   1      32.663  25.560  23.017  1.00  0.00     0.325 C 
ATOM     71  C   UNL A   1      31.951  24.321  24.890  1.00  0.00     0.325 C 
ATOM     72  H   UNL A   1      30.744  25.187  23.464  1.00  0.00     0.349 HD
ATOM     73  C   UNL A   1      34.056  25.807  23.628  1.00  0.00     0.324 C 
ATOM     74  C   UNL A   1      33.433  24.256  25.393  1.00  0.00     0.324 C 
ATOM     75  N   UNL A   1      34.508  24.724  24.500  1.00  0.00    -0.322 N 
ATOM     76  H   UNL A   1      35.201  25.122  25.134  1.00  0.00     0.348 HD
BRANCH  75  77
ATOM     77  C   UNL A   1      35.324  23.699  23.837  1.00  0.00     0.299 C 
BRANCH  77  78
ATOM     78  C   UNL A   1      36.391  23.050  24.690  1.00  0.00     0.008 A 
ATOM     79  C   UNL A   1      37.187  23.824  25.556  1.00  0.00     0.009 A 
ATOM     80  C   UNL A   1      36.686  21.690  24.536  1.00  0.00     0.030 A 
ATOM     81  C   UNL A   1      38.335  23.285  26.140  1.00  0.00     0.002 A 
ATOM     82  C   UNL A   1      37.811  21.147  25.154  1.00  0.00     0.041 A 
ATOM     83  C   UNL A   1      38.654  21.946  25.925  1.00  0.00     0.020 A 
ATOM     84  Cl  UNL A   1      38.186  19.484  24.923  1.00  0.00    -0.084 Cl
ENDBRANCH  77  78
ENDBRANCH  75  77
ENDBRANCH  68  69
BRANCH  68  85
ATOM     85  C   UNL A   1      30.118  27.550  23.737  1.00  0.00     0.019 A 
ATOM     86  C   UNL A   1      30.560  28.684  23.044  1.00  0.00     0.014 A 
ATOM     87  C   UNL A   1      28.739  27.263  23.672  1.00  0.00     0.014 A 
ATOM     88  C   UNL A   1      29.663  29.592  22.478  1.00  0.00     0.046 A 
ATOM     89  C   UNL A   1      27.837  28.147  23.078  1.00  0.00     0.046 A 
ATOM     90  C   UNL A   1      28.302  29.331  22.533  1.00  0.00     0.115 A 
BRANCH  90  91
ATOM     91  O   UNL A   1      27.393  30.230  22.067  1.00  0.00    -0.508 OA
ATOM     92  H   UNL A   1      26.481  30.015  22.064  1.00  0.00     0.293 HD
ENDBRANCH  90  91
ENDBRANCH  68  85
ENDBRANCH  65  68
ENDBRANCH  63  64
ENDBRANCH   1  63
TORSDOF 15
ENDMDL
MODEL 2
REMARK VINA RESULT:     -12.3      3.665      8.419
REMARK SMILES O=C(NCCCNC(=O)[C@H](c1ccc(O)cc1)[NH+]1CC[NH+](Cc2cccc(Cl)c2)CC1)c1ccc(-c2c3nc(c(-c4c(F)cccc4F)c4ccc([nH]4)c(-c4c(F)cccc4F)c4nc(c(-c5c(F)cccc5F)c5ccc2[nH]5)C=C4)C=C3)cc1
REMARK SMILES IDX 5 1 4 2 3 3 1 4 2 5 32 7 33 8 85 9 34 10 84 11 35 12 36 13
REMARK SMILES IDX 37 14 78 15 38 16 83 17 77 18 79 19 39 20 82 21 76 22 75 23
REMARK SMILES IDX 40 25 66 26 49 27 65 28 50 29 53 30 64 31 80 32 51 33 52 34
REMARK SMILES IDX 63 36 81 37 54 38 41 39 42 40 47 41 43 42 44 43 46 44 48 45
REMARK SMILES IDX 45 46 67 47 68 48 73 49 69 50 70 51 72 52 74 53 71 54 55 55
REMARK SMILES IDX 56 56 61 57 57 58 58 59 60 60 62 61 59 62 6 63 7 64 8 65
REMARK SMILES IDX 9 67 10 68 18 69 19 70 31 71 20 73 30 74 21 75 22 77 23 78
REMARK SMILES IDX 24 79 29 80 25 81 27 82 26 83 28 84 11 85 12 86 17 87 13 88
REMARK SMILES IDX 16 89 14 90 15 91
REMARK H PARENT 3 6 79 24 53 35 7 66 18 72 21 76 15 92
REMARK Flexibility Score: inf
ROOT
ATOM      1  C   UNL A   1      37.290  19.812  25.023  1.00  0.00     0.042 C 
ENDROOT
BRANCH   1   2
ATOM      2  C   UNL A   1      38.594  20.457  25.448  1.00  0.00     0.118 C 
BRANCH   2   3
ATOM      3  N   UNL A   1      39.660  19.482  25.619  1.00  0.00    -0.352 N 
ATOM      4  O   UNL A   1      41.775  18.765  25.912  1.00  0.00    -0.269 OA
ATOM      5  C   UNL A   1      40.954  19.672  26.034  1.00  0.00     0.251 C 
ATOM      6  H   UNL A   1      39.419  18.552  25.405  1.00  0.00     0.163 HD
BRANCH   5   7
ATOM      7  C   UNL A   1      41.361  20.968  26.615  1.00  0.00     0.039 A 
ATOM      8  C   UNL A   1      41.824  21.997  25.793  1.00  0.00     0.014 A 
ATOM      9  C   UNL A   1      41.252  21.168  27.994  1.00  0.00     0.014 A 
ATOM     10  C   UNL A   1      42.320  23.162  26.357  1.00  0.00     0.010 A 
ATOM     11  C   UNL A   1      41.643  22.389  28.549  1.00  0.00     0.010 A 
ATOM     12  C   UNL A   1      42.197  23.389  27.737  1.00  0.00    -0.014 A 
BRANCH  12  13
ATOM     13  C   UNL A   1      42.557  24.724  28.272  1.00  0.00     0.031 A 
ATOM     14  C   UNL A   1      43.972  25.072  28.623  1.00  0.00     0.074 A 
ATOM     15  C   UNL A   1      41.574  25.635  28.409  1.00  0.00     0.049 A 
ATOM     16  N   UNL A   1      44.449  26.201  29.084  1.00  0.00    -0.248 NA
ATOM     17  C   UNL A   1      44.986  24.022  28.445  1.00  0.00     0.031 C 
ATOM     18  C   UNL A   1      40.157  25.397  28.110  1.00  0.00     0.029 A 
ATOM     19  N   UNL A   1      41.608  26.944  28.812  1.00  0.00    -0.354 N 
ATOM     20  C   UNL A   1      45.811  25.996  29.262  1.00  0.00     0.074 A 
ATOM     21  C   UNL A   1      46.081  24.624  28.889  1.00  0.00     0.031 C 
ATOM     22  C   UNL A   1      39.471  26.534  28.287  1.00  0.00     0.029 A 
ATOM     23  C   UNL A   1      40.380  27.557  28.786  1.00  0.00     0.049 A 
ATOM     24  H   UNL A   1      42.435  27.401  29.092  1.00  0.00     0.167 HD
ATOM     25  C   UNL A   1      46.745  26.878  29.691  1.00  0.00     0.037 A 
ATOM     26  C   UNL A   1      40.015  28.799  29.151  1.00  0.00     0.037 A 
ATOM     27  C   UNL A   1      46.461  28.244  30.058  1.00  0.00     0.049 A 
ATOM     28  C   UNL A   1      41.067  29.737  29.662  1.00  0.00     0.074 A 
ATOM     29  C   UNL A   1      47.342  29.225  30.477  1.00  0.00     0.029 A 
ATOM     30  N   UNL A   1      45.197  28.818  30.057  1.00  0.00    -0.354 N 
ATOM     31  N   UNL A   1      42.357  29.541  29.789  1.00  0.00    -0.248 NA
ATOM     32  C   UNL A   1      40.614  31.068  30.083  1.00  0.00     0.031 C 
ATOM     33  C   UNL A   1      46.606  30.375  30.783  1.00  0.00     0.029 A 
ATOM     34  C   UNL A   1      45.273  30.131  30.495  1.00  0.00     0.049 A 
ATOM     35  H   UNL A   1      44.369  28.361  29.783  1.00  0.00     0.167 HD
ATOM     36  C   UNL A   1      42.873  30.728  30.287  1.00  0.00     0.074 A 
ATOM     37  C   UNL A   1      41.760  31.647  30.413  1.00  0.00     0.031 C 
ATOM     38  C   UNL A   1      44.153  31.031  30.615  1.00  0.00     0.037 A 
BRANCH  25  39
ATOM     39  C   UNL A   1      48.163  26.395  29.810  1.00  0.00     0.057 A 
ATOM     40  C   UNL A   1      48.640  25.773  30.971  1.00  0.00     0.134 A 
ATOM     41  C   UNL A   1      49.047  26.502  28.728  1.00  0.00     0.134 A 
ATOM     42  F   UNL A   1      47.852  25.647  32.049  1.00  0.00    -0.206 F 
ATOM     43  C   UNL A   1      49.948  25.291  31.058  1.00  0.00     0.040 A 
ATOM     44  C   UNL A   1      50.348  26.001  28.794  1.00  0.00     0.040 A 
ATOM     45  F   UNL A   1      48.655  27.081  27.583  1.00  0.00    -0.206 F 
ATOM     46  C   UNL A   1      50.804  25.396  29.962  1.00  0.00     0.006 A 
ENDBRANCH  25  39
BRANCH  26  47
ATOM     47  C   UNL A   1      38.592  29.211  29.062  1.00  0.00     0.057 A 
ATOM     48  C   UNL A   1      38.043  29.677  27.863  1.00  0.00     0.134 A 
ATOM     49  C   UNL A   1      37.748  29.154  30.179  1.00  0.00     0.134 A 
ATOM     50  F   UNL A   1      38.804  29.768  26.763  1.00  0.00    -0.206 F 
ATOM     51  C   UNL A   1      36.713  30.092  27.781  1.00  0.00     0.040 A 
ATOM     52  C   UNL A   1      36.408  29.535  30.104  1.00  0.00     0.040 A 
ATOM     53  F   UNL A   1      38.209  28.707  31.356  1.00  0.00    -0.206 F 
ATOM     54  C   UNL A   1      35.890  30.017  28.904  1.00  0.00     0.006 A 
ENDBRANCH  26  47
BRANCH  38  55
ATOM     55  C   UNL A   1      44.414  32.423  31.110  1.00  0.00     0.057 A 
ATOM     56  C   UNL A   1      44.394  32.741  32.475  1.00  0.00     0.134 A 
ATOM     57  C   UNL A   1      44.702  33.457  30.209  1.00  0.00     0.134 A 
ATOM     58  F   UNL A   1      44.108  31.800  33.388  1.00  0.00    -0.206 F 
ATOM     59  C   UNL A   1      44.621  34.043  32.923  1.00  0.00     0.040 A 
ATOM     60  C   UNL A   1      44.963  34.755  30.649  1.00  0.00     0.040 A 
ATOM     61  F   UNL A   1      44.744  33.219  28.890  1.00  0.00    -0.206 F 
ATOM     62  C   UNL A   1      44.913  35.053  32.008  1.00  0.00     0.006 A 
ENDBRANCH  38  55
ENDBRANCH  12  13
ENDBRANCH   5   7
ENDBRANCH   2   3
ENDBRANCH   1   2
BRANCH   1  63
ATOM     63  C   UNL A   1      36.150  20.809  24.846  1.00  0.00     0.118 C 
BRANCH  63  64
ATOM     64  N   UNL A   1      35.598  21.252  26.115  1.00  0.00    -0.351 N 
ATOM     65  C   UNL A   1      34.345  21.417  26.621  1.00  0.00     0.283 C 
ATOM     66  H   UNL A   1      36.299  21.489  26.765  1.00  0.00     0.163 HD
ATOM     67  O   UNL A   1      34.341  21.812  27.800  1.00  0.00    -0.268 OA
BRANCH  65  68
ATOM     68  C   UNL A   1      32.985  21.164  25.894  1.00  0.00     0.305 C 
BRANCH  68  69
ATOM     69  N   UNL A   1      32.449  22.360  25.183  1.00  0.00    -0.312 N 
ATOM     70  C   UNL A   1      31.054  22.711  25.350  1.00  0.00     0.325 C 
ATOM     71  C   UNL A   1      33.231  23.608  25.276  1.00  0.00     0.325 C 
ATOM     72  H   UNL A   1      32.553  21.954  24.254  1.00  0.00     0.349 HD
ATOM     73  C   UNL A   1      30.724  23.450  26.661  1.00  0.00     0.324 C 
ATOM     74  C   UNL A   1      32.836  24.626  26.398  1.00  0.00     0.324 C 
ATOM     75  N   UNL A   1      31.422  24.728  26.800  1.00  0.00    -0.322 N 
ATOM     76  H   UNL A   1      31.461  24.940  27.796  1.00  0.00     0.348 HD
BRANCH  75  77
ATOM     77  C   UNL A   1      30.671  25.894  26.317  1.00  0.00     0.299 C 
BRANCH  77  78
ATOM     78  C   UNL A   1      31.473  27.162  26.122  1.00  0.00     0.008 A 
ATOM     79  C   UNL A   1      31.659  28.065  27.187  1.00  0.00     0.009 A 
ATOM     80  C   UNL A   1      31.933  27.516  24.849  1.00  0.00     0.030 A 
ATOM     81  C   UNL A   1      32.163  29.345  26.955  1.00  0.00     0.002 A 
ATOM     82  C   UNL A   1      32.472  28.782  24.630  1.00  0.00     0.041 A 
ATOM     83  C   UNL A   1      32.555  29.709  25.669  1.00  0.00     0.020 A 
ATOM     84  Cl  UNL A   1      32.996  29.220  23.051  1.00  0.00    -0.084 Cl
ENDBRANCH  77  78
ENDBRANCH  75  77
ENDBRANCH  68  69
BRANCH  68  85
ATOM     85  C   UNL A   1      32.774  19.786  25.270  1.00  0.00     0.019 A 
ATOM     86  C   UNL A   1      32.851  18.576  25.971  1.00  0.00     0.014 A 
ATOM     87  C   UNL A   1      32.539  19.703  23.882  1.00  0.00     0.014 A 
ATOM     88  C   UNL A   1      32.886  17.347  25.308  1.00  0.00     0.046 A 
ATOM     89  C   UNL A   1      32.538  18.477  23.215  1.00  0.00     0.046 A 
ATOM     90  C   UNL A   1      32.766  17.313  23.928  1.00  0.00     0.115 A 
BRANCH  90  91
ATOM     91  O   UNL A   1      32.878  16.145  23.239  1.00  0.00    -0.508 OA
ATOM     92  H   UNL A   1      32.123  15.609  23.096  1.00  0.00     0.293 HD
ENDBRANCH  90  91
ENDBRANCH  68  85
ENDBRANCH  65  68
ENDBRANCH  63  64
ENDBRANCH   1  63
TORSDOF 15
ENDMDL
MODEL 3
REMARK VINA RESULT:     -12.2      3.678      7.923
REMARK SMILES O=C(NCCCNC(=O)[C@H](c1ccc(O)cc1)[NH+]1CC[NH+](Cc2cccc(Cl)c2)CC1)c1ccc(-c2c3nc(c(-c4c(F)cccc4F)c4ccc([nH]4)c(-c4c(F)cccc4F)c4nc(c(-c5c(F)cccc5F)c5ccc2[nH]5)C=C4)C=C3)cc1
REMARK SMILES IDX 5 1 4 2 3 3 1 4 2 5 32 7 33 8 85 9 34 10 84 11 35 12 36 13
REMARK SMILES IDX 37 14 78 15 38 16 83 17 77 18 79 19 39 20 82 21 76 22 75 23
REMARK SMILES IDX 40 25 66 26 49 27 65 28 50 29 53 30 64 31 80 32 51 33 52 34
REMARK SMILES IDX 63 36 81 37 54 38 41 39 42 40 47 41 43 42 44 43 46 44 48 45
REMARK SMILES IDX 45 46 67 47 68 48 73 49 69 50 70 51 72 52 74 53 71 54 55 55
REMARK SMILES IDX 56 56 61 57 57 58 58 59 60 60 62 61 59 62 6 63 7 64 8 65
REMARK SMILES IDX 9 67 10 68 18 69 19 70 31 71 20 73 30 74 21 75 22 77 23 78
REMARK SMILES IDX 24 79 29 80 25 81 27 82 26 83 28 84 11 85 12 86 17 87 13 88
REMARK SMILES IDX 16 89 14 90 15 91
REMARK H PARENT 3 6 79 24 53 35 7 66 18 72 21 76 15 92
REMARK Flexibility Score: inf
ROOT
ATOM      1  C   UNL A   1      37.347  19.774  25.016  1.00  0.00     0.042 C 
ENDROOT
BRANCH   1   2
ATOM      2  C   UNL A   1      38.617  20.423  25.529  1.00  0.00     0.118 C 
BRANCH   2   3
ATOM      3  N   UNL A   1      39.699  19.464  25.690  1.00  0.00    -0.352 N 
ATOM      4  O   UNL A   1      41.830  18.778  25.941  1.00  0.00    -0.269 OA
ATOM      5  C   UNL A   1      41.001  19.678  26.067  1.00  0.00     0.251 C 
ATOM      6  H   UNL A   1      39.464  18.528  25.501  1.00  0.00     0.163 HD
BRANCH   5   7
ATOM      7  C   UNL A   1      41.407  20.990  26.613  1.00  0.00     0.039 A 
ATOM      8  C   UNL A   1      41.808  22.017  25.758  1.00  0.00     0.014 A 
ATOM      9  C   UNL A   1      41.359  21.205  27.993  1.00  0.00     0.014 A 
ATOM     10  C   UNL A   1      42.305  23.200  26.284  1.00  0.00     0.010 A 
ATOM     11  C   UNL A   1      41.749  22.440  28.515  1.00  0.00     0.010 A 
ATOM     12  C   UNL A   1      42.242  23.442  27.665  1.00  0.00    -0.014 A 
BRANCH  12  13
ATOM     13  C   UNL A   1      42.598  24.791  28.167  1.00  0.00     0.031 A 
ATOM     14  C   UNL A   1      41.554  25.845  28.385  1.00  0.00     0.074 A 
ATOM     15  C   UNL A   1      43.891  25.037  28.454  1.00  0.00     0.049 A 
ATOM     16  N   UNL A   1      41.705  27.065  28.837  1.00  0.00    -0.248 NA
ATOM     17  C   UNL A   1      40.166  25.497  28.048  1.00  0.00     0.031 C 
ATOM     18  C   UNL A   1      44.991  24.085  28.266  1.00  0.00     0.029 A 
ATOM     19  N   UNL A   1      44.501  26.144  28.980  1.00  0.00    -0.354 N 
ATOM     20  C   UNL A   1      40.437  27.634  28.827  1.00  0.00     0.074 A 
ATOM     21  C   UNL A   1      39.533  26.636  28.297  1.00  0.00     0.031 C 
ATOM     22  C   UNL A   1      46.128  24.629  28.720  1.00  0.00     0.029 A 
ATOM     23  C   UNL A   1      45.855  25.991  29.156  1.00  0.00     0.049 A 
ATOM     24  H   UNL A   1      44.017  26.970  29.210  1.00  0.00     0.167 HD
ATOM     25  C   UNL A   1      40.068  28.873  29.233  1.00  0.00     0.037 A 
ATOM     26  C   UNL A   1      46.783  26.860  29.594  1.00  0.00     0.037 A 
ATOM     27  C   UNL A   1      40.981  29.857  29.762  1.00  0.00     0.049 A 
ATOM     28  C   UNL A   1      46.347  28.238  29.994  1.00  0.00     0.074 A 
ATOM     29  C   UNL A   1      40.701  31.130  30.226  1.00  0.00     0.029 A 
ATOM     30  N   UNL A   1      42.351  29.679  29.889  1.00  0.00    -0.354 N 
ATOM     31  N   UNL A   1      45.140  28.748  30.016  1.00  0.00    -0.248 NA
ATOM     32  C   UNL A   1      47.402  29.161  30.429  1.00  0.00     0.031 C 
ATOM     33  C   UNL A   1      41.907  31.742  30.582  1.00  0.00     0.029 A 
ATOM     34  C   UNL A   1      42.933  30.830  30.398  1.00  0.00     0.049 A 
ATOM     35  H   UNL A   1      42.839  28.857  29.653  1.00  0.00     0.167 HD
ATOM     36  C   UNL A   1      45.287  30.046  30.483  1.00  0.00     0.074 A 
ATOM     37  C   UNL A   1      46.696  30.234  30.758  1.00  0.00     0.031 C 
ATOM     38  C   UNL A   1      44.340  30.999  30.664  1.00  0.00     0.037 A 
BRANCH  25  39
ATOM     39  C   UNL A   1      38.619  29.250  29.103  1.00  0.00     0.057 A 
ATOM     40  C   UNL A   1      37.749  29.239  30.200  1.00  0.00     0.134 A 
ATOM     41  C   UNL A   1      38.102  29.684  27.875  1.00  0.00     0.134 A 
ATOM     42  F   UNL A   1      38.174  28.824  31.403  1.00  0.00    -0.206 F 
ATOM     43  C   UNL A   1      36.413  29.629  30.078  1.00  0.00     0.040 A 
ATOM     44  C   UNL A   1      36.776  30.101  27.747  1.00  0.00     0.040 A 
ATOM     45  F   UNL A   1      38.881  29.725  26.783  1.00  0.00    -0.206 F 
ATOM     46  C   UNL A   1      35.926  30.071  28.849  1.00  0.00     0.006 A 
ENDBRANCH  25  39
BRANCH  26  47
ATOM     47  C   UNL A   1      48.210  26.455  29.655  1.00  0.00     0.057 A 
ATOM     48  C   UNL A   1      48.733  25.803  30.776  1.00  0.00     0.134 A 
ATOM     49  C   UNL A   1      49.086  26.716  28.592  1.00  0.00     0.134 A 
ATOM     50  F   UNL A   1      47.949  25.537  31.830  1.00  0.00    -0.206 F 
ATOM     51  C   UNL A   1      50.080  25.445  30.849  1.00  0.00     0.040 A 
ATOM     52  C   UNL A   1      50.426  26.335  28.639  1.00  0.00     0.040 A 
ATOM     53  F   UNL A   1      48.644  27.328  27.484  1.00  0.00    -0.206 F 
ATOM     54  C   UNL A   1      50.930  25.706  29.776  1.00  0.00     0.006 A 
ENDBRANCH  26  47
BRANCH  38  55
ATOM     55  C   UNL A   1      44.801  32.317  31.215  1.00  0.00     0.057 A 
ATOM     56  C   UNL A   1      44.870  32.562  32.593  1.00  0.00     0.134 A 
ATOM     57  C   UNL A   1      45.194  33.349  30.354  1.00  0.00     0.134 A 
ATOM     58  F   UNL A   1      44.491  31.620  33.471  1.00  0.00    -0.206 F 
ATOM     59  C   UNL A   1      45.283  33.797  33.093  1.00  0.00     0.040 A 
ATOM     60  C   UNL A   1      45.641  34.577  30.844  1.00  0.00     0.040 A 
ATOM     61  F   UNL A   1      45.160  33.178  29.023  1.00  0.00    -0.206 F 
ATOM     62  C   UNL A   1      45.677  34.806  32.217  1.00  0.00     0.006 A 
ENDBRANCH  38  55
ENDBRANCH  12  13
ENDBRANCH   5   7
ENDBRANCH   2   3
ENDBRANCH   1   2
BRANCH   1  63
ATOM     63  C   UNL A   1      36.196  20.756  24.829  1.00  0.00     0.118 C 
BRANCH  63  64
ATOM     64  N   UNL A   1      35.650  21.218  26.093  1.00  0.00    -0.351 N 
ATOM     65  C   UNL A   1      34.399  21.409  26.595  1.00  0.00     0.283 C 
ATOM     66  H   UNL A   1      36.353  21.448  26.743  1.00  0.00     0.163 HD
ATOM     67  O   UNL A   1      34.399  21.813  27.771  1.00  0.00    -0.268 OA
BRANCH  65  68
ATOM     68  C   UNL A   1      33.035  21.175  25.867  1.00  0.00     0.305 C 
BRANCH  68  69
ATOM     69  N   UNL A   1      32.522  22.375  25.147  1.00  0.00    -0.312 N 
ATOM     70  C   UNL A   1      31.130  22.745  25.301  1.00  0.00     0.325 C 
ATOM     71  C   UNL A   1      33.320  23.613  25.242  1.00  0.00     0.325 C 
ATOM     72  H   UNL A   1      32.628  21.964  24.221  1.00  0.00     0.349 HD
ATOM     73  C   UNL A   1      30.799  23.493  26.607  1.00  0.00     0.324 C 
ATOM     74  C   UNL A   1      32.929  24.640  26.358  1.00  0.00     0.324 C 
ATOM     75  N   UNL A   1      31.512  24.762  26.746  1.00  0.00    -0.322 N 
ATOM     76  H   UNL A   1      31.546  24.978  27.742  1.00  0.00     0.348 HD
BRANCH  75  77
ATOM     77  C   UNL A   1      30.781  25.937  26.253  1.00  0.00     0.299 C 
BRANCH  77  78
ATOM     78  C   UNL A   1      31.587  27.211  26.124  1.00  0.00     0.008 A 
ATOM     79  C   UNL A   1      31.651  28.130  27.188  1.00  0.00     0.009 A 
ATOM     80  C   UNL A   1      32.175  27.551  24.900  1.00  0.00     0.030 A 
ATOM     81  C   UNL A   1      32.164  29.413  26.990  1.00  0.00     0.002 A 
ATOM     82  C   UNL A   1      32.722  28.820  24.720  1.00  0.00     0.041 A 
ATOM     83  C   UNL A   1      32.686  29.762  25.747  1.00  0.00     0.020 A 
ATOM     84  Cl  UNL A   1      33.405  29.241  23.198  1.00  0.00    -0.084 Cl
ENDBRANCH  77  78
ENDBRANCH  75  77
ENDBRANCH  68  69
BRANCH  68  85
ATOM     85  C   UNL A   1      32.802  19.796  25.252  1.00  0.00     0.019 A 
ATOM     86  C   UNL A   1      32.836  18.591  25.966  1.00  0.00     0.014 A 
ATOM     87  C   UNL A   1      32.591  19.706  23.861  1.00  0.00     0.014 A 
ATOM     88  C   UNL A   1      32.853  17.356  25.315  1.00  0.00     0.046 A 
ATOM     89  C   UNL A   1      32.573  18.474  23.205  1.00  0.00     0.046 A 
ATOM     90  C   UNL A   1      32.758  17.311  23.932  1.00  0.00     0.115 A 
BRANCH  90  91
ATOM     91  O   UNL A   1      32.855  16.134  23.256  1.00  0.00    -0.508 OA
ATOM     92  H   UNL A   1      33.201  15.375  23.683  1.00  0.00     0.293 HD
ENDBRANCH  90  91
ENDBRANCH  68  85
ENDBRANCH  65  68
ENDBRANCH  63  64
ENDBRANCH   1  63
TORSDOF 15
ENDMDL
