MODEL 1
REMARK VINA RESULT:     -11.8      0.000      0.000
REMARK SMILES CC(C)C[C@H](NC(=O)[C@H](Cc1ccccc1)NC(=O)CNC(=O)CNC(=O)OCc1ccccc1)C(=O)NCCCNC(=O)c1ccc(-c2c3nc(c(-c4c(F)cccc4F)c4ccc([nH]4)c(-c4c(F)cccc4F)c4nc(c(-c5c(F)cccc5F)c5ccc2[nH]5)C=C4)C=C3)cc1
REMARK SMILES IDX 6 1 7 2 8 3 5 5 4 6 2 7 1 8 3 9 36 10 37 11 38 12 39 14
REMARK SMILES IDX 40 15 41 16 42 17 43 18 44 20 45 21 46 22 98 23 47 24 97 25
REMARK SMILES IDX 48 26 49 27 50 28 91 29 51 30 96 31 90 32 92 33 52 34 95 35
REMARK SMILES IDX 89 36 88 37 53 39 79 40 62 41 78 42 63 43 66 44 77 45 93 46
REMARK SMILES IDX 64 47 65 48 76 50 94 51 67 52 54 53 55 54 60 55 56 56 57 57
REMARK SMILES IDX 59 58 61 59 58 60 80 61 81 62 86 63 82 64 83 65 85 66 87 67
REMARK SMILES IDX 84 68 68 69 69 70 74 71 70 72 71 73 73 74 75 75 72 76 9 77
REMARK SMILES IDX 17 78 18 79 19 81 20 82 21 83 22 84 23 86 24 87 25 88 26 89
REMARK SMILES IDX 27 91 28 92 29 93 30 94 31 95 35 96 32 97 34 98 33 99 10 100
REMARK SMILES IDX 11 101 12 102 16 103 13 104 15 105 14 106
REMARK H PARENT 6 4 38 13 42 19 92 38 66 49 17 80 21 85 25 90
REMARK Flexibility Score: inf
ROOT
ATOM      1  N   UNL A   1      33.864  24.730  24.845  1.00  0.00    -0.343 N 
ATOM      2  C   UNL A   1      33.251  25.922  24.692  1.00  0.00     0.243 C 
ATOM      3  O   UNL A   1      34.016  26.812  24.280  1.00  0.00    -0.273 OA
ATOM      4  H   UNL A   1      34.819  24.827  24.627  1.00  0.00     0.164 HD
ENDROOT
BRANCH   1   5
ATOM      5  C   UNL A   1      33.594  23.321  25.231  1.00  0.00     0.171 C 
BRANCH   5   6
ATOM      6  C   UNL A   1      33.764  22.295  24.116  1.00  0.00     0.038 C 
BRANCH   6   7
ATOM      7  C   UNL A   1      33.136  20.895  24.209  1.00  0.00    -0.015 C 
ATOM      8  C   UNL A   1      34.133  19.821  24.634  1.00  0.00     0.007 C 
ATOM      9  C   UNL A   1      31.999  20.945  25.244  1.00  0.00     0.007 C 
ENDBRANCH   6   7
ENDBRANCH   5   6
BRANCH   5  10
ATOM     10  C   UNL A   1      34.440  23.027  26.512  1.00  0.00     0.242 C 
ATOM     11  O   UNL A   1      33.912  22.936  27.623  1.00  0.00    -0.273 OA
ATOM     12  N   UNL A   1      35.790  22.804  26.420  1.00  0.00    -0.354 N 
ATOM     13  H   UNL A   1      36.283  22.691  27.265  1.00  0.00     0.163 HD
BRANCH  12  14
ATOM     14  C   UNL A   1      36.557  22.720  25.192  1.00  0.00     0.117 C 
BRANCH  14  15
ATOM     15  C   UNL A   1      37.718  21.491  24.977  1.00  0.00     0.042 C 
BRANCH  15  16
ATOM     16  C   UNL A   1      39.293  20.604  26.197  1.00  0.00     0.118 C 
BRANCH  16  17
ATOM     17  N   UNL A   1      40.332  19.360  25.973  1.00  0.00    -0.352 N 
ATOM     18  C   UNL A   1      41.714  19.389  25.975  1.00  0.00     0.251 C 
ATOM     19  H   UNL A   1      39.921  18.479  25.817  1.00  0.00     0.163 HD
ATOM     20  O   UNL A   1      42.378  18.395  25.704  1.00  0.00    -0.269 OA
BRANCH  18  21
ATOM     21  C   UNL A   1      42.367  20.666  26.314  1.00  0.00     0.039 A 
ATOM     22  C   UNL A   1      42.560  21.644  25.343  1.00  0.00     0.014 A 
ATOM     23  C   UNL A   1      42.609  20.938  27.660  1.00  0.00     0.014 A 
ATOM     24  C   UNL A   1      42.934  22.927  25.748  1.00  0.00     0.010 A 
ATOM     25  C   UNL A   1      42.770  22.249  28.064  1.00  0.00     0.010 A 
ATOM     26  C   UNL A   1      43.000  23.252  27.117  1.00  0.00    -0.014 A 
BRANCH  26  27
ATOM     27  C   UNL A   1      43.390  24.606  27.582  1.00  0.00     0.031 A 
ATOM     28  C   UNL A   1      44.825  25.056  27.440  1.00  0.00     0.074 A 
ATOM     29  C   UNL A   1      42.474  25.413  28.155  1.00  0.00     0.049 A 
ATOM     30  N   UNL A   1      45.366  26.207  27.751  1.00  0.00    -0.248 NA
ATOM     31  C   UNL A   1      45.797  24.069  26.936  1.00  0.00     0.031 C 
ATOM     32  C   UNL A   1      41.085  25.052  28.451  1.00  0.00     0.029 A 
ATOM     33  N   UNL A   1      42.571  26.716  28.569  1.00  0.00    -0.354 N 
ATOM     34  C   UNL A   1      46.726  26.061  27.498  1.00  0.00     0.074 A 
ATOM     35  C   UNL A   1      46.949  24.688  27.127  1.00  0.00     0.031 C 
ATOM     36  C   UNL A   1      40.441  26.132  28.924  1.00  0.00     0.029 A 
ATOM     37  C   UNL A   1      41.375  27.250  28.989  1.00  0.00     0.049 A 
ATOM     38  H   UNL A   1      43.416  27.222  28.566  1.00  0.00     0.167 HD
ATOM     39  C   UNL A   1      47.699  27.000  27.508  1.00  0.00     0.037 A 
ATOM     40  C   UNL A   1      41.070  28.510  29.351  1.00  0.00     0.037 A 
ATOM     41  C   UNL A   1      47.458  28.381  27.819  1.00  0.00     0.049 A 
ATOM     42  C   UNL A   1      42.149  29.557  29.292  1.00  0.00     0.074 A 
ATOM     43  C   UNL A   1      48.344  29.440  27.799  1.00  0.00     0.029 A 
ATOM     44  N   UNL A   1      46.224  28.890  28.196  1.00  0.00    -0.354 N 
ATOM     45  N   UNL A   1      43.412  29.427  28.957  1.00  0.00    -0.248 NA
ATOM     46  C   UNL A   1      41.757  30.928  29.640  1.00  0.00     0.031 C 
ATOM     47  C   UNL A   1      47.654  30.588  28.204  1.00  0.00     0.029 A 
ATOM     48  C   UNL A   1      46.327  30.251  28.424  1.00  0.00     0.049 A 
ATOM     49  H   UNL A   1      45.399  28.362  28.288  1.00  0.00     0.167 HD
ATOM     50  C   UNL A   1      43.958  30.703  29.026  1.00  0.00     0.074 A 
ATOM     51  C   UNL A   1      42.880  31.593  29.409  1.00  0.00     0.031 C 
ATOM     52  C   UNL A   1      45.233  31.107  28.802  1.00  0.00     0.037 A 
BRANCH  39  53
ATOM     53  C   UNL A   1      49.088  26.559  27.143  1.00  0.00     0.057 A 
ATOM     54  C   UNL A   1      49.611  26.741  25.853  1.00  0.00     0.134 A 
ATOM     55  C   UNL A   1      49.911  25.929  28.084  1.00  0.00     0.134 A 
ATOM     56  F   UNL A   1      48.869  27.318  24.894  1.00  0.00    -0.206 F 
ATOM     57  C   UNL A   1      50.880  26.279  25.503  1.00  0.00     0.040 A 
ATOM     58  C   UNL A   1      51.197  25.493  27.755  1.00  0.00     0.040 A 
ATOM     59  F   UNL A   1      49.478  25.720  29.336  1.00  0.00    -0.206 F 
ATOM     60  C   UNL A   1      51.680  25.658  26.458  1.00  0.00     0.006 A 
ENDBRANCH  39  53
BRANCH  40  61
ATOM     61  C   UNL A   1      39.675  28.868  29.722  1.00  0.00     0.057 A 
ATOM     62  C   UNL A   1      39.200  28.681  31.026  1.00  0.00     0.134 A 
ATOM     63  C   UNL A   1      38.780  29.398  28.784  1.00  0.00     0.134 A 
ATOM     64  F   UNL A   1      40.002  28.167  31.969  1.00  0.00    -0.206 F 
ATOM     65  C   UNL A   1      37.881  28.980  31.378  1.00  0.00     0.040 A 
ATOM     66  C   UNL A   1      37.467  29.728  29.129  1.00  0.00     0.040 A 
ATOM     67  F   UNL A   1      39.174  29.617  27.521  1.00  0.00    -0.206 F 
ATOM     68  C   UNL A   1      37.012  29.508  30.427  1.00  0.00     0.006 A 
ENDBRANCH  40  61
BRANCH  52  69
ATOM     69  C   UNL A   1      45.512  32.575  28.933  1.00  0.00     0.057 A 
ATOM     70  C   UNL A   1      45.905  33.148  30.149  1.00  0.00     0.134 A 
ATOM     71  C   UNL A   1      45.403  33.421  27.822  1.00  0.00     0.134 A 
ATOM     72  F   UNL A   1      46.020  32.391  31.251  1.00  0.00    -0.206 F 
ATOM     73  C   UNL A   1      46.138  34.518  30.265  1.00  0.00     0.040 A 
ATOM     74  C   UNL A   1      45.666  34.787  27.919  1.00  0.00     0.040 A 
ATOM     75  F   UNL A   1      45.047  32.932  26.624  1.00  0.00    -0.206 F 
ATOM     76  C   UNL A   1      46.023  35.340  29.146  1.00  0.00     0.006 A 
ENDBRANCH  52  69
ENDBRANCH  26  27
ENDBRANCH  18  21
ENDBRANCH  16  17
ENDBRANCH  15  16
ENDBRANCH  14  15
ENDBRANCH  12  14
ENDBRANCH   5  10
ENDBRANCH   1   5
BRANCH   2  77
ATOM     77  C   UNL A   1      31.729  26.240  24.791  1.00  0.00     0.175 C 
BRANCH  77  78
ATOM     78  N   UNL A   1      31.197  26.694  26.076  1.00  0.00    -0.342 N 
ATOM     79  C   UNL A   1      31.420  27.868  26.750  1.00  0.00     0.240 C 
ATOM     80  H   UNL A   1      30.587  26.064  26.523  1.00  0.00     0.164 HD
ATOM     81  O   UNL A   1      31.114  27.931  27.943  1.00  0.00    -0.273 OA
BRANCH  79  82
ATOM     82  C   UNL A   1      32.054  29.079  26.044  1.00  0.00     0.216 C 
BRANCH  82  83
ATOM     83  N   UNL A   1      33.503  29.062  26.103  1.00  0.00    -0.346 N 
ATOM     84  C   UNL A   1      34.389  29.723  26.898  1.00  0.00     0.239 C 
ATOM     85  H   UNL A   1      33.925  28.462  25.446  1.00  0.00     0.164 HD
ATOM     86  O   UNL A   1      35.590  29.525  26.697  1.00  0.00    -0.273 OA
BRANCH  84  87
ATOM     87  C   UNL A   1      33.938  30.619  28.056  1.00  0.00     0.219 C 
BRANCH  87  88
ATOM     88  N   UNL A   1      33.761  31.984  27.630  1.00  0.00    -0.312 N 
ATOM     89  C   UNL A   1      34.463  33.055  28.071  1.00  0.00     0.407 C 
ATOM     90  H   UNL A   1      33.066  32.154  26.954  1.00  0.00     0.167 HD
ATOM     91  O   UNL A   1      33.965  34.162  27.951  1.00  0.00    -0.225 OA
BRANCH  89  92
ATOM     92  O   UNL A   1      35.625  32.742  28.683  1.00  0.00    -0.445 OA
BRANCH  92  93
ATOM     93  C   UNL A   1      36.246  33.690  29.577  1.00  0.00     0.270 C 
BRANCH  93  94
ATOM     94  C   UNL A   1      36.962  33.119  30.773  1.00  0.00    -0.011 A 
ATOM     95  C   UNL A   1      36.026  32.627  32.269  1.00  0.00     0.007 A 
ATOM     96  C   UNL A   1      38.741  32.872  30.710  1.00  0.00     0.007 A 
ATOM     97  C   UNL A   1      36.911  31.998  33.715  1.00  0.00     0.000 A 
ATOM     98  C   UNL A   1      39.615  32.259  32.165  1.00  0.00     0.000 A 
ATOM     99  C   UNL A   1      38.706  31.769  33.631  1.00  0.00     0.000 A 
ENDBRANCH  93  94
ENDBRANCH  92  93
ENDBRANCH  89  92
ENDBRANCH  87  88
ENDBRANCH  84  87
ENDBRANCH  82  83
ENDBRANCH  79  82
ENDBRANCH  77  78
BRANCH  77 100
ATOM    100  C   UNL A   1      31.383  27.243  23.624  1.00  0.00     0.070 C 
BRANCH 100 101
ATOM    101  C   UNL A   1      29.907  27.484  23.401  1.00  0.00    -0.045 A 
ATOM    102  C   UNL A   1      28.972  26.512  23.765  1.00  0.00     0.004 A 
ATOM    103  C   UNL A   1      29.450  28.729  22.952  1.00  0.00     0.004 A 
ATOM    104  C   UNL A   1      27.619  26.827  23.850  1.00  0.00     0.000 A 
ATOM    105  C   UNL A   1      28.086  29.026  22.978  1.00  0.00     0.000 A 
ATOM    106  C   UNL A   1      27.178  28.092  23.470  1.00  0.00     0.000 A 
ENDBRANCH 100 101
ENDBRANCH  77 100
ENDBRANCH   2  77
TORSDOF 24
ENDMDL
MODEL 2
REMARK VINA RESULT:     -11.4      1.517      2.395
REMARK SMILES CC(C)C[C@H](NC(=O)[C@H](Cc1ccccc1)NC(=O)CNC(=O)CNC(=O)OCc1ccccc1)C(=O)NCCCNC(=O)c1ccc(-c2c3nc(c(-c4c(F)cccc4F)c4ccc([nH]4)c(-c4c(F)cccc4F)c4nc(c(-c5c(F)cccc5F)c5ccc2[nH]5)C=C4)C=C3)cc1
REMARK SMILES IDX 6 1 7 2 8 3 5 5 4 6 2 7 1 8 3 9 36 10 37 11 38 12 39 14
REMARK SMILES IDX 40 15 41 16 42 17 43 18 44 20 45 21 46 22 98 23 47 24 97 25
REMARK SMILES IDX 48 26 49 27 50 28 91 29 51 30 96 31 90 32 92 33 52 34 95 35
REMARK SMILES IDX 89 36 88 37 53 39 79 40 62 41 78 42 63 43 66 44 77 45 93 46
REMARK SMILES IDX 64 47 65 48 76 50 94 51 67 52 54 53 55 54 60 55 56 56 57 57
REMARK SMILES IDX 59 58 61 59 58 60 80 61 81 62 86 63 82 64 83 65 85 66 87 67
REMARK SMILES IDX 84 68 68 69 69 70 74 71 70 72 71 73 73 74 75 75 72 76 9 77
REMARK SMILES IDX 17 78 18 79 19 81 20 82 21 83 22 84 23 86 24 87 25 88 26 89
REMARK SMILES IDX 27 91 28 92 29 93 30 94 31 95 35 96 32 97 34 98 33 99 10 100
REMARK SMILES IDX 11 101 12 102 16 103 13 104 15 105 14 106
REMARK H PARENT 6 4 38 13 42 19 92 38 66 49 17 80 21 85 25 90
REMARK Flexibility Score: inf
ROOT
ATOM      1  N   UNL A   1      33.747  25.730  23.662  1.00  0.00    -0.343 N 
ATOM      2  C   UNL A   1      33.118  26.900  23.425  1.00  0.00     0.243 C 
ATOM      3  O   UNL A   1      33.842  27.732  22.850  1.00  0.00    -0.273 OA
ATOM      4  H   UNL A   1      34.680  25.796  23.355  1.00  0.00     0.164 HD
ENDROOT
BRANCH   1   5
ATOM      5  C   UNL A   1      33.518  24.376  24.229  1.00  0.00     0.171 C 
BRANCH   5   6
ATOM      6  C   UNL A   1      32.058  23.940  24.306  1.00  0.00     0.038 C 
BRANCH   6   7
ATOM      7  C   UNL A   1      31.342  23.763  25.654  1.00  0.00    -0.015 C 
ATOM      8  C   UNL A   1      30.588  22.440  25.759  1.00  0.00     0.007 C 
ATOM      9  C   UNL A   1      32.398  23.814  26.771  1.00  0.00     0.007 C 
ENDBRANCH   6   7
ENDBRANCH   5   6
BRANCH   5  10
ATOM     10  C   UNL A   1      34.446  23.390  23.450  1.00  0.00     0.242 C 
ATOM     11  O   UNL A   1      34.603  23.485  22.230  1.00  0.00    -0.273 OA
ATOM     12  N   UNL A   1      35.157  22.426  24.118  1.00  0.00    -0.354 N 
ATOM     13  H   UNL A   1      35.672  21.790  23.571  1.00  0.00     0.163 HD
BRANCH  12  14
ATOM     14  C   UNL A   1      35.219  22.259  25.558  1.00  0.00     0.117 C 
BRANCH  14  15
ATOM     15  C   UNL A   1      36.667  21.774  26.313  1.00  0.00     0.042 C 
BRANCH  15  16
ATOM     16  C   UNL A   1      38.681  21.270  25.645  1.00  0.00     0.118 C 
BRANCH  16  17
ATOM     17  N   UNL A   1      39.581  19.905  25.695  1.00  0.00    -0.352 N 
ATOM     18  C   UNL A   1      40.927  19.778  25.983  1.00  0.00     0.251 C 
ATOM     19  H   UNL A   1      39.103  19.068  25.495  1.00  0.00     0.163 HD
ATOM     20  O   UNL A   1      41.503  18.700  25.899  1.00  0.00    -0.269 OA
BRANCH  18  21
ATOM     21  C   UNL A   1      41.652  20.993  26.395  1.00  0.00     0.039 A 
ATOM     22  C   UNL A   1      42.024  21.950  25.456  1.00  0.00     0.014 A 
ATOM     23  C   UNL A   1      41.783  21.243  27.761  1.00  0.00     0.014 A 
ATOM     24  C   UNL A   1      42.467  23.196  25.907  1.00  0.00     0.010 A 
ATOM     25  C   UNL A   1      42.017  22.535  28.190  1.00  0.00     0.010 A 
ATOM     26  C   UNL A   1      42.425  23.513  27.278  1.00  0.00    -0.014 A 
BRANCH  26  27
ATOM     27  C   UNL A   1      42.884  24.828  27.791  1.00  0.00     0.031 A 
ATOM     28  C   UNL A   1      44.350  25.185  27.716  1.00  0.00     0.074 A 
ATOM     29  C   UNL A   1      42.001  25.682  28.346  1.00  0.00     0.049 A 
ATOM     30  N   UNL A   1      44.952  26.291  28.076  1.00  0.00    -0.248 NA
ATOM     31  C   UNL A   1      45.275  24.147  27.226  1.00  0.00     0.031 C 
ATOM     32  C   UNL A   1      40.579  25.408  28.579  1.00  0.00     0.029 A 
ATOM     33  N   UNL A   1      42.165  26.967  28.796  1.00  0.00    -0.354 N 
ATOM     34  C   UNL A   1      46.309  26.061  27.873  1.00  0.00     0.074 A 
ATOM     35  C   UNL A   1      46.457  24.684  27.477  1.00  0.00     0.031 C 
ATOM     36  C   UNL A   1      39.989  26.518  29.053  1.00  0.00     0.029 A 
ATOM     37  C   UNL A   1      40.991  27.569  29.182  1.00  0.00     0.049 A 
ATOM     38  H   UNL A   1      43.041  27.415  28.838  1.00  0.00     0.167 HD
ATOM     39  C   UNL A   1      47.340  26.933  27.943  1.00  0.00     0.037 A 
ATOM     40  C   UNL A   1      40.754  28.839  29.562  1.00  0.00     0.037 A 
ATOM     41  C   UNL A   1      47.177  28.319  28.278  1.00  0.00     0.049 A 
ATOM     42  C   UNL A   1      41.901  29.813  29.570  1.00  0.00     0.074 A 
ATOM     43  C   UNL A   1      48.131  29.318  28.318  1.00  0.00     0.029 A 
ATOM     44  N   UNL A   1      45.965  28.901  28.619  1.00  0.00    -0.354 N 
ATOM     45  N   UNL A   1      43.166  29.607  29.282  1.00  0.00    -0.248 NA
ATOM     46  C   UNL A   1      41.586  31.200  29.935  1.00  0.00     0.031 C 
ATOM     47  C   UNL A   1      47.501  30.500  28.724  1.00  0.00     0.029 A 
ATOM     48  C   UNL A   1      46.148  30.246  28.884  1.00  0.00     0.049 A 
ATOM     49  H   UNL A   1      45.104  28.427  28.665  1.00  0.00     0.167 HD
ATOM     50  C   UNL A   1      43.791  30.842  29.403  1.00  0.00     0.074 A 
ATOM     51  C   UNL A   1      42.758  31.794  29.765  1.00  0.00     0.031 C 
ATOM     52  C   UNL A   1      45.097  31.166  29.238  1.00  0.00     0.037 A 
BRANCH  39  53
ATOM     53  C   UNL A   1      48.711  26.408  27.623  1.00  0.00     0.057 A 
ATOM     54  C   UNL A   1      49.577  25.933  28.621  1.00  0.00     0.134 A 
ATOM     55  C   UNL A   1      49.183  26.390  26.305  1.00  0.00     0.134 A 
ATOM     56  F   UNL A   1      49.198  25.941  29.909  1.00  0.00    -0.206 F 
ATOM     57  C   UNL A   1      50.869  25.499  28.326  1.00  0.00     0.040 A 
ATOM     58  C   UNL A   1      50.462  25.926  25.993  1.00  0.00     0.040 A 
ATOM     59  F   UNL A   1      48.411  26.830  25.300  1.00  0.00    -0.206 F 
ATOM     60  C   UNL A   1      51.314  25.489  27.007  1.00  0.00     0.006 A 
ENDBRANCH  39  53
BRANCH  40  61
ATOM     61  C   UNL A   1      39.372  29.281  29.886  1.00  0.00     0.057 A 
ATOM     62  C   UNL A   1      38.492  29.707  28.882  1.00  0.00     0.134 A 
ATOM     63  C   UNL A   1      38.897  29.298  31.203  1.00  0.00     0.134 A 
ATOM     64  F   UNL A   1      38.888  29.726  27.601  1.00  0.00    -0.206 F 
ATOM     65  C   UNL A   1      37.204  30.158  29.177  1.00  0.00     0.040 A 
ATOM     66  C   UNL A   1      37.601  29.720  31.509  1.00  0.00     0.040 A 
ATOM     67  F   UNL A   1      39.682  28.889  32.210  1.00  0.00    -0.206 F 
ATOM     68  C   UNL A   1      36.754  30.162  30.495  1.00  0.00     0.006 A 
ENDBRANCH  40  61
BRANCH  52  69
ATOM     69  C   UNL A   1      45.467  32.608  29.416  1.00  0.00     0.057 A 
ATOM     70  C   UNL A   1      45.873  33.122  30.654  1.00  0.00     0.134 A 
ATOM     71  C   UNL A   1      45.430  33.490  28.328  1.00  0.00     0.134 A 
ATOM     72  F   UNL A   1      45.920  32.329  31.736  1.00  0.00    -0.206 F 
ATOM     73  C   UNL A   1      46.190  34.470  30.813  1.00  0.00     0.040 A 
ATOM     74  C   UNL A   1      45.778  34.833  28.468  1.00  0.00     0.040 A 
ATOM     75  F   UNL A   1      45.066  33.058  27.111  1.00  0.00    -0.206 F 
ATOM     76  C   UNL A   1      46.147  35.329  29.716  1.00  0.00     0.006 A 
ENDBRANCH  52  69
ENDBRANCH  26  27
ENDBRANCH  18  21
ENDBRANCH  16  17
ENDBRANCH  15  16
ENDBRANCH  14  15
ENDBRANCH  12  14
ENDBRANCH   5  10
ENDBRANCH   1   5
BRANCH   2  77
ATOM     77  C   UNL A   1      31.609  27.235  23.615  1.00  0.00     0.175 C 
BRANCH  77  78
ATOM     78  N   UNL A   1      31.020  27.062  24.943  1.00  0.00    -0.342 N 
ATOM     79  C   UNL A   1      31.510  27.428  26.171  1.00  0.00     0.240 C 
ATOM     80  H   UNL A   1      30.142  26.617  24.958  1.00  0.00     0.164 HD
ATOM     81  O   UNL A   1      31.003  26.933  27.180  1.00  0.00    -0.273 OA
BRANCH  79  82
ATOM     82  C   UNL A   1      32.677  28.423  26.294  1.00  0.00     0.216 C 
BRANCH  82  83
ATOM     83  N   UNL A   1      32.231  29.802  26.340  1.00  0.00    -0.346 N 
ATOM     84  C   UNL A   1      32.702  30.889  27.010  1.00  0.00     0.239 C 
ATOM     85  H   UNL A   1      31.440  29.986  25.782  1.00  0.00     0.164 HD
ATOM     86  O   UNL A   1      32.090  31.951  26.873  1.00  0.00    -0.273 OA
BRANCH  84  87
ATOM     87  C   UNL A   1      33.988  30.841  27.844  1.00  0.00     0.219 C 
BRANCH  87  88
ATOM     88  N   UNL A   1      34.938  31.832  27.405  1.00  0.00    -0.312 N 
ATOM     89  C   UNL A   1      35.141  33.046  27.967  1.00  0.00     0.407 C 
ATOM     90  H   UNL A   1      35.491  31.603  26.624  1.00  0.00     0.167 HD
ATOM     91  O   UNL A   1      35.654  33.920  27.288  1.00  0.00    -0.225 OA
BRANCH  89  92
ATOM     92  O   UNL A   1      34.660  33.163  29.224  1.00  0.00    -0.445 OA
BRANCH  92  93
ATOM     93  C   UNL A   1      33.574  34.075  29.496  1.00  0.00     0.270 C 
BRANCH  93  94
ATOM     94  C   UNL A   1      33.714  34.942  30.721  1.00  0.00    -0.011 A 
ATOM     95  C   UNL A   1      34.369  34.245  32.283  1.00  0.00     0.007 A 
ATOM     96  C   UNL A   1      33.284  36.684  30.630  1.00  0.00     0.007 A 
ATOM     97  C   UNL A   1      34.473  35.287  33.756  1.00  0.00     0.000 A 
ATOM     98  C   UNL A   1      33.377  37.711  32.112  1.00  0.00     0.000 A 
ATOM     99  C   UNL A   1      34.022  37.038  33.643  1.00  0.00     0.000 A 
ENDBRANCH  93  94
ENDBRANCH  92  93
ENDBRANCH  89  92
ENDBRANCH  87  88
ENDBRANCH  84  87
ENDBRANCH  82  83
ENDBRANCH  79  82
ENDBRANCH  77  78
BRANCH  77 100
ATOM    100  C   UNL A   1      31.378  28.691  23.055  1.00  0.00     0.070 C 
BRANCH 100 101
ATOM    101  C   UNL A   1      29.991  29.252  23.274  1.00  0.00    -0.045 A 
ATOM    102  C   UNL A   1      29.827  30.517  23.846  1.00  0.00     0.004 A 
ATOM    103  C   UNL A   1      28.865  28.575  22.791  1.00  0.00     0.004 A 
ATOM    104  C   UNL A   1      28.599  31.170  23.779  1.00  0.00     0.000 A 
ATOM    105  C   UNL A   1      27.620  29.205  22.780  1.00  0.00     0.000 A 
ATOM    106  C   UNL A   1      27.498  30.517  23.231  1.00  0.00     0.000 A 
ENDBRANCH 100 101
ENDBRANCH  77 100
ENDBRANCH   2  77
TORSDOF 24
ENDMDL
MODEL 3
REMARK VINA RESULT:     -10.9      4.700      9.878
REMARK SMILES CC(C)C[C@H](NC(=O)[C@H](Cc1ccccc1)NC(=O)CNC(=O)CNC(=O)OCc1ccccc1)C(=O)NCCCNC(=O)c1ccc(-c2c3nc(c(-c4c(F)cccc4F)c4ccc([nH]4)c(-c4c(F)cccc4F)c4nc(c(-c5c(F)cccc5F)c5ccc2[nH]5)C=C4)C=C3)cc1
REMARK SMILES IDX 6 1 7 2 8 3 5 5 4 6 2 7 1 8 3 9 36 10 37 11 38 12 39 14
REMARK SMILES IDX 40 15 41 16 42 17 43 18 44 20 45 21 46 22 98 23 47 24 97 25
REMARK SMILES IDX 48 26 49 27 50 28 91 29 51 30 96 31 90 32 92 33 52 34 95 35
REMARK SMILES IDX 89 36 88 37 53 39 79 40 62 41 78 42 63 43 66 44 77 45 93 46
REMARK SMILES IDX 64 47 65 48 76 50 94 51 67 52 54 53 55 54 60 55 56 56 57 57
REMARK SMILES IDX 59 58 61 59 58 60 80 61 81 62 86 63 82 64 83 65 85 66 87 67
REMARK SMILES IDX 84 68 68 69 69 70 74 71 70 72 71 73 73 74 75 75 72 76 9 77
REMARK SMILES IDX 17 78 18 79 19 81 20 82 21 83 22 84 23 86 24 87 25 88 26 89
REMARK SMILES IDX 27 91 28 92 29 93 30 94 31 95 35 96 32 97 34 98 33 99 10 100
REMARK SMILES IDX 11 101 12 102 16 103 13 104 15 105 14 106
REMARK H PARENT 6 4 38 13 42 19 92 38 66 49 17 80 21 85 25 90
REMARK Flexibility Score: inf
ROOT
ATOM      1  N   UNL A   1      33.116  25.758  26.426  1.00  0.00    -0.343 N 
ATOM      2  C   UNL A   1      32.977  24.520  25.906  1.00  0.00     0.243 C 
ATOM      3  O   UNL A   1      32.904  23.634  26.775  1.00  0.00    -0.273 OA
ATOM      4  H   UNL A   1      33.167  25.693  27.407  1.00  0.00     0.164 HD
ENDROOT
BRANCH   1   5
ATOM      5  C   UNL A   1      33.219  27.185  26.028  1.00  0.00     0.171 C 
BRANCH   5   6
ATOM      6  C   UNL A   1      32.703  27.512  24.630  1.00  0.00     0.038 C 
BRANCH   6   7
ATOM      7  C   UNL A   1      31.244  27.927  24.389  1.00  0.00    -0.015 C 
ATOM      8  C   UNL A   1      31.043  29.439  24.407  1.00  0.00     0.007 C 
ATOM      9  C   UNL A   1      30.812  27.393  23.012  1.00  0.00     0.007 C 
ENDBRANCH   6   7
ENDBRANCH   5   6
BRANCH   5  10
ATOM     10  C   UNL A   1      32.564  28.028  27.170  1.00  0.00     0.242 C 
ATOM     11  O   UNL A   1      31.573  27.620  27.781  1.00  0.00    -0.273 OA
ATOM     12  N   UNL A   1      33.116  29.221  27.560  1.00  0.00    -0.354 N 
ATOM     13  H   UNL A   1      32.625  29.741  28.236  1.00  0.00     0.163 HD
BRANCH  12  14
ATOM     14  C   UNL A   1      34.357  29.786  27.067  1.00  0.00     0.117 C 
BRANCH  14  15
ATOM     15  C   UNL A   1      34.812  31.375  27.481  1.00  0.00     0.042 C 
BRANCH  15  16
ATOM     16  C   UNL A   1      34.700  32.612  29.275  1.00  0.00     0.118 C 
BRANCH  16  17
ATOM     17  N   UNL A   1      33.762  33.876  29.721  1.00  0.00    -0.352 N 
ATOM     18  C   UNL A   1      33.725  34.525  30.940  1.00  0.00     0.251 C 
ATOM     19  H   UNL A   1      33.146  34.217  29.033  1.00  0.00     0.163 HD
ATOM     20  O   UNL A   1      32.907  35.407  31.174  1.00  0.00    -0.269 OA
BRANCH  18  21
ATOM     21  C   UNL A   1      34.708  34.115  31.959  1.00  0.00     0.039 A 
ATOM     22  C   UNL A   1      34.648  32.849  32.534  1.00  0.00     0.014 A 
ATOM     23  C   UNL A   1      35.801  34.952  32.185  1.00  0.00     0.014 A 
ATOM     24  C   UNL A   1      35.737  32.403  33.288  1.00  0.00     0.010 A 
ATOM     25  C   UNL A   1      36.947  34.426  32.748  1.00  0.00     0.010 A 
ATOM     26  C   UNL A   1      36.914  33.172  33.365  1.00  0.00    -0.014 A 
BRANCH  26  27
ATOM     27  C   UNL A   1      38.089  32.726  34.154  1.00  0.00     0.031 A 
ATOM     28  C   UNL A   1      39.245  32.054  33.452  1.00  0.00     0.074 A 
ATOM     29  C   UNL A   1      38.107  32.895  35.492  1.00  0.00     0.049 A 
ATOM     30  N   UNL A   1      40.376  31.620  33.948  1.00  0.00    -0.248 NA
ATOM     31  C   UNL A   1      39.093  31.777  32.012  1.00  0.00     0.031 C 
ATOM     32  C   UNL A   1      37.006  33.428  36.300  1.00  0.00     0.029 A 
ATOM     33  N   UNL A   1      39.101  32.657  36.406  1.00  0.00    -0.354 N 
ATOM     34  C   UNL A   1      41.041  31.012  32.889  1.00  0.00     0.074 A 
ATOM     35  C   UNL A   1      40.148  31.021  31.760  1.00  0.00     0.031 C 
ATOM     36  C   UNL A   1      37.414  33.549  37.574  1.00  0.00     0.029 A 
ATOM     37  C   UNL A   1      38.791  33.079  37.677  1.00  0.00     0.049 A 
ATOM     38  H   UNL A   1      39.954  32.223  36.175  1.00  0.00     0.167 HD
ATOM     39  C   UNL A   1      42.308  30.544  32.836  1.00  0.00     0.037 A 
ATOM     40  C   UNL A   1      39.552  33.113  38.788  1.00  0.00     0.037 A 
ATOM     41  C   UNL A   1      43.214  30.594  33.948  1.00  0.00     0.049 A 
ATOM     42  C   UNL A   1      40.981  32.650  38.694  1.00  0.00     0.074 A 
ATOM     43  C   UNL A   1      44.541  30.214  34.002  1.00  0.00     0.029 A 
ATOM     44  N   UNL A   1      42.876  31.071  35.206  1.00  0.00    -0.354 N 
ATOM     45  N   UNL A   1      41.630  32.166  37.660  1.00  0.00    -0.248 NA
ATOM     46  C   UNL A   1      41.790  32.759  39.914  1.00  0.00     0.031 C 
ATOM     47  C   UNL A   1      44.997  30.425  35.308  1.00  0.00     0.029 A 
ATOM     48  C   UNL A   1      43.969  30.984  36.050  1.00  0.00     0.049 A 
ATOM     49  H   UNL A   1      41.992  31.419  35.460  1.00  0.00     0.167 HD
ATOM     50  C   UNL A   1      42.928  31.938  38.097  1.00  0.00     0.074 A 
ATOM     51  C   UNL A   1      42.979  32.364  39.482  1.00  0.00     0.031 C 
ATOM     52  C   UNL A   1      43.985  31.420  37.423  1.00  0.00     0.037 A 
BRANCH  39  53
ATOM     53  C   UNL A   1      42.779  29.973  31.527  1.00  0.00     0.057 A 
ATOM     54  C   UNL A   1      42.695  28.601  31.242  1.00  0.00     0.134 A 
ATOM     55  C   UNL A   1      43.339  30.798  30.544  1.00  0.00     0.134 A 
ATOM     56  F   UNL A   1      42.190  27.748  32.148  1.00  0.00    -0.206 F 
ATOM     57  C   UNL A   1      43.184  28.067  30.049  1.00  0.00     0.040 A 
ATOM     58  C   UNL A   1      43.800  30.280  29.333  1.00  0.00     0.040 A 
ATOM     59  F   UNL A   1      43.452  32.119  30.748  1.00  0.00    -0.206 F 
ATOM     60  C   UNL A   1      43.734  28.910  29.087  1.00  0.00     0.006 A 
ENDBRANCH  39  53
BRANCH  40  61
ATOM     61  C   UNL A   1      39.010  33.672  40.054  1.00  0.00     0.057 A 
ATOM     62  C   UNL A   1      38.352  32.857  40.984  1.00  0.00     0.134 A 
ATOM     63  C   UNL A   1      39.127  35.033  40.365  1.00  0.00     0.134 A 
ATOM     64  F   UNL A   1      38.196  31.548  40.743  1.00  0.00    -0.206 F 
ATOM     65  C   UNL A   1      37.807  33.377  42.161  1.00  0.00     0.040 A 
ATOM     66  C   UNL A   1      38.611  35.561  41.550  1.00  0.00     0.040 A 
ATOM     67  F   UNL A   1      39.758  35.867  39.525  1.00  0.00    -0.206 F 
ATOM     68  C   UNL A   1      37.939  34.733  42.447  1.00  0.00     0.006 A 
ENDBRANCH  40  61
BRANCH  52  69
ATOM     69  C   UNL A   1      45.283  31.320  38.168  1.00  0.00     0.057 A 
ATOM     70  C   UNL A   1      45.658  30.155  38.849  1.00  0.00     0.134 A 
ATOM     71  C   UNL A   1      46.174  32.401  38.190  1.00  0.00     0.134 A 
ATOM     72  F   UNL A   1      44.844  29.089  38.871  1.00  0.00    -0.206 F 
ATOM     73  C   UNL A   1      46.856  30.082  39.559  1.00  0.00     0.040 A 
ATOM     74  C   UNL A   1      47.389  32.328  38.869  1.00  0.00     0.040 A 
ATOM     75  F   UNL A   1      45.882  33.540  37.545  1.00  0.00    -0.206 F 
ATOM     76  C   UNL A   1      47.727  31.170  39.567  1.00  0.00     0.006 A 
ENDBRANCH  52  69
ENDBRANCH  26  27
ENDBRANCH  18  21
ENDBRANCH  16  17
ENDBRANCH  15  16
ENDBRANCH  14  15
ENDBRANCH  12  14
ENDBRANCH   5  10
ENDBRANCH   1   5
BRANCH   2  77
ATOM     77  C   UNL A   1      32.723  24.125  24.421  1.00  0.00     0.175 C 
BRANCH  77  78
ATOM     78  N   UNL A   1      33.872  23.752  23.596  1.00  0.00    -0.342 N 
ATOM     79  C   UNL A   1      35.162  23.467  23.969  1.00  0.00     0.240 C 
ATOM     80  H   UNL A   1      33.694  23.695  22.629  1.00  0.00     0.164 HD
ATOM     81  O   UNL A   1      36.040  23.464  23.103  1.00  0.00    -0.273 OA
BRANCH  79  82
ATOM     82  C   UNL A   1      35.516  23.174  25.437  1.00  0.00     0.216 C 
BRANCH  82  83
ATOM     83  N   UNL A   1      36.680  22.319  25.570  1.00  0.00    -0.346 N 
ATOM     84  C   UNL A   1      37.987  22.596  25.828  1.00  0.00     0.239 C 
ATOM     85  H   UNL A   1      36.489  21.361  25.450  1.00  0.00     0.164 HD
ATOM     86  O   UNL A   1      38.774  21.647  25.857  1.00  0.00    -0.273 OA
BRANCH  84  87
ATOM     87  C   UNL A   1      38.474  24.012  26.155  1.00  0.00     0.219 C 
BRANCH  87  88
ATOM     88  N   UNL A   1      39.372  24.015  27.281  1.00  0.00    -0.312 N 
ATOM     89  C   UNL A   1      39.896  25.110  27.881  1.00  0.00     0.407 C 
ATOM     90  H   UNL A   1      39.629  23.139  27.648  1.00  0.00     0.167 HD
ATOM     91  O   UNL A   1      40.922  24.980  28.528  1.00  0.00    -0.225 OA
BRANCH  89  92
ATOM     92  O   UNL A   1      39.240  26.258  27.610  1.00  0.00    -0.445 OA
BRANCH  92  93
ATOM     93  C   UNL A   1      39.673  27.495  28.216  1.00  0.00     0.270 C 
BRANCH  93  94
ATOM     94  C   UNL A   1      38.844  28.008  29.365  1.00  0.00    -0.011 A 
ATOM     95  C   UNL A   1      37.510  29.228  29.076  1.00  0.00     0.007 A 
ATOM     96  C   UNL A   1      39.134  27.376  31.022  1.00  0.00     0.007 A 
ATOM     97  C   UNL A   1      36.566  29.875  30.476  1.00  0.00     0.000 A 
ATOM     98  C   UNL A   1      38.197  28.041  32.414  1.00  0.00     0.000 A 
ATOM     99  C   UNL A   1      36.886  29.232  32.139  1.00  0.00     0.000 A 
ENDBRANCH  93  94
ENDBRANCH  92  93
ENDBRANCH  89  92
ENDBRANCH  87  88
ENDBRANCH  84  87
ENDBRANCH  82  83
ENDBRANCH  79  82
ENDBRANCH  77  78
BRANCH  77 100
ATOM    100  C   UNL A   1      31.609  23.009  24.417  1.00  0.00     0.070 C 
BRANCH 100 101
ATOM    101  C   UNL A   1      32.089  21.623  24.050  1.00  0.00    -0.045 A 
ATOM    102  C   UNL A   1      32.469  20.723  25.050  1.00  0.00     0.004 A 
ATOM    103  C   UNL A   1      32.034  21.178  22.724  1.00  0.00     0.004 A 
ATOM    104  C   UNL A   1      32.620  19.369  24.764  1.00  0.00     0.000 A 
ATOM    105  C   UNL A   1      32.246  19.831  22.427  1.00  0.00     0.000 A 
ATOM    106  C   UNL A   1      32.493  18.921  23.452  1.00  0.00     0.000 A 
ENDBRANCH 100 101
ENDBRANCH  77 100
ENDBRANCH   2  77
TORSDOF 24
ENDMDL
