MODEL 1
REMARK VINA RESULT:     -11.9      0.000      0.000
REMARK SMILES N#C/C(=C\c1ccc(Oc2ccccc2)cc1Cl)C(=O)NCCCNC(=O)c1ccc(-c2c3nc(c(-c4c(F)cccc4F)c4ccc([nH]4)c(-c4c(F)cccc4F)c4nc(c(-c5c(F)cccc5F)c5ccc2[nH]5)C=C4)C=C3)cc1
REMARK SMILES IDX 22 1 21 2 19 3 20 4 3 6 4 7 2 8 1 9 5 10 6 11 17 12 7 13
REMARK SMILES IDX 16 14 18 15 8 16 9 17 10 18 11 19 15 20 12 21 14 22 13 23
REMARK SMILES IDX 23 24 24 25 25 26 26 27 27 29 28 30 29 31 81 32 30 33 80 34
REMARK SMILES IDX 31 35 32 36 33 37 74 38 34 39 79 40 73 41 75 42 35 43 78 44
REMARK SMILES IDX 72 45 71 46 36 48 62 49 45 50 61 51 46 52 49 53 60 54 76 55
REMARK SMILES IDX 47 56 48 57 59 59 77 60 50 61 37 62 38 63 43 64 39 65 40 66
REMARK SMILES IDX 42 67 44 68 41 69 63 70 64 71 69 72 65 73 66 74 68 75 70 76
REMARK SMILES IDX 67 77 51 78 52 79 57 80 53 81 54 82 56 83 58 84 55 85
REMARK H PARENT 21 5 25 28 75 47 49 58
REMARK Flexibility Score: inf
ROOT
ATOM      1  C   UNL A   1      36.595  19.962  24.921  1.00  0.00     0.118 C 
ENDROOT
BRANCH   1   2
ATOM      2  N   UNL A   1      35.452  19.076  24.800  1.00  0.00    -0.351 N 
ATOM      3  C   UNL A   1      34.110  19.301  24.733  1.00  0.00     0.261 C 
ATOM      4  O   UNL A   1      33.387  18.321  24.551  1.00  0.00    -0.268 OA
ATOM      5  H   UNL A   1      35.695  18.121  24.760  1.00  0.00     0.163 HD
BRANCH   3   6
ATOM      6  C   UNL A   1      33.507  20.657  24.841  1.00  0.00     0.117 C 
ATOM      7  C   UNL A   1      33.361  21.384  25.974  1.00  0.00     0.035 C 
BRANCH   6   8
ATOM      8  C   UNL A   1      32.756  21.185  23.630  1.00  0.00     0.105 C 
ATOM      9  N   UNL A   1      32.133  21.622  22.625  1.00  0.00    -0.192 NA
ENDBRANCH   6   8
BRANCH   7  10
ATOM     10  C   UNL A   1      32.724  22.721  26.033  1.00  0.00    -0.005 A 
ATOM     11  C   UNL A   1      31.350  22.767  26.308  1.00  0.00     0.013 A 
ATOM     12  C   UNL A   1      33.419  23.933  25.883  1.00  0.00     0.052 A 
ATOM     13  C   UNL A   1      30.699  23.996  26.468  1.00  0.00     0.048 A 
ATOM     14  C   UNL A   1      32.777  25.157  26.108  1.00  0.00     0.068 A 
ATOM     15  Cl  UNL A   1      35.077  23.981  25.387  1.00  0.00    -0.084 Cl
ATOM     16  C   UNL A   1      31.412  25.196  26.391  1.00  0.00     0.128 A 
BRANCH  16  17
ATOM     17  O   UNL A   1      30.655  26.333  26.594  1.00  0.00    -0.457 OA
BRANCH  17  18
ATOM     18  C   UNL A   1      31.223  27.558  26.347  1.00  0.00     0.127 A 
ATOM     19  C   UNL A   1      31.670  28.308  27.436  1.00  0.00     0.047 A 
ATOM     20  C   UNL A   1      31.281  28.086  25.056  1.00  0.00     0.047 A 
ATOM     21  C   UNL A   1      32.246  29.560  27.223  1.00  0.00     0.004 A 
ATOM     22  C   UNL A   1      31.882  29.326  24.843  1.00  0.00     0.004 A 
ATOM     23  C   UNL A   1      32.368  30.060  25.925  1.00  0.00     0.000 A 
ENDBRANCH  17  18
ENDBRANCH  16  17
ENDBRANCH   7  10
ENDBRANCH   3   6
ENDBRANCH   1   2
BRANCH   1  24
ATOM     24  C   UNL A   1      37.915  19.191  24.969  1.00  0.00     0.042 C 
BRANCH  24  25
ATOM     25  C   UNL A   1      39.060  19.968  25.612  1.00  0.00     0.118 C 
BRANCH  25  26
ATOM     26  N   UNL A   1      40.250  19.147  25.768  1.00  0.00    -0.352 N 
ATOM     27  C   UNL A   1      41.539  19.496  26.076  1.00  0.00     0.251 C 
ATOM     28  H   UNL A   1      40.107  18.184  25.630  1.00  0.00     0.163 HD
ATOM     29  O   UNL A   1      42.430  18.664  25.930  1.00  0.00    -0.269 OA
BRANCH  27  30
ATOM     30  C   UNL A   1      41.876  20.848  26.577  1.00  0.00     0.039 A 
ATOM     31  C   UNL A   1      41.700  21.111  27.940  1.00  0.00     0.014 A 
ATOM     32  C   UNL A   1      42.278  21.876  25.720  1.00  0.00     0.014 A 
ATOM     33  C   UNL A   1      41.956  22.388  28.446  1.00  0.00     0.010 A 
ATOM     34  C   UNL A   1      42.596  23.133  26.234  1.00  0.00     0.010 A 
ATOM     35  C   UNL A   1      42.424  23.405  27.599  1.00  0.00    -0.014 A 
BRANCH  35  36
ATOM     36  C   UNL A   1      42.716  24.760  28.130  1.00  0.00     0.031 A 
ATOM     37  C   UNL A   1      44.117  25.134  28.528  1.00  0.00     0.074 A 
ATOM     38  C   UNL A   1      41.711  25.643  28.284  1.00  0.00     0.049 A 
ATOM     39  N   UNL A   1      44.559  26.252  29.046  1.00  0.00    -0.248 NA
ATOM     40  C   UNL A   1      45.157  24.111  28.335  1.00  0.00     0.031 C 
ATOM     41  C   UNL A   1      40.304  25.388  27.971  1.00  0.00     0.029 A 
ATOM     42  N   UNL A   1      41.719  26.935  28.746  1.00  0.00    -0.354 N 
ATOM     43  C   UNL A   1      45.922  26.065  29.245  1.00  0.00     0.074 A 
ATOM     44  C   UNL A   1      46.225  24.709  28.842  1.00  0.00     0.031 C 
ATOM     45  C   UNL A   1      39.588  26.494  28.230  1.00  0.00     0.029 A 
ATOM     46  C   UNL A   1      40.478  27.524  28.754  1.00  0.00     0.049 A 
ATOM     47  H   UNL A   1      42.537  27.396  29.043  1.00  0.00     0.167 HD
ATOM     48  C   UNL A   1      46.842  26.950  29.697  1.00  0.00     0.037 A 
ATOM     49  C   UNL A   1      40.102  28.757  29.143  1.00  0.00     0.037 A 
ATOM     50  C   UNL A   1      46.544  28.305  30.082  1.00  0.00     0.049 A 
ATOM     51  C   UNL A   1      41.143  29.719  29.644  1.00  0.00     0.074 A 
ATOM     52  C   UNL A   1      47.410  29.286  30.533  1.00  0.00     0.029 A 
ATOM     53  N   UNL A   1      45.278  28.870  30.055  1.00  0.00    -0.354 N 
ATOM     54  N   UNL A   1      42.433  29.540  29.785  1.00  0.00    -0.248 NA
ATOM     55  C   UNL A   1      40.675  31.057  30.032  1.00  0.00     0.031 C 
ATOM     56  C   UNL A   1      46.663  30.439  30.803  1.00  0.00     0.029 A 
ATOM     57  C   UNL A   1      45.339  30.185  30.486  1.00  0.00     0.049 A 
ATOM     58  H   UNL A   1      44.458  28.406  29.772  1.00  0.00     0.167 HD
ATOM     59  C   UNL A   1      42.936  30.749  30.249  1.00  0.00     0.074 A 
ATOM     60  C   UNL A   1      41.812  31.657  30.351  1.00  0.00     0.031 C 
ATOM     61  C   UNL A   1      44.211  31.078  30.567  1.00  0.00     0.037 A 
BRANCH  48  62
ATOM     62  C   UNL A   1      48.265  26.482  29.785  1.00  0.00     0.057 A 
ATOM     63  C   UNL A   1      49.170  26.688  28.734  1.00  0.00     0.134 A 
ATOM     64  C   UNL A   1      48.749  25.854  30.939  1.00  0.00     0.134 A 
ATOM     65  F   UNL A   1      48.766  27.273  27.596  1.00  0.00    -0.206 F 
ATOM     66  C   UNL A   1      50.497  26.266  28.820  1.00  0.00     0.040 A 
ATOM     67  C   UNL A   1      50.081  25.449  31.046  1.00  0.00     0.040 A 
ATOM     68  F   UNL A   1      47.938  25.630  31.984  1.00  0.00    -0.206 F 
ATOM     69  C   UNL A   1      50.958  25.651  29.981  1.00  0.00     0.006 A 
ENDBRANCH  48  62
BRANCH  49  70
ATOM     70  C   UNL A   1      38.679  29.166  29.053  1.00  0.00     0.057 A 
ATOM     71  C   UNL A   1      37.834  29.091  30.167  1.00  0.00     0.134 A 
ATOM     72  C   UNL A   1      38.123  29.619  27.851  1.00  0.00     0.134 A 
ATOM     73  F   UNL A   1      38.304  28.648  31.341  1.00  0.00    -0.206 F 
ATOM     74  C   UNL A   1      36.482  29.429  30.083  1.00  0.00     0.040 A 
ATOM     75  C   UNL A   1      36.779  29.984  27.758  1.00  0.00     0.040 A 
ATOM     76  F   UNL A   1      38.883  29.722  26.750  1.00  0.00    -0.206 F 
ATOM     77  C   UNL A   1      35.952  29.880  28.876  1.00  0.00     0.006 A 
ENDBRANCH  49  70
BRANCH  61  78
ATOM     78  C   UNL A   1      44.460  32.486  31.016  1.00  0.00     0.057 A 
ATOM     79  C   UNL A   1      44.423  32.847  32.367  1.00  0.00     0.134 A 
ATOM     80  C   UNL A   1      44.759  33.488  30.083  1.00  0.00     0.134 A 
ATOM     81  F   UNL A   1      44.127  31.937  33.307  1.00  0.00    -0.206 F 
ATOM     82  C   UNL A   1      44.650  34.162  32.776  1.00  0.00     0.040 A 
ATOM     83  C   UNL A   1      45.012  34.800  30.481  1.00  0.00     0.040 A 
ATOM     84  F   UNL A   1      44.816  33.204  28.773  1.00  0.00    -0.206 F 
ATOM     85  C   UNL A   1      44.951  35.142  31.831  1.00  0.00     0.006 A 
ENDBRANCH  61  78
ENDBRANCH  35  36
ENDBRANCH  27  30
ENDBRANCH  25  26
ENDBRANCH  24  25
ENDBRANCH   1  24
TORSDOF 14
ENDMDL
MODEL 2
REMARK VINA RESULT:     -11.8      0.959      6.342
REMARK SMILES N#C/C(=C\c1ccc(Oc2ccccc2)cc1Cl)C(=O)NCCCNC(=O)c1ccc(-c2c3nc(c(-c4c(F)cccc4F)c4ccc([nH]4)c(-c4c(F)cccc4F)c4nc(c(-c5c(F)cccc5F)c5ccc2[nH]5)C=C4)C=C3)cc1
REMARK SMILES IDX 22 1 21 2 19 3 20 4 3 6 4 7 2 8 1 9 5 10 6 11 17 12 7 13
REMARK SMILES IDX 16 14 18 15 8 16 9 17 10 18 11 19 15 20 12 21 14 22 13 23
REMARK SMILES IDX 23 24 24 25 25 26 26 27 27 29 28 30 29 31 81 32 30 33 80 34
REMARK SMILES IDX 31 35 32 36 33 37 74 38 34 39 79 40 73 41 75 42 35 43 78 44
REMARK SMILES IDX 72 45 71 46 36 48 62 49 45 50 61 51 46 52 49 53 60 54 76 55
REMARK SMILES IDX 47 56 48 57 59 59 77 60 50 61 37 62 38 63 43 64 39 65 40 66
REMARK SMILES IDX 42 67 44 68 41 69 63 70 64 71 69 72 65 73 66 74 68 75 70 76
REMARK SMILES IDX 67 77 51 78 52 79 57 80 53 81 54 82 56 83 58 84 55 85
REMARK H PARENT 21 5 25 28 75 47 49 58
REMARK Flexibility Score: inf
ROOT
ATOM      1  C   UNL A   1      36.334  20.280  24.958  1.00  0.00     0.118 C 
ENDROOT
BRANCH   1   2
ATOM      2  N   UNL A   1      35.138  19.458  24.971  1.00  0.00    -0.351 N 
ATOM      3  C   UNL A   1      33.810  19.756  24.914  1.00  0.00     0.261 C 
ATOM      4  O   UNL A   1      33.026  18.809  24.867  1.00  0.00    -0.268 OA
ATOM      5  H   UNL A   1      35.324  18.492  25.035  1.00  0.00     0.163 HD
BRANCH   3   6
ATOM      6  C   UNL A   1      33.291  21.151  24.880  1.00  0.00     0.117 C 
ATOM      7  C   UNL A   1      32.997  21.873  23.773  1.00  0.00     0.035 C 
BRANCH   6   8
ATOM      8  C   UNL A   1      33.326  21.939  26.179  1.00  0.00     0.105 C 
ATOM      9  N   UNL A   1      33.355  22.592  27.256  1.00  0.00    -0.192 NA
ENDBRANCH   6   8
BRANCH   7  10
ATOM     10  C   UNL A   1      32.512  23.273  23.793  1.00  0.00    -0.005 A 
ATOM     11  C   UNL A   1      31.128  23.474  23.877  1.00  0.00     0.013 A 
ATOM     12  C   UNL A   1      33.354  24.399  23.784  1.00  0.00     0.052 A 
ATOM     13  C   UNL A   1      30.603  24.766  23.992  1.00  0.00     0.048 A 
ATOM     14  C   UNL A   1      32.829  25.685  23.963  1.00  0.00     0.068 A 
ATOM     15  Cl  UNL A   1      35.060  24.264  23.522  1.00  0.00    -0.084 Cl
ATOM     16  C   UNL A   1      31.450  25.876  24.057  1.00  0.00     0.128 A 
BRANCH  16  17
ATOM     17  O   UNL A   1      30.805  27.090  24.197  1.00  0.00    -0.457 OA
BRANCH  17  18
ATOM     18  C   UNL A   1      31.195  27.934  25.206  1.00  0.00     0.127 A 
ATOM     19  C   UNL A   1      31.595  29.227  24.866  1.00  0.00     0.047 A 
ATOM     20  C   UNL A   1      31.274  27.497  26.530  1.00  0.00     0.047 A 
ATOM     21  C   UNL A   1      32.004  30.110  25.865  1.00  0.00     0.004 A 
ATOM     22  C   UNL A   1      31.657  28.390  27.531  1.00  0.00     0.004 A 
ATOM     23  C   UNL A   1      32.017  29.696  27.198  1.00  0.00     0.000 A 
ENDBRANCH  17  18
ENDBRANCH  16  17
ENDBRANCH   7  10
ENDBRANCH   3   6
ENDBRANCH   1   2
BRANCH   1  24
ATOM     24  C   UNL A   1      37.610  19.436  24.978  1.00  0.00     0.042 C 
BRANCH  24  25
ATOM     25  C   UNL A   1      38.825  20.168  25.542  1.00  0.00     0.118 C 
BRANCH  25  26
ATOM     26  N   UNL A   1      39.951  19.271  25.741  1.00  0.00    -0.352 N 
ATOM     27  C   UNL A   1      41.252  19.536  26.082  1.00  0.00     0.251 C 
ATOM     28  H   UNL A   1      39.748  18.317  25.610  1.00  0.00     0.163 HD
ATOM     29  O   UNL A   1      42.089  18.644  25.971  1.00  0.00    -0.269 OA
BRANCH  27  30
ATOM     30  C   UNL A   1      41.665  20.869  26.578  1.00  0.00     0.039 A 
ATOM     31  C   UNL A   1      41.643  21.097  27.959  1.00  0.00     0.014 A 
ATOM     32  C   UNL A   1      41.990  21.913  25.709  1.00  0.00     0.014 A 
ATOM     33  C   UNL A   1      41.975  22.355  28.466  1.00  0.00     0.010 A 
ATOM     34  C   UNL A   1      42.385  23.151  26.217  1.00  0.00     0.010 A 
ATOM     35  C   UNL A   1      42.366  23.388  27.599  1.00  0.00    -0.014 A 
BRANCH  35  36
ATOM     36  C   UNL A   1      42.738  24.724  28.130  1.00  0.00     0.031 A 
ATOM     37  C   UNL A   1      41.689  25.784  28.321  1.00  0.00     0.074 A 
ATOM     38  C   UNL A   1      44.028  24.991  28.410  1.00  0.00     0.049 A 
ATOM     39  N   UNL A   1      41.827  27.018  28.735  1.00  0.00    -0.248 NA
ATOM     40  C   UNL A   1      40.304  25.415  27.985  1.00  0.00     0.031 C 
ATOM     41  C   UNL A   1      45.143  24.060  28.232  1.00  0.00     0.029 A 
ATOM     42  N   UNL A   1      44.619  26.127  28.902  1.00  0.00    -0.354 N 
ATOM     43  C   UNL A   1      40.552  27.572  28.705  1.00  0.00     0.074 A 
ATOM     44  C   UNL A   1      39.663  26.558  28.182  1.00  0.00     0.031 C 
ATOM     45  C   UNL A   1      46.280  24.654  28.628  1.00  0.00     0.029 A 
ATOM     46  C   UNL A   1      45.980  26.015  29.059  1.00  0.00     0.049 A 
ATOM     47  H   UNL A   1      44.116  26.944  29.121  1.00  0.00     0.167 HD
ATOM     48  C   UNL A   1      40.154  28.805  29.100  1.00  0.00     0.037 A 
ATOM     49  C   UNL A   1      46.882  26.912  29.500  1.00  0.00     0.037 A 
ATOM     50  C   UNL A   1      41.036  29.809  29.637  1.00  0.00     0.049 A 
ATOM     51  C   UNL A   1      46.414  28.274  29.930  1.00  0.00     0.074 A 
ATOM     52  C   UNL A   1      40.726  31.081  30.086  1.00  0.00     0.029 A 
ATOM     53  N   UNL A   1      42.403  29.649  29.800  1.00  0.00    -0.354 N 
ATOM     54  N   UNL A   1      45.199  28.767  29.936  1.00  0.00    -0.248 NA
ATOM     55  C   UNL A   1      47.441  29.201  30.424  1.00  0.00     0.031 C 
ATOM     56  C   UNL A   1      41.912  31.700  30.499  1.00  0.00     0.029 A 
ATOM     57  C   UNL A   1      42.952  30.801  30.340  1.00  0.00     0.049 A 
ATOM     58  H   UNL A   1      42.909  28.838  29.568  1.00  0.00     0.167 HD
ATOM     59  C   UNL A   1      45.312  30.048  30.459  1.00  0.00     0.074 A 
ATOM     60  C   UNL A   1      46.711  30.250  30.773  1.00  0.00     0.031 C 
ATOM     61  C   UNL A   1      44.346  30.977  30.658  1.00  0.00     0.037 A 
BRANCH  48  62
ATOM     62  C   UNL A   1      38.694  29.130  28.983  1.00  0.00     0.057 A 
ATOM     63  C   UNL A   1      37.831  29.035  30.083  1.00  0.00     0.134 A 
ATOM     64  C   UNL A   1      38.149  29.575  27.772  1.00  0.00     0.134 A 
ATOM     65  F   UNL A   1      38.289  28.602  31.268  1.00  0.00    -0.206 F 
ATOM     66  C   UNL A   1      36.476  29.350  29.978  1.00  0.00     0.040 A 
ATOM     67  C   UNL A   1      36.800  29.917  27.660  1.00  0.00     0.040 A 
ATOM     68  F   UNL A   1      38.920  29.694  26.680  1.00  0.00    -0.206 F 
ATOM     69  C   UNL A   1      35.958  29.800  28.766  1.00  0.00     0.006 A 
ENDBRANCH  48  62
BRANCH  49  70
ATOM     70  C   UNL A   1      48.317  26.547  29.582  1.00  0.00     0.057 A 
ATOM     71  C   UNL A   1      48.833  25.897  30.709  1.00  0.00     0.134 A 
ATOM     72  C   UNL A   1      49.211  26.855  28.550  1.00  0.00     0.134 A 
ATOM     73  F   UNL A   1      48.030  25.591  31.738  1.00  0.00    -0.206 F 
ATOM     74  C   UNL A   1      50.190  25.590  30.819  1.00  0.00     0.040 A 
ATOM     75  C   UNL A   1      50.565  26.533  28.635  1.00  0.00     0.040 A 
ATOM     76  F   UNL A   1      48.776  27.470  27.439  1.00  0.00    -0.206 F 
ATOM     77  C   UNL A   1      51.060  25.905  29.777  1.00  0.00     0.006 A 
ENDBRANCH  49  70
BRANCH  61  78
ATOM     78  C   UNL A   1      44.767  32.276  31.277  1.00  0.00     0.057 A 
ATOM     79  C   UNL A   1      45.168  33.369  30.500  1.00  0.00     0.134 A 
ATOM     80  C   UNL A   1      44.751  32.439  32.668  1.00  0.00     0.134 A 
ATOM     81  F   UNL A   1      45.218  33.269  29.163  1.00  0.00    -0.206 F 
ATOM     82  C   UNL A   1      45.563  34.572  31.084  1.00  0.00     0.040 A 
ATOM     83  C   UNL A   1      45.120  33.645  33.264  1.00  0.00     0.040 A 
ATOM     84  F   UNL A   1      44.370  31.432  33.469  1.00  0.00    -0.206 F 
ATOM     85  C   UNL A   1      45.535  34.714  32.471  1.00  0.00     0.006 A 
ENDBRANCH  61  78
ENDBRANCH  35  36
ENDBRANCH  27  30
ENDBRANCH  25  26
ENDBRANCH  24  25
ENDBRANCH   1  24
TORSDOF 14
ENDMDL
MODEL 3
REMARK VINA RESULT:     -11.7      1.433      6.313
REMARK SMILES N#C/C(=C\c1ccc(Oc2ccccc2)cc1Cl)C(=O)NCCCNC(=O)c1ccc(-c2c3nc(c(-c4c(F)cccc4F)c4ccc([nH]4)c(-c4c(F)cccc4F)c4nc(c(-c5c(F)cccc5F)c5ccc2[nH]5)C=C4)C=C3)cc1
REMARK SMILES IDX 22 1 21 2 19 3 20 4 3 6 4 7 2 8 1 9 5 10 6 11 17 12 7 13
REMARK SMILES IDX 16 14 18 15 8 16 9 17 10 18 11 19 15 20 12 21 14 22 13 23
REMARK SMILES IDX 23 24 24 25 25 26 26 27 27 29 28 30 29 31 81 32 30 33 80 34
REMARK SMILES IDX 31 35 32 36 33 37 74 38 34 39 79 40 73 41 75 42 35 43 78 44
REMARK SMILES IDX 72 45 71 46 36 48 62 49 45 50 61 51 46 52 49 53 60 54 76 55
REMARK SMILES IDX 47 56 48 57 59 59 77 60 50 61 37 62 38 63 43 64 39 65 40 66
REMARK SMILES IDX 42 67 44 68 41 69 63 70 64 71 69 72 65 73 66 74 68 75 70 76
REMARK SMILES IDX 67 77 51 78 52 79 57 80 53 81 54 82 56 83 58 84 55 85
REMARK H PARENT 21 5 25 28 75 47 49 58
REMARK Flexibility Score: inf
ROOT
ATOM      1  C   UNL A   1      36.520  20.179  24.977  1.00  0.00     0.118 C 
ENDROOT
BRANCH   1   2
ATOM      2  N   UNL A   1      35.342  19.332  24.971  1.00  0.00    -0.351 N 
ATOM      3  C   UNL A   1      34.009  19.602  24.900  1.00  0.00     0.261 C 
ATOM      4  O   UNL A   1      33.245  18.639  24.838  1.00  0.00    -0.268 OA
ATOM      5  H   UNL A   1      35.548  18.370  25.032  1.00  0.00     0.163 HD
BRANCH   3   6
ATOM      6  C   UNL A   1      33.461  20.986  24.868  1.00  0.00     0.117 C 
ATOM      7  C   UNL A   1      33.173  21.712  23.762  1.00  0.00     0.035 C 
BRANCH   6   8
ATOM      8  C   UNL A   1      33.453  21.762  26.175  1.00  0.00     0.105 C 
ATOM      9  N   UNL A   1      33.446  22.405  27.259  1.00  0.00    -0.192 NA
ENDBRANCH   6   8
BRANCH   7  10
ATOM     10  C   UNL A   1      32.658  23.101  23.785  1.00  0.00    -0.005 A 
ATOM     11  C   UNL A   1      31.268  23.273  23.746  1.00  0.00     0.013 A 
ATOM     12  C   UNL A   1      33.472  24.242  23.895  1.00  0.00     0.052 A 
ATOM     13  C   UNL A   1      30.707  24.550  23.855  1.00  0.00     0.048 A 
ATOM     14  C   UNL A   1      32.904  25.510  24.069  1.00  0.00     0.068 A 
ATOM     15  Cl  UNL A   1      35.198  24.148  23.791  1.00  0.00    -0.084 Cl
ATOM     16  C   UNL A   1      31.519  25.672  24.039  1.00  0.00     0.128 A 
BRANCH  16  17
ATOM     17  O   UNL A   1      30.837  26.868  24.160  1.00  0.00    -0.457 OA
BRANCH  17  18
ATOM     18  C   UNL A   1      31.185  27.729  25.171  1.00  0.00     0.127 A 
ATOM     19  C   UNL A   1      31.505  29.044  24.835  1.00  0.00     0.047 A 
ATOM     20  C   UNL A   1      31.298  27.290  26.492  1.00  0.00     0.047 A 
ATOM     21  C   UNL A   1      31.869  29.944  25.836  1.00  0.00     0.004 A 
ATOM     22  C   UNL A   1      31.636  28.199  27.494  1.00  0.00     0.004 A 
ATOM     23  C   UNL A   1      31.916  29.525  27.167  1.00  0.00     0.000 A 
ENDBRANCH  17  18
ENDBRANCH  16  17
ENDBRANCH   7  10
ENDBRANCH   3   6
ENDBRANCH   1   2
BRANCH   1  24
ATOM     24  C   UNL A   1      37.814  19.362  24.939  1.00  0.00     0.042 C 
BRANCH  24  25
ATOM     25  C   UNL A   1      38.958  19.982  25.737  1.00  0.00     0.118 C 
BRANCH  25  26
ATOM     26  N   UNL A   1      40.074  19.061  25.885  1.00  0.00    -0.352 N 
ATOM     27  C   UNL A   1      41.409  19.304  26.074  1.00  0.00     0.251 C 
ATOM     28  H   UNL A   1      39.831  18.109  25.840  1.00  0.00     0.163 HD
ATOM     29  O   UNL A   1      42.205  18.377  25.943  1.00  0.00    -0.269 OA
BRANCH  27  30
ATOM     30  C   UNL A   1      41.907  20.651  26.433  1.00  0.00     0.039 A 
ATOM     31  C   UNL A   1      42.032  20.971  27.790  1.00  0.00     0.014 A 
ATOM     32  C   UNL A   1      42.171  21.624  25.465  1.00  0.00     0.014 A 
ATOM     33  C   UNL A   1      42.449  22.248  28.172  1.00  0.00     0.010 A 
ATOM     34  C   UNL A   1      42.650  22.878  25.844  1.00  0.00     0.010 A 
ATOM     35  C   UNL A   1      42.778  23.207  27.201  1.00  0.00    -0.014 A 
BRANCH  35  36
ATOM     36  C   UNL A   1      43.240  24.561  27.598  1.00  0.00     0.031 A 
ATOM     37  C   UNL A   1      42.244  25.614  28.000  1.00  0.00     0.074 A 
ATOM     38  C   UNL A   1      44.554  24.850  27.566  1.00  0.00     0.049 A 
ATOM     39  N   UNL A   1      42.452  26.862  28.340  1.00  0.00    -0.248 NA
ATOM     40  C   UNL A   1      40.826  25.221  28.002  1.00  0.00     0.031 C 
ATOM     41  C   UNL A   1      45.614  23.927  27.159  1.00  0.00     0.029 A 
ATOM     42  N   UNL A   1      45.223  26.006  27.880  1.00  0.00    -0.354 N 
ATOM     43  C   UNL A   1      41.195  27.400  28.591  1.00  0.00     0.074 A 
ATOM     44  C   UNL A   1      40.227  26.361  28.313  1.00  0.00     0.031 C 
ATOM     45  C   UNL A   1      46.802  24.545  27.267  1.00  0.00     0.029 A 
ATOM     46  C   UNL A   1      46.585  25.914  27.722  1.00  0.00     0.049 A 
ATOM     47  H   UNL A   1      44.770  26.824  28.189  1.00  0.00     0.167 HD
ATOM     48  C   UNL A   1      40.878  28.639  29.037  1.00  0.00     0.037 A 
ATOM     49  C   UNL A   1      47.548  26.833  27.919  1.00  0.00     0.037 A 
ATOM     50  C   UNL A   1      41.842  29.668  29.330  1.00  0.00     0.049 A 
ATOM     51  C   UNL A   1      47.169  28.202  28.412  1.00  0.00     0.074 A 
ATOM     52  C   UNL A   1      41.622  30.948  29.807  1.00  0.00     0.029 A 
ATOM     53  N   UNL A   1      43.213  29.528  29.177  1.00  0.00    -0.354 N 
ATOM     54  N   UNL A   1      45.980  28.681  28.686  1.00  0.00    -0.248 NA
ATOM     55  C   UNL A   1      48.266  29.154  28.632  1.00  0.00     0.031 C 
ATOM     56  C   UNL A   1      42.860  31.592  29.919  1.00  0.00     0.029 A 
ATOM     57  C   UNL A   1      43.851  30.700  29.546  1.00  0.00     0.049 A 
ATOM     58  H   UNL A   1      43.666  28.716  28.855  1.00  0.00     0.167 HD
ATOM     59  C   UNL A   1      46.188  29.978  29.137  1.00  0.00     0.074 A 
ATOM     60  C   UNL A   1      47.618  30.204  29.114  1.00  0.00     0.031 C 
ATOM     61  C   UNL A   1      45.277  30.901  29.530  1.00  0.00     0.037 A 
BRANCH  48  62
ATOM     62  C   UNL A   1      39.425  28.944  29.251  1.00  0.00     0.057 A 
ATOM     63  C   UNL A   1      38.610  29.401  28.206  1.00  0.00     0.134 A 
ATOM     64  C   UNL A   1      38.822  28.747  30.500  1.00  0.00     0.134 A 
ATOM     65  F   UNL A   1      39.129  29.622  26.989  1.00  0.00    -0.206 F 
ATOM     66  C   UNL A   1      37.255  29.671  28.401  1.00  0.00     0.040 A 
ATOM     67  C   UNL A   1      37.462  28.991  30.701  1.00  0.00     0.040 A 
ATOM     68  F   UNL A   1      39.542  28.307  31.543  1.00  0.00    -0.206 F 
ATOM     69  C   UNL A   1      36.675  29.460  29.650  1.00  0.00     0.006 A 
ENDBRANCH  48  62
BRANCH  49  70
ATOM     70  C   UNL A   1      48.970  26.487  27.677  1.00  0.00     0.057 A 
ATOM     71  C   UNL A   1      49.527  26.578  26.396  1.00  0.00     0.134 A 
ATOM     72  C   UNL A   1      49.800  26.039  28.711  1.00  0.00     0.134 A 
ATOM     73  F   UNL A   1      48.777  26.984  25.362  1.00  0.00    -0.206 F 
ATOM     74  C   UNL A   1      50.850  26.210  26.146  1.00  0.00     0.040 A 
ATOM     75  C   UNL A   1      51.132  25.691  28.481  1.00  0.00     0.040 A 
ATOM     76  F   UNL A   1      49.328  25.938  29.963  1.00  0.00    -0.206 F 
ATOM     77  C   UNL A   1      51.658  25.769  27.192  1.00  0.00     0.006 A 
ENDBRANCH  49  70
BRANCH  61  78
ATOM     78  C   UNL A   1      45.807  32.222  30.002  1.00  0.00     0.057 A 
ATOM     79  C   UNL A   1      46.150  32.444  31.341  1.00  0.00     0.134 A 
ATOM     80  C   UNL A   1      45.995  33.277  29.100  1.00  0.00     0.134 A 
ATOM     81  F   UNL A   1      45.979  31.478  32.255  1.00  0.00    -0.206 F 
ATOM     82  C   UNL A   1      46.638  33.678  31.772  1.00  0.00     0.040 A 
ATOM     83  C   UNL A   1      46.505  34.507  29.514  1.00  0.00     0.040 A 
ATOM     84  F   UNL A   1      45.692  33.125  27.801  1.00  0.00    -0.206 F 
ATOM     85  C   UNL A   1      46.821  34.712  30.856  1.00  0.00     0.006 A 
ENDBRANCH  61  78
ENDBRANCH  35  36
ENDBRANCH  27  30
ENDBRANCH  25  26
ENDBRANCH  24  25
ENDBRANCH   1  24
TORSDOF 14
ENDMDL
