MODEL 1
REMARK VINA RESULT:     -12.6      0.000      0.000
REMARK SMILES Cc1nn(C)c(C)c1CNC(=O)N[C@H]1CC[C@@H](C(=O)NCCCNC(=O)c2ccc(-c3c4nc(c(-c5c(F)cccc5F)c5ccc([nH]5)c(-c5c(F)cccc5F)c5nc(c(-c6c(F)cccc6F)c6ccc3[nH]6)C=C5)C=C4)cc2)C1
REMARK SMILES IDX 21 1 20 2 18 3 19 4 17 6 14 7 15 8 81 9 16 10 13 11 10 12
REMARK SMILES IDX 11 13 12 15 9 17 8 18 1 19 2 20 3 21 4 22 6 23 5 24 7 25
REMARK SMILES IDX 22 26 23 27 24 28 25 29 26 31 27 32 28 33 80 34 29 35 79 36
REMARK SMILES IDX 30 37 31 38 32 39 73 40 33 41 78 42 72 43 74 44 34 45 77 46
REMARK SMILES IDX 71 47 70 48 35 50 61 51 44 52 60 53 45 54 48 55 59 56 75 57
REMARK SMILES IDX 46 58 47 59 58 61 76 62 49 63 36 64 37 65 42 66 38 67 39 68
REMARK SMILES IDX 41 69 43 70 40 71 62 72 63 73 68 74 64 75 65 76 67 77 69 78
REMARK SMILES IDX 66 79 50 80 51 81 56 82 52 83 53 84 55 85 57 86 54 87
REMARK H PARENT 20 5 10 14 13 16 24 30 74 49 48 60
REMARK Flexibility Score: inf
ROOT
ATOM      1  C   UNL A   1      31.942  30.454  26.057  1.00  0.00     0.117 C 
ENDROOT
BRANCH   1   2
ATOM      2  N   UNL A   1      31.615  29.450  27.041  1.00  0.00    -0.356 N 
ATOM      3  C   UNL A   1      31.522  28.102  26.938  1.00  0.00     0.223 C 
ATOM      4  O   UNL A   1      31.404  27.481  28.000  1.00  0.00    -0.275 OA
ATOM      5  H   UNL A   1      31.426  29.805  27.940  1.00  0.00     0.163 HD
BRANCH   3   6
ATOM      6  C   UNL A   1      31.625  27.323  25.626  1.00  0.00     0.080 C 
ATOM      7  C   UNL A   1      31.356  24.982  24.870  1.00  0.00     0.084 C 
ATOM      8  C   UNL A   1      30.510  25.923  24.014  1.00  0.00     0.026 C 
ATOM      9  C   UNL A   1      32.321  25.953  25.585  1.00  0.00     0.038 C 
ATOM     10  C   UNL A   1      30.278  27.124  24.930  1.00  0.00     0.015 C 
BRANCH   7  11
ATOM     11  N   UNL A   1      30.466  24.248  25.775  1.00  0.00    -0.335 N 
ATOM     12  N   UNL A   1      31.418  22.136  26.163  1.00  0.00    -0.334 N 
ATOM     13  C   UNL A   1      30.621  23.144  26.519  1.00  0.00     0.315 C 
ATOM     14  H   UNL A   1      31.816  21.628  26.907  1.00  0.00     0.165 HD
ATOM     15  O   UNL A   1      30.006  23.076  27.583  1.00  0.00    -0.249 OA
ATOM     16  H   UNL A   1      29.570  24.650  25.852  1.00  0.00     0.165 HD
BRANCH  12  17
ATOM     17  C   UNL A   1      31.778  21.688  24.846  1.00  0.00     0.157 C 
BRANCH  17  18
ATOM     18  C   UNL A   1      33.211  21.286  24.783  1.00  0.00     0.015 A 
ATOM     19  C   UNL A   1      32.902  18.751  25.375  1.00  0.00     0.069 C 
ATOM     20  C   UNL A   1      33.687  19.970  25.053  1.00  0.00     0.065 A 
ATOM     21  N   UNL A   1      35.019  19.900  25.001  1.00  0.00    -0.178 NA
ATOM     22  N   UNL A   1      35.406  21.148  24.693  1.00  0.00    -0.272 N 
ATOM     23  C   UNL A   1      34.358  22.005  24.461  1.00  0.00     0.040 A 
ATOM     24  C   UNL A   1      36.821  21.436  24.682  1.00  0.00     0.174 C 
ATOM     25  C   UNL A   1      34.558  23.401  23.995  1.00  0.00     0.067 C 
ENDBRANCH  17  18
ENDBRANCH  12  17
ENDBRANCH   7  11
ENDBRANCH   3   6
ENDBRANCH   1   2
BRANCH   1  26
ATOM     26  C   UNL A   1      31.580  31.866  26.502  1.00  0.00     0.042 C 
BRANCH  26  27
ATOM     27  C   UNL A   1      32.714  32.554  27.245  1.00  0.00     0.118 C 
BRANCH  27  28
ATOM     28  N   UNL A   1      32.396  33.926  27.629  1.00  0.00    -0.352 N 
ATOM     29  C   UNL A   1      33.003  34.773  28.521  1.00  0.00     0.251 C 
ATOM     30  H   UNL A   1      31.613  34.308  27.170  1.00  0.00     0.163 HD
ATOM     31  O   UNL A   1      32.530  35.888  28.729  1.00  0.00    -0.269 OA
BRANCH  29  32
ATOM     32  C   UNL A   1      34.192  34.338  29.280  1.00  0.00     0.039 A 
ATOM     33  C   UNL A   1      34.005  33.729  30.525  1.00  0.00     0.014 A 
ATOM     34  C   UNL A   1      35.479  34.497  28.768  1.00  0.00     0.014 A 
ATOM     35  C   UNL A   1      35.101  33.211  31.217  1.00  0.00     0.010 A 
ATOM     36  C   UNL A   1      36.551  33.877  29.398  1.00  0.00     0.010 A 
ATOM     37  C   UNL A   1      36.376  33.238  30.634  1.00  0.00    -0.014 A 
BRANCH  37  38
ATOM     38  C   UNL A   1      37.556  32.637  31.305  1.00  0.00     0.031 A 
ATOM     39  C   UNL A   1      38.265  31.476  30.659  1.00  0.00     0.074 A 
ATOM     40  C   UNL A   1      37.934  33.073  32.523  1.00  0.00     0.049 A 
ATOM     41  N   UNL A   1      39.218  30.718  31.136  1.00  0.00    -0.248 NA
ATOM     42  C   UNL A   1      37.804  31.085  29.315  1.00  0.00     0.031 C 
ATOM     43  C   UNL A   1      37.294  34.154  33.276  1.00  0.00     0.029 A 
ATOM     44  N   UNL A   1      38.942  32.647  33.350  1.00  0.00    -0.354 N 
ATOM     45  C   UNL A   1      39.441  29.745  30.170  1.00  0.00     0.074 A 
ATOM     46  C   UNL A   1      38.484  29.969  29.111  1.00  0.00     0.031 C 
ATOM     47  C   UNL A   1      37.943  34.327  34.438  1.00  0.00     0.029 A 
ATOM     48  C   UNL A   1      39.015  33.342  34.533  1.00  0.00     0.049 A 
ATOM     49  H   UNL A   1      39.554  31.912  33.118  1.00  0.00     0.167 HD
ATOM     50  C   UNL A   1      40.381  28.771  30.152  1.00  0.00     0.037 A 
ATOM     51  C   UNL A   1      39.851  33.194  35.579  1.00  0.00     0.037 A 
ATOM     52  C   UNL A   1      41.368  28.592  31.182  1.00  0.00     0.049 A 
ATOM     53  C   UNL A   1      40.908  32.126  35.521  1.00  0.00     0.074 A 
ATOM     54  C   UNL A   1      42.412  27.685  31.229  1.00  0.00     0.029 A 
ATOM     55  N   UNL A   1      41.439  29.348  32.342  1.00  0.00    -0.354 N 
ATOM     56  N   UNL A   1      41.145  31.248  34.576  1.00  0.00    -0.248 NA
ATOM     57  C   UNL A   1      41.817  32.030  36.671  1.00  0.00     0.031 C 
ATOM     58  C   UNL A   1      43.094  27.870  32.436  1.00  0.00     0.029 A 
ATOM     59  C   UNL A   1      42.502  28.921  33.118  1.00  0.00     0.049 A 
ATOM     60  H   UNL A   1      40.824  30.080  32.579  1.00  0.00     0.167 HD
ATOM     61  C   UNL A   1      42.248  30.519  35.001  1.00  0.00     0.074 A 
ATOM     62  C   UNL A   1      42.638  31.064  36.285  1.00  0.00     0.031 C 
ATOM     63  C   UNL A   1      42.881  29.492  34.385  1.00  0.00     0.037 A 
BRANCH  50  64
ATOM     64  C   UNL A   1      40.392  27.840  28.975  1.00  0.00     0.057 A 
ATOM     65  C   UNL A   1      41.151  28.106  27.826  1.00  0.00     0.134 A 
ATOM     66  C   UNL A   1      39.649  26.652  28.995  1.00  0.00     0.134 A 
ATOM     67  F   UNL A   1      41.874  29.232  27.735  1.00  0.00    -0.206 F 
ATOM     68  C   UNL A   1      41.146  27.242  26.729  1.00  0.00     0.040 A 
ATOM     69  C   UNL A   1      39.659  25.766  27.916  1.00  0.00     0.040 A 
ATOM     70  F   UNL A   1      38.903  26.333  30.063  1.00  0.00    -0.206 F 
ATOM     71  C   UNL A   1      40.403  26.064  26.776  1.00  0.00     0.006 A 
ENDBRANCH  50  64
BRANCH  51  72
ATOM     72  C   UNL A   1      39.746  34.099  36.752  1.00  0.00     0.057 A 
ATOM     73  C   UNL A   1      39.035  33.713  37.895  1.00  0.00     0.134 A 
ATOM     74  C   UNL A   1      40.345  35.364  36.761  1.00  0.00     0.134 A 
ATOM     75  F   UNL A   1      38.428  32.519  37.941  1.00  0.00    -0.206 F 
ATOM     76  C   UNL A   1      38.903  34.562  38.995  1.00  0.00     0.040 A 
ATOM     77  C   UNL A   1      40.241  36.213  37.865  1.00  0.00     0.040 A 
ATOM     78  F   UNL A   1      41.051  35.788  35.703  1.00  0.00    -0.206 F 
ATOM     79  C   UNL A   1      39.511  35.815  38.983  1.00  0.00     0.006 A 
ENDBRANCH  51  72
BRANCH  63  80
ATOM     80  C   UNL A   1      44.087  28.920  35.068  1.00  0.00     0.057 A 
ATOM     81  C   UNL A   1      43.992  27.850  35.965  1.00  0.00     0.134 A 
ATOM     82  C   UNL A   1      45.366  29.416  34.783  1.00  0.00     0.134 A 
ATOM     83  F   UNL A   1      42.794  27.339  36.290  1.00  0.00    -0.206 F 
ATOM     84  C   UNL A   1      45.125  27.305  36.570  1.00  0.00     0.040 A 
ATOM     85  C   UNL A   1      46.508  28.863  35.361  1.00  0.00     0.040 A 
ATOM     86  F   UNL A   1      45.526  30.434  33.924  1.00  0.00    -0.206 F 
ATOM     87  C   UNL A   1      46.388  27.807  36.262  1.00  0.00     0.006 A 
ENDBRANCH  63  80
ENDBRANCH  37  38
ENDBRANCH  29  32
ENDBRANCH  27  28
ENDBRANCH  26  27
ENDBRANCH   1  26
TORSDOF 13
ENDMDL
MODEL 2
REMARK VINA RESULT:     -12.5      4.530      9.442
REMARK SMILES Cc1nn(C)c(C)c1CNC(=O)N[C@H]1CC[C@@H](C(=O)NCCCNC(=O)c2ccc(-c3c4nc(c(-c5c(F)cccc5F)c5ccc([nH]5)c(-c5c(F)cccc5F)c5nc(c(-c6c(F)cccc6F)c6ccc3[nH]6)C=C5)C=C4)cc2)C1
REMARK SMILES IDX 21 1 20 2 18 3 19 4 17 6 14 7 15 8 81 9 16 10 13 11 10 12
REMARK SMILES IDX 11 13 12 15 9 17 8 18 1 19 2 20 3 21 4 22 6 23 5 24 7 25
REMARK SMILES IDX 22 26 23 27 24 28 25 29 26 31 27 32 28 33 80 34 29 35 79 36
REMARK SMILES IDX 30 37 31 38 32 39 73 40 33 41 78 42 72 43 74 44 34 45 77 46
REMARK SMILES IDX 71 47 70 48 35 50 61 51 44 52 60 53 45 54 48 55 59 56 75 57
REMARK SMILES IDX 46 58 47 59 58 61 76 62 49 63 36 64 37 65 42 66 38 67 39 68
REMARK SMILES IDX 41 69 43 70 40 71 62 72 63 73 68 74 64 75 65 76 67 77 69 78
REMARK SMILES IDX 66 79 50 80 51 81 56 82 52 83 53 84 55 85 57 86 54 87
REMARK H PARENT 20 5 10 14 13 16 24 30 74 49 48 60
REMARK Flexibility Score: inf
ROOT
ATOM      1  C   UNL A   1      36.655  20.662  24.963  1.00  0.00     0.117 C 
ENDROOT
BRANCH   1   2
ATOM      2  N   UNL A   1      36.803  21.670  23.942  1.00  0.00    -0.356 N 
ATOM      3  C   UNL A   1      35.990  22.691  23.576  1.00  0.00     0.223 C 
ATOM      4  O   UNL A   1      36.467  23.511  22.784  1.00  0.00    -0.275 OA
ATOM      5  H   UNL A   1      37.636  21.606  23.421  1.00  0.00     0.163 HD
BRANCH   3   6
ATOM      6  C   UNL A   1      34.581  22.918  24.126  1.00  0.00     0.080 C 
ATOM      7  C   UNL A   1      32.577  24.237  23.519  1.00  0.00     0.084 C 
ATOM      8  C   UNL A   1      32.209  22.769  23.734  1.00  0.00     0.026 C 
ATOM      9  C   UNL A   1      33.977  24.331  24.164  1.00  0.00     0.038 C 
ATOM     10  C   UNL A   1      33.522  22.032  23.469  1.00  0.00     0.015 C 
BRANCH   7  11
ATOM     11  N   UNL A   1      32.561  24.516  22.080  1.00  0.00    -0.335 N 
ATOM     12  N   UNL A   1      31.850  26.735  21.786  1.00  0.00    -0.334 N 
ATOM     13  C   UNL A   1      32.498  25.647  21.365  1.00  0.00     0.315 C 
ATOM     14  H   UNL A   1      32.214  27.593  21.467  1.00  0.00     0.165 HD
ATOM     15  O   UNL A   1      33.079  25.677  20.280  1.00  0.00    -0.249 OA
ATOM     16  H   UNL A   1      32.607  23.704  21.524  1.00  0.00     0.165 HD
BRANCH  12  17
ATOM     17  C   UNL A   1      30.698  26.830  22.639  1.00  0.00     0.157 C 
BRANCH  17  18
ATOM     18  C   UNL A   1      30.813  27.978  23.580  1.00  0.00     0.015 A 
ATOM     19  C   UNL A   1      29.413  29.716  22.206  1.00  0.00     0.069 C 
ATOM     20  C   UNL A   1      30.252  29.267  23.346  1.00  0.00     0.065 A 
ATOM     21  N   UNL A   1      30.568  30.133  24.312  1.00  0.00    -0.178 NA
ATOM     22  N   UNL A   1      31.317  29.419  25.166  1.00  0.00    -0.272 N 
ATOM     23  C   UNL A   1      31.424  28.093  24.826  1.00  0.00     0.040 A 
ATOM     24  C   UNL A   1      31.927  30.113  26.277  1.00  0.00     0.174 C 
ATOM     25  C   UNL A   1      32.110  27.100  25.692  1.00  0.00     0.067 C 
ENDBRANCH  17  18
ENDBRANCH  12  17
ENDBRANCH   7  11
ENDBRANCH   3   6
ENDBRANCH   1   2
BRANCH   1  26
ATOM     26  C   UNL A   1      37.819  19.679  25.006  1.00  0.00     0.042 C 
BRANCH  26  27
ATOM     27  C   UNL A   1      39.003  20.210  25.798  1.00  0.00     0.118 C 
BRANCH  27  28
ATOM     28  N   UNL A   1      40.140  19.294  25.808  1.00  0.00    -0.352 N 
ATOM     29  C   UNL A   1      41.446  19.488  26.180  1.00  0.00     0.251 C 
ATOM     30  H   UNL A   1      39.935  18.384  25.493  1.00  0.00     0.163 HD
ATOM     31  O   UNL A   1      42.262  18.576  26.058  1.00  0.00    -0.269 OA
BRANCH  29  32
ATOM     32  C   UNL A   1      41.899  20.802  26.677  1.00  0.00     0.039 A 
ATOM     33  C   UNL A   1      42.347  21.749  25.750  1.00  0.00     0.014 A 
ATOM     34  C   UNL A   1      41.861  21.119  28.034  1.00  0.00     0.014 A 
ATOM     35  C   UNL A   1      42.680  23.035  26.177  1.00  0.00     0.010 A 
ATOM     36  C   UNL A   1      42.075  22.429  28.440  1.00  0.00     0.010 A 
ATOM     37  C   UNL A   1      42.499  23.399  27.519  1.00  0.00    -0.014 A 
BRANCH  37  38
ATOM     38  C   UNL A   1      42.775  24.775  28.002  1.00  0.00     0.031 A 
ATOM     39  C   UNL A   1      44.179  25.160  28.384  1.00  0.00     0.074 A 
ATOM     40  C   UNL A   1      41.759  25.643  28.178  1.00  0.00     0.049 A 
ATOM     41  N   UNL A   1      44.611  26.253  28.957  1.00  0.00    -0.248 NA
ATOM     42  C   UNL A   1      45.231  24.160  28.131  1.00  0.00     0.031 C 
ATOM     43  C   UNL A   1      40.348  25.371  27.895  1.00  0.00     0.029 A 
ATOM     44  N   UNL A   1      41.757  26.931  28.652  1.00  0.00    -0.354 N 
ATOM     45  C   UNL A   1      45.971  26.054  29.166  1.00  0.00     0.074 A 
ATOM     46  C   UNL A   1      46.279  24.715  28.716  1.00  0.00     0.031 C 
ATOM     47  C   UNL A   1      39.623  26.467  28.171  1.00  0.00     0.029 A 
ATOM     48  C   UNL A   1      40.508  27.502  28.692  1.00  0.00     0.049 A 
ATOM     49  H   UNL A   1      42.574  27.400  28.937  1.00  0.00     0.167 HD
ATOM     50  C   UNL A   1      46.887  26.921  29.658  1.00  0.00     0.037 A 
ATOM     51  C   UNL A   1      40.124  28.723  29.109  1.00  0.00     0.037 A 
ATOM     52  C   UNL A   1      46.583  28.271  30.047  1.00  0.00     0.049 A 
ATOM     53  C   UNL A   1      41.165  29.680  29.621  1.00  0.00     0.074 A 
ATOM     54  C   UNL A   1      47.447  29.257  30.488  1.00  0.00     0.029 A 
ATOM     55  N   UNL A   1      45.313  28.828  30.027  1.00  0.00    -0.354 N 
ATOM     56  N   UNL A   1      42.456  29.499  29.759  1.00  0.00    -0.248 NA
ATOM     57  C   UNL A   1      40.697  31.012  30.029  1.00  0.00     0.031 C 
ATOM     58  C   UNL A   1      46.694  30.401  30.768  1.00  0.00     0.029 A 
ATOM     59  C   UNL A   1      45.368  30.141  30.459  1.00  0.00     0.049 A 
ATOM     60  H   UNL A   1      44.495  28.358  29.746  1.00  0.00     0.167 HD
ATOM     61  C   UNL A   1      42.960  30.702  30.238  1.00  0.00     0.074 A 
ATOM     62  C   UNL A   1      41.836  31.607  30.357  1.00  0.00     0.031 C 
ATOM     63  C   UNL A   1      44.237  31.028  30.551  1.00  0.00     0.037 A 
BRANCH  50  64
ATOM     64  C   UNL A   1      48.302  26.436  29.785  1.00  0.00     0.057 A 
ATOM     65  C   UNL A   1      48.766  25.800  30.945  1.00  0.00     0.134 A 
ATOM     66  C   UNL A   1      49.208  26.590  28.728  1.00  0.00     0.134 A 
ATOM     67  F   UNL A   1      47.954  25.633  32.000  1.00  0.00    -0.206 F 
ATOM     68  C   UNL A   1      50.087  25.363  31.061  1.00  0.00     0.040 A 
ATOM     69  C   UNL A   1      50.523  26.130  28.821  1.00  0.00     0.040 A 
ATOM     70  F   UNL A   1      48.831  27.187  27.587  1.00  0.00    -0.206 F 
ATOM     71  C   UNL A   1      50.968  25.522  29.993  1.00  0.00     0.006 A 
ENDBRANCH  50  64
BRANCH  51  72
ATOM     72  C   UNL A   1      38.696  29.124  29.028  1.00  0.00     0.057 A 
ATOM     73  C   UNL A   1      37.859  29.030  30.147  1.00  0.00     0.134 A 
ATOM     74  C   UNL A   1      38.132  29.604  27.840  1.00  0.00     0.134 A 
ATOM     75  F   UNL A   1      38.338  28.565  31.311  1.00  0.00    -0.206 F 
ATOM     76  C   UNL A   1      36.509  29.375  30.082  1.00  0.00     0.040 A 
ATOM     77  C   UNL A   1      36.788  29.975  27.768  1.00  0.00     0.040 A 
ATOM     78  F   UNL A   1      38.882  29.730  26.737  1.00  0.00    -0.206 F 
ATOM     79  C   UNL A   1      35.970  29.854  28.890  1.00  0.00     0.006 A 
ENDBRANCH  51  72
BRANCH  63  80
ATOM     80  C   UNL A   1      44.495  32.432  31.008  1.00  0.00     0.057 A 
ATOM     81  C   UNL A   1      44.494  32.781  32.364  1.00  0.00     0.134 A 
ATOM     82  C   UNL A   1      44.798  33.437  30.080  1.00  0.00     0.134 A 
ATOM     83  F   UNL A   1      44.199  31.867  33.302  1.00  0.00    -0.206 F 
ATOM     84  C   UNL A   1      44.767  34.085  32.780  1.00  0.00     0.040 A 
ATOM     85  C   UNL A   1      45.098  34.736  30.485  1.00  0.00     0.040 A 
ATOM     86  F   UNL A   1      44.824  33.164  28.766  1.00  0.00    -0.206 F 
ATOM     87  C   UNL A   1      45.078  35.065  31.839  1.00  0.00     0.006 A 
ENDBRANCH  63  80
ENDBRANCH  37  38
ENDBRANCH  29  32
ENDBRANCH  27  28
ENDBRANCH  26  27
ENDBRANCH   1  26
TORSDOF 13
ENDMDL
MODEL 3
REMARK VINA RESULT:     -12.5      5.389     10.718
REMARK SMILES Cc1nn(C)c(C)c1CNC(=O)N[C@H]1CC[C@@H](C(=O)NCCCNC(=O)c2ccc(-c3c4nc(c(-c5c(F)cccc5F)c5ccc([nH]5)c(-c5c(F)cccc5F)c5nc(c(-c6c(F)cccc6F)c6ccc3[nH]6)C=C5)C=C4)cc2)C1
REMARK SMILES IDX 21 1 20 2 18 3 19 4 17 6 14 7 15 8 81 9 16 10 13 11 10 12
REMARK SMILES IDX 11 13 12 15 9 17 8 18 1 19 2 20 3 21 4 22 6 23 5 24 7 25
REMARK SMILES IDX 22 26 23 27 24 28 25 29 26 31 27 32 28 33 80 34 29 35 79 36
REMARK SMILES IDX 30 37 31 38 32 39 73 40 33 41 78 42 72 43 74 44 34 45 77 46
REMARK SMILES IDX 71 47 70 48 35 50 61 51 44 52 60 53 45 54 48 55 59 56 75 57
REMARK SMILES IDX 46 58 47 59 58 61 76 62 49 63 36 64 37 65 42 66 38 67 39 68
REMARK SMILES IDX 41 69 43 70 40 71 62 72 63 73 68 74 64 75 65 76 67 77 69 78
REMARK SMILES IDX 66 79 50 80 51 81 56 82 52 83 53 84 55 85 57 86 54 87
REMARK H PARENT 20 5 10 14 13 16 24 30 74 49 48 60
REMARK Flexibility Score: inf
ROOT
ATOM      1  C   UNL A   1      36.840  20.866  25.054  1.00  0.00     0.117 C 
ENDROOT
BRANCH   1   2
ATOM      2  N   UNL A   1      36.949  21.832  23.989  1.00  0.00    -0.356 N 
ATOM      3  C   UNL A   1      36.099  22.806  23.582  1.00  0.00     0.223 C 
ATOM      4  O   UNL A   1      36.544  23.607  22.752  1.00  0.00    -0.275 OA
ATOM      5  H   UNL A   1      37.782  21.775  23.468  1.00  0.00     0.163 HD
BRANCH   3   6
ATOM      6  C   UNL A   1      34.684  23.008  24.128  1.00  0.00     0.080 C 
ATOM      7  C   UNL A   1      32.639  24.242  23.483  1.00  0.00     0.084 C 
ATOM      8  C   UNL A   1      32.318  22.771  23.748  1.00  0.00     0.026 C 
ATOM      9  C   UNL A   1      34.037  24.402  24.121  1.00  0.00     0.038 C 
ATOM     10  C   UNL A   1      33.652  22.068  23.505  1.00  0.00     0.015 C 
BRANCH   7  11
ATOM     11  N   UNL A   1      32.611  24.472  22.036  1.00  0.00    -0.335 N 
ATOM     12  N   UNL A   1      31.849  26.663  21.670  1.00  0.00    -0.334 N 
ATOM     13  C   UNL A   1      32.520  25.577  21.283  1.00  0.00     0.315 C 
ATOM     14  H   UNL A   1      32.192  27.518  21.322  1.00  0.00     0.165 HD
ATOM     15  O   UNL A   1      33.096  25.583  20.196  1.00  0.00    -0.249 OA
ATOM     16  H   UNL A   1      32.675  23.643  21.508  1.00  0.00     0.165 HD
BRANCH  12  17
ATOM     17  C   UNL A   1      30.698  26.760  22.525  1.00  0.00     0.157 C 
BRANCH  17  18
ATOM     18  C   UNL A   1      30.819  27.905  23.469  1.00  0.00     0.015 A 
ATOM     19  C   UNL A   1      29.620  29.715  22.001  1.00  0.00     0.069 C 
ATOM     20  C   UNL A   1      30.353  29.224  23.195  1.00  0.00     0.065 A 
ATOM     21  N   UNL A   1      30.655  30.075  24.178  1.00  0.00    -0.178 NA
ATOM     22  N   UNL A   1      31.302  29.323  25.082  1.00  0.00    -0.272 N 
ATOM     23  C   UNL A   1      31.351  27.992  24.752  1.00  0.00     0.040 A 
ATOM     24  C   UNL A   1      31.876  29.987  26.229  1.00  0.00     0.174 C 
ATOM     25  C   UNL A   1      31.917  26.964  25.664  1.00  0.00     0.067 C 
ENDBRANCH  17  18
ENDBRANCH  12  17
ENDBRANCH   7  11
ENDBRANCH   3   6
ENDBRANCH   1   2
BRANCH   1  26
ATOM     26  C   UNL A   1      37.922  19.794  25.001  1.00  0.00     0.042 C 
BRANCH  26  27
ATOM     27  C   UNL A   1      39.185  20.201  25.741  1.00  0.00     0.118 C 
BRANCH  27  28
ATOM     28  N   UNL A   1      40.182  19.137  25.800  1.00  0.00    -0.352 N 
ATOM     29  C   UNL A   1      41.522  19.175  26.092  1.00  0.00     0.251 C 
ATOM     30  H   UNL A   1      39.834  18.239  25.593  1.00  0.00     0.163 HD
ATOM     31  O   UNL A   1      42.194  18.147  26.032  1.00  0.00    -0.269 OA
BRANCH  29  32
ATOM     32  C   UNL A   1      42.182  20.453  26.425  1.00  0.00     0.039 A 
ATOM     33  C   UNL A   1      42.700  21.229  25.383  1.00  0.00     0.014 A 
ATOM     34  C   UNL A   1      42.270  20.904  27.740  1.00  0.00     0.014 A 
ATOM     35  C   UNL A   1      43.233  22.490  25.655  1.00  0.00     0.010 A 
ATOM     36  C   UNL A   1      42.689  22.203  27.995  1.00  0.00     0.010 A 
ATOM     37  C   UNL A   1      43.187  23.006  26.958  1.00  0.00    -0.014 A 
BRANCH  37  38
ATOM     38  C   UNL A   1      43.679  24.369  27.278  1.00  0.00     0.031 A 
ATOM     39  C   UNL A   1      42.703  25.424  27.726  1.00  0.00     0.074 A 
ATOM     40  C   UNL A   1      44.976  24.680  27.083  1.00  0.00     0.049 A 
ATOM     41  N   UNL A   1      42.896  26.704  27.918  1.00  0.00    -0.248 NA
ATOM     42  C   UNL A   1      41.312  24.989  27.941  1.00  0.00     0.031 C 
ATOM     43  C   UNL A   1      46.008  23.760  26.600  1.00  0.00     0.029 A 
ATOM     44  N   UNL A   1      45.645  25.865  27.255  1.00  0.00    -0.354 N 
ATOM     45  C   UNL A   1      41.649  27.227  28.236  1.00  0.00     0.074 A 
ATOM     46  C   UNL A   1      40.697  26.142  28.151  1.00  0.00     0.031 C 
ATOM     47  C   UNL A   1      47.184  24.406  26.545  1.00  0.00     0.029 A 
ATOM     48  C   UNL A   1      46.981  25.795  26.943  1.00  0.00     0.049 A 
ATOM     49  H   UNL A   1      45.208  26.689  27.570  1.00  0.00     0.167 HD
ATOM     50  C   UNL A   1      41.329  28.492  28.598  1.00  0.00     0.037 A 
ATOM     51  C   UNL A   1      47.933  26.747  26.972  1.00  0.00     0.037 A 
ATOM     52  C   UNL A   1      42.291  29.551  28.738  1.00  0.00     0.049 A 
ATOM     53  C   UNL A   1      47.560  28.137  27.409  1.00  0.00     0.074 A 
ATOM     54  C   UNL A   1      42.088  30.849  29.170  1.00  0.00     0.029 A 
ATOM     55  N   UNL A   1      43.644  29.426  28.460  1.00  0.00    -0.354 N 
ATOM     56  N   UNL A   1      46.387  28.604  27.763  1.00  0.00    -0.248 NA
ATOM     57  C   UNL A   1      48.642  29.129  27.457  1.00  0.00     0.031 C 
ATOM     58  C   UNL A   1      43.313  31.521  29.121  1.00  0.00     0.029 A 
ATOM     59  C   UNL A   1      44.287  30.627  28.701  1.00  0.00     0.049 A 
ATOM     60  H   UNL A   1      44.081  28.604  28.140  1.00  0.00     0.167 HD
ATOM     61  C   UNL A   1      46.595  29.934  28.107  1.00  0.00     0.074 A 
ATOM     62  C   UNL A   1      48.008  30.194  27.928  1.00  0.00     0.031 C 
ATOM     63  C   UNL A   1      45.698  30.857  28.532  1.00  0.00     0.037 A 
BRANCH  50  64
ATOM     64  C   UNL A   1      39.885  28.788  28.882  1.00  0.00     0.057 A 
ATOM     65  C   UNL A   1      38.996  29.178  27.872  1.00  0.00     0.134 A 
ATOM     66  C   UNL A   1      39.372  28.664  30.180  1.00  0.00     0.134 A 
ATOM     67  F   UNL A   1      39.425  29.331  26.610  1.00  0.00    -0.206 F 
ATOM     68  C   UNL A   1      37.657  29.465  28.145  1.00  0.00     0.040 A 
ATOM     69  C   UNL A   1      38.028  28.919  30.461  1.00  0.00     0.040 A 
ATOM     70  F   UNL A   1      40.166  28.291  31.195  1.00  0.00    -0.206 F 
ATOM     71  C   UNL A   1      37.168  29.328  29.443  1.00  0.00     0.006 A 
ENDBRANCH  50  64
BRANCH  51  72
ATOM     72  C   UNL A   1      49.334  26.413  26.609  1.00  0.00     0.057 A 
ATOM     73  C   UNL A   1      50.211  25.872  27.557  1.00  0.00     0.134 A 
ATOM     74  C   UNL A   1      49.832  26.629  25.319  1.00  0.00     0.134 A 
ATOM     75  F   UNL A   1      49.797  25.655  28.814  1.00  0.00    -0.206 F 
ATOM     76  C   UNL A   1      51.538  25.578  27.242  1.00  0.00     0.040 A 
ATOM     77  C   UNL A   1      51.151  26.318  24.984  1.00  0.00     0.040 A 
ATOM     78  F   UNL A   1      49.040  27.133  24.362  1.00  0.00    -0.206 F 
ATOM     79  C   UNL A   1      52.011  25.798  25.950  1.00  0.00     0.006 A 
ENDBRANCH  51  72
BRANCH  63  80
ATOM     80  C   UNL A   1      46.224  32.218  28.876  1.00  0.00     0.057 A 
ATOM     81  C   UNL A   1      46.667  32.536  30.166  1.00  0.00     0.134 A 
ATOM     82  C   UNL A   1      46.335  33.206  27.889  1.00  0.00     0.134 A 
ATOM     83  F   UNL A   1      46.575  31.637  31.158  1.00  0.00    -0.206 F 
ATOM     84  C   UNL A   1      47.185  33.796  30.466  1.00  0.00     0.040 A 
ATOM     85  C   UNL A   1      46.875  34.460  28.171  1.00  0.00     0.040 A 
ATOM     86  F   UNL A   1      45.937  32.960  26.632  1.00  0.00    -0.206 F 
ATOM     87  C   UNL A   1      47.297  34.759  29.465  1.00  0.00     0.006 A 
ENDBRANCH  63  80
ENDBRANCH  37  38
ENDBRANCH  29  32
ENDBRANCH  27  28
ENDBRANCH  26  27
ENDBRANCH   1  26
TORSDOF 13
ENDMDL
