MODEL 1
REMARK VINA RESULT:     -11.8      0.000      0.000
REMARK SMILES C[C@@H]1Oc2c(C(=O)NCCCNC(=O)c3ccc(-c4c5nc(c(-c6c(F)cccc6F)c6ccc([nH]6)c(-c6c(F)cccc6F)c6nc(c(-c7c(F)cccc7F)c7ccc4[nH]7)C=C6)C=C5)cc3)cccc2[C@@H]1C
REMARK SMILES IDX 11 1 10 2 9 3 8 4 6 5 7 6 5 8 1 9 2 10 3 11 73 12 4 13 72 14
REMARK SMILES IDX 74 15 71 16 69 17 70 18 12 19 13 20 14 22 15 23 16 24 68 25
REMARK SMILES IDX 17 26 67 27 18 28 19 29 20 30 61 31 21 32 66 33 60 34 62 35
REMARK SMILES IDX 22 36 65 37 59 38 58 39 23 41 49 42 32 43 48 44 33 45 36 46
REMARK SMILES IDX 47 47 63 48 34 49 35 50 46 52 64 53 37 54 24 55 25 56 30 57
REMARK SMILES IDX 26 58 27 59 29 60 31 61 28 62 50 63 51 64 56 65 52 66 53 67
REMARK SMILES IDX 55 68 57 69 54 70 38 71 39 72 44 73 40 74 41 75 43 76 45 77
REMARK SMILES IDX 42 78
REMARK H PARENT 8 7 12 21 62 40 36 51
REMARK Flexibility Score: inf
ROOT
ATOM      1  C   UNL A   1      32.695  32.748  27.129  1.00  0.00     0.118 C 
ENDROOT
BRANCH   1   2
ATOM      2  C   UNL A   1      31.403  31.976  26.876  1.00  0.00     0.042 C 
BRANCH   2   3
ATOM      3  C   UNL A   1      31.605  30.460  26.847  1.00  0.00     0.118 C 
BRANCH   3   4
ATOM      4  N   UNL A   1      32.509  30.083  25.775  1.00  0.00    -0.352 N 
ATOM      5  C   UNL A   1      32.365  29.354  24.619  1.00  0.00     0.255 C 
ATOM      6  O   UNL A   1      33.399  29.193  23.970  1.00  0.00    -0.269 OA
ATOM      7  H   UNL A   1      33.423  30.422  25.906  1.00  0.00     0.163 HD
BRANCH   5   8
ATOM      8  C   UNL A   1      31.066  28.790  24.138  1.00  0.00     0.082 A 
ATOM      9  C   UNL A   1      28.869  32.713  22.647  1.00  0.00     0.053 C 
ATOM     10  C   UNL A   1      28.732  31.491  23.546  1.00  0.00     0.177 C 
ATOM     11  O   UNL A   1      30.064  31.022  23.867  1.00  0.00    -0.489 OA
ATOM     12  C   UNL A   1      27.903  30.319  22.975  1.00  0.00     0.060 C 
ATOM     13  C   UNL A   1      30.015  29.652  23.817  1.00  0.00     0.136 A 
ATOM     14  C   UNL A   1      28.788  29.183  23.354  1.00  0.00     0.001 A 
ATOM     15  C   UNL A   1      27.653  30.335  21.469  1.00  0.00     0.017 C 
ATOM     16  C   UNL A   1      28.541  27.829  23.221  1.00  0.00     0.008 A 
ATOM     17  C   UNL A   1      30.831  27.424  23.926  1.00  0.00     0.018 A 
ATOM     18  C   UNL A   1      29.577  26.945  23.501  1.00  0.00     0.001 A 
ENDBRANCH   5   8
ENDBRANCH   3   4
ENDBRANCH   2   3
ENDBRANCH   1   2
BRANCH   1  19
ATOM     19  N   UNL A   1      32.443  34.100  27.615  1.00  0.00    -0.352 N 
ATOM     20  C   UNL A   1      33.020  34.789  28.657  1.00  0.00     0.251 C 
ATOM     21  H   UNL A   1      31.752  34.597  27.120  1.00  0.00     0.163 HD
ATOM     22  O   UNL A   1      32.532  35.847  29.031  1.00  0.00    -0.269 OA
BRANCH  20  23
ATOM     23  C   UNL A   1      34.209  34.241  29.347  1.00  0.00     0.039 A 
ATOM     24  C   UNL A   1      35.498  34.503  28.881  1.00  0.00     0.014 A 
ATOM     25  C   UNL A   1      34.028  33.461  30.495  1.00  0.00     0.014 A 
ATOM     26  C   UNL A   1      36.588  33.855  29.455  1.00  0.00     0.010 A 
ATOM     27  C   UNL A   1      35.133  32.875  31.121  1.00  0.00     0.010 A 
ATOM     28  C   UNL A   1      36.417  33.026  30.576  1.00  0.00    -0.014 A 
BRANCH  28  29
ATOM     29  C   UNL A   1      37.589  32.307  31.140  1.00  0.00     0.031 A 
ATOM     30  C   UNL A   1      38.073  32.610  32.534  1.00  0.00     0.074 A 
ATOM     31  C   UNL A   1      38.184  31.337  30.420  1.00  0.00     0.049 A 
ATOM     32  N   UNL A   1      39.067  32.076  33.199  1.00  0.00    -0.248 NA
ATOM     33  C   UNL A   1      37.350  33.654  33.277  1.00  0.00     0.031 C 
ATOM     34  C   UNL A   1      37.803  30.940  29.062  1.00  0.00     0.029 A 
ATOM     35  N   UNL A   1      39.219  30.494  30.734  1.00  0.00    -0.354 N 
ATOM     36  C   UNL A   1      39.096  32.724  34.428  1.00  0.00     0.074 A 
ATOM     37  C   UNL A   1      38.044  33.717  34.404  1.00  0.00     0.031 C 
ATOM     38  C   UNL A   1      38.563  29.902  28.679  1.00  0.00     0.029 A 
ATOM     39  C   UNL A   1      39.520  29.599  29.737  1.00  0.00     0.049 A 
ATOM     40  H   UNL A   1      39.700  30.527  31.593  1.00  0.00     0.167 HD
ATOM     41  C   UNL A   1      39.913  32.503  35.486  1.00  0.00     0.037 A 
ATOM     42  C   UNL A   1      40.472  28.649  29.676  1.00  0.00     0.037 A 
ATOM     43  C   UNL A   1      40.952  31.506  35.517  1.00  0.00     0.049 A 
ATOM     44  C   UNL A   1      41.398  28.461  30.842  1.00  0.00     0.074 A 
ATOM     45  C   UNL A   1      41.822  31.195  36.548  1.00  0.00     0.029 A 
ATOM     46  N   UNL A   1      41.261  30.656  34.465  1.00  0.00    -0.354 N 
ATOM     47  N   UNL A   1      41.406  29.077  32.000  1.00  0.00    -0.248 NA
ATOM     48  C   UNL A   1      42.456  27.453  30.688  1.00  0.00     0.031 C 
ATOM     49  C   UNL A   1      42.683  30.184  36.105  1.00  0.00     0.029 A 
ATOM     50  C   UNL A   1      42.322  29.837  34.814  1.00  0.00     0.049 A 
ATOM     51  H   UNL A   1      40.795  30.639  33.598  1.00  0.00     0.167 HD
ATOM     52  C   UNL A   1      42.460  28.524  32.715  1.00  0.00     0.074 A 
ATOM     53  C   UNL A   1      43.051  27.506  31.871  1.00  0.00     0.031 C 
ATOM     54  C   UNL A   1      42.904  28.836  33.957  1.00  0.00     0.037 A 
BRANCH  41  55
ATOM     55  C   UNL A   1      39.723  33.372  36.696  1.00  0.00     0.057 A 
ATOM     56  C   UNL A   1      38.802  33.021  37.691  1.00  0.00     0.134 A 
ATOM     57  C   UNL A   1      40.434  34.568  36.867  1.00  0.00     0.134 A 
ATOM     58  F   UNL A   1      38.085  31.893  37.588  1.00  0.00    -0.206 F 
ATOM     59  C   UNL A   1      38.596  33.825  38.813  1.00  0.00     0.040 A 
ATOM     60  C   UNL A   1      40.254  35.369  37.996  1.00  0.00     0.040 A 
ATOM     61  F   UNL A   1      41.341  34.955  35.959  1.00  0.00    -0.206 F 
ATOM     62  C   UNL A   1      39.329  35.001  38.971  1.00  0.00     0.006 A 
ENDBRANCH  41  55
BRANCH  42  63
ATOM     63  C   UNL A   1      40.609  27.814  28.457  1.00  0.00     0.057 A 
ATOM     64  C   UNL A   1      39.966  26.574  28.350  1.00  0.00     0.134 A 
ATOM     65  C   UNL A   1      41.373  28.240  27.366  1.00  0.00     0.134 A 
ATOM     66  F   UNL A   1      39.221  26.107  29.363  1.00  0.00    -0.206 F 
ATOM     67  C   UNL A   1      40.088  25.784  27.207  1.00  0.00     0.040 A 
ATOM     68  C   UNL A   1      41.483  27.473  26.205  1.00  0.00     0.040 A 
ATOM     69  F   UNL A   1      41.994  29.428  27.401  1.00  0.00    -0.206 F 
ATOM     70  C   UNL A   1      40.842  26.237  26.126  1.00  0.00     0.006 A 
ENDBRANCH  42  63
BRANCH  54  71
ATOM     71  C   UNL A   1      44.075  28.054  34.473  1.00  0.00     0.057 A 
ATOM     72  C   UNL A   1      43.887  26.842  35.149  1.00  0.00     0.134 A 
ATOM     73  C   UNL A   1      45.391  28.506  34.307  1.00  0.00     0.134 A 
ATOM     74  F   UNL A   1      42.651  26.357  35.345  1.00  0.00    -0.206 F 
ATOM     75  C   UNL A   1      44.966  26.106  35.639  1.00  0.00     0.040 A 
ATOM     76  C   UNL A   1      46.479  27.766  34.771  1.00  0.00     0.040 A 
ATOM     77  F   UNL A   1      45.638  29.651  33.654  1.00  0.00    -0.206 F 
ATOM     78  C   UNL A   1      46.267  26.564  35.444  1.00  0.00     0.006 A 
ENDBRANCH  54  71
ENDBRANCH  28  29
ENDBRANCH  20  23
ENDBRANCH   1  19
TORSDOF 10
ENDMDL
MODEL 2
REMARK VINA RESULT:     -11.8      5.875     10.602
REMARK SMILES C[C@@H]1Oc2c(C(=O)NCCCNC(=O)c3ccc(-c4c5nc(c(-c6c(F)cccc6F)c6ccc([nH]6)c(-c6c(F)cccc6F)c6nc(c(-c7c(F)cccc7F)c7ccc4[nH]7)C=C6)C=C5)cc3)cccc2[C@@H]1C
REMARK SMILES IDX 11 1 10 2 9 3 8 4 6 5 7 6 5 8 1 9 2 10 3 11 73 12 4 13 72 14
REMARK SMILES IDX 74 15 71 16 69 17 70 18 12 19 13 20 14 22 15 23 16 24 68 25
REMARK SMILES IDX 17 26 67 27 18 28 19 29 20 30 61 31 21 32 66 33 60 34 62 35
REMARK SMILES IDX 22 36 65 37 59 38 58 39 23 41 49 42 32 43 48 44 33 45 36 46
REMARK SMILES IDX 47 47 63 48 34 49 35 50 46 52 64 53 37 54 24 55 25 56 30 57
REMARK SMILES IDX 26 58 27 59 29 60 31 61 28 62 50 63 51 64 56 65 52 66 53 67
REMARK SMILES IDX 55 68 57 69 54 70 38 71 39 72 44 73 40 74 41 75 43 76 45 77
REMARK SMILES IDX 42 78
REMARK H PARENT 8 7 12 21 62 40 36 51
REMARK Flexibility Score: inf
ROOT
ATOM      1  C   UNL A   1      38.923  20.127  25.666  1.00  0.00     0.118 C 
ENDROOT
BRANCH   1   2
ATOM      2  C   UNL A   1      37.650  19.611  25.001  1.00  0.00     0.042 C 
BRANCH   2   3
ATOM      3  C   UNL A   1      36.514  20.634  25.001  1.00  0.00     0.118 C 
BRANCH   3   4
ATOM      4  N   UNL A   1      36.996  21.938  25.421  1.00  0.00    -0.352 N 
ATOM      5  C   UNL A   1      36.391  23.055  25.943  1.00  0.00     0.255 C 
ATOM      6  O   UNL A   1      37.137  24.018  26.126  1.00  0.00    -0.269 OA
ATOM      7  H   UNL A   1      37.968  22.044  25.306  1.00  0.00     0.163 HD
BRANCH   5   8
ATOM      8  C   UNL A   1      34.939  23.137  26.293  1.00  0.00     0.082 A 
ATOM      9  C   UNL A   1      33.187  25.221  22.417  1.00  0.00     0.053 C 
ATOM     10  C   UNL A   1      33.257  25.308  23.936  1.00  0.00     0.177 C 
ATOM     11  O   UNL A   1      34.437  24.588  24.369  1.00  0.00    -0.489 OA
ATOM     12  C   UNL A   1      32.027  24.776  24.703  1.00  0.00     0.060 C 
ATOM     13  C   UNL A   1      34.079  23.902  25.501  1.00  0.00     0.136 A 
ATOM     14  C   UNL A   1      32.718  24.004  25.773  1.00  0.00     0.001 A 
ATOM     15  C   UNL A   1      31.071  23.882  23.918  1.00  0.00     0.017 C 
ATOM     16  C   UNL A   1      32.155  23.373  26.869  1.00  0.00     0.008 A 
ATOM     17  C   UNL A   1      34.344  22.440  27.355  1.00  0.00     0.018 A 
ATOM     18  C   UNL A   1      32.976  22.578  27.658  1.00  0.00     0.001 A 
ENDBRANCH   5   8
ENDBRANCH   3   4
ENDBRANCH   2   3
ENDBRANCH   1   2
BRANCH   1  19
ATOM     19  N   UNL A   1      39.955  19.101  25.752  1.00  0.00    -0.352 N 
ATOM     20  C   UNL A   1      41.309  19.222  25.973  1.00  0.00     0.251 C 
ATOM     21  H   UNL A   1      39.635  18.178  25.634  1.00  0.00     0.163 HD
ATOM     22  O   UNL A   1      42.039  18.253  25.814  1.00  0.00    -0.269 OA
BRANCH  20  23
ATOM     23  C   UNL A   1      41.887  20.524  26.372  1.00  0.00     0.039 A 
ATOM     24  C   UNL A   1      42.038  20.865  27.717  1.00  0.00     0.014 A 
ATOM     25  C   UNL A   1      42.301  21.416  25.376  1.00  0.00     0.014 A 
ATOM     26  C   UNL A   1      42.442  22.150  28.065  1.00  0.00     0.010 A 
ATOM     27  C   UNL A   1      42.785  22.680  25.730  1.00  0.00     0.010 A 
ATOM     28  C   UNL A   1      42.811  23.076  27.076  1.00  0.00    -0.014 A 
BRANCH  28  29
ATOM     29  C   UNL A   1      43.192  24.458  27.472  1.00  0.00     0.031 A 
ATOM     30  C   UNL A   1      44.628  24.904  27.399  1.00  0.00     0.074 A 
ATOM     31  C   UNL A   1      42.235  25.331  27.841  1.00  0.00     0.049 A 
ATOM     32  N   UNL A   1      45.147  26.072  27.686  1.00  0.00    -0.248 NA
ATOM     33  C   UNL A   1      45.613  23.909  26.948  1.00  0.00     0.031 C 
ATOM     34  C   UNL A   1      40.807  25.025  27.941  1.00  0.00     0.029 A 
ATOM     35  N   UNL A   1      42.316  26.657  28.180  1.00  0.00    -0.354 N 
ATOM     36  C   UNL A   1      46.513  25.948  27.466  1.00  0.00     0.074 A 
ATOM     37  C   UNL A   1      46.749  24.581  27.054  1.00  0.00     0.031 C 
ATOM     38  C   UNL A   1      40.141  26.142  28.272  1.00  0.00     0.029 A 
ATOM     39  C   UNL A   1      41.098  27.226  28.462  1.00  0.00     0.049 A 
ATOM     40  H   UNL A   1      43.165  27.154  28.216  1.00  0.00     0.167 HD
ATOM     41  C   UNL A   1      47.481  26.890  27.579  1.00  0.00     0.037 A 
ATOM     42  C   UNL A   1      40.789  28.478  28.848  1.00  0.00     0.037 A 
ATOM     43  C   UNL A   1      47.246  28.253  27.975  1.00  0.00     0.049 A 
ATOM     44  C   UNL A   1      41.887  29.487  29.017  1.00  0.00     0.074 A 
ATOM     45  C   UNL A   1      48.159  29.287  28.104  1.00  0.00     0.029 A 
ATOM     46  N   UNL A   1      46.004  28.776  28.307  1.00  0.00    -0.354 N 
ATOM     47  N   UNL A   1      43.172  29.355  28.795  1.00  0.00    -0.248 NA
ATOM     48  C   UNL A   1      41.492  30.817  29.502  1.00  0.00     0.031 C 
ATOM     49  C   UNL A   1      47.475  30.423  28.552  1.00  0.00     0.029 A 
ATOM     50  C   UNL A   1      46.131  30.109  28.662  1.00  0.00     0.049 A 
ATOM     51  H   UNL A   1      45.158  28.273  28.293  1.00  0.00     0.167 HD
ATOM     52  C   UNL A   1      43.738  30.586  29.102  1.00  0.00     0.074 A 
ATOM     53  C   UNL A   1      42.651  31.458  29.501  1.00  0.00     0.031 C 
ATOM     54  C   UNL A   1      45.040  30.959  29.065  1.00  0.00     0.037 A 
BRANCH  41  55
ATOM     55  C   UNL A   1      48.891  26.466  27.284  1.00  0.00     0.057 A 
ATOM     56  C   UNL A   1      49.402  26.536  25.981  1.00  0.00     0.134 A 
ATOM     57  C   UNL A   1      49.739  25.967  28.283  1.00  0.00     0.134 A 
ATOM     58  F   UNL A   1      48.643  26.998  24.977  1.00  0.00    -0.206 F 
ATOM     59  C   UNL A   1      50.703  26.128  25.683  1.00  0.00     0.040 A 
ATOM     60  C   UNL A   1      51.049  25.578  28.001  1.00  0.00     0.040 A 
ATOM     61  F   UNL A   1      49.317  25.887  29.554  1.00  0.00    -0.206 F 
ATOM     62  C   UNL A   1      51.533  25.653  26.697  1.00  0.00     0.006 A 
ENDBRANCH  41  55
BRANCH  42  63
ATOM     63  C   UNL A   1      39.376  28.843  29.118  1.00  0.00     0.057 A 
ATOM     64  C   UNL A   1      38.563  29.393  28.118  1.00  0.00     0.134 A 
ATOM     65  C   UNL A   1      38.801  28.639  30.377  1.00  0.00     0.134 A 
ATOM     66  F   UNL A   1      39.056  29.616  26.892  1.00  0.00    -0.206 F 
ATOM     67  C   UNL A   1      37.234  29.736  28.365  1.00  0.00     0.040 A 
ATOM     68  C   UNL A   1      37.465  28.953  30.630  1.00  0.00     0.040 A 
ATOM     69  F   UNL A   1      39.522  28.095  31.368  1.00  0.00    -0.206 F 
ATOM     70  C   UNL A   1      36.679  29.509  29.622  1.00  0.00     0.006 A 
ENDBRANCH  42  63
BRANCH  54  71
ATOM     71  C   UNL A   1      45.349  32.375  29.453  1.00  0.00     0.057 A 
ATOM     72  C   UNL A   1      45.671  32.701  30.776  1.00  0.00     0.134 A 
ATOM     73  C   UNL A   1      45.321  33.416  28.517  1.00  0.00     0.134 A 
ATOM     74  F   UNL A   1      45.709  31.750  31.722  1.00  0.00    -0.206 F 
ATOM     75  C   UNL A   1      45.956  34.014  31.154  1.00  0.00     0.040 A 
ATOM     76  C   UNL A   1      45.629  34.729  28.877  1.00  0.00     0.040 A 
ATOM     77  F   UNL A   1      45.036  33.166  27.230  1.00  0.00    -0.206 F 
ATOM     78  C   UNL A   1      45.944  35.030  30.202  1.00  0.00     0.006 A 
ENDBRANCH  54  71
ENDBRANCH  28  29
ENDBRANCH  20  23
ENDBRANCH   1  19
TORSDOF 10
ENDMDL
MODEL 3
REMARK VINA RESULT:     -11.8      5.875     10.579
REMARK SMILES C[C@@H]1Oc2c(C(=O)NCCCNC(=O)c3ccc(-c4c5nc(c(-c6c(F)cccc6F)c6ccc([nH]6)c(-c6c(F)cccc6F)c6nc(c(-c7c(F)cccc7F)c7ccc4[nH]7)C=C6)C=C5)cc3)cccc2[C@@H]1C
REMARK SMILES IDX 11 1 10 2 9 3 8 4 6 5 7 6 5 8 1 9 2 10 3 11 73 12 4 13 72 14
REMARK SMILES IDX 74 15 71 16 69 17 70 18 12 19 13 20 14 22 15 23 16 24 68 25
REMARK SMILES IDX 17 26 67 27 18 28 19 29 20 30 61 31 21 32 66 33 60 34 62 35
REMARK SMILES IDX 22 36 65 37 59 38 58 39 23 41 49 42 32 43 48 44 33 45 36 46
REMARK SMILES IDX 47 47 63 48 34 49 35 50 46 52 64 53 37 54 24 55 25 56 30 57
REMARK SMILES IDX 26 58 27 59 29 60 31 61 28 62 50 63 51 64 56 65 52 66 53 67
REMARK SMILES IDX 55 68 57 69 54 70 38 71 39 72 44 73 40 74 41 75 43 76 45 77
REMARK SMILES IDX 42 78
REMARK H PARENT 8 7 12 21 62 40 36 51
REMARK Flexibility Score: inf
ROOT
ATOM      1  C   UNL A   1      38.888  20.092  25.750  1.00  0.00     0.118 C 
ENDROOT
BRANCH   1   2
ATOM      2  C   UNL A   1      37.664  19.638  24.958  1.00  0.00     0.042 C 
BRANCH   2   3
ATOM      3  C   UNL A   1      36.513  20.644  25.001  1.00  0.00     0.118 C 
BRANCH   3   4
ATOM      4  N   UNL A   1      36.988  21.951  25.420  1.00  0.00    -0.352 N 
ATOM      5  C   UNL A   1      36.376  23.065  25.942  1.00  0.00     0.255 C 
ATOM      6  O   UNL A   1      37.117  24.032  26.124  1.00  0.00    -0.269 OA
ATOM      7  H   UNL A   1      37.959  22.063  25.303  1.00  0.00     0.163 HD
BRANCH   5   8
ATOM      8  C   UNL A   1      34.924  23.138  26.294  1.00  0.00     0.082 A 
ATOM      9  C   UNL A   1      33.145  25.155  22.394  1.00  0.00     0.053 C 
ATOM     10  C   UNL A   1      33.218  25.262  23.912  1.00  0.00     0.177 C 
ATOM     11  O   UNL A   1      34.406  24.559  24.352  1.00  0.00    -0.489 OA
ATOM     12  C   UNL A   1      31.994  24.729  24.689  1.00  0.00     0.060 C 
ATOM     13  C   UNL A   1      34.056  23.884  25.494  1.00  0.00     0.136 A 
ATOM     14  C   UNL A   1      32.694  23.977  25.767  1.00  0.00     0.001 A 
ATOM     15  C   UNL A   1      31.045  23.815  23.917  1.00  0.00     0.017 C 
ATOM     16  C   UNL A   1      32.139  23.356  26.872  1.00  0.00     0.008 A 
ATOM     17  C   UNL A   1      34.338  22.450  27.366  1.00  0.00     0.018 A 
ATOM     18  C   UNL A   1      32.970  22.578  27.670  1.00  0.00     0.001 A 
ENDBRANCH   5   8
ENDBRANCH   3   4
ENDBRANCH   2   3
ENDBRANCH   1   2
BRANCH   1  19
ATOM     19  N   UNL A   1      39.931  19.074  25.784  1.00  0.00    -0.352 N 
ATOM     20  C   UNL A   1      41.289  19.203  25.964  1.00  0.00     0.251 C 
ATOM     21  H   UNL A   1      39.614  18.150  25.660  1.00  0.00     0.163 HD
ATOM     22  O   UNL A   1      42.023  18.243  25.764  1.00  0.00    -0.269 OA
BRANCH  20  23
ATOM     23  C   UNL A   1      41.870  20.503  26.368  1.00  0.00     0.039 A 
ATOM     24  C   UNL A   1      42.001  20.847  27.714  1.00  0.00     0.014 A 
ATOM     25  C   UNL A   1      42.305  21.389  25.376  1.00  0.00     0.014 A 
ATOM     26  C   UNL A   1      42.408  22.131  28.064  1.00  0.00     0.010 A 
ATOM     27  C   UNL A   1      42.791  22.651  25.733  1.00  0.00     0.010 A 
ATOM     28  C   UNL A   1      42.798  23.051  27.078  1.00  0.00    -0.014 A 
BRANCH  28  29
ATOM     29  C   UNL A   1      43.181  24.432  27.475  1.00  0.00     0.031 A 
ATOM     30  C   UNL A   1      44.618  24.875  27.407  1.00  0.00     0.074 A 
ATOM     31  C   UNL A   1      42.225  25.307  27.842  1.00  0.00     0.049 A 
ATOM     32  N   UNL A   1      45.139  26.042  27.696  1.00  0.00    -0.248 NA
ATOM     33  C   UNL A   1      45.602  23.877  26.959  1.00  0.00     0.031 C 
ATOM     34  C   UNL A   1      40.796  25.005  27.938  1.00  0.00     0.029 A 
ATOM     35  N   UNL A   1      42.308  26.633  28.181  1.00  0.00    -0.354 N 
ATOM     36  C   UNL A   1      46.506  25.915  27.480  1.00  0.00     0.074 A 
ATOM     37  C   UNL A   1      46.740  24.547  27.068  1.00  0.00     0.031 C 
ATOM     38  C   UNL A   1      40.131  26.123  28.266  1.00  0.00     0.029 A 
ATOM     39  C   UNL A   1      41.091  27.205  28.460  1.00  0.00     0.049 A 
ATOM     40  H   UNL A   1      43.159  27.128  28.220  1.00  0.00     0.167 HD
ATOM     41  C   UNL A   1      47.476  26.853  27.596  1.00  0.00     0.037 A 
ATOM     42  C   UNL A   1      40.783  28.458  28.845  1.00  0.00     0.037 A 
ATOM     43  C   UNL A   1      47.243  28.218  27.992  1.00  0.00     0.049 A 
ATOM     44  C   UNL A   1      41.884  29.464  29.018  1.00  0.00     0.074 A 
ATOM     45  C   UNL A   1      48.158  29.249  28.123  1.00  0.00     0.029 A 
ATOM     46  N   UNL A   1      46.002  28.743  28.320  1.00  0.00    -0.354 N 
ATOM     47  N   UNL A   1      43.170  29.329  28.799  1.00  0.00    -0.248 NA
ATOM     48  C   UNL A   1      41.490  30.795  29.502  1.00  0.00     0.031 C 
ATOM     49  C   UNL A   1      47.476  30.387  28.570  1.00  0.00     0.029 A 
ATOM     50  C   UNL A   1      46.130  30.076  28.676  1.00  0.00     0.049 A 
ATOM     51  H   UNL A   1      45.154  28.242  28.303  1.00  0.00     0.167 HD
ATOM     52  C   UNL A   1      43.737  30.559  29.109  1.00  0.00     0.074 A 
ATOM     53  C   UNL A   1      42.651  31.433  29.504  1.00  0.00     0.031 C 
ATOM     54  C   UNL A   1      45.040  30.929  29.075  1.00  0.00     0.037 A 
BRANCH  41  55
ATOM     55  C   UNL A   1      48.886  26.427  27.305  1.00  0.00     0.057 A 
ATOM     56  C   UNL A   1      49.723  25.974  28.334  1.00  0.00     0.134 A 
ATOM     57  C   UNL A   1      49.425  26.484  26.013  1.00  0.00     0.134 A 
ATOM     58  F   UNL A   1      49.273  25.900  29.594  1.00  0.00    -0.206 F 
ATOM     59  C   UNL A   1      51.043  25.592  28.087  1.00  0.00     0.040 A 
ATOM     60  C   UNL A   1      50.736  26.083  25.750  1.00  0.00     0.040 A 
ATOM     61  F   UNL A   1      48.674  26.895  24.981  1.00  0.00    -0.206 F 
ATOM     62  C   UNL A   1      51.551  25.640  26.790  1.00  0.00     0.006 A 
ENDBRANCH  41  55
BRANCH  42  63
ATOM     63  C   UNL A   1      39.371  28.826  29.111  1.00  0.00     0.057 A 
ATOM     64  C   UNL A   1      38.789  28.616  30.368  1.00  0.00     0.134 A 
ATOM     65  C   UNL A   1      38.574  29.410  28.121  1.00  0.00     0.134 A 
ATOM     66  F   UNL A   1      39.499  28.057  31.358  1.00  0.00    -0.206 F 
ATOM     67  C   UNL A   1      37.462  28.962  30.625  1.00  0.00     0.040 A 
ATOM     68  C   UNL A   1      37.253  29.786  28.372  1.00  0.00     0.040 A 
ATOM     69  F   UNL A   1      39.082  29.657  26.904  1.00  0.00    -0.206 F 
ATOM     70  C   UNL A   1      36.693  29.557  29.627  1.00  0.00     0.006 A 
ENDBRANCH  42  63
BRANCH  54  71
ATOM     71  C   UNL A   1      45.352  32.343  29.465  1.00  0.00     0.057 A 
ATOM     72  C   UNL A   1      45.324  33.371  28.515  1.00  0.00     0.134 A 
ATOM     73  C   UNL A   1      45.687  32.685  30.781  1.00  0.00     0.134 A 
ATOM     74  F   UNL A   1      45.016  33.108  27.236  1.00  0.00    -0.206 F 
ATOM     75  C   UNL A   1      45.617  34.691  28.861  1.00  0.00     0.040 A 
ATOM     76  C   UNL A   1      45.957  34.006  31.145  1.00  0.00     0.040 A 
ATOM     77  F   UNL A   1      45.715  31.749  31.741  1.00  0.00    -0.206 F 
ATOM     78  C   UNL A   1      45.927  35.012  30.180  1.00  0.00     0.006 A 
ENDBRANCH  54  71
ENDBRANCH  28  29
ENDBRANCH  20  23
ENDBRANCH   1  19
TORSDOF 10
ENDMDL
