MODEL 1
REMARK VINA RESULT:     -11.9      0.000      0.000
REMARK SMILES Cc1nsc(N[C@@H](C)C2CCCC2)c1C(=O)NCCCNC(=O)c1ccc(-c2c3nc(c(-c4c(F)cccc4F)c4ccc([nH]4)c(-c4c(F)cccc4F)c4nc(c(-c5c(F)cccc5F)c5ccc2[nH]5)C=C4)C=C3)cc1
REMARK SMILES IDX 18 1 17 2 15 3 16 4 14 6 1 7 2 8 3 9 4 10 5 11 6 12 7 14
REMARK SMILES IDX 8 15 9 16 10 17 13 18 11 19 12 20 19 21 20 22 21 23 22 24
REMARK SMILES IDX 23 26 24 27 25 28 77 29 26 30 76 31 27 32 28 33 29 34 70 35
REMARK SMILES IDX 30 36 75 37 69 38 71 39 31 40 74 41 68 42 67 43 32 45 58 46
REMARK SMILES IDX 41 47 57 48 42 49 45 50 56 51 72 52 43 53 44 54 55 56 73 57
REMARK SMILES IDX 46 58 33 59 34 60 39 61 35 62 36 63 38 64 40 65 37 66 59 67
REMARK SMILES IDX 60 68 65 69 61 70 62 71 64 72 66 73 63 74 47 75 48 76 53 77
REMARK SMILES IDX 49 78 50 79 52 80 54 81 51 82
REMARK H PARENT 17 5 6 13 21 25 71 44 45 55
REMARK Flexibility Score: inf
ROOT
ATOM      1  C   UNL A   1      33.641  28.452  26.709  1.00  0.00     0.118 C 
ENDROOT
BRANCH   1   2
ATOM      2  N   UNL A   1      32.680  27.379  26.847  1.00  0.00    -0.352 N 
ATOM      3  C   UNL A   1      32.275  26.340  26.052  1.00  0.00     0.256 C 
ATOM      4  O   UNL A   1      31.432  25.615  26.599  1.00  0.00    -0.269 OA
ATOM      5  H   UNL A   1      32.210  27.401  27.712  1.00  0.00     0.163 HD
BRANCH   3   6
ATOM      6  C   UNL A   1      32.803  26.015  24.712  1.00  0.00     0.097 A 
ATOM      7  C   UNL A   1      34.977  24.473  24.995  1.00  0.00     0.069 C 
ATOM      8  C   UNL A   1      33.912  25.188  24.244  1.00  0.00     0.066 A 
ATOM      9  N   UNL A   1      34.057  25.083  22.923  1.00  0.00    -0.195 NA
ATOM     10  S   UNL A   1      32.984  26.054  22.172  1.00  0.00    -0.018 S 
ATOM     11  C   UNL A   1      32.242  26.661  23.592  1.00  0.00     0.122 A 
BRANCH  11  12
ATOM     12  N   UNL A   1      31.265  27.614  23.606  1.00  0.00    -0.372 N 
ATOM     13  H   UNL A   1      31.473  28.457  24.071  1.00  0.00     0.161 HD
BRANCH  12  14
ATOM     14  C   UNL A   1      29.943  27.504  23.003  1.00  0.00     0.080 C 
ATOM     15  C   UNL A   1      29.089  26.600  23.893  1.00  0.00     0.031 C 
BRANCH  14  16
ATOM     16  C   UNL A   1      29.374  28.919  22.759  1.00  0.00     0.011 C 
ATOM     17  C   UNL A   1      27.853  29.024  22.881  1.00  0.00     0.006 C 
ATOM     18  C   UNL A   1      29.860  30.020  23.708  1.00  0.00     0.006 C 
ATOM     19  C   UNL A   1      27.597  30.525  22.919  1.00  0.00     0.000 C 
ATOM     20  C   UNL A   1      28.819  31.134  23.599  1.00  0.00     0.000 C 
ENDBRANCH  14  16
ENDBRANCH  12  14
ENDBRANCH  11  12
ENDBRANCH   3   6
ENDBRANCH   1   2
BRANCH   1  21
ATOM     21  C   UNL A   1      33.076  29.769  27.259  1.00  0.00     0.042 C 
BRANCH  21  22
ATOM     22  C   UNL A   1      34.058  30.922  27.198  1.00  0.00     0.118 C 
BRANCH  22  23
ATOM     23  N   UNL A   1      33.982  31.795  28.368  1.00  0.00    -0.352 N 
ATOM     24  C   UNL A   1      34.834  31.826  29.462  1.00  0.00     0.251 C 
ATOM     25  H   UNL A   1      33.238  32.439  28.381  1.00  0.00     0.163 HD
ATOM     26  O   UNL A   1      34.492  32.322  30.518  1.00  0.00    -0.269 OA
BRANCH  24  27
ATOM     27  C   UNL A   1      36.172  31.227  29.308  1.00  0.00     0.039 A 
ATOM     28  C   UNL A   1      37.326  32.011  29.233  1.00  0.00     0.014 A 
ATOM     29  C   UNL A   1      36.251  29.841  29.324  1.00  0.00     0.014 A 
ATOM     30  C   UNL A   1      38.568  31.379  29.268  1.00  0.00     0.010 A 
ATOM     31  C   UNL A   1      37.456  29.245  29.571  1.00  0.00     0.010 A 
ATOM     32  C   UNL A   1      38.623  29.992  29.464  1.00  0.00    -0.014 A 
BRANCH  32  33
ATOM     33  C   UNL A   1      39.891  29.289  29.626  1.00  0.00     0.031 A 
ATOM     34  C   UNL A   1      40.328  29.052  31.030  1.00  0.00     0.074 A 
ATOM     35  C   UNL A   1      40.507  28.684  28.586  1.00  0.00     0.049 A 
ATOM     36  N   UNL A   1      41.382  29.520  31.613  1.00  0.00    -0.248 NA
ATOM     37  C   UNL A   1      39.444  28.289  31.924  1.00  0.00     0.031 C 
ATOM     38  C   UNL A   1      40.057  28.565  27.192  1.00  0.00     0.029 A 
ATOM     39  N   UNL A   1      41.636  27.930  28.595  1.00  0.00    -0.354 N 
ATOM     40  C   UNL A   1      41.398  28.967  32.891  1.00  0.00     0.074 A 
ATOM     41  C   UNL A   1      40.111  28.351  33.079  1.00  0.00     0.031 C 
ATOM     42  C   UNL A   1      40.758  27.594  26.569  1.00  0.00     0.029 A 
ATOM     43  C   UNL A   1      41.822  27.160  27.454  1.00  0.00     0.049 A 
ATOM     44  H   UNL A   1      42.271  27.929  29.347  1.00  0.00     0.167 HD
ATOM     45  C   UNL A   1      42.553  28.881  33.612  1.00  0.00     0.037 A 
ATOM     46  C   UNL A   1      42.776  26.220  27.256  1.00  0.00     0.037 A 
ATOM     47  C   UNL A   1      43.588  29.704  33.038  1.00  0.00     0.049 A 
ATOM     48  C   UNL A   1      43.855  26.482  28.239  1.00  0.00     0.074 A 
ATOM     49  C   UNL A   1      43.719  31.055  32.779  1.00  0.00     0.029 A 
ATOM     50  N   UNL A   1      44.550  29.084  32.278  1.00  0.00    -0.354 N 
ATOM     51  N   UNL A   1      44.636  27.527  28.190  1.00  0.00    -0.248 NA
ATOM     52  C   UNL A   1      43.759  25.838  29.541  1.00  0.00     0.031 C 
ATOM     53  C   UNL A   1      44.386  31.122  31.521  1.00  0.00     0.029 A 
ATOM     54  C   UNL A   1      44.685  29.817  31.126  1.00  0.00     0.049 A 
ATOM     55  H   UNL A   1      45.048  28.268  32.514  1.00  0.00     0.167 HD
ATOM     56  C   UNL A   1      44.773  27.929  29.511  1.00  0.00     0.074 A 
ATOM     57  C   UNL A   1      44.296  26.796  30.304  1.00  0.00     0.031 C 
ATOM     58  C   UNL A   1      44.978  29.240  29.835  1.00  0.00     0.037 A 
BRANCH  45  59
ATOM     59  C   UNL A   1      42.870  27.808  34.622  1.00  0.00     0.057 A 
ATOM     60  C   UNL A   1      43.201  26.514  34.175  1.00  0.00     0.134 A 
ATOM     61  C   UNL A   1      42.580  27.908  35.997  1.00  0.00     0.134 A 
ATOM     62  F   UNL A   1      43.488  26.284  32.883  1.00  0.00    -0.206 F 
ATOM     63  C   UNL A   1      43.168  25.396  35.016  1.00  0.00     0.040 A 
ATOM     64  C   UNL A   1      42.596  26.807  36.857  1.00  0.00     0.040 A 
ATOM     65  F   UNL A   1      42.167  29.051  36.558  1.00  0.00    -0.206 F 
ATOM     66  C   UNL A   1      42.858  25.539  36.362  1.00  0.00     0.006 A 
ENDBRANCH  45  59
BRANCH  46  67
ATOM     67  C   UNL A   1      42.717  24.998  26.426  1.00  0.00     0.057 A 
ATOM     68  C   UNL A   1      43.562  24.826  25.322  1.00  0.00     0.134 A 
ATOM     69  C   UNL A   1      42.009  23.856  26.844  1.00  0.00     0.134 A 
ATOM     70  F   UNL A   1      44.305  25.847  24.870  1.00  0.00    -0.206 F 
ATOM     71  C   UNL A   1      43.717  23.587  24.688  1.00  0.00     0.040 A 
ATOM     72  C   UNL A   1      42.148  22.615  26.215  1.00  0.00     0.040 A 
ATOM     73  F   UNL A   1      41.224  23.886  27.931  1.00  0.00    -0.206 F 
ATOM     74  C   UNL A   1      43.017  22.473  25.141  1.00  0.00     0.006 A 
ENDBRANCH  46  67
BRANCH  58  75
ATOM     75  C   UNL A   1      45.278  30.205  28.717  1.00  0.00     0.057 A 
ATOM     76  C   UNL A   1      46.553  30.388  28.160  1.00  0.00     0.134 A 
ATOM     77  C   UNL A   1      44.214  30.844  28.073  1.00  0.00     0.134 A 
ATOM     78  F   UNL A   1      47.620  29.738  28.634  1.00  0.00    -0.206 F 
ATOM     79  C   UNL A   1      46.765  31.205  27.045  1.00  0.00     0.040 A 
ATOM     80  C   UNL A   1      44.407  31.636  26.939  1.00  0.00     0.040 A 
ATOM     81  F   UNL A   1      42.957  30.668  28.509  1.00  0.00    -0.206 F 
ATOM     82  C   UNL A   1      45.688  31.827  26.426  1.00  0.00     0.006 A 
ENDBRANCH  58  75
ENDBRANCH  32  33
ENDBRANCH  24  27
ENDBRANCH  22  23
ENDBRANCH  21  22
ENDBRANCH   1  21
TORSDOF 13
ENDMDL
MODEL 2
REMARK VINA RESULT:     -11.7      4.236      7.042
REMARK SMILES Cc1nsc(N[C@@H](C)C2CCCC2)c1C(=O)NCCCNC(=O)c1ccc(-c2c3nc(c(-c4c(F)cccc4F)c4ccc([nH]4)c(-c4c(F)cccc4F)c4nc(c(-c5c(F)cccc5F)c5ccc2[nH]5)C=C4)C=C3)cc1
REMARK SMILES IDX 18 1 17 2 15 3 16 4 14 6 1 7 2 8 3 9 4 10 5 11 6 12 7 14
REMARK SMILES IDX 8 15 9 16 10 17 13 18 11 19 12 20 19 21 20 22 21 23 22 24
REMARK SMILES IDX 23 26 24 27 25 28 77 29 26 30 76 31 27 32 28 33 29 34 70 35
REMARK SMILES IDX 30 36 75 37 69 38 71 39 31 40 74 41 68 42 67 43 32 45 58 46
REMARK SMILES IDX 41 47 57 48 42 49 45 50 56 51 72 52 43 53 44 54 55 56 73 57
REMARK SMILES IDX 46 58 33 59 34 60 39 61 35 62 36 63 38 64 40 65 37 66 59 67
REMARK SMILES IDX 60 68 65 69 61 70 62 71 64 72 66 73 63 74 47 75 48 76 53 77
REMARK SMILES IDX 49 78 50 79 52 80 54 81 51 82
REMARK H PARENT 17 5 6 13 21 25 71 44 45 55
REMARK Flexibility Score: inf
ROOT
ATOM      1  C   UNL A   1      35.662  33.736  33.710  1.00  0.00     0.118 C 
ENDROOT
BRANCH   1   2
ATOM      2  N   UNL A   1      36.825  34.546  34.002  1.00  0.00    -0.352 N 
ATOM      3  C   UNL A   1      37.977  34.355  34.718  1.00  0.00     0.256 C 
ATOM      4  O   UNL A   1      38.743  35.328  34.667  1.00  0.00    -0.269 OA
ATOM      5  H   UNL A   1      36.777  35.440  33.592  1.00  0.00     0.163 HD
BRANCH   3   6
ATOM      6  C   UNL A   1      38.363  33.119  35.428  1.00  0.00     0.097 A 
ATOM      7  C   UNL A   1      36.963  32.964  37.708  1.00  0.00     0.069 C 
ATOM      8  C   UNL A   1      37.910  32.489  36.665  1.00  0.00     0.066 A 
ATOM      9  N   UNL A   1      38.464  31.316  36.970  1.00  0.00    -0.195 NA
ATOM     10  S   UNL A   1      39.634  30.962  35.892  1.00  0.00    -0.018 S 
ATOM     11  C   UNL A   1      39.448  32.368  34.931  1.00  0.00     0.122 A 
BRANCH  11  12
ATOM     12  N   UNL A   1      40.236  32.684  33.862  1.00  0.00    -0.372 N 
ATOM     13  H   UNL A   1      41.038  33.225  34.046  1.00  0.00     0.161 HD
BRANCH  12  14
ATOM     14  C   UNL A   1      40.002  32.301  32.477  1.00  0.00     0.080 C 
ATOM     15  C   UNL A   1      38.635  31.621  32.396  1.00  0.00     0.031 C 
BRANCH  14  16
ATOM     16  C   UNL A   1      40.179  33.538  31.568  1.00  0.00     0.011 C 
ATOM     17  C   UNL A   1      41.055  33.304  30.336  1.00  0.00     0.006 C 
ATOM     18  C   UNL A   1      38.900  34.123  30.960  1.00  0.00     0.006 C 
ATOM     19  C   UNL A   1      40.805  34.536  29.477  1.00  0.00     0.000 C 
ATOM     20  C   UNL A   1      39.366  34.953  29.764  1.00  0.00     0.000 C 
ENDBRANCH  14  16
ENDBRANCH  12  14
ENDBRANCH  11  12
ENDBRANCH   3   6
ENDBRANCH   1   2
BRANCH   1  21
ATOM     21  C   UNL A   1      35.438  33.622  32.197  1.00  0.00     0.042 C 
BRANCH  21  22
ATOM     22  C   UNL A   1      35.292  32.193  31.712  1.00  0.00     0.118 C 
BRANCH  22  23
ATOM     23  N   UNL A   1      34.488  32.086  30.496  1.00  0.00    -0.352 N 
ATOM     24  C   UNL A   1      34.920  31.767  29.217  1.00  0.00     0.251 C 
ATOM     25  H   UNL A   1      33.524  32.259  30.597  1.00  0.00     0.163 HD
ATOM     26  O   UNL A   1      34.257  32.048  28.237  1.00  0.00    -0.269 OA
BRANCH  24  27
ATOM     27  C   UNL A   1      36.217  31.082  29.080  1.00  0.00     0.039 A 
ATOM     28  C   UNL A   1      37.390  31.779  28.777  1.00  0.00     0.014 A 
ATOM     29  C   UNL A   1      36.245  29.719  29.347  1.00  0.00     0.014 A 
ATOM     30  C   UNL A   1      38.606  31.101  28.838  1.00  0.00     0.010 A 
ATOM     31  C   UNL A   1      37.443  29.117  29.612  1.00  0.00     0.010 A 
ATOM     32  C   UNL A   1      38.625  29.771  29.284  1.00  0.00    -0.014 A 
BRANCH  32  33
ATOM     33  C   UNL A   1      39.875  29.045  29.481  1.00  0.00     0.031 A 
ATOM     34  C   UNL A   1      40.301  28.856  30.895  1.00  0.00     0.074 A 
ATOM     35  C   UNL A   1      40.480  28.384  28.469  1.00  0.00     0.049 A 
ATOM     36  N   UNL A   1      41.363  29.321  31.463  1.00  0.00    -0.248 NA
ATOM     37  C   UNL A   1      39.395  28.152  31.815  1.00  0.00     0.031 C 
ATOM     38  C   UNL A   1      40.033  28.218  27.080  1.00  0.00     0.029 A 
ATOM     39  N   UNL A   1      41.590  27.603  28.515  1.00  0.00    -0.354 N 
ATOM     40  C   UNL A   1      41.361  28.821  32.764  1.00  0.00     0.074 A 
ATOM     41  C   UNL A   1      40.058  28.245  32.971  1.00  0.00     0.031 C 
ATOM     42  C   UNL A   1      40.713  27.206  26.500  1.00  0.00     0.029 A 
ATOM     43  C   UNL A   1      41.762  26.783  27.407  1.00  0.00     0.049 A 
ATOM     44  H   UNL A   1      42.222  27.618  29.270  1.00  0.00     0.167 HD
ATOM     45  C   UNL A   1      42.511  28.737  33.493  1.00  0.00     0.037 A 
ATOM     46  C   UNL A   1      42.694  25.813  27.252  1.00  0.00     0.037 A 
ATOM     47  C   UNL A   1      43.567  29.511  32.891  1.00  0.00     0.049 A 
ATOM     48  C   UNL A   1      43.776  26.090  28.230  1.00  0.00     0.074 A 
ATOM     49  C   UNL A   1      43.732  30.847  32.577  1.00  0.00     0.029 A 
ATOM     50  N   UNL A   1      44.517  28.837  32.162  1.00  0.00    -0.354 N 
ATOM     51  N   UNL A   1      44.582  27.112  28.141  1.00  0.00    -0.248 NA
ATOM     52  C   UNL A   1      43.658  25.502  29.556  1.00  0.00     0.031 C 
ATOM     53  C   UNL A   1      44.405  30.846  31.321  1.00  0.00     0.029 A 
ATOM     54  C   UNL A   1      44.674  29.518  30.981  1.00  0.00     0.049 A 
ATOM     55  H   UNL A   1      44.994  28.020  32.434  1.00  0.00     0.167 HD
ATOM     56  C   UNL A   1      44.723  27.564  29.446  1.00  0.00     0.074 A 
ATOM     57  C   UNL A   1      44.215  26.477  30.282  1.00  0.00     0.031 C 
ATOM     58  C   UNL A   1      44.958  28.882  29.716  1.00  0.00     0.037 A 
BRANCH  45  59
ATOM     59  C   UNL A   1      42.797  27.700  34.547  1.00  0.00     0.057 A 
ATOM     60  C   UNL A   1      42.854  28.087  35.900  1.00  0.00     0.134 A 
ATOM     61  C   UNL A   1      43.304  26.414  34.273  1.00  0.00     0.134 A 
ATOM     62  F   UNL A   1      42.412  29.293  36.290  1.00  0.00    -0.206 F 
ATOM     63  C   UNL A   1      43.442  27.288  36.888  1.00  0.00     0.040 A 
ATOM     64  C   UNL A   1      43.846  25.586  35.261  1.00  0.00     0.040 A 
ATOM     65  F   UNL A   1      43.398  25.934  33.027  1.00  0.00    -0.206 F 
ATOM     66  C   UNL A   1      43.947  26.035  36.568  1.00  0.00     0.006 A 
ENDBRANCH  45  59
BRANCH  46  67
ATOM     67  C   UNL A   1      42.609  24.560  26.473  1.00  0.00     0.057 A 
ATOM     68  C   UNL A   1      43.447  24.327  25.376  1.00  0.00     0.134 A 
ATOM     69  C   UNL A   1      41.880  23.450  26.939  1.00  0.00     0.134 A 
ATOM     70  F   UNL A   1      44.209  25.313  24.881  1.00  0.00    -0.206 F 
ATOM     71  C   UNL A   1      43.576  23.060  24.792  1.00  0.00     0.040 A 
ATOM     72  C   UNL A   1      41.992  22.182  26.360  1.00  0.00     0.040 A 
ATOM     73  F   UNL A   1      41.098  23.539  28.025  1.00  0.00    -0.206 F 
ATOM     74  C   UNL A   1      42.855  21.979  25.291  1.00  0.00     0.006 A 
ENDBRANCH  46  67
BRANCH  58  75
ATOM     75  C   UNL A   1      45.286  29.793  28.562  1.00  0.00     0.057 A 
ATOM     76  C   UNL A   1      44.332  30.548  27.862  1.00  0.00     0.134 A 
ATOM     77  C   UNL A   1      46.628  30.042  28.259  1.00  0.00     0.134 A 
ATOM     78  F   UNL A   1      43.030  30.464  28.151  1.00  0.00    -0.206 F 
ATOM     79  C   UNL A   1      44.694  31.471  26.876  1.00  0.00     0.040 A 
ATOM     80  C   UNL A   1      47.006  30.986  27.301  1.00  0.00     0.040 A 
ATOM     81  F   UNL A   1      47.602  29.405  28.929  1.00  0.00    -0.206 F 
ATOM     82  C   UNL A   1      46.037  31.697  26.597  1.00  0.00     0.006 A 
ENDBRANCH  58  75
ENDBRANCH  32  33
ENDBRANCH  24  27
ENDBRANCH  22  23
ENDBRANCH  21  22
ENDBRANCH   1  21
TORSDOF 13
ENDMDL
MODEL 3
REMARK VINA RESULT:     -11.6      3.446      8.312
REMARK SMILES Cc1nsc(N[C@@H](C)C2CCCC2)c1C(=O)NCCCNC(=O)c1ccc(-c2c3nc(c(-c4c(F)cccc4F)c4ccc([nH]4)c(-c4c(F)cccc4F)c4nc(c(-c5c(F)cccc5F)c5ccc2[nH]5)C=C4)C=C3)cc1
REMARK SMILES IDX 18 1 17 2 15 3 16 4 14 6 1 7 2 8 3 9 4 10 5 11 6 12 7 14
REMARK SMILES IDX 8 15 9 16 10 17 13 18 11 19 12 20 19 21 20 22 21 23 22 24
REMARK SMILES IDX 23 26 24 27 25 28 77 29 26 30 76 31 27 32 28 33 29 34 70 35
REMARK SMILES IDX 30 36 75 37 69 38 71 39 31 40 74 41 68 42 67 43 32 45 58 46
REMARK SMILES IDX 41 47 57 48 42 49 45 50 56 51 72 52 43 53 44 54 55 56 73 57
REMARK SMILES IDX 46 58 33 59 34 60 39 61 35 62 36 63 38 64 40 65 37 66 59 67
REMARK SMILES IDX 60 68 65 69 61 70 62 71 64 72 66 73 63 74 47 75 48 76 53 77
REMARK SMILES IDX 49 78 50 79 52 80 54 81 51 82
REMARK H PARENT 17 5 6 13 21 25 71 44 45 55
REMARK Flexibility Score: inf
ROOT
ATOM      1  C   UNL A   1      36.791  22.408  24.678  1.00  0.00     0.118 C 
ENDROOT
BRANCH   1   2
ATOM      2  N   UNL A   1      35.946  22.859  23.594  1.00  0.00    -0.352 N 
ATOM      3  C   UNL A   1      34.671  23.353  23.508  1.00  0.00     0.256 C 
ATOM      4  O   UNL A   1      34.350  23.660  22.351  1.00  0.00    -0.269 OA
ATOM      5  H   UNL A   1      36.388  22.795  22.717  1.00  0.00     0.163 HD
BRANCH   3   6
ATOM      6  C   UNL A   1      33.755  23.595  24.640  1.00  0.00     0.097 A 
ATOM      7  C   UNL A   1      33.928  26.173  25.350  1.00  0.00     0.069 C 
ATOM      8  C   UNL A   1      33.390  24.788  25.399  1.00  0.00     0.066 A 
ATOM      9  N   UNL A   1      32.461  24.631  26.342  1.00  0.00    -0.195 NA
ATOM     10  S   UNL A   1      32.071  23.054  26.473  1.00  0.00    -0.018 S 
ATOM     11  C   UNL A   1      33.122  22.488  25.243  1.00  0.00     0.122 A 
BRANCH  11  12
ATOM     12  N   UNL A   1      33.296  21.174  24.919  1.00  0.00    -0.372 N 
ATOM     13  H   UNL A   1      34.156  20.765  25.168  1.00  0.00     0.161 HD
BRANCH  12  14
ATOM     14  C   UNL A   1      32.334  20.319  24.237  1.00  0.00     0.080 C 
ATOM     15  C   UNL A   1      32.098  20.891  22.839  1.00  0.00     0.031 C 
BRANCH  14  16
ATOM     16  C   UNL A   1      32.831  18.857  24.278  1.00  0.00     0.011 C 
ATOM     17  C   UNL A   1      32.672  18.093  22.963  1.00  0.00     0.006 C 
ATOM     18  C   UNL A   1      34.315  18.653  24.602  1.00  0.00     0.006 C 
ATOM     19  C   UNL A   1      33.507  16.837  23.172  1.00  0.00     0.000 C 
ATOM     20  C   UNL A   1      34.650  17.251  24.094  1.00  0.00     0.000 C 
ENDBRANCH  14  16
ENDBRANCH  12  14
ENDBRANCH  11  12
ENDBRANCH   3   6
ENDBRANCH   1   2
BRANCH   1  21
ATOM     21  C   UNL A   1      37.661  23.556  25.209  1.00  0.00     0.042 C 
BRANCH  21  22
ATOM     22  C   UNL A   1      38.360  23.233  26.514  1.00  0.00     0.118 C 
BRANCH  22  23
ATOM     23  N   UNL A   1      39.603  22.488  26.323  1.00  0.00    -0.352 N 
ATOM     24  C   UNL A   1      40.889  22.995  26.206  1.00  0.00     0.251 C 
ATOM     25  H   UNL A   1      39.518  21.508  26.274  1.00  0.00     0.163 HD
ATOM     26  O   UNL A   1      41.783  22.342  25.704  1.00  0.00    -0.269 OA
BRANCH  24  27
ATOM     27  C   UNL A   1      41.137  24.360  26.701  1.00  0.00     0.039 A 
ATOM     28  C   UNL A   1      40.753  25.489  25.973  1.00  0.00     0.014 A 
ATOM     29  C   UNL A   1      41.697  24.483  27.966  1.00  0.00     0.014 A 
ATOM     30  C   UNL A   1      40.856  26.742  26.577  1.00  0.00     0.010 A 
ATOM     31  C   UNL A   1      41.598  25.676  28.626  1.00  0.00     0.010 A 
ATOM     32  C   UNL A   1      41.256  26.822  27.919  1.00  0.00    -0.014 A 
BRANCH  32  33
ATOM     33  C   UNL A   1      41.271  28.089  28.641  1.00  0.00     0.031 A 
ATOM     34  C   UNL A   1      42.384  29.019  28.300  1.00  0.00     0.074 A 
ATOM     35  C   UNL A   1      40.221  28.494  29.389  1.00  0.00     0.049 A 
ATOM     36  N   UNL A   1      43.327  29.433  29.079  1.00  0.00    -0.248 NA
ATOM     37  C   UNL A   1      42.526  29.465  26.905  1.00  0.00     0.031 C 
ATOM     38  C   UNL A   1      38.924  27.834  29.589  1.00  0.00     0.029 A 
ATOM     39  N   UNL A   1      40.055  29.671  30.046  1.00  0.00    -0.354 N 
ATOM     40  C   UNL A   1      44.082  30.336  28.333  1.00  0.00     0.074 A 
ATOM     41  C   UNL A   1      43.642  30.195  26.969  1.00  0.00     0.031 C 
ATOM     42  C   UNL A   1      38.037  28.718  30.093  1.00  0.00     0.029 A 
ATOM     43  C   UNL A   1      38.746  29.938  30.426  1.00  0.00     0.049 A 
ATOM     44  H   UNL A   1      40.800  30.285  30.238  1.00  0.00     0.167 HD
ATOM     45  C   UNL A   1      44.862  31.277  28.937  1.00  0.00     0.037 A 
ATOM     46  C   UNL A   1      38.275  31.088  30.962  1.00  0.00     0.037 A 
ATOM     47  C   UNL A   1      45.045  30.982  30.336  1.00  0.00     0.049 A 
ATOM     48  C   UNL A   1      39.442  31.820  31.514  1.00  0.00     0.074 A 
ATOM     49  C   UNL A   1      45.583  29.923  31.041  1.00  0.00     0.029 A 
ATOM     50  N   UNL A   1      44.286  31.685  31.241  1.00  0.00    -0.354 N 
ATOM     51  N   UNL A   1      40.120  31.416  32.552  1.00  0.00    -0.248 NA
ATOM     52  C   UNL A   1      40.143  32.742  30.632  1.00  0.00     0.031 C 
ATOM     53  C   UNL A   1      44.724  29.761  32.167  1.00  0.00     0.029 A 
ATOM     54  C   UNL A   1      43.762  30.772  32.121  1.00  0.00     0.049 A 
ATOM     55  H   UNL A   1      44.145  32.659  31.256  1.00  0.00     0.167 HD
ATOM     56  C   UNL A   1      41.446  31.667  32.228  1.00  0.00     0.074 A 
ATOM     57  C   UNL A   1      41.391  32.573  31.081  1.00  0.00     0.031 C 
ATOM     58  C   UNL A   1      42.456  30.892  32.723  1.00  0.00     0.037 A 
BRANCH  45  59
ATOM     59  C   UNL A   1      45.179  32.637  28.370  1.00  0.00     0.057 A 
ATOM     60  C   UNL A   1      46.523  32.999  28.155  1.00  0.00     0.134 A 
ATOM     61  C   UNL A   1      44.257  33.700  28.306  1.00  0.00     0.134 A 
ATOM     62  F   UNL A   1      47.500  32.079  28.200  1.00  0.00    -0.206 F 
ATOM     63  C   UNL A   1      46.924  34.327  27.968  1.00  0.00     0.040 A 
ATOM     64  C   UNL A   1      44.640  35.023  28.067  1.00  0.00     0.040 A 
ATOM     65  F   UNL A   1      42.956  33.534  28.571  1.00  0.00    -0.206 F 
ATOM     66  C   UNL A   1      45.981  35.346  27.931  1.00  0.00     0.006 A 
ENDBRANCH  45  59
BRANCH  46  67
ATOM     67  C   UNL A   1      36.928  31.686  30.842  1.00  0.00     0.057 A 
ATOM     68  C   UNL A   1      36.067  31.767  31.943  1.00  0.00     0.134 A 
ATOM     69  C   UNL A   1      36.549  32.424  29.706  1.00  0.00     0.134 A 
ATOM     70  F   UNL A   1      36.360  31.127  33.084  1.00  0.00    -0.206 F 
ATOM     71  C   UNL A   1      34.910  32.557  31.928  1.00  0.00     0.040 A 
ATOM     72  C   UNL A   1      35.392  33.210  29.674  1.00  0.00     0.040 A 
ATOM     73  F   UNL A   1      37.331  32.476  28.618  1.00  0.00    -0.206 F 
ATOM     74  C   UNL A   1      34.575  33.291  30.794  1.00  0.00     0.006 A 
ENDBRANCH  46  67
BRANCH  58  75
ATOM     75  C   UNL A   1      42.119  29.901  33.807  1.00  0.00     0.057 A 
ATOM     76  C   UNL A   1      41.769  28.563  33.566  1.00  0.00     0.134 A 
ATOM     77  C   UNL A   1      42.318  30.267  35.142  1.00  0.00     0.134 A 
ATOM     78  F   UNL A   1      41.660  28.086  32.323  1.00  0.00    -0.206 F 
ATOM     79  C   UNL A   1      41.582  27.646  34.605  1.00  0.00     0.040 A 
ATOM     80  C   UNL A   1      42.167  29.353  36.188  1.00  0.00     0.040 A 
ATOM     81  F   UNL A   1      42.714  31.512  35.449  1.00  0.00    -0.206 F 
ATOM     82  C   UNL A   1      41.787  28.040  35.922  1.00  0.00     0.006 A 
ENDBRANCH  58  75
ENDBRANCH  32  33
ENDBRANCH  24  27
ENDBRANCH  22  23
ENDBRANCH  21  22
ENDBRANCH   1  21
TORSDOF 13
ENDMDL
