MODEL 1
REMARK VINA RESULT:     -13.9      0.000      0.000
REMARK SMILES Cc1ccccc1S(=O)(=O)Nc1ccc(N2CCOCC2)cc1C(=O)NCCCNC(=O)c1ccc(-c2c3nc(c(-c4c(F)cccc4F)c4ccc([nH]4)c(-c4c(F)cccc4F)c4nc(c(-c5c(F)cccc5F)c5ccc2[nH]5)C=C4)C=C3)cc1
REMARK SMILES IDX 27 1 26 2 24 3 25 4 23 6 12 7 13 8 14 9 22 10 15 11 11 12
REMARK SMILES IDX 8 14 9 15 10 16 7 17 1 18 2 19 3 20 4 21 6 22 5 23 16 24
REMARK SMILES IDX 17 25 21 26 18 27 20 28 19 29 28 30 29 31 30 32 31 33 32 35
REMARK SMILES IDX 33 36 34 37 86 38 35 39 85 40 36 41 37 42 38 43 79 44 39 45
REMARK SMILES IDX 84 46 78 47 80 48 40 49 83 50 77 51 76 52 41 54 67 55 50 56
REMARK SMILES IDX 66 57 51 58 54 59 65 60 81 61 52 62 53 63 64 65 82 66 55 67
REMARK SMILES IDX 42 68 43 69 48 70 44 71 45 72 47 73 49 74 46 75 68 76 69 77
REMARK SMILES IDX 74 78 70 79 71 80 73 81 75 82 72 83 56 84 57 85 62 86 58 87
REMARK SMILES IDX 59 88 61 89 63 90 60 91
REMARK H PARENT 26 5 11 13 30 34 80 53 54 64
REMARK Flexibility Score: inf
ROOT
ATOM      1  C   UNL A   1      32.157  30.325  25.889  1.00  0.00     0.118 C 
ENDROOT
BRANCH   1   2
ATOM      2  N   UNL A   1      33.153  29.756  24.982  1.00  0.00    -0.352 N 
ATOM      3  C   UNL A   1      32.978  28.971  23.857  1.00  0.00     0.253 C 
ATOM      4  O   UNL A   1      33.956  28.606  23.210  1.00  0.00    -0.269 OA
ATOM      5  H   UNL A   1      34.087  29.964  25.207  1.00  0.00     0.163 HD
BRANCH   3   6
ATOM      6  C   UNL A   1      31.618  28.532  23.462  1.00  0.00     0.066 A 
ATOM      7  C   UNL A   1      31.131  27.268  23.811  1.00  0.00     0.062 A 
ATOM      8  C   UNL A   1      29.791  26.986  23.568  1.00  0.00     0.030 A 
ATOM      9  C   UNL A   1      28.932  27.996  23.106  1.00  0.00     0.028 A 
ATOM     10  C   UNL A   1      30.776  29.456  22.825  1.00  0.00     0.042 A 
ATOM     11  C   UNL A   1      29.393  29.281  22.795  1.00  0.00     0.038 A 
BRANCH   7  12
ATOM     12  N   UNL A   1      31.949  26.265  24.393  1.00  0.00    -0.279 N 
ATOM     13  H   UNL A   1      32.401  25.626  23.796  1.00  0.00     0.180 HD
BRANCH  12  14
ATOM     14  S   UNL A   1      32.186  26.110  26.044  1.00  0.00     0.262 S 
ATOM     15  O   UNL A   1      30.854  26.147  26.621  1.00  0.00    -0.201 OA
ATOM     16  O   UNL A   1      33.169  27.075  26.481  1.00  0.00    -0.201 OA
BRANCH  14  17
ATOM     17  C   UNL A   1      32.840  24.456  26.323  1.00  0.00     0.090 A 
ATOM     18  C   UNL A   1      35.108  24.849  25.125  1.00  0.00     0.046 C 
ATOM     19  C   UNL A   1      34.152  24.067  25.977  1.00  0.00    -0.031 A 
ATOM     20  C   UNL A   1      34.614  22.802  26.403  1.00  0.00     0.005 A 
ATOM     21  C   UNL A   1      33.818  21.953  27.169  1.00  0.00     0.000 A 
ATOM     22  C   UNL A   1      32.041  23.581  27.088  1.00  0.00     0.022 A 
ATOM     23  C   UNL A   1      32.527  22.338  27.506  1.00  0.00     0.001 A 
ENDBRANCH  14  17
ENDBRANCH  12  14
ENDBRANCH   7  12
BRANCH  11  24
ATOM     24  N   UNL A   1      28.534  30.336  22.562  1.00  0.00    -0.367 N 
ATOM     25  C   UNL A   1      27.877  30.617  21.272  1.00  0.00     0.145 C 
ATOM     26  C   UNL A   1      28.394  31.432  23.546  1.00  0.00     0.145 C 
ATOM     27  C   UNL A   1      28.305  31.994  20.738  1.00  0.00     0.181 C 
ATOM     28  C   UNL A   1      28.751  32.790  22.907  1.00  0.00     0.181 C 
ATOM     29  O   UNL A   1      28.027  33.029  21.692  1.00  0.00    -0.378 OA
ENDBRANCH  11  24
ENDBRANCH   3   6
ENDBRANCH   1   2
BRANCH   1  30
ATOM     30  C   UNL A   1      32.714  30.826  27.201  1.00  0.00     0.042 C 
BRANCH  30  31
ATOM     31  C   UNL A   1      34.111  30.332  27.494  1.00  0.00     0.118 C 
BRANCH  31  32
ATOM     32  N   UNL A   1      34.874  31.256  28.351  1.00  0.00    -0.352 N 
ATOM     33  C   UNL A   1      36.167  31.159  28.820  1.00  0.00     0.251 C 
ATOM     34  H   UNL A   1      34.388  32.064  28.632  1.00  0.00     0.163 HD
ATOM     35  O   UNL A   1      36.708  32.084  29.379  1.00  0.00    -0.269 OA
BRANCH  33  36
ATOM     36  C   UNL A   1      36.931  29.925  28.493  1.00  0.00     0.039 A 
ATOM     37  C   UNL A   1      37.086  28.987  29.516  1.00  0.00     0.014 A 
ATOM     38  C   UNL A   1      37.762  29.923  27.378  1.00  0.00     0.014 A 
ATOM     39  C   UNL A   1      38.263  28.255  29.571  1.00  0.00     0.010 A 
ATOM     40  C   UNL A   1      38.982  29.286  27.499  1.00  0.00     0.010 A 
ATOM     41  C   UNL A   1      39.268  28.527  28.645  1.00  0.00    -0.014 A 
BRANCH  41  42
ATOM     42  C   UNL A   1      40.674  28.206  28.890  1.00  0.00     0.031 A 
ATOM     43  C   UNL A   1      41.276  26.988  28.310  1.00  0.00     0.074 A 
ATOM     44  C   UNL A   1      41.453  29.051  29.607  1.00  0.00     0.049 A 
ATOM     45  N   UNL A   1      42.377  26.450  28.713  1.00  0.00    -0.248 NA
ATOM     46  C   UNL A   1      40.623  26.228  27.254  1.00  0.00     0.031 C 
ATOM     47  C   UNL A   1      42.911  29.040  29.704  1.00  0.00     0.029 A 
ATOM     48  N   UNL A   1      41.048  29.965  30.593  1.00  0.00    -0.354 N 
ATOM     49  C   UNL A   1      42.712  25.444  27.836  1.00  0.00     0.074 A 
ATOM     50  C   UNL A   1      41.547  25.299  26.996  1.00  0.00     0.031 C 
ATOM     51  C   UNL A   1      43.272  29.634  30.851  1.00  0.00     0.029 A 
ATOM     52  C   UNL A   1      42.055  29.924  31.588  1.00  0.00     0.049 A 
ATOM     53  H   UNL A   1      40.234  30.518  30.594  1.00  0.00     0.167 HD
ATOM     54  C   UNL A   1      43.978  24.934  27.864  1.00  0.00     0.037 A 
ATOM     55  C   UNL A   1      41.789  29.515  32.861  1.00  0.00     0.037 A 
ATOM     56  C   UNL A   1      44.724  25.430  29.026  1.00  0.00     0.049 A 
ATOM     57  C   UNL A   1      42.581  28.312  33.326  1.00  0.00     0.074 A 
ATOM     58  C   UNL A   1      45.686  26.406  29.222  1.00  0.00     0.029 A 
ATOM     59  N   UNL A   1      44.311  25.044  30.289  1.00  0.00    -0.354 N 
ATOM     60  N   UNL A   1      43.384  27.626  32.564  1.00  0.00    -0.248 NA
ATOM     61  C   UNL A   1      42.447  27.725  34.662  1.00  0.00     0.031 C 
ATOM     62  C   UNL A   1      45.831  26.614  30.624  1.00  0.00     0.029 A 
ATOM     63  C   UNL A   1      44.955  25.763  31.274  1.00  0.00     0.049 A 
ATOM     64  H   UNL A   1      43.641  24.343  30.463  1.00  0.00     0.167 HD
ATOM     65  C   UNL A   1      43.809  26.515  33.240  1.00  0.00     0.074 A 
ATOM     66  C   UNL A   1      43.210  26.624  34.556  1.00  0.00     0.031 C 
ATOM     67  C   UNL A   1      44.580  25.555  32.661  1.00  0.00     0.037 A 
BRANCH  54  68
ATOM     68  C   UNL A   1      44.637  24.156  26.737  1.00  0.00     0.057 A 
ATOM     69  C   UNL A   1      44.289  22.808  26.505  1.00  0.00     0.134 A 
ATOM     70  C   UNL A   1      45.664  24.621  25.895  1.00  0.00     0.134 A 
ATOM     71  F   UNL A   1      43.261  22.224  27.137  1.00  0.00    -0.206 F 
ATOM     72  C   UNL A   1      44.977  21.976  25.609  1.00  0.00     0.040 A 
ATOM     73  C   UNL A   1      46.387  23.794  25.023  1.00  0.00     0.040 A 
ATOM     74  F   UNL A   1      45.990  25.911  25.811  1.00  0.00    -0.206 F 
ATOM     75  C   UNL A   1      46.056  22.459  24.889  1.00  0.00     0.006 A 
ENDBRANCH  54  68
BRANCH  55  76
ATOM     76  C   UNL A   1      40.411  29.841  33.305  1.00  0.00     0.057 A 
ATOM     77  C   UNL A   1      40.122  31.157  33.703  1.00  0.00     0.134 A 
ATOM     78  C   UNL A   1      39.330  29.008  33.008  1.00  0.00     0.134 A 
ATOM     79  F   UNL A   1      41.117  32.006  34.003  1.00  0.00    -0.206 F 
ATOM     80  C   UNL A   1      38.819  31.658  33.696  1.00  0.00     0.040 A 
ATOM     81  C   UNL A   1      38.019  29.496  33.010  1.00  0.00     0.040 A 
ATOM     82  F   UNL A   1      39.531  27.749  32.596  1.00  0.00    -0.206 F 
ATOM     83  C   UNL A   1      37.766  30.832  33.316  1.00  0.00     0.006 A 
ENDBRANCH  55  76
BRANCH  67  84
ATOM     84  C   UNL A   1      45.040  24.330  33.382  1.00  0.00     0.057 A 
ATOM     85  C   UNL A   1      44.258  23.172  33.455  1.00  0.00     0.134 A 
ATOM     86  C   UNL A   1      46.223  24.334  34.141  1.00  0.00     0.134 A 
ATOM     87  F   UNL A   1      43.100  23.080  32.785  1.00  0.00    -0.206 F 
ATOM     88  C   UNL A   1      44.635  22.075  34.240  1.00  0.00     0.040 A 
ATOM     89  C   UNL A   1      46.591  23.262  34.956  1.00  0.00     0.040 A 
ATOM     90  F   UNL A   1      47.071  25.374  34.102  1.00  0.00    -0.206 F 
ATOM     91  C   UNL A   1      45.794  22.126  35.007  1.00  0.00     0.006 A 
ENDBRANCH  67  84
ENDBRANCH  41  42
ENDBRANCH  33  36
ENDBRANCH  31  32
ENDBRANCH  30  31
ENDBRANCH   1  30
TORSDOF 14
ENDMDL
MODEL 2
REMARK VINA RESULT:     -13.5      1.557      2.083
REMARK SMILES Cc1ccccc1S(=O)(=O)Nc1ccc(N2CCOCC2)cc1C(=O)NCCCNC(=O)c1ccc(-c2c3nc(c(-c4c(F)cccc4F)c4ccc([nH]4)c(-c4c(F)cccc4F)c4nc(c(-c5c(F)cccc5F)c5ccc2[nH]5)C=C4)C=C3)cc1
REMARK SMILES IDX 27 1 26 2 24 3 25 4 23 6 12 7 13 8 14 9 22 10 15 11 11 12
REMARK SMILES IDX 8 14 9 15 10 16 7 17 1 18 2 19 3 20 4 21 6 22 5 23 16 24
REMARK SMILES IDX 17 25 21 26 18 27 20 28 19 29 28 30 29 31 30 32 31 33 32 35
REMARK SMILES IDX 33 36 34 37 86 38 35 39 85 40 36 41 37 42 38 43 79 44 39 45
REMARK SMILES IDX 84 46 78 47 80 48 40 49 83 50 77 51 76 52 41 54 67 55 50 56
REMARK SMILES IDX 66 57 51 58 54 59 65 60 81 61 52 62 53 63 64 65 82 66 55 67
REMARK SMILES IDX 42 68 43 69 48 70 44 71 45 72 47 73 49 74 46 75 68 76 69 77
REMARK SMILES IDX 74 78 70 79 71 80 73 81 75 82 72 83 56 84 57 85 62 86 58 87
REMARK SMILES IDX 59 88 61 89 63 90 60 91
REMARK H PARENT 26 5 11 13 30 34 80 53 54 64
REMARK Flexibility Score: inf
ROOT
ATOM      1  C   UNL A   1      33.058  30.463  26.774  1.00  0.00     0.118 C 
ENDROOT
BRANCH   1   2
ATOM      2  N   UNL A   1      32.593  29.122  27.124  1.00  0.00    -0.352 N 
ATOM      3  C   UNL A   1      32.028  28.146  26.324  1.00  0.00     0.253 C 
ATOM      4  O   UNL A   1      31.718  27.061  26.811  1.00  0.00    -0.269 OA
ATOM      5  H   UNL A   1      32.698  28.878  28.071  1.00  0.00     0.163 HD
BRANCH   3   6
ATOM      6  C   UNL A   1      31.751  28.425  24.894  1.00  0.00     0.066 A 
ATOM      7  C   UNL A   1      32.233  27.587  23.883  1.00  0.00     0.062 A 
ATOM      8  C   UNL A   1      31.790  27.800  22.582  1.00  0.00     0.030 A 
ATOM      9  C   UNL A   1      30.788  28.749  22.326  1.00  0.00     0.028 A 
ATOM     10  C   UNL A   1      30.893  29.488  24.574  1.00  0.00     0.042 A 
ATOM     11  C   UNL A   1      30.260  29.565  23.335  1.00  0.00     0.038 A 
BRANCH   7  12
ATOM     12  N   UNL A   1      33.157  26.538  24.130  1.00  0.00    -0.279 N 
ATOM     13  H   UNL A   1      33.904  26.710  24.749  1.00  0.00     0.180 HD
BRANCH  12  14
ATOM     14  S   UNL A   1      33.045  25.024  23.425  1.00  0.00     0.262 S 
ATOM     15  O   UNL A   1      33.680  25.165  22.127  1.00  0.00    -0.201 OA
ATOM     16  O   UNL A   1      31.677  24.562  23.493  1.00  0.00    -0.201 OA
BRANCH  14  17
ATOM     17  C   UNL A   1      34.075  23.916  24.403  1.00  0.00     0.090 A 
ATOM     18  C   UNL A   1      33.019  21.712  23.530  1.00  0.00     0.046 C 
ATOM     19  C   UNL A   1      34.045  22.511  24.281  1.00  0.00    -0.031 A 
ATOM     20  C   UNL A   1      35.019  21.754  24.967  1.00  0.00     0.005 A 
ATOM     21  C   UNL A   1      36.011  22.362  25.735  1.00  0.00     0.000 A 
ATOM     22  C   UNL A   1      35.076  24.518  25.193  1.00  0.00     0.022 A 
ATOM     23  C   UNL A   1      36.035  23.745  25.855  1.00  0.00     0.001 A 
ENDBRANCH  14  17
ENDBRANCH  12  14
ENDBRANCH   7  12
BRANCH  11  24
ATOM     24  N   UNL A   1      29.127  30.331  23.146  1.00  0.00    -0.367 N 
ATOM     25  C   UNL A   1      28.130  30.110  22.081  1.00  0.00     0.145 C 
ATOM     26  C   UNL A   1      28.950  31.612  23.864  1.00  0.00     0.145 C 
ATOM     27  C   UNL A   1      28.046  31.337  21.159  1.00  0.00     0.181 C 
ATOM     28  C   UNL A   1      28.779  32.778  22.869  1.00  0.00     0.181 C 
ATOM     29  O   UNL A   1      27.748  32.527  21.904  1.00  0.00    -0.378 OA
ENDBRANCH  11  24
ENDBRANCH   3   6
ENDBRANCH   1   2
BRANCH   1  30
ATOM     30  C   UNL A   1      34.445  30.797  27.270  1.00  0.00     0.042 C 
BRANCH  30  31
ATOM     31  C   UNL A   1      34.503  31.104  28.749  1.00  0.00     0.118 C 
BRANCH  31  32
ATOM     32  N   UNL A   1      35.669  31.925  29.116  1.00  0.00    -0.352 N 
ATOM     33  C   UNL A   1      37.006  31.591  29.152  1.00  0.00     0.251 C 
ATOM     34  H   UNL A   1      35.463  32.852  29.375  1.00  0.00     0.163 HD
ATOM     35  O   UNL A   1      37.864  32.427  29.314  1.00  0.00    -0.269 OA
BRANCH  33  36
ATOM     36  C   UNL A   1      37.376  30.183  28.844  1.00  0.00     0.039 A 
ATOM     37  C   UNL A   1      37.502  29.311  29.927  1.00  0.00     0.014 A 
ATOM     38  C   UNL A   1      37.946  29.891  27.609  1.00  0.00     0.014 A 
ATOM     39  C   UNL A   1      38.460  28.308  29.862  1.00  0.00     0.010 A 
ATOM     40  C   UNL A   1      38.980  28.974  27.591  1.00  0.00     0.010 A 
ATOM     41  C   UNL A   1      39.297  28.249  28.750  1.00  0.00    -0.014 A 
BRANCH  41  42
ATOM     42  C   UNL A   1      40.607  27.598  28.784  1.00  0.00     0.031 A 
ATOM     43  C   UNL A   1      40.733  26.155  28.496  1.00  0.00     0.074 A 
ATOM     44  C   UNL A   1      41.725  28.324  29.026  1.00  0.00     0.049 A 
ATOM     45  N   UNL A   1      41.755  25.431  28.806  1.00  0.00    -0.248 NA
ATOM     46  C   UNL A   1      39.656  25.390  27.886  1.00  0.00     0.031 C 
ATOM     47  C   UNL A   1      43.110  27.909  28.817  1.00  0.00     0.029 A 
ATOM     48  N   UNL A   1      41.830  29.526  29.745  1.00  0.00    -0.354 N 
ATOM     49  C   UNL A   1      41.594  24.190  28.232  1.00  0.00     0.074 A 
ATOM     50  C   UNL A   1      40.237  24.197  27.740  1.00  0.00     0.031 C 
ATOM     51  C   UNL A   1      43.904  28.629  29.623  1.00  0.00     0.029 A 
ATOM     52  C   UNL A   1      43.042  29.433  30.471  1.00  0.00     0.049 A 
ATOM     53  H   UNL A   1      41.194  30.277  29.744  1.00  0.00     0.167 HD
ATOM     54  C   UNL A   1      42.670  23.354  28.152  1.00  0.00     0.037 A 
ATOM     55  C   UNL A   1      43.064  29.440  31.834  1.00  0.00     0.037 A 
ATOM     56  C   UNL A   1      43.805  23.873  28.922  1.00  0.00     0.049 A 
ATOM     57  C   UNL A   1      43.666  28.207  32.472  1.00  0.00     0.074 A 
ATOM     58  C   UNL A   1      44.976  24.541  28.603  1.00  0.00     0.029 A 
ATOM     59  N   UNL A   1      43.692  23.943  30.299  1.00  0.00    -0.354 N 
ATOM     60  N   UNL A   1      44.047  27.152  31.808  1.00  0.00    -0.248 NA
ATOM     61  C   UNL A   1      43.789  28.025  33.920  1.00  0.00     0.031 C 
ATOM     62  C   UNL A   1      45.554  25.029  29.810  1.00  0.00     0.029 A 
ATOM     63  C   UNL A   1      44.733  24.656  30.857  1.00  0.00     0.049 A 
ATOM     64  H   UNL A   1      42.961  23.534  30.817  1.00  0.00     0.167 HD
ATOM     65  C   UNL A   1      44.388  26.163  32.690  1.00  0.00     0.074 A 
ATOM     66  C   UNL A   1      44.226  26.757  34.002  1.00  0.00     0.031 C 
ATOM     67  C   UNL A   1      44.729  24.909  32.287  1.00  0.00     0.037 A 
BRANCH  54  68
ATOM     68  C   UNL A   1      42.792  22.169  27.209  1.00  0.00     0.057 A 
ATOM     69  C   UNL A   1      41.990  21.023  27.399  1.00  0.00     0.134 A 
ATOM     70  C   UNL A   1      43.713  22.038  26.153  1.00  0.00     0.134 A 
ATOM     71  F   UNL A   1      40.987  21.002  28.286  1.00  0.00    -0.206 F 
ATOM     72  C   UNL A   1      42.171  19.828  26.686  1.00  0.00     0.040 A 
ATOM     73  C   UNL A   1      43.932  20.840  25.458  1.00  0.00     0.040 A 
ATOM     74  F   UNL A   1      44.410  23.072  25.680  1.00  0.00    -0.206 F 
ATOM     75  C   UNL A   1      43.170  19.721  25.735  1.00  0.00     0.006 A 
ENDBRANCH  54  68
BRANCH  55  76
ATOM     76  C   UNL A   1      41.977  30.253  32.433  1.00  0.00     0.057 A 
ATOM     77  C   UNL A   1      42.131  31.648  32.493  1.00  0.00     0.134 A 
ATOM     78  C   UNL A   1      40.688  29.742  32.604  1.00  0.00     0.134 A 
ATOM     79  F   UNL A   1      43.344  32.202  32.338  1.00  0.00    -0.206 F 
ATOM     80  C   UNL A   1      41.034  32.505  32.604  1.00  0.00     0.040 A 
ATOM     81  C   UNL A   1      39.584  30.590  32.729  1.00  0.00     0.040 A 
ATOM     82  F   UNL A   1      40.462  28.423  32.531  1.00  0.00    -0.206 F 
ATOM     83  C   UNL A   1      39.751  31.974  32.690  1.00  0.00     0.006 A 
ENDBRANCH  55  76
BRANCH  67  84
ATOM     84  C   UNL A   1      45.090  23.815  33.238  1.00  0.00     0.057 A 
ATOM     85  C   UNL A   1      44.162  22.855  33.656  1.00  0.00     0.134 A 
ATOM     86  C   UNL A   1      46.347  23.783  33.867  1.00  0.00     0.134 A 
ATOM     87  F   UNL A   1      42.927  22.818  33.132  1.00  0.00    -0.206 F 
ATOM     88  C   UNL A   1      44.467  21.912  34.645  1.00  0.00     0.040 A 
ATOM     89  C   UNL A   1      46.652  22.873  34.881  1.00  0.00     0.040 A 
ATOM     90  F   UNL A   1      47.327  24.625  33.505  1.00  0.00    -0.206 F 
ATOM     91  C   UNL A   1      45.709  21.931  35.273  1.00  0.00     0.006 A 
ENDBRANCH  67  84
ENDBRANCH  41  42
ENDBRANCH  33  36
ENDBRANCH  31  32
ENDBRANCH  30  31
ENDBRANCH   1  30
TORSDOF 14
ENDMDL
MODEL 3
REMARK VINA RESULT:     -13.5      4.382     10.051
REMARK SMILES Cc1ccccc1S(=O)(=O)Nc1ccc(N2CCOCC2)cc1C(=O)NCCCNC(=O)c1ccc(-c2c3nc(c(-c4c(F)cccc4F)c4ccc([nH]4)c(-c4c(F)cccc4F)c4nc(c(-c5c(F)cccc5F)c5ccc2[nH]5)C=C4)C=C3)cc1
REMARK SMILES IDX 27 1 26 2 24 3 25 4 23 6 12 7 13 8 14 9 22 10 15 11 11 12
REMARK SMILES IDX 8 14 9 15 10 16 7 17 1 18 2 19 3 20 4 21 6 22 5 23 16 24
REMARK SMILES IDX 17 25 21 26 18 27 20 28 19 29 28 30 29 31 30 32 31 33 32 35
REMARK SMILES IDX 33 36 34 37 86 38 35 39 85 40 36 41 37 42 38 43 79 44 39 45
REMARK SMILES IDX 84 46 78 47 80 48 40 49 83 50 77 51 76 52 41 54 67 55 50 56
REMARK SMILES IDX 66 57 51 58 54 59 65 60 81 61 52 62 53 63 64 65 82 66 55 67
REMARK SMILES IDX 42 68 43 69 48 70 44 71 45 72 47 73 49 74 46 75 68 76 69 77
REMARK SMILES IDX 74 78 70 79 71 80 73 81 75 82 72 83 56 84 57 85 62 86 58 87
REMARK SMILES IDX 59 88 61 89 63 90 60 91
REMARK H PARENT 26 5 11 13 30 34 80 53 54 64
REMARK Flexibility Score: inf
ROOT
ATOM      1  C   UNL A   1      36.811  21.125  25.317  1.00  0.00     0.118 C 
ENDROOT
BRANCH   1   2
ATOM      2  N   UNL A   1      36.015  21.753  26.370  1.00  0.00    -0.352 N 
ATOM      3  C   UNL A   1      34.645  21.757  26.559  1.00  0.00     0.253 C 
ATOM      4  O   UNL A   1      34.164  22.334  27.530  1.00  0.00    -0.269 OA
ATOM      5  H   UNL A   1      36.532  22.247  27.045  1.00  0.00     0.163 HD
BRANCH   3   6
ATOM      6  C   UNL A   1      33.756  21.107  25.565  1.00  0.00     0.066 A 
ATOM      7  C   UNL A   1      33.132  21.846  24.554  1.00  0.00     0.062 A 
ATOM      8  C   UNL A   1      32.460  21.156  23.551  1.00  0.00     0.030 A 
ATOM      9  C   UNL A   1      32.525  19.755  23.496  1.00  0.00     0.028 A 
ATOM     10  C   UNL A   1      33.641  19.709  25.584  1.00  0.00     0.042 A 
ATOM     11  C   UNL A   1      33.184  19.000  24.474  1.00  0.00     0.038 A 
BRANCH   7  12
ATOM     12  N   UNL A   1      33.152  23.265  24.517  1.00  0.00    -0.279 N 
ATOM     13  H   UNL A   1      32.437  23.754  24.986  1.00  0.00     0.180 HD
BRANCH  12  14
ATOM     14  S   UNL A   1      34.327  24.150  23.717  1.00  0.00     0.262 S 
ATOM     15  O   UNL A   1      34.368  23.597  22.376  1.00  0.00    -0.201 OA
ATOM     16  O   UNL A   1      35.536  24.170  24.508  1.00  0.00    -0.201 OA
BRANCH  14  17
ATOM     17  C   UNL A   1      33.704  25.835  23.578  1.00  0.00     0.090 A 
ATOM     18  C   UNL A   1      33.405  26.231  26.126  1.00  0.00     0.046 C 
ATOM     19  C   UNL A   1      33.446  26.666  24.689  1.00  0.00    -0.031 A 
ATOM     20  C   UNL A   1      33.132  28.022  24.457  1.00  0.00     0.005 A 
ATOM     21  C   UNL A   1      33.095  28.555  23.170  1.00  0.00     0.000 A 
ATOM     22  C   UNL A   1      33.650  26.384  22.281  1.00  0.00     0.022 A 
ATOM     23  C   UNL A   1      33.347  27.733  22.079  1.00  0.00     0.001 A 
ENDBRANCH  14  17
ENDBRANCH  12  14
ENDBRANCH   7  12
BRANCH  11  24
ATOM     24  N   UNL A   1      33.451  17.655  24.313  1.00  0.00    -0.367 N 
ATOM     25  C   UNL A   1      32.456  16.577  24.465  1.00  0.00     0.145 C 
ATOM     26  C   UNL A   1      34.842  17.165  24.212  1.00  0.00     0.145 C 
ATOM     27  C   UNL A   1      32.866  15.623  25.599  1.00  0.00     0.181 C 
ATOM     28  C   UNL A   1      35.145  16.143  25.327  1.00  0.00     0.181 C 
ATOM     29  O   UNL A   1      34.177  15.085  25.376  1.00  0.00    -0.378 OA
ENDBRANCH  11  24
ENDBRANCH   3   6
ENDBRANCH   1   2
BRANCH   1  30
ATOM     30  C   UNL A   1      38.289  21.435  25.377  1.00  0.00     0.042 C 
BRANCH  30  31
ATOM     31  C   UNL A   1      38.612  22.707  26.125  1.00  0.00     0.118 C 
BRANCH  31  32
ATOM     32  N   UNL A   1      40.054  22.870  26.377  1.00  0.00    -0.352 N 
ATOM     33  C   UNL A   1      40.742  23.948  26.891  1.00  0.00     0.251 C 
ATOM     34  H   UNL A   1      40.610  22.093  26.142  1.00  0.00     0.163 HD
ATOM     35  O   UNL A   1      41.910  23.867  27.195  1.00  0.00    -0.269 OA
BRANCH  33  36
ATOM     36  C   UNL A   1      39.969  25.182  27.196  1.00  0.00     0.039 A 
ATOM     37  C   UNL A   1      40.293  26.328  26.466  1.00  0.00     0.014 A 
ATOM     38  C   UNL A   1      39.276  25.262  28.399  1.00  0.00     0.014 A 
ATOM     39  C   UNL A   1      40.200  27.561  27.094  1.00  0.00     0.010 A 
ATOM     40  C   UNL A   1      39.300  26.474  29.063  1.00  0.00     0.010 A 
ATOM     41  C   UNL A   1      39.851  27.605  28.442  1.00  0.00    -0.014 A 
BRANCH  41  42
ATOM     42  C   UNL A   1      40.194  28.733  29.309  1.00  0.00     0.031 A 
ATOM     43  C   UNL A   1      39.187  29.765  29.627  1.00  0.00     0.074 A 
ATOM     44  C   UNL A   1      41.423  28.812  29.873  1.00  0.00     0.049 A 
ATOM     45  N   UNL A   1      39.459  30.936  30.097  1.00  0.00    -0.248 NA
ATOM     46  C   UNL A   1      37.769  29.572  29.363  1.00  0.00     0.031 C 
ATOM     47  C   UNL A   1      41.838  29.687  30.967  1.00  0.00     0.029 A 
ATOM     48  N   UNL A   1      42.625  28.263  29.396  1.00  0.00    -0.354 N 
ATOM     49  C   UNL A   1      38.275  31.553  30.430  1.00  0.00     0.074 A 
ATOM     50  C   UNL A   1      37.256  30.691  29.880  1.00  0.00     0.031 C 
ATOM     51  C   UNL A   1      43.165  29.868  30.896  1.00  0.00     0.029 A 
ATOM     52  C   UNL A   1      43.623  29.226  29.678  1.00  0.00     0.049 A 
ATOM     53  H   UNL A   1      42.747  27.390  28.957  1.00  0.00     0.167 HD
ATOM     54  C   UNL A   1      38.306  32.661  31.227  1.00  0.00     0.037 A 
ATOM     55  C   UNL A   1      44.332  29.835  28.685  1.00  0.00     0.037 A 
ATOM     56  C   UNL A   1      39.680  33.140  31.415  1.00  0.00     0.049 A 
ATOM     57  C   UNL A   1      44.202  31.342  28.637  1.00  0.00     0.074 A 
ATOM     58  C   UNL A   1      40.617  33.040  32.431  1.00  0.00     0.029 A 
ATOM     59  N   UNL A   1      40.360  33.645  30.320  1.00  0.00    -0.354 N 
ATOM     60  N   UNL A   1      43.401  32.032  29.399  1.00  0.00    -0.248 NA
ATOM     61  C   UNL A   1      44.890  32.181  27.653  1.00  0.00     0.031 C 
ATOM     62  C   UNL A   1      41.874  33.475  31.921  1.00  0.00     0.029 A 
ATOM     63  C   UNL A   1      41.697  33.837  30.599  1.00  0.00     0.049 A 
ATOM     64  H   UNL A   1      39.941  33.843  29.451  1.00  0.00     0.167 HD
ATOM     65  C   UNL A   1      43.403  33.338  28.991  1.00  0.00     0.074 A 
ATOM     66  C   UNL A   1      44.361  33.391  27.904  1.00  0.00     0.031 C 
ATOM     67  C   UNL A   1      42.583  34.277  29.537  1.00  0.00     0.037 A 
BRANCH  54  68
ATOM     68  C   UNL A   1      37.132  33.205  32.023  1.00  0.00     0.057 A 
ATOM     69  C   UNL A   1      36.143  33.985  31.387  1.00  0.00     0.134 A 
ATOM     70  C   UNL A   1      36.939  33.078  33.410  1.00  0.00     0.134 A 
ATOM     71  F   UNL A   1      36.101  34.128  30.055  1.00  0.00    -0.206 F 
ATOM     72  C   UNL A   1      35.133  34.667  32.083  1.00  0.00     0.040 A 
ATOM     73  C   UNL A   1      35.960  33.784  34.125  1.00  0.00     0.040 A 
ATOM     74  F   UNL A   1      37.635  32.218  34.154  1.00  0.00    -0.206 F 
ATOM     75  C   UNL A   1      35.060  34.598  33.463  1.00  0.00     0.006 A 
ENDBRANCH  54  68
BRANCH  55  76
ATOM     76  C   UNL A   1      44.542  28.969  27.499  1.00  0.00     0.057 A 
ATOM     77  C   UNL A   1      45.548  27.990  27.545  1.00  0.00     0.134 A 
ATOM     78  C   UNL A   1      43.572  28.845  26.502  1.00  0.00     0.134 A 
ATOM     79  F   UNL A   1      46.511  28.054  28.479  1.00  0.00    -0.206 F 
ATOM     80  C   UNL A   1      45.526  26.873  26.709  1.00  0.00     0.040 A 
ATOM     81  C   UNL A   1      43.547  27.736  25.650  1.00  0.00     0.040 A 
ATOM     82  F   UNL A   1      42.566  29.726  26.414  1.00  0.00    -0.206 F 
ATOM     83  C   UNL A   1      44.502  26.728  25.779  1.00  0.00     0.006 A 
ENDBRANCH  55  76
BRANCH  67  84
ATOM     84  C   UNL A   1      42.565  35.703  29.092  1.00  0.00     0.057 A 
ATOM     85  C   UNL A   1      41.807  36.133  27.998  1.00  0.00     0.134 A 
ATOM     86  C   UNL A   1      43.421  36.657  29.671  1.00  0.00     0.134 A 
ATOM     87  F   UNL A   1      40.977  35.291  27.363  1.00  0.00    -0.206 F 
ATOM     88  C   UNL A   1      41.893  37.441  27.506  1.00  0.00     0.040 A 
ATOM     89  C   UNL A   1      43.544  37.952  29.167  1.00  0.00     0.040 A 
ATOM     90  F   UNL A   1      44.153  36.365  30.757  1.00  0.00    -0.206 F 
ATOM     91  C   UNL A   1      42.777  38.349  28.079  1.00  0.00     0.006 A 
ENDBRANCH  67  84
ENDBRANCH  41  42
ENDBRANCH  33  36
ENDBRANCH  31  32
ENDBRANCH  30  31
ENDBRANCH   1  30
TORSDOF 14
ENDMDL
