MODEL 1
REMARK VINA RESULT:     -12.1      0.000      0.000
REMARK SMILES CCOC(=O)c1c(NC(=O)[C@@H]2[C@@H](C(=O)NCCCNC(=O)c3ccc(-c4c5nc(c(-c6c(F)cccc6F)c6ccc([nH]6)c(-c6c(F)cccc6F)c6nc(c(-c7c(F)cccc7F)c7ccc4[nH]7)C=C6)C=C5)cc3)[C@@H]3C=C[C@H]2CC3)sc2c1CCC2
REMARK SMILES IDX 13 1 14 2 15 3 12 5 11 6 79 7 76 8 78 9 80 10 77 11 81 12
REMARK SMILES IDX 9 13 8 14 10 16 7 17 6 18 84 19 82 20 83 21 85 22 87 23
REMARK SMILES IDX 86 24 4 25 5 26 3 27 2 28 1 29 16 30 17 31 18 32 19 33 20 34
REMARK SMILES IDX 21 36 22 37 23 38 75 39 24 40 74 41 25 42 26 43 27 44 68 45
REMARK SMILES IDX 28 46 73 47 67 48 69 49 29 50 72 51 66 52 65 53 30 55 56 56
REMARK SMILES IDX 39 57 55 58 40 59 43 60 54 61 70 62 41 63 42 64 53 66 71 67
REMARK SMILES IDX 44 68 31 69 32 70 37 71 33 72 34 73 36 74 38 75 35 76 57 77
REMARK SMILES IDX 58 78 63 79 59 80 60 81 62 82 64 83 61 84 45 85 46 86 51 87
REMARK SMILES IDX 47 88 48 89 50 90 52 91 49 92
REMARK H PARENT 15 4 8 15 19 35 69 54 43 65
REMARK Flexibility Score: inf
ROOT
ATOM      1  C   UNL A   1      32.823  28.678  24.180  1.00  0.00     0.224 C 
ATOM      2  O   UNL A   1      33.539  28.373  23.228  1.00  0.00    -0.275 OA
ATOM      3  N   UNL A   1      33.205  29.750  24.930  1.00  0.00    -0.356 N 
ATOM      4  H   UNL A   1      34.044  30.179  24.645  1.00  0.00     0.163 HD
ENDROOT
BRANCH   1   5
ATOM      5  C   UNL A   1      31.504  27.983  24.486  1.00  0.00     0.098 C 
ATOM      6  C   UNL A   1      31.657  26.454  24.762  1.00  0.00     0.099 C 
ATOM      7  C   UNL A   1      30.644  25.665  23.880  1.00  0.00     0.025 C 
ATOM      8  C   UNL A   1      30.565  28.185  23.256  1.00  0.00     0.025 C 
ATOM      9  C   UNL A   1      29.267  26.293  23.955  1.00  0.00    -0.027 C 
ATOM     10  C   UNL A   1      31.132  25.849  22.419  1.00  0.00     0.009 C 
ATOM     11  C   UNL A   1      29.223  27.595  23.633  1.00  0.00    -0.027 C 
ATOM     12  C   UNL A   1      31.073  27.351  22.046  1.00  0.00     0.009 C 
BRANCH   6  13
ATOM     13  C   UNL A   1      31.509  26.137  26.252  1.00  0.00     0.229 C 
ATOM     14  N   UNL A   1      31.851  24.945  26.833  1.00  0.00    -0.317 N 
ATOM     15  H   UNL A   1      31.795  24.969  27.816  1.00  0.00     0.170 HD
ATOM     16  O   UNL A   1      31.144  27.024  27.038  1.00  0.00    -0.274 OA
BRANCH  14  17
ATOM     17  C   UNL A   1      32.260  23.714  26.345  1.00  0.00     0.110 A 
ATOM     18  C   UNL A   1      33.537  23.372  25.869  1.00  0.00     0.098 A 
ATOM     19  C   UNL A   1      33.504  22.052  25.317  1.00  0.00    -0.017 A 
ATOM     20  S   UNL A   1      31.226  22.358  26.365  1.00  0.00    -0.122 S 
ATOM     21  C   UNL A   1      32.277  21.471  25.455  1.00  0.00     0.011 A 
ATOM     22  C   UNL A   1      34.440  21.092  24.678  1.00  0.00     0.038 C 
ATOM     23  C   UNL A   1      32.131  20.126  24.870  1.00  0.00     0.047 C 
ATOM     24  C   UNL A   1      33.474  20.002  24.099  1.00  0.00     0.010 C 
BRANCH  18  25
ATOM     25  C   UNL A   1      34.681  24.270  25.947  1.00  0.00     0.341 C 
ATOM     26  O   UNL A   1      34.626  25.435  25.553  1.00  0.00    -0.246 OA
BRANCH  25  27
ATOM     27  O   UNL A   1      35.795  23.685  26.466  1.00  0.00    -0.462 OA
BRANCH  27  28
ATOM     28  C   UNL A   1      36.978  23.700  25.647  1.00  0.00     0.230 C 
ATOM     29  C   UNL A   1      38.247  24.074  26.400  1.00  0.00     0.049 C 
ENDBRANCH  27  28
ENDBRANCH  25  27
ENDBRANCH  18  25
ENDBRANCH  14  17
ENDBRANCH   6  13
ENDBRANCH   1   5
BRANCH   3  30
ATOM     30  C   UNL A   1      32.566  30.363  26.084  1.00  0.00     0.117 C 
BRANCH  30  31
ATOM     31  C   UNL A   1      33.321  30.091  27.388  1.00  0.00     0.042 C 
BRANCH  31  32
ATOM     32  C   UNL A   1      34.510  31.021  27.578  1.00  0.00     0.118 C 
BRANCH  32  33
ATOM     33  N   UNL A   1      34.379  31.923  28.730  1.00  0.00    -0.352 N 
ATOM     34  C   UNL A   1      35.019  31.873  29.958  1.00  0.00     0.251 C 
ATOM     35  H   UNL A   1      33.747  32.668  28.613  1.00  0.00     0.163 HD
ATOM     36  O   UNL A   1      34.571  32.490  30.918  1.00  0.00    -0.269 OA
BRANCH  34  37
ATOM     37  C   UNL A   1      36.255  31.079  30.098  1.00  0.00     0.039 A 
ATOM     38  C   UNL A   1      36.244  29.694  30.303  1.00  0.00     0.014 A 
ATOM     39  C   UNL A   1      37.464  31.758  30.016  1.00  0.00     0.014 A 
ATOM     40  C   UNL A   1      37.463  29.020  30.380  1.00  0.00     0.010 A 
ATOM     41  C   UNL A   1      38.625  31.074  29.822  1.00  0.00     0.010 A 
ATOM     42  C   UNL A   1      38.650  29.729  30.134  1.00  0.00    -0.014 A 
BRANCH  42  43
ATOM     43  C   UNL A   1      39.955  29.091  30.062  1.00  0.00     0.031 A 
ATOM     44  C   UNL A   1      40.582  28.935  31.396  1.00  0.00     0.074 A 
ATOM     45  C   UNL A   1      40.402  28.461  28.951  1.00  0.00     0.049 A 
ATOM     46  N   UNL A   1      41.594  29.581  31.864  1.00  0.00    -0.248 NA
ATOM     47  C   UNL A   1      39.877  28.121  32.403  1.00  0.00     0.031 C 
ATOM     48  C   UNL A   1      39.706  28.251  27.675  1.00  0.00     0.029 A 
ATOM     49  N   UNL A   1      41.566  27.777  28.760  1.00  0.00    -0.354 N 
ATOM     50  C   UNL A   1      41.809  29.062  33.135  1.00  0.00     0.074 A 
ATOM     51  C   UNL A   1      40.597  28.380  33.496  1.00  0.00     0.031 C 
ATOM     52  C   UNL A   1      40.361  27.322  26.938  1.00  0.00     0.029 A 
ATOM     53  C   UNL A   1      41.601  26.985  27.609  1.00  0.00     0.049 A 
ATOM     54  H   UNL A   1      42.323  27.836  29.386  1.00  0.00     0.167 HD
ATOM     55  C   UNL A   1      43.073  28.972  33.635  1.00  0.00     0.037 A 
ATOM     56  C   UNL A   1      42.582  26.104  27.272  1.00  0.00     0.037 A 
ATOM     57  C   UNL A   1      43.975  29.810  32.873  1.00  0.00     0.049 A 
ATOM     58  C   UNL A   1      43.775  26.455  28.085  1.00  0.00     0.074 A 
ATOM     59  C   UNL A   1      44.028  31.156  32.568  1.00  0.00     0.029 A 
ATOM     60  N   UNL A   1      44.783  29.188  31.951  1.00  0.00    -0.354 N 
ATOM     61  N   UNL A   1      44.464  27.549  27.920  1.00  0.00    -0.248 NA
ATOM     62  C   UNL A   1      43.895  25.825  29.390  1.00  0.00     0.031 C 
ATOM     63  C   UNL A   1      44.456  31.210  31.207  1.00  0.00     0.029 A 
ATOM     64  C   UNL A   1      44.732  29.909  30.787  1.00  0.00     0.049 A 
ATOM     65  H   UNL A   1      45.307  28.369  32.102  1.00  0.00     0.167 HD
ATOM     66  C   UNL A   1      44.730  27.989  29.209  1.00  0.00     0.074 A 
ATOM     67  C   UNL A   1      44.412  26.850  30.072  1.00  0.00     0.031 C 
ATOM     68  C   UNL A   1      44.883  29.319  29.477  1.00  0.00     0.037 A 
BRANCH  55  69
ATOM     69  C   UNL A   1      43.572  27.830  34.497  1.00  0.00     0.057 A 
ATOM     70  C   UNL A   1      44.108  28.133  35.763  1.00  0.00     0.134 A 
ATOM     71  C   UNL A   1      43.823  26.515  34.052  1.00  0.00     0.134 A 
ATOM     72  F   UNL A   1      43.939  29.345  36.312  1.00  0.00    -0.206 F 
ATOM     73  C   UNL A   1      44.915  27.238  36.475  1.00  0.00     0.040 A 
ATOM     74  C   UNL A   1      44.587  25.597  34.780  1.00  0.00     0.040 A 
ATOM     75  F   UNL A   1      43.434  26.058  32.857  1.00  0.00    -0.206 F 
ATOM     76  C   UNL A   1      45.167  25.968  35.978  1.00  0.00     0.006 A 
ENDBRANCH  55  69
BRANCH  56  77
ATOM     77  C   UNL A   1      42.516  24.813  26.542  1.00  0.00     0.057 A 
ATOM     78  C   UNL A   1      43.297  24.594  25.394  1.00  0.00     0.134 A 
ATOM     79  C   UNL A   1      41.948  23.667  27.121  1.00  0.00     0.134 A 
ATOM     80  F   UNL A   1      43.911  25.618  24.782  1.00  0.00    -0.206 F 
ATOM     81  C   UNL A   1      43.542  23.311  24.883  1.00  0.00     0.040 A 
ATOM     82  C   UNL A   1      42.178  22.379  26.617  1.00  0.00     0.040 A 
ATOM     83  F   UNL A   1      41.232  23.746  28.253  1.00  0.00    -0.206 F 
ATOM     84  C   UNL A   1      42.994  22.196  25.507  1.00  0.00     0.006 A 
ENDBRANCH  56  77
BRANCH  68  85
ATOM     85  C   UNL A   1      45.012  30.262  28.309  1.00  0.00     0.057 A 
ATOM     86  C   UNL A   1      43.935  30.892  27.664  1.00  0.00     0.134 A 
ATOM     87  C   UNL A   1      46.295  30.645  27.905  1.00  0.00     0.134 A 
ATOM     88  F   UNL A   1      42.670  30.667  28.042  1.00  0.00    -0.206 F 
ATOM     89  C   UNL A   1      44.128  31.820  26.635  1.00  0.00     0.040 A 
ATOM     90  C   UNL A   1      46.504  31.598  26.905  1.00  0.00     0.040 A 
ATOM     91  F   UNL A   1      47.375  30.127  28.510  1.00  0.00    -0.206 F 
ATOM     92  C   UNL A   1      45.419  32.181  26.257  1.00  0.00     0.006 A 
ENDBRANCH  68  85
ENDBRANCH  42  43
ENDBRANCH  34  37
ENDBRANCH  32  33
ENDBRANCH  31  32
ENDBRANCH  30  31
ENDBRANCH   3  30
TORSDOF 15
ENDMDL
MODEL 2
REMARK VINA RESULT:     -12.0      2.585      7.786
REMARK SMILES CCOC(=O)c1c(NC(=O)[C@@H]2[C@@H](C(=O)NCCCNC(=O)c3ccc(-c4c5nc(c(-c6c(F)cccc6F)c6ccc([nH]6)c(-c6c(F)cccc6F)c6nc(c(-c7c(F)cccc7F)c7ccc4[nH]7)C=C6)C=C5)cc3)[C@@H]3C=C[C@H]2CC3)sc2c1CCC2
REMARK SMILES IDX 13 1 14 2 15 3 12 5 11 6 79 7 76 8 78 9 80 10 77 11 81 12
REMARK SMILES IDX 9 13 8 14 10 16 7 17 6 18 84 19 82 20 83 21 85 22 87 23
REMARK SMILES IDX 86 24 4 25 5 26 3 27 2 28 1 29 16 30 17 31 18 32 19 33 20 34
REMARK SMILES IDX 21 36 22 37 23 38 75 39 24 40 74 41 25 42 26 43 27 44 68 45
REMARK SMILES IDX 28 46 73 47 67 48 69 49 29 50 72 51 66 52 65 53 30 55 56 56
REMARK SMILES IDX 39 57 55 58 40 59 43 60 54 61 70 62 41 63 42 64 53 66 71 67
REMARK SMILES IDX 44 68 31 69 32 70 37 71 33 72 34 73 36 74 38 75 35 76 57 77
REMARK SMILES IDX 58 78 63 79 59 80 60 81 62 82 64 83 61 84 45 85 46 86 51 87
REMARK SMILES IDX 47 88 48 89 50 90 52 91 49 92
REMARK H PARENT 15 4 8 15 19 35 69 54 43 65
REMARK Flexibility Score: inf
ROOT
ATOM      1  C   UNL A   1      35.937  22.739  25.591  1.00  0.00     0.224 C 
ATOM      2  O   UNL A   1      36.299  23.711  26.253  1.00  0.00    -0.275 OA
ATOM      3  N   UNL A   1      36.760  21.653  25.576  1.00  0.00    -0.356 N 
ATOM      4  H   UNL A   1      37.593  21.756  26.091  1.00  0.00     0.163 HD
ENDROOT
BRANCH   1   5
ATOM      5  C   UNL A   1      34.589  22.667  24.888  1.00  0.00     0.098 C 
ATOM      6  C   UNL A   1      33.774  23.996  24.969  1.00  0.00     0.099 C 
ATOM      7  C   UNL A   1      32.332  23.689  25.470  1.00  0.00     0.025 C 
ATOM      8  C   UNL A   1      33.764  21.525  25.560  1.00  0.00     0.025 C 
ATOM      9  C   UNL A   1      31.745  22.509  24.720  1.00  0.00    -0.027 C 
ATOM     10  C   UNL A   1      32.490  23.238  26.945  1.00  0.00     0.009 C 
ATOM     11  C   UNL A   1      32.483  21.390  24.766  1.00  0.00    -0.027 C 
ATOM     12  C   UNL A   1      33.335  21.941  26.995  1.00  0.00     0.009 C 
BRANCH   6  13
ATOM     13  C   UNL A   1      33.785  24.741  23.631  1.00  0.00     0.229 C 
ATOM     14  N   UNL A   1      33.579  26.086  23.487  1.00  0.00    -0.317 N 
ATOM     15  H   UNL A   1      33.739  26.402  22.568  1.00  0.00     0.170 HD
ATOM     16  O   UNL A   1      34.090  24.137  22.592  1.00  0.00    -0.274 OA
BRANCH  14  17
ATOM     17  C   UNL A   1      33.194  27.103  24.347  1.00  0.00     0.110 A 
ATOM     18  C   UNL A   1      32.231  28.098  24.105  1.00  0.00     0.098 A 
ATOM     19  C   UNL A   1      32.241  29.044  25.181  1.00  0.00    -0.017 A 
ATOM     20  S   UNL A   1      33.805  27.209  25.935  1.00  0.00    -0.122 S 
ATOM     21  C   UNL A   1      33.124  28.695  26.160  1.00  0.00     0.011 A 
ATOM     22  C   UNL A   1      31.521  30.281  25.576  1.00  0.00     0.038 C 
ATOM     23  C   UNL A   1      33.242  29.636  27.288  1.00  0.00     0.047 C 
ATOM     24  C   UNL A   1      32.400  30.828  26.754  1.00  0.00     0.010 C 
BRANCH  18  25
ATOM     25  C   UNL A   1      31.387  28.116  22.919  1.00  0.00     0.341 C 
ATOM     26  O   UNL A   1      30.941  27.084  22.417  1.00  0.00    -0.246 OA
BRANCH  25  27
ATOM     27  O   UNL A   1      31.174  29.367  22.425  1.00  0.00    -0.462 OA
BRANCH  27  28
ATOM     28  C   UNL A   1      29.850  29.657  21.941  1.00  0.00     0.230 C 
ATOM     29  C   UNL A   1      28.906  30.196  23.006  1.00  0.00     0.049 C 
ENDBRANCH  27  28
ENDBRANCH  25  27
ENDBRANCH  18  25
ENDBRANCH  14  17
ENDBRANCH   6  13
ENDBRANCH   1   5
BRANCH   3  30
ATOM     30  C   UNL A   1      36.600  20.365  24.918  1.00  0.00     0.117 C 
BRANCH  30  31
ATOM     31  C   UNL A   1      37.934  19.640  24.714  1.00  0.00     0.042 C 
BRANCH  31  32
ATOM     32  C   UNL A   1      38.991  20.069  25.721  1.00  0.00     0.118 C 
BRANCH  32  33
ATOM     33  N   UNL A   1      40.161  19.182  25.766  1.00  0.00    -0.352 N 
ATOM     34  C   UNL A   1      41.496  19.502  25.949  1.00  0.00     0.251 C 
ATOM     35  H   UNL A   1      39.968  18.223  25.650  1.00  0.00     0.163 HD
ATOM     36  O   UNL A   1      42.375  18.706  25.639  1.00  0.00    -0.269 OA
BRANCH  34  37
ATOM     37  C   UNL A   1      41.853  20.811  26.532  1.00  0.00     0.039 A 
ATOM     38  C   UNL A   1      42.394  21.854  25.771  1.00  0.00     0.014 A 
ATOM     39  C   UNL A   1      41.629  20.986  27.891  1.00  0.00     0.014 A 
ATOM     40  C   UNL A   1      42.659  23.071  26.400  1.00  0.00     0.010 A 
ATOM     41  C   UNL A   1      41.633  22.236  28.432  1.00  0.00     0.010 A 
ATOM     42  C   UNL A   1      42.269  23.246  27.737  1.00  0.00    -0.014 A 
BRANCH  42  43
ATOM     43  C   UNL A   1      42.383  24.516  28.437  1.00  0.00     0.031 A 
ATOM     44  C   UNL A   1      41.194  25.379  28.239  1.00  0.00     0.074 A 
ATOM     45  C   UNL A   1      43.325  24.751  29.380  1.00  0.00     0.049 A 
ATOM     46  N   UNL A   1      41.121  26.460  27.540  1.00  0.00    -0.248 NA
ATOM     47  C   UNL A   1      39.887  24.874  28.694  1.00  0.00     0.031 C 
ATOM     48  C   UNL A   1      44.341  23.831  29.908  1.00  0.00     0.029 A 
ATOM     49  N   UNL A   1      43.513  25.860  30.150  1.00  0.00    -0.354 N 
ATOM     50  C   UNL A   1      39.813  26.907  27.687  1.00  0.00     0.074 A 
ATOM     51  C   UNL A   1      39.061  25.784  28.173  1.00  0.00     0.031 C 
ATOM     52  C   UNL A   1      44.881  24.339  31.041  1.00  0.00     0.029 A 
ATOM     53  C   UNL A   1      44.372  25.683  31.238  1.00  0.00     0.049 A 
ATOM     54  H   UNL A   1      43.075  26.719  29.954  1.00  0.00     0.167 HD
ATOM     55  C   UNL A   1      39.542  28.242  27.697  1.00  0.00     0.037 A 
ATOM     56  C   UNL A   1      44.608  26.585  32.228  1.00  0.00     0.037 A 
ATOM     57  C   UNL A   1      40.660  28.986  27.159  1.00  0.00     0.049 A 
ATOM     58  C   UNL A   1      44.157  27.907  31.723  1.00  0.00     0.074 A 
ATOM     59  C   UNL A   1      41.347  28.980  25.960  1.00  0.00     0.029 A 
ATOM     60  N   UNL A   1      41.491  29.610  28.059  1.00  0.00    -0.354 N 
ATOM     61  N   UNL A   1      44.751  28.553  30.760  1.00  0.00    -0.248 NA
ATOM     62  C   UNL A   1      42.768  28.268  31.961  1.00  0.00     0.031 C 
ATOM     63  C   UNL A   1      42.719  29.148  26.319  1.00  0.00     0.029 A 
ATOM     64  C   UNL A   1      42.786  29.344  27.698  1.00  0.00     0.049 A 
ATOM     65  H   UNL A   1      41.205  30.154  28.828  1.00  0.00     0.167 HD
ATOM     66  C   UNL A   1      43.714  29.052  29.985  1.00  0.00     0.074 A 
ATOM     67  C   UNL A   1      42.516  28.901  30.812  1.00  0.00     0.031 C 
ATOM     68  C   UNL A   1      43.874  29.251  28.644  1.00  0.00     0.037 A 
BRANCH  55  69
ATOM     69  C   UNL A   1      38.489  28.893  28.570  1.00  0.00     0.057 A 
ATOM     70  C   UNL A   1      37.638  29.852  27.989  1.00  0.00     0.134 A 
ATOM     71  C   UNL A   1      38.453  28.853  29.980  1.00  0.00     0.134 A 
ATOM     72  F   UNL A   1      37.566  29.994  26.657  1.00  0.00    -0.206 F 
ATOM     73  C   UNL A   1      36.896  30.764  28.749  1.00  0.00     0.040 A 
ATOM     74  C   UNL A   1      37.677  29.728  30.748  1.00  0.00     0.040 A 
ATOM     75  F   UNL A   1      39.224  28.041  30.711  1.00  0.00    -0.206 F 
ATOM     76  C   UNL A   1      36.925  30.712  30.135  1.00  0.00     0.006 A 
ENDBRANCH  55  69
BRANCH  56  77
ATOM     77  C   UNL A   1      44.909  26.387  33.669  1.00  0.00     0.057 A 
ATOM     78  C   UNL A   1      43.947  25.838  34.536  1.00  0.00     0.134 A 
ATOM     79  C   UNL A   1      46.224  26.424  34.159  1.00  0.00     0.134 A 
ATOM     80  F   UNL A   1      42.667  25.727  34.152  1.00  0.00    -0.206 F 
ATOM     81  C   UNL A   1      44.281  25.310  35.791  1.00  0.00     0.040 A 
ATOM     82  C   UNL A   1      46.570  25.906  35.415  1.00  0.00     0.040 A 
ATOM     83  F   UNL A   1      47.233  26.871  33.399  1.00  0.00    -0.206 F 
ATOM     84  C   UNL A   1      45.601  25.327  36.227  1.00  0.00     0.006 A 
ENDBRANCH  56  77
BRANCH  68  85
ATOM     85  C   UNL A   1      45.269  29.160  28.081  1.00  0.00     0.057 A 
ATOM     86  C   UNL A   1      45.865  27.982  27.601  1.00  0.00     0.134 A 
ATOM     87  C   UNL A   1      45.989  30.345  27.900  1.00  0.00     0.134 A 
ATOM     88  F   UNL A   1      45.219  26.810  27.638  1.00  0.00    -0.206 F 
ATOM     89  C   UNL A   1      47.136  27.981  27.016  1.00  0.00     0.040 A 
ATOM     90  C   UNL A   1      47.242  30.364  27.284  1.00  0.00     0.040 A 
ATOM     91  F   UNL A   1      45.463  31.519  28.284  1.00  0.00    -0.206 F 
ATOM     92  C   UNL A   1      47.827  29.178  26.851  1.00  0.00     0.006 A 
ENDBRANCH  68  85
ENDBRANCH  42  43
ENDBRANCH  34  37
ENDBRANCH  32  33
ENDBRANCH  31  32
ENDBRANCH  30  31
ENDBRANCH   3  30
TORSDOF 15
ENDMDL
MODEL 3
REMARK VINA RESULT:     -11.9      1.107      2.020
REMARK SMILES CCOC(=O)c1c(NC(=O)[C@@H]2[C@@H](C(=O)NCCCNC(=O)c3ccc(-c4c5nc(c(-c6c(F)cccc6F)c6ccc([nH]6)c(-c6c(F)cccc6F)c6nc(c(-c7c(F)cccc7F)c7ccc4[nH]7)C=C6)C=C5)cc3)[C@@H]3C=C[C@H]2CC3)sc2c1CCC2
REMARK SMILES IDX 13 1 14 2 15 3 12 5 11 6 79 7 76 8 78 9 80 10 77 11 81 12
REMARK SMILES IDX 9 13 8 14 10 16 7 17 6 18 84 19 82 20 83 21 85 22 87 23
REMARK SMILES IDX 86 24 4 25 5 26 3 27 2 28 1 29 16 30 17 31 18 32 19 33 20 34
REMARK SMILES IDX 21 36 22 37 23 38 75 39 24 40 74 41 25 42 26 43 27 44 68 45
REMARK SMILES IDX 28 46 73 47 67 48 69 49 29 50 72 51 66 52 65 53 30 55 56 56
REMARK SMILES IDX 39 57 55 58 40 59 43 60 54 61 70 62 41 63 42 64 53 66 71 67
REMARK SMILES IDX 44 68 31 69 32 70 37 71 33 72 34 73 36 74 38 75 35 76 57 77
REMARK SMILES IDX 58 78 63 79 59 80 60 81 62 82 64 83 61 84 45 85 46 86 51 87
REMARK SMILES IDX 47 88 48 89 50 90 52 91 49 92
REMARK H PARENT 15 4 8 15 19 35 69 54 43 65
REMARK Flexibility Score: inf
ROOT
ATOM      1  C   UNL A   1      33.328  27.875  24.537  1.00  0.00     0.224 C 
ATOM      2  O   UNL A   1      34.239  27.351  23.899  1.00  0.00    -0.275 OA
ATOM      3  N   UNL A   1      33.547  29.131  25.020  1.00  0.00    -0.356 N 
ATOM      4  H   UNL A   1      34.438  29.501  24.826  1.00  0.00     0.163 HD
ENDROOT
BRANCH   1   5
ATOM      5  C   UNL A   1      31.959  27.233  24.715  1.00  0.00     0.098 C 
ATOM      6  C   UNL A   1      31.985  25.677  24.600  1.00  0.00     0.099 C 
ATOM      7  C   UNL A   1      30.891  25.214  23.593  1.00  0.00     0.025 C 
ATOM      8  C   UNL A   1      31.018  27.808  23.611  1.00  0.00     0.025 C 
ATOM      9  C   UNL A   1      29.574  25.911  23.875  1.00  0.00    -0.027 C 
ATOM     10  C   UNL A   1      31.364  25.716  22.204  1.00  0.00     0.009 C 
ATOM     11  C   UNL A   1      29.638  27.252  23.885  1.00  0.00    -0.027 C 
ATOM     12  C   UNL A   1      31.428  27.263  22.214  1.00  0.00     0.009 C 
BRANCH   6  13
ATOM     13  C   UNL A   1      31.838  25.012  25.972  1.00  0.00     0.229 C 
ATOM     14  N   UNL A   1      32.747  24.148  26.521  1.00  0.00    -0.317 N 
ATOM     15  H   UNL A   1      32.540  23.917  27.455  1.00  0.00     0.170 HD
ATOM     16  O   UNL A   1      30.891  25.324  26.709  1.00  0.00    -0.274 OA
BRANCH  14  17
ATOM     17  C   UNL A   1      33.895  23.527  26.053  1.00  0.00     0.110 A 
ATOM     18  C   UNL A   1      34.046  22.172  25.712  1.00  0.00     0.098 A 
ATOM     19  C   UNL A   1      35.422  21.903  25.420  1.00  0.00    -0.017 A 
ATOM     20  S   UNL A   1      35.314  24.410  25.716  1.00  0.00    -0.122 S 
ATOM     21  C   UNL A   1      36.189  23.029  25.492  1.00  0.00     0.011 A 
ATOM     22  C   UNL A   1      36.263  20.753  25.001  1.00  0.00     0.038 C 
ATOM     23  C   UNL A   1      37.632  22.843  25.256  1.00  0.00     0.047 C 
ATOM     24  C   UNL A   1      37.718  21.292  25.225  1.00  0.00     0.010 C 
BRANCH  18  25
ATOM     25  C   UNL A   1      32.936  21.231  25.685  1.00  0.00     0.341 C 
ATOM     26  O   UNL A   1      31.808  21.559  25.316  1.00  0.00    -0.246 OA
BRANCH  25  27
ATOM     27  O   UNL A   1      33.270  19.987  26.126  1.00  0.00    -0.462 OA
BRANCH  27  28
ATOM     28  C   UNL A   1      32.747  18.872  25.382  1.00  0.00     0.230 C 
ATOM     29  C   UNL A   1      33.645  18.413  24.242  1.00  0.00     0.049 C 
ENDBRANCH  27  28
ENDBRANCH  25  27
ENDBRANCH  18  25
ENDBRANCH  14  17
ENDBRANCH   6  13
ENDBRANCH   1   5
BRANCH   3  30
ATOM     30  C   UNL A   1      32.669  30.011  25.777  1.00  0.00     0.117 C 
BRANCH  30  31
ATOM     31  C   UNL A   1      33.051  30.090  27.258  1.00  0.00     0.042 C 
BRANCH  31  32
ATOM     32  C   UNL A   1      34.395  30.766  27.478  1.00  0.00     0.118 C 
BRANCH  32  33
ATOM     33  N   UNL A   1      34.364  31.833  28.488  1.00  0.00    -0.352 N 
ATOM     34  C   UNL A   1      35.072  31.937  29.674  1.00  0.00     0.251 C 
ATOM     35  H   UNL A   1      33.752  32.579  28.294  1.00  0.00     0.163 HD
ATOM     36  O   UNL A   1      34.702  32.708  30.553  1.00  0.00    -0.269 OA
BRANCH  34  37
ATOM     37  C   UNL A   1      36.286  31.119  29.867  1.00  0.00     0.039 A 
ATOM     38  C   UNL A   1      36.236  29.746  30.130  1.00  0.00     0.014 A 
ATOM     39  C   UNL A   1      37.512  31.765  29.773  1.00  0.00     0.014 A 
ATOM     40  C   UNL A   1      37.437  29.046  30.254  1.00  0.00     0.010 A 
ATOM     41  C   UNL A   1      38.657  31.045  29.626  1.00  0.00     0.010 A 
ATOM     42  C   UNL A   1      38.645  29.714  29.995  1.00  0.00    -0.014 A 
BRANCH  42  43
ATOM     43  C   UNL A   1      39.934  29.041  29.971  1.00  0.00     0.031 A 
ATOM     44  C   UNL A   1      40.522  28.896  31.323  1.00  0.00     0.074 A 
ATOM     45  C   UNL A   1      40.393  28.378  28.884  1.00  0.00     0.049 A 
ATOM     46  N   UNL A   1      41.538  29.525  31.806  1.00  0.00    -0.248 NA
ATOM     47  C   UNL A   1      39.770  28.120  32.326  1.00  0.00     0.031 C 
ATOM     48  C   UNL A   1      39.725  28.161  27.593  1.00  0.00     0.029 A 
ATOM     49  N   UNL A   1      41.543  27.661  28.737  1.00  0.00    -0.354 N 
ATOM     50  C   UNL A   1      41.707  29.025  33.091  1.00  0.00     0.074 A 
ATOM     51  C   UNL A   1      40.468  28.382  33.433  1.00  0.00     0.031 C 
ATOM     52  C   UNL A   1      40.374  27.202  26.892  1.00  0.00     0.029 A 
ATOM     53  C   UNL A   1      41.588  26.846  27.602  1.00  0.00     0.049 A 
ATOM     54  H   UNL A   1      42.285  27.713  29.381  1.00  0.00     0.167 HD
ATOM     55  C   UNL A   1      42.954  28.912  33.626  1.00  0.00     0.037 A 
ATOM     56  C   UNL A   1      42.554  25.934  27.308  1.00  0.00     0.037 A 
ATOM     57  C   UNL A   1      43.897  29.712  32.873  1.00  0.00     0.049 A 
ATOM     58  C   UNL A   1      43.733  26.270  28.145  1.00  0.00     0.074 A 
ATOM     59  C   UNL A   1      43.993  31.050  32.543  1.00  0.00     0.029 A 
ATOM     60  N   UNL A   1      44.712  29.052  31.984  1.00  0.00    -0.354 N 
ATOM     61  N   UNL A   1      44.455  27.342  27.978  1.00  0.00    -0.248 NA
ATOM     62  C   UNL A   1      43.803  25.663  29.465  1.00  0.00     0.031 C 
ATOM     63  C   UNL A   1      44.457  31.066  31.193  1.00  0.00     0.029 A 
ATOM     64  C   UNL A   1      44.710  29.750  30.805  1.00  0.00     0.049 A 
ATOM     65  H   UNL A   1      45.210  28.222  32.164  1.00  0.00     0.167 HD
ATOM     66  C   UNL A   1      44.699  27.800  29.265  1.00  0.00     0.074 A 
ATOM     67  C   UNL A   1      44.329  26.688  30.140  1.00  0.00     0.031 C 
ATOM     68  C   UNL A   1      44.880  29.131  29.511  1.00  0.00     0.037 A 
BRANCH  55  69
ATOM     69  C   UNL A   1      43.400  27.775  34.522  1.00  0.00     0.057 A 
ATOM     70  C   UNL A   1      43.400  26.470  33.996  1.00  0.00     0.134 A 
ATOM     71  C   UNL A   1      43.546  27.844  35.924  1.00  0.00     0.134 A 
ATOM     72  F   UNL A   1      43.277  26.257  32.678  1.00  0.00    -0.206 F 
ATOM     73  C   UNL A   1      43.433  25.329  34.807  1.00  0.00     0.040 A 
ATOM     74  C   UNL A   1      43.629  26.711  36.738  1.00  0.00     0.040 A 
ATOM     75  F   UNL A   1      43.523  28.993  36.608  1.00  0.00    -0.206 F 
ATOM     76  C   UNL A   1      43.535  25.447  36.185  1.00  0.00     0.006 A 
ENDBRANCH  55  69
BRANCH  56  77
ATOM     77  C   UNL A   1      42.473  24.630  26.602  1.00  0.00     0.057 A 
ATOM     78  C   UNL A   1      43.266  24.375  25.469  1.00  0.00     0.134 A 
ATOM     79  C   UNL A   1      41.873  23.507  27.193  1.00  0.00     0.134 A 
ATOM     80  F   UNL A   1      43.910  25.375  24.848  1.00  0.00    -0.206 F 
ATOM     81  C   UNL A   1      43.493  23.078  24.986  1.00  0.00     0.040 A 
ATOM     82  C   UNL A   1      42.085  22.206  26.716  1.00  0.00     0.040 A 
ATOM     83  F   UNL A   1      41.143  23.621  28.312  1.00  0.00    -0.206 F 
ATOM     84  C   UNL A   1      42.914  21.986  25.623  1.00  0.00     0.006 A 
ENDBRANCH  56  77
BRANCH  68  85
ATOM     85  C   UNL A   1      45.064  30.047  28.329  1.00  0.00     0.057 A 
ATOM     86  C   UNL A   1      44.021  30.702  27.652  1.00  0.00     0.134 A 
ATOM     87  C   UNL A   1      46.367  30.380  27.944  1.00  0.00     0.134 A 
ATOM     88  F   UNL A   1      42.742  30.527  28.008  1.00  0.00    -0.206 F 
ATOM     89  C   UNL A   1      44.267  31.604  26.611  1.00  0.00     0.040 A 
ATOM     90  C   UNL A   1      46.627  31.306  26.932  1.00  0.00     0.040 A 
ATOM     91  F   UNL A   1      47.417  29.836  28.580  1.00  0.00    -0.206 F 
ATOM     92  C   UNL A   1      45.575  31.913  26.252  1.00  0.00     0.006 A 
ENDBRANCH  68  85
ENDBRANCH  42  43
ENDBRANCH  34  37
ENDBRANCH  32  33
ENDBRANCH  31  32
ENDBRANCH  30  31
ENDBRANCH   3  30
TORSDOF 15
ENDMDL
