MODEL 1
REMARK VINA RESULT:     -12.9      0.000      0.000
REMARK SMILES C[C@@H](Sc1nc(-c2ccc3c(c2)OCO3)ccc1C#N)C(=O)NCCCNC(=O)c1ccc(-c2c3nc(c(-c4c(F)cccc4F)c4ccc([nH]4)c(-c4c(F)cccc4F)c4nc(c(-c5c(F)cccc5F)c5ccc2[nH]5)C=C4)C=C3)cc1
REMARK SMILES IDX 24 1 23 2 21 3 22 4 2 6 1 7 3 8 4 9 5 10 18 11 6 12 17 13
REMARK SMILES IDX 16 14 19 15 20 16 7 17 8 18 12 19 9 20 11 21 10 22 13 23
REMARK SMILES IDX 15 24 14 25 25 26 26 27 27 28 28 29 29 31 30 32 31 33 83 34
REMARK SMILES IDX 32 35 82 36 33 37 34 38 35 39 76 40 36 41 81 42 75 43 77 44
REMARK SMILES IDX 37 45 80 46 74 47 73 48 38 50 64 51 47 52 63 53 48 54 51 55
REMARK SMILES IDX 62 56 78 57 49 58 50 59 61 61 79 62 52 63 39 64 40 65 45 66
REMARK SMILES IDX 41 67 42 68 44 69 46 70 43 71 65 72 66 73 71 74 67 75 68 76
REMARK SMILES IDX 70 77 72 78 69 79 53 80 54 81 59 82 55 83 56 84 58 85 60 86
REMARK SMILES IDX 57 87
REMARK H PARENT 23 5 27 30 77 49 51 60
REMARK Flexibility Score: inf
ROOT
ATOM      1  C   UNL A   1      31.785  30.649  26.417  1.00  0.00     0.117 C 
ENDROOT
BRANCH   1   2
ATOM      2  N   UNL A   1      33.141  30.246  26.757  1.00  0.00    -0.355 N 
ATOM      3  C   UNL A   1      33.673  28.999  26.932  1.00  0.00     0.233 C 
ATOM      4  O   UNL A   1      34.875  28.927  27.206  1.00  0.00    -0.274 OA
ATOM      5  H   UNL A   1      33.775  30.989  26.882  1.00  0.00     0.163 HD
BRANCH   3   6
ATOM      6  C   UNL A   1      32.809  27.734  26.829  1.00  0.00     0.139 C 
ATOM      7  C   UNL A   1      31.475  27.965  27.530  1.00  0.00     0.030 C 
BRANCH   6   8
ATOM      8  S   UNL A   1      32.820  27.224  25.054  1.00  0.00    -0.092 SA
BRANCH   8   9
ATOM      9  C   UNL A   1      31.131  27.361  24.522  1.00  0.00     0.115 A 
ATOM     10  N   UNL A   1      30.758  28.539  23.963  1.00  0.00    -0.240 NA
ATOM     11  C   UNL A   1      30.295  26.243  24.548  1.00  0.00     0.084 A 
ATOM     12  C   UNL A   1      29.509  28.640  23.447  1.00  0.00     0.072 A 
ATOM     13  C   UNL A   1      29.022  26.354  23.988  1.00  0.00     0.024 A 
ATOM     14  C   UNL A   1      28.624  27.565  23.434  1.00  0.00     0.030 A 
BRANCH  11  15
ATOM     15  C   UNL A   1      30.699  24.988  25.109  1.00  0.00     0.102 C 
ATOM     16  N   UNL A   1      31.062  23.984  25.560  1.00  0.00    -0.192 NA
ENDBRANCH  11  15
BRANCH  12  17
ATOM     17  C   UNL A   1      29.112  29.952  22.920  1.00  0.00     0.004 A 
ATOM     18  C   UNL A   1      29.170  31.097  23.758  1.00  0.00     0.014 A 
ATOM     19  C   UNL A   1      28.633  30.100  21.606  1.00  0.00     0.061 A 
ATOM     20  C   UNL A   1      28.742  32.352  23.317  1.00  0.00     0.051 A 
ATOM     21  C   UNL A   1      28.202  31.349  21.201  1.00  0.00     0.166 A 
ATOM     22  C   UNL A   1      28.252  32.441  22.035  1.00  0.00     0.165 A 
ATOM     23  O   UNL A   1      27.672  31.656  19.986  1.00  0.00    -0.454 OA
ATOM     24  O   UNL A   1      27.765  33.569  21.451  1.00  0.00    -0.454 OA
ATOM     25  C   UNL A   1      27.368  33.057  20.164  1.00  0.00     0.468 C 
ENDBRANCH  12  17
ENDBRANCH   8   9
ENDBRANCH   6   8
ENDBRANCH   3   6
ENDBRANCH   1   2
BRANCH   1  26
ATOM     26  C   UNL A   1      31.542  32.123  26.688  1.00  0.00     0.042 C 
BRANCH  26  27
ATOM     27  C   UNL A   1      32.763  32.837  27.242  1.00  0.00     0.118 C 
BRANCH  27  28
ATOM     28  N   UNL A   1      32.477  34.214  27.624  1.00  0.00    -0.352 N 
ATOM     29  C   UNL A   1      33.007  34.981  28.631  1.00  0.00     0.251 C 
ATOM     30  H   UNL A   1      31.796  34.666  27.074  1.00  0.00     0.163 HD
ATOM     31  O   UNL A   1      32.484  36.051  28.927  1.00  0.00    -0.269 OA
BRANCH  29  32
ATOM     32  C   UNL A   1      34.194  34.509  29.374  1.00  0.00     0.039 A 
ATOM     33  C   UNL A   1      34.019  33.953  30.643  1.00  0.00     0.014 A 
ATOM     34  C   UNL A   1      35.474  34.617  28.827  1.00  0.00     0.014 A 
ATOM     35  C   UNL A   1      35.120  33.439  31.329  1.00  0.00     0.010 A 
ATOM     36  C   UNL A   1      36.552  34.011  29.462  1.00  0.00     0.010 A 
ATOM     37  C   UNL A   1      36.389  33.421  30.723  1.00  0.00    -0.014 A 
BRANCH  37  38
ATOM     38  C   UNL A   1      37.549  32.782  31.392  1.00  0.00     0.031 A 
ATOM     39  C   UNL A   1      38.207  31.573  30.783  1.00  0.00     0.074 A 
ATOM     40  C   UNL A   1      37.977  33.258  32.577  1.00  0.00     0.049 A 
ATOM     41  N   UNL A   1      39.199  30.853  31.244  1.00  0.00    -0.248 NA
ATOM     42  C   UNL A   1      37.663  31.094  29.503  1.00  0.00     0.031 C 
ATOM     43  C   UNL A   1      37.392  34.394  33.294  1.00  0.00     0.029 A 
ATOM     44  N   UNL A   1      38.998  32.842  33.395  1.00  0.00    -0.354 N 
ATOM     45  C   UNL A   1      39.390  29.837  30.316  1.00  0.00     0.074 A 
ATOM     46  C   UNL A   1      38.372  29.994  29.300  1.00  0.00     0.031 C 
ATOM     47  C   UNL A   1      38.085  34.606  34.423  1.00  0.00     0.029 A 
ATOM     48  C   UNL A   1      39.126  33.591  34.541  1.00  0.00     0.049 A 
ATOM     49  H   UNL A   1      39.583  32.080  33.181  1.00  0.00     0.167 HD
ATOM     50  C   UNL A   1      40.344  28.875  30.299  1.00  0.00     0.037 A 
ATOM     51  C   UNL A   1      39.978  33.466  35.575  1.00  0.00     0.037 A 
ATOM     52  C   UNL A   1      41.358  28.728  31.309  1.00  0.00     0.049 A 
ATOM     53  C   UNL A   1      41.003  32.366  35.550  1.00  0.00     0.074 A 
ATOM     54  C   UNL A   1      42.399  27.817  31.357  1.00  0.00     0.029 A 
ATOM     55  N   UNL A   1      41.451  29.503  32.456  1.00  0.00    -0.354 N 
ATOM     56  N   UNL A   1      41.220  31.457  34.630  1.00  0.00    -0.248 NA
ATOM     57  C   UNL A   1      41.906  32.276  36.706  1.00  0.00     0.031 C 
ATOM     58  C   UNL A   1      43.079  27.995  32.565  1.00  0.00     0.029 A 
ATOM     59  C   UNL A   1      42.512  29.067  33.235  1.00  0.00     0.049 A 
ATOM     60  H   UNL A   1      40.853  30.251  32.684  1.00  0.00     0.167 HD
ATOM     61  C   UNL A   1      42.303  30.712  35.078  1.00  0.00     0.074 A 
ATOM     62  C   UNL A   1      42.708  31.285  36.344  1.00  0.00     0.031 C 
ATOM     63  C   UNL A   1      42.910  29.650  34.492  1.00  0.00     0.037 A 
BRANCH  50  64
ATOM     64  C   UNL A   1      40.330  27.902  29.154  1.00  0.00     0.057 A 
ATOM     65  C   UNL A   1      39.557  26.733  29.180  1.00  0.00     0.134 A 
ATOM     66  C   UNL A   1      41.070  28.157  27.991  1.00  0.00     0.134 A 
ATOM     67  F   UNL A   1      38.831  26.422  30.264  1.00  0.00    -0.206 F 
ATOM     68  C   UNL A   1      39.544  25.840  28.107  1.00  0.00     0.040 A 
ATOM     69  C   UNL A   1      41.039  27.289  26.899  1.00  0.00     0.040 A 
ATOM     70  F   UNL A   1      41.826  29.261  27.892  1.00  0.00    -0.206 F 
ATOM     71  C   UNL A   1      40.280  26.121  26.958  1.00  0.00     0.006 A 
ENDBRANCH  50  64
BRANCH  51  72
ATOM     72  C   UNL A   1      39.906  34.412  36.720  1.00  0.00     0.057 A 
ATOM     73  C   UNL A   1      39.151  34.114  37.860  1.00  0.00     0.134 A 
ATOM     74  C   UNL A   1      40.575  35.641  36.696  1.00  0.00     0.134 A 
ATOM     75  F   UNL A   1      38.472  32.959  37.939  1.00  0.00    -0.206 F 
ATOM     76  C   UNL A   1      39.038  35.014  38.921  1.00  0.00     0.040 A 
ATOM     77  C   UNL A   1      40.499  36.538  37.763  1.00  0.00     0.040 A 
ATOM     78  F   UNL A   1      41.325  35.985  35.639  1.00  0.00    -0.206 F 
ATOM     79  C   UNL A   1      39.719  36.229  38.876  1.00  0.00     0.006 A 
ENDBRANCH  51  72
BRANCH  63  80
ATOM     80  C   UNL A   1      44.107  29.065  35.188  1.00  0.00     0.057 A 
ATOM     81  C   UNL A   1      43.996  28.015  36.109  1.00  0.00     0.134 A 
ATOM     82  C   UNL A   1      45.394  29.536  34.899  1.00  0.00     0.134 A 
ATOM     83  F   UNL A   1      42.792  27.523  36.439  1.00  0.00    -0.206 F 
ATOM     84  C   UNL A   1      45.118  27.473  36.736  1.00  0.00     0.040 A 
ATOM     85  C   UNL A   1      46.527  28.978  35.494  1.00  0.00     0.040 A 
ATOM     86  F   UNL A   1      45.575  30.533  34.020  1.00  0.00    -0.206 F 
ATOM     87  C   UNL A   1      46.390  27.949  36.421  1.00  0.00     0.006 A 
ENDBRANCH  63  80
ENDBRANCH  37  38
ENDBRANCH  29  32
ENDBRANCH  27  28
ENDBRANCH  26  27
ENDBRANCH   1  26
TORSDOF 14
ENDMDL
MODEL 2
REMARK VINA RESULT:     -12.8      0.590      6.187
REMARK SMILES C[C@@H](Sc1nc(-c2ccc3c(c2)OCO3)ccc1C#N)C(=O)NCCCNC(=O)c1ccc(-c2c3nc(c(-c4c(F)cccc4F)c4ccc([nH]4)c(-c4c(F)cccc4F)c4nc(c(-c5c(F)cccc5F)c5ccc2[nH]5)C=C4)C=C3)cc1
REMARK SMILES IDX 24 1 23 2 21 3 22 4 2 6 1 7 3 8 4 9 5 10 18 11 6 12 17 13
REMARK SMILES IDX 16 14 19 15 20 16 7 17 8 18 12 19 9 20 11 21 10 22 13 23
REMARK SMILES IDX 15 24 14 25 25 26 26 27 27 28 28 29 29 31 30 32 31 33 83 34
REMARK SMILES IDX 32 35 82 36 33 37 34 38 35 39 76 40 36 41 81 42 75 43 77 44
REMARK SMILES IDX 37 45 80 46 74 47 73 48 38 50 64 51 47 52 63 53 48 54 51 55
REMARK SMILES IDX 62 56 78 57 49 58 50 59 61 61 79 62 52 63 39 64 40 65 45 66
REMARK SMILES IDX 41 67 42 68 44 69 46 70 43 71 65 72 66 73 71 74 67 75 68 76
REMARK SMILES IDX 70 77 72 78 69 79 53 80 54 81 59 82 55 83 56 84 58 85 60 86
REMARK SMILES IDX 57 87
REMARK H PARENT 23 5 27 30 77 49 51 60
REMARK Flexibility Score: inf
ROOT
ATOM      1  C   UNL A   1      31.740  30.705  26.497  1.00  0.00     0.117 C 
ENDROOT
BRANCH   1   2
ATOM      2  N   UNL A   1      33.089  30.301  26.860  1.00  0.00    -0.355 N 
ATOM      3  C   UNL A   1      33.615  29.054  27.053  1.00  0.00     0.233 C 
ATOM      4  O   UNL A   1      34.813  28.980  27.344  1.00  0.00    -0.274 OA
ATOM      5  H   UNL A   1      33.725  31.043  26.987  1.00  0.00     0.163 HD
BRANCH   3   6
ATOM      6  C   UNL A   1      32.748  27.791  26.949  1.00  0.00     0.139 C 
ATOM      7  C   UNL A   1      31.402  28.035  27.621  1.00  0.00     0.030 C 
BRANCH   6   8
ATOM      8  S   UNL A   1      32.791  27.259  25.181  1.00  0.00    -0.092 SA
BRANCH   8   9
ATOM      9  C   UNL A   1      31.110  27.374  24.621  1.00  0.00     0.115 A 
ATOM     10  N   UNL A   1      30.736  28.540  24.038  1.00  0.00    -0.240 NA
ATOM     11  C   UNL A   1      30.282  26.250  24.653  1.00  0.00     0.084 A 
ATOM     12  C   UNL A   1      29.494  28.623  23.501  1.00  0.00     0.072 A 
ATOM     13  C   UNL A   1      29.017  26.342  24.072  1.00  0.00     0.024 A 
ATOM     14  C   UNL A   1      28.618  27.541  23.492  1.00  0.00     0.030 A 
BRANCH  11  15
ATOM     15  C   UNL A   1      30.687  25.008  25.241  1.00  0.00     0.102 C 
ATOM     16  N   UNL A   1      31.049  24.010  25.705  1.00  0.00    -0.192 NA
ENDBRANCH  11  15
BRANCH  12  17
ATOM     17  C   UNL A   1      29.096  29.923  22.946  1.00  0.00     0.004 A 
ATOM     18  C   UNL A   1      29.153  31.085  23.760  1.00  0.00     0.014 A 
ATOM     19  C   UNL A   1      28.617  30.042  21.629  1.00  0.00     0.061 A 
ATOM     20  C   UNL A   1      28.722  32.330  23.293  1.00  0.00     0.051 A 
ATOM     21  C   UNL A   1      28.183  31.283  21.199  1.00  0.00     0.166 A 
ATOM     22  C   UNL A   1      28.232  32.392  22.009  1.00  0.00     0.165 A 
ATOM     23  O   UNL A   1      27.654  31.563  19.977  1.00  0.00    -0.454 OA
ATOM     24  O   UNL A   1      27.744  33.507  21.402  1.00  0.00    -0.454 OA
ATOM     25  C   UNL A   1      27.348  32.967  20.126  1.00  0.00     0.468 C 
ENDBRANCH  12  17
ENDBRANCH   8   9
ENDBRANCH   6   8
ENDBRANCH   3   6
ENDBRANCH   1   2
BRANCH   1  26
ATOM     26  C   UNL A   1      31.517  32.194  26.695  1.00  0.00     0.042 C 
BRANCH  26  27
ATOM     27  C   UNL A   1      32.783  32.941  27.081  1.00  0.00     0.118 C 
BRANCH  27  28
ATOM     28  N   UNL A   1      32.504  34.263  27.627  1.00  0.00    -0.352 N 
ATOM     29  C   UNL A   1      33.044  34.903  28.715  1.00  0.00     0.251 C 
ATOM     30  H   UNL A   1      31.820  34.779  27.140  1.00  0.00     0.163 HD
ATOM     31  O   UNL A   1      32.527  35.931  29.140  1.00  0.00    -0.269 OA
BRANCH  29  32
ATOM     32  C   UNL A   1      34.234  34.342  29.387  1.00  0.00     0.039 A 
ATOM     33  C   UNL A   1      34.059  33.573  30.539  1.00  0.00     0.014 A 
ATOM     34  C   UNL A   1      35.518  34.576  28.888  1.00  0.00     0.014 A 
ATOM     35  C   UNL A   1      35.166  32.978  31.146  1.00  0.00     0.010 A 
ATOM     36  C   UNL A   1      36.605  33.899  29.430  1.00  0.00     0.010 A 
ATOM     37  C   UNL A   1      36.442  33.098  30.569  1.00  0.00    -0.014 A 
BRANCH  37  38
ATOM     38  C   UNL A   1      37.612  32.385  31.139  1.00  0.00     0.031 A 
ATOM     39  C   UNL A   1      38.265  32.882  32.401  1.00  0.00     0.074 A 
ATOM     40  C   UNL A   1      38.123  31.321  30.489  1.00  0.00     0.049 A 
ATOM     41  N   UNL A   1      39.321  32.421  33.021  1.00  0.00    -0.248 NA
ATOM     42  C   UNL A   1      37.668  34.069  33.035  1.00  0.00     0.031 C 
ATOM     43  C   UNL A   1      37.610  30.771  29.232  1.00  0.00     0.029 A 
ATOM     44  N   UNL A   1      39.192  30.514  30.791  1.00  0.00    -0.354 N 
ATOM     45  C   UNL A   1      39.518  33.262  34.109  1.00  0.00     0.074 A 
ATOM     46  C   UNL A   1      38.512  34.299  34.029  1.00  0.00     0.031 C 
ATOM     47  C   UNL A   1      38.341  29.700  28.890  1.00  0.00     0.029 A 
ATOM     48  C   UNL A   1      39.406  29.517  29.870  1.00  0.00     0.049 A 
ATOM     49  H   UNL A   1      39.751  30.639  31.590  1.00  0.00     0.167 HD
ATOM     50  C   UNL A   1      40.437  33.165  35.099  1.00  0.00     0.037 A 
ATOM     51  C   UNL A   1      40.361  28.570  29.814  1.00  0.00     0.037 A 
ATOM     52  C   UNL A   1      41.430  32.127  35.176  1.00  0.00     0.049 A 
ATOM     53  C   UNL A   1      41.393  28.506  30.906  1.00  0.00     0.074 A 
ATOM     54  C   UNL A   1      42.375  31.912  36.165  1.00  0.00     0.029 A 
ATOM     55  N   UNL A   1      41.618  31.137  34.222  1.00  0.00    -0.354 N 
ATOM     56  N   UNL A   1      41.522  29.263  31.969  1.00  0.00    -0.248 NA
ATOM     57  C   UNL A   1      42.411  27.453  30.793  1.00  0.00     0.031 C 
ATOM     58  C   UNL A   1      43.178  30.836  35.776  1.00  0.00     0.029 A 
ATOM     59  C   UNL A   1      42.686  30.331  34.582  1.00  0.00     0.049 A 
ATOM     60  H   UNL A   1      41.074  31.025  33.409  1.00  0.00     0.167 HD
ATOM     61  C   UNL A   1      42.611  28.758  32.667  1.00  0.00     0.074 A 
ATOM     62  C   UNL A   1      43.096  27.620  31.916  1.00  0.00     0.031 C 
ATOM     63  C   UNL A   1      43.158  29.195  33.829  1.00  0.00     0.037 A 
BRANCH  50  64
ATOM     64  C   UNL A   1      40.414  34.214  36.175  1.00  0.00     0.057 A 
ATOM     65  C   UNL A   1      41.166  35.393  36.080  1.00  0.00     0.134 A 
ATOM     66  C   UNL A   1      39.599  34.060  37.304  1.00  0.00     0.134 A 
ATOM     67  F   UNL A   1      41.975  35.602  35.031  1.00  0.00    -0.206 F 
ATOM     68  C   UNL A   1      41.131  36.365  37.082  1.00  0.00     0.040 A 
ATOM     69  C   UNL A   1      39.529  35.041  38.295  1.00  0.00     0.040 A 
ATOM     70  F   UNL A   1      38.846  32.961  37.457  1.00  0.00    -0.206 F 
ATOM     71  C   UNL A   1      40.304  36.194  38.189  1.00  0.00     0.006 A 
ENDBRANCH  50  64
BRANCH  51  72
ATOM     72  C   UNL A   1      40.382  27.597  28.690  1.00  0.00     0.057 A 
ATOM     73  C   UNL A   1      39.649  26.406  28.748  1.00  0.00     0.134 A 
ATOM     74  C   UNL A   1      41.148  27.825  27.540  1.00  0.00     0.134 A 
ATOM     75  F   UNL A   1      38.908  26.120  29.829  1.00  0.00    -0.206 F 
ATOM     76  C   UNL A   1      39.698  25.464  27.719  1.00  0.00     0.040 A 
ATOM     77  C   UNL A   1      41.182  26.907  26.489  1.00  0.00     0.040 A 
ATOM     78  F   UNL A   1      41.866  28.950  27.416  1.00  0.00    -0.206 F 
ATOM     79  C   UNL A   1      40.463  25.717  26.582  1.00  0.00     0.006 A 
ENDBRANCH  51  72
BRANCH  63  80
ATOM     80  C   UNL A   1      44.315  28.415  34.387  1.00  0.00     0.057 A 
ATOM     81  C   UNL A   1      45.646  28.754  34.113  1.00  0.00     0.134 A 
ATOM     82  C   UNL A   1      44.089  27.331  35.245  1.00  0.00     0.134 A 
ATOM     83  F   UNL A   1      45.933  29.775  33.291  1.00  0.00    -0.206 F 
ATOM     84  C   UNL A   1      46.709  28.028  34.651  1.00  0.00     0.040 A 
ATOM     85  C   UNL A   1      45.144  26.619  35.816  1.00  0.00     0.040 A 
ATOM     86  F   UNL A   1      42.839  26.956  35.558  1.00  0.00    -0.206 F 
ATOM     87  C   UNL A   1      46.459  26.962  35.513  1.00  0.00     0.006 A 
ENDBRANCH  63  80
ENDBRANCH  37  38
ENDBRANCH  29  32
ENDBRANCH  27  28
ENDBRANCH  26  27
ENDBRANCH   1  26
TORSDOF 14
ENDMDL
MODEL 3
REMARK VINA RESULT:     -12.8      6.655     11.755
REMARK SMILES C[C@@H](Sc1nc(-c2ccc3c(c2)OCO3)ccc1C#N)C(=O)NCCCNC(=O)c1ccc(-c2c3nc(c(-c4c(F)cccc4F)c4ccc([nH]4)c(-c4c(F)cccc4F)c4nc(c(-c5c(F)cccc5F)c5ccc2[nH]5)C=C4)C=C3)cc1
REMARK SMILES IDX 24 1 23 2 21 3 22 4 2 6 1 7 3 8 4 9 5 10 18 11 6 12 17 13
REMARK SMILES IDX 16 14 19 15 20 16 7 17 8 18 12 19 9 20 11 21 10 22 13 23
REMARK SMILES IDX 15 24 14 25 25 26 26 27 27 28 28 29 29 31 30 32 31 33 83 34
REMARK SMILES IDX 32 35 82 36 33 37 34 38 35 39 76 40 36 41 81 42 75 43 77 44
REMARK SMILES IDX 37 45 80 46 74 47 73 48 38 50 64 51 47 52 63 53 48 54 51 55
REMARK SMILES IDX 62 56 78 57 49 58 50 59 61 61 79 62 52 63 39 64 40 65 45 66
REMARK SMILES IDX 41 67 42 68 44 69 46 70 43 71 65 72 66 73 71 74 67 75 68 76
REMARK SMILES IDX 70 77 72 78 69 79 53 80 54 81 59 82 55 83 56 84 58 85 60 86
REMARK SMILES IDX 57 87
REMARK H PARENT 23 5 27 30 77 49 51 60
REMARK Flexibility Score: inf
ROOT
ATOM      1  C   UNL A   1      37.165  20.778  24.986  1.00  0.00     0.117 C 
ENDROOT
BRANCH   1   2
ATOM      2  N   UNL A   1      37.590  21.982  25.684  1.00  0.00    -0.355 N 
ATOM      3  C   UNL A   1      37.179  23.278  25.538  1.00  0.00     0.233 C 
ATOM      4  O   UNL A   1      37.693  24.124  26.276  1.00  0.00    -0.274 OA
ATOM      5  H   UNL A   1      38.284  21.841  26.369  1.00  0.00     0.163 HD
BRANCH   3   6
ATOM      6  C   UNL A   1      36.145  23.679  24.477  1.00  0.00     0.139 C 
ATOM      7  C   UNL A   1      36.439  22.948  23.172  1.00  0.00     0.030 C 
BRANCH   6   8
ATOM      8  S   UNL A   1      34.482  23.499  25.258  1.00  0.00    -0.092 SA
BRANCH   8   9
ATOM      9  C   UNL A   1      33.652  22.255  24.299  1.00  0.00     0.115 A 
ATOM     10  N   UNL A   1      33.816  20.967  24.692  1.00  0.00    -0.240 NA
ATOM     11  C   UNL A   1      32.758  22.626  23.294  1.00  0.00     0.084 A 
ATOM     12  C   UNL A   1      33.110  20.004  24.051  1.00  0.00     0.072 A 
ATOM     13  C   UNL A   1      32.018  21.626  22.662  1.00  0.00     0.024 A 
ATOM     14  C   UNL A   1      32.197  20.301  23.043  1.00  0.00     0.030 A 
BRANCH  11  15
ATOM     15  C   UNL A   1      32.559  23.990  22.899  1.00  0.00     0.102 C 
ATOM     16  N   UNL A   1      32.391  25.100  22.616  1.00  0.00    -0.192 NA
ENDBRANCH  11  15
BRANCH  12  17
ATOM     17  C   UNL A   1      33.370  18.614  24.450  1.00  0.00     0.004 A 
ATOM     18  C   UNL A   1      34.659  18.053  24.254  1.00  0.00     0.014 A 
ATOM     19  C   UNL A   1      32.355  17.804  24.988  1.00  0.00     0.061 A 
ATOM     20  C   UNL A   1      34.932  16.716  24.559  1.00  0.00     0.051 A 
ATOM     21  C   UNL A   1      32.648  16.482  25.266  1.00  0.00     0.166 A 
ATOM     22  C   UNL A   1      33.900  15.955  25.054  1.00  0.00     0.165 A 
ATOM     23  O   UNL A   1      31.776  15.555  25.747  1.00  0.00    -0.454 OA
ATOM     24  O   UNL A   1      33.974  14.635  25.376  1.00  0.00    -0.454 OA
ATOM     25  C   UNL A   1      32.615  14.380  25.783  1.00  0.00     0.468 C 
ENDBRANCH  12  17
ENDBRANCH   8   9
ENDBRANCH   6   8
ENDBRANCH   3   6
ENDBRANCH   1   2
BRANCH   1  26
ATOM     26  C   UNL A   1      38.217  19.685  25.042  1.00  0.00     0.042 C 
BRANCH  26  27
ATOM     27  C   UNL A   1      39.360  20.003  25.992  1.00  0.00     0.118 C 
BRANCH  27  28
ATOM     28  N   UNL A   1      40.406  18.989  25.963  1.00  0.00    -0.352 N 
ATOM     29  C   UNL A   1      41.772  19.126  26.005  1.00  0.00     0.251 C 
ATOM     30  H   UNL A   1      40.085  18.060  25.902  1.00  0.00     0.163 HD
ATOM     31  O   UNL A   1      42.491  18.165  25.755  1.00  0.00    -0.269 OA
BRANCH  29  32
ATOM     32  C   UNL A   1      42.374  20.436  26.328  1.00  0.00     0.039 A 
ATOM     33  C   UNL A   1      42.881  21.221  25.290  1.00  0.00     0.014 A 
ATOM     34  C   UNL A   1      42.445  20.888  27.648  1.00  0.00     0.014 A 
ATOM     35  C   UNL A   1      43.389  22.490  25.570  1.00  0.00     0.010 A 
ATOM     36  C   UNL A   1      42.854  22.190  27.912  1.00  0.00     0.010 A 
ATOM     37  C   UNL A   1      43.336  23.004  26.877  1.00  0.00    -0.014 A 
BRANCH  37  38
ATOM     38  C   UNL A   1      43.774  24.390  27.175  1.00  0.00     0.031 A 
ATOM     39  C   UNL A   1      42.769  25.433  27.583  1.00  0.00     0.074 A 
ATOM     40  C   UNL A   1      45.070  24.724  27.024  1.00  0.00     0.049 A 
ATOM     41  N   UNL A   1      42.955  26.704  27.837  1.00  0.00    -0.248 NA
ATOM     42  C   UNL A   1      41.367  24.999  27.695  1.00  0.00     0.031 C 
ATOM     43  C   UNL A   1      46.133  23.815  26.588  1.00  0.00     0.029 A 
ATOM     44  N   UNL A   1      45.716  25.920  27.213  1.00  0.00    -0.354 N 
ATOM     45  C   UNL A   1      41.698  27.218  28.130  1.00  0.00     0.074 A 
ATOM     46  C   UNL A   1      40.749  26.140  27.960  1.00  0.00     0.031 C 
ATOM     47  C   UNL A   1      47.300  24.476  26.577  1.00  0.00     0.029 A 
ATOM     48  C   UNL A   1      47.064  25.866  26.952  1.00  0.00     0.049 A 
ATOM     49  H   UNL A   1      45.257  26.739  27.508  1.00  0.00     0.167 HD
ATOM     50  C   UNL A   1      41.367  28.470  28.529  1.00  0.00     0.037 A 
ATOM     51  C   UNL A   1      48.002  26.831  26.995  1.00  0.00     0.037 A 
ATOM     52  C   UNL A   1      42.317  29.537  28.702  1.00  0.00     0.049 A 
ATOM     53  C   UNL A   1      47.603  28.222  27.405  1.00  0.00     0.074 A 
ATOM     54  C   UNL A   1      42.090  30.827  29.151  1.00  0.00     0.029 A 
ATOM     55  N   UNL A   1      43.673  29.444  28.422  1.00  0.00    -0.354 N 
ATOM     56  N   UNL A   1      46.422  28.676  27.751  1.00  0.00    -0.248 NA
ATOM     57  C   UNL A   1      48.667  29.234  27.434  1.00  0.00     0.031 C 
ATOM     58  C   UNL A   1      43.293  31.533  29.076  1.00  0.00     0.029 A 
ATOM     59  C   UNL A   1      44.287  30.664  28.655  1.00  0.00     0.049 A 
ATOM     60  H   UNL A   1      44.131  28.632  28.104  1.00  0.00     0.167 HD
ATOM     61  C   UNL A   1      46.608  30.015  28.072  1.00  0.00     0.074 A 
ATOM     62  C   UNL A   1      48.017  30.294  27.895  1.00  0.00     0.031 C 
ATOM     63  C   UNL A   1      45.694  30.930  28.481  1.00  0.00     0.037 A 
BRANCH  50  64
ATOM     64  C   UNL A   1      39.917  28.753  28.799  1.00  0.00     0.057 A 
ATOM     65  C   UNL A   1      39.348  28.578  30.068  1.00  0.00     0.134 A 
ATOM     66  C   UNL A   1      39.084  29.245  27.784  1.00  0.00     0.134 A 
ATOM     67  F   UNL A   1      40.084  28.102  31.084  1.00  0.00    -0.206 F 
ATOM     68  C   UNL A   1      38.001  28.853  30.310  1.00  0.00     0.040 A 
ATOM     69  C   UNL A   1      37.745  29.556  28.023  1.00  0.00     0.040 A 
ATOM     70  F   UNL A   1      39.562  29.445  26.547  1.00  0.00    -0.206 F 
ATOM     71  C   UNL A   1      37.197  29.351  29.288  1.00  0.00     0.006 A 
ENDBRANCH  50  64
BRANCH  51  72
ATOM     72  C   UNL A   1      49.413  26.516  26.651  1.00  0.00     0.057 A 
ATOM     73  C   UNL A   1      49.891  26.664  25.343  1.00  0.00     0.134 A 
ATOM     74  C   UNL A   1      50.313  26.044  27.614  1.00  0.00     0.134 A 
ATOM     75  F   UNL A   1      49.074  27.096  24.371  1.00  0.00    -0.206 F 
ATOM     76  C   UNL A   1      51.201  26.327  24.999  1.00  0.00     0.040 A 
ATOM     77  C   UNL A   1      51.636  25.735  27.291  1.00  0.00     0.040 A 
ATOM     78  F   UNL A   1      49.925  25.889  28.888  1.00  0.00    -0.206 F 
ATOM     79  C   UNL A   1      52.080  25.866  25.977  1.00  0.00     0.006 A 
ENDBRANCH  51  72
BRANCH  63  80
ATOM     80  C   UNL A   1      46.193  32.308  28.810  1.00  0.00     0.057 A 
ATOM     81  C   UNL A   1      46.706  32.635  30.072  1.00  0.00     0.134 A 
ATOM     82  C   UNL A   1      46.197  33.312  27.832  1.00  0.00     0.134 A 
ATOM     83  F   UNL A   1      46.722  31.724  31.057  1.00  0.00    -0.206 F 
ATOM     84  C   UNL A   1      47.180  33.917  30.358  1.00  0.00     0.040 A 
ATOM     85  C   UNL A   1      46.700  34.587  28.096  1.00  0.00     0.040 A 
ATOM     86  F   UNL A   1      45.730  33.066  26.599  1.00  0.00    -0.206 F 
ATOM     87  C   UNL A   1      47.186  34.894  29.364  1.00  0.00     0.006 A 
ENDBRANCH  63  80
ENDBRANCH  37  38
ENDBRANCH  29  32
ENDBRANCH  27  28
ENDBRANCH  26  27
ENDBRANCH   1  26
TORSDOF 14
ENDMDL
