MODEL 1
REMARK VINA RESULT:     -10.1      0.000      0.000
REMARK SMILES CC[N@@H+](C/C(Cl)=C/Cl)C[C@@H](C)C(=O)NCCCNC(=O)c1ccc(-c2c3nc(c(-c4c(F)cccc4F)c4ccc([nH]4)c(-c4c(F)cccc4F)c4nc(c(-c5c(F)cccc5F)c5ccc2[nH]5)C=C4)C=C3)cc1
REMARK SMILES IDX 15 1 14 2 12 3 13 4 10 6 11 7 9 8 3 9 2 11 1 12 4 13 5 14
REMARK SMILES IDX 6 15 7 16 8 17 16 18 17 19 18 20 19 21 20 23 21 24 22 25
REMARK SMILES IDX 74 26 23 27 73 28 24 29 25 30 26 31 67 32 27 33 72 34 66 35
REMARK SMILES IDX 68 36 28 37 71 38 65 39 64 40 29 42 55 43 38 44 54 45 39 46
REMARK SMILES IDX 42 47 53 48 69 49 40 50 41 51 52 53 70 54 43 55 30 56 31 57
REMARK SMILES IDX 36 58 32 59 33 60 35 61 37 62 34 63 56 64 57 65 62 66 58 67
REMARK SMILES IDX 59 68 61 69 63 70 60 71 44 72 45 73 50 74 46 75 47 76 49 77
REMARK SMILES IDX 51 78 48 79
REMARK H PARENT 14 5 3 10 18 22 68 41 42 52
REMARK Flexibility Score: inf
ROOT
ATOM      1  C   UNL A   1      31.307  30.866  26.462  1.00  0.00     0.117 C 
ENDROOT
BRANCH   1   2
ATOM      2  N   UNL A   1      32.341  30.320  25.608  1.00  0.00    -0.356 N 
ATOM      3  C   UNL A   1      32.592  29.038  25.232  1.00  0.00     0.228 C 
ATOM      4  O   UNL A   1      33.604  28.835  24.558  1.00  0.00    -0.275 OA
ATOM      5  H   UNL A   1      32.965  30.985  25.239  1.00  0.00     0.163 HD
BRANCH   3   6
ATOM      6  C   UNL A   1      31.662  27.892  25.614  1.00  0.00     0.130 C 
ATOM      7  C   UNL A   1      32.455  26.748  26.244  1.00  0.00     0.024 C 
BRANCH   6   8
ATOM      8  C   UNL A   1      30.702  27.571  24.447  1.00  0.00     0.275 C 
BRANCH   8   9
ATOM      9  N   UNL A   1      31.119  27.753  23.053  1.00  0.00    -0.330 N 
ATOM     10  H   UNL A   1      31.956  28.308  23.229  1.00  0.00     0.348 HD
BRANCH   9  11
ATOM     11  C   UNL A   1      31.738  26.639  22.347  1.00  0.00     0.259 C 
ATOM     12  C   UNL A   1      31.303  25.260  22.839  1.00  0.00     0.071 C 
ENDBRANCH   9  11
BRANCH   9  13
ATOM     13  C   UNL A   1      30.279  28.638  22.239  1.00  0.00     0.312 C 
BRANCH  13  14
ATOM     14  C   UNL A   1      29.068  29.280  22.876  1.00  0.00     0.083 C 
ATOM     15  Cl  UNL A   1      27.743  28.193  23.172  1.00  0.00    -0.082 Cl
ATOM     16  C   UNL A   1      29.006  30.570  23.226  1.00  0.00     0.102 C 
ATOM     17  Cl  UNL A   1      27.648  31.370  23.901  1.00  0.00    -0.091 Cl
ENDBRANCH  13  14
ENDBRANCH   9  13
ENDBRANCH   8   9
ENDBRANCH   6   8
ENDBRANCH   3   6
ENDBRANCH   1   2
BRANCH   1  18
ATOM     18  C   UNL A   1      31.348  32.386  26.494  1.00  0.00     0.042 C 
BRANCH  18  19
ATOM     19  C   UNL A   1      32.577  32.935  27.199  1.00  0.00     0.118 C 
BRANCH  19  20
ATOM     20  N   UNL A   1      32.380  34.300  27.667  1.00  0.00    -0.352 N 
ATOM     21  C   UNL A   1      33.011  34.987  28.673  1.00  0.00     0.251 C 
ATOM     22  H   UNL A   1      31.688  34.810  27.187  1.00  0.00     0.163 HD
ATOM     23  O   UNL A   1      32.548  36.048  29.072  1.00  0.00    -0.269 OA
BRANCH  21  24
ATOM     24  C   UNL A   1      34.240  34.435  29.280  1.00  0.00     0.039 A 
ATOM     25  C   UNL A   1      34.138  33.727  30.479  1.00  0.00     0.014 A 
ATOM     26  C   UNL A   1      35.485  34.623  28.675  1.00  0.00     0.014 A 
ATOM     27  C   UNL A   1      35.281  33.157  31.037  1.00  0.00     0.010 A 
ATOM     28  C   UNL A   1      36.603  33.968  29.176  1.00  0.00     0.010 A 
ATOM     29  C   UNL A   1      36.515  33.240  30.369  1.00  0.00    -0.014 A 
BRANCH  29  30
ATOM     30  C   UNL A   1      37.721  32.569  30.912  1.00  0.00     0.031 A 
ATOM     31  C   UNL A   1      38.374  33.077  32.168  1.00  0.00     0.074 A 
ATOM     32  C   UNL A   1      38.251  31.529  30.242  1.00  0.00     0.049 A 
ATOM     33  N   UNL A   1      39.432  32.622  32.789  1.00  0.00    -0.248 NA
ATOM     34  C   UNL A   1      37.780  34.271  32.792  1.00  0.00     0.031 C 
ATOM     35  C   UNL A   1      37.746  30.991  28.976  1.00  0.00     0.029 A 
ATOM     36  N   UNL A   1      39.329  30.733  30.532  1.00  0.00    -0.354 N 
ATOM     37  C   UNL A   1      39.632  33.474  33.867  1.00  0.00     0.074 A 
ATOM     38  C   UNL A   1      38.630  34.513  33.779  1.00  0.00     0.031 C 
ATOM     39  C   UNL A   1      38.486  29.930  28.622  1.00  0.00     0.029 A 
ATOM     40  C   UNL A   1      39.538  29.734  29.613  1.00  0.00     0.049 A 
ATOM     41  H   UNL A   1      39.898  30.865  31.325  1.00  0.00     0.167 HD
ATOM     42  C   UNL A   1      40.551  33.383  34.858  1.00  0.00     0.037 A 
ATOM     43  C   UNL A   1      40.473  28.767  29.579  1.00  0.00     0.037 A 
ATOM     44  C   UNL A   1      41.534  32.336  34.949  1.00  0.00     0.049 A 
ATOM     45  C   UNL A   1      41.473  28.681  30.696  1.00  0.00     0.074 A 
ATOM     46  C   UNL A   1      42.474  32.119  35.941  1.00  0.00     0.029 A 
ATOM     47  N   UNL A   1      41.706  31.332  34.008  1.00  0.00    -0.354 N 
ATOM     48  N   UNL A   1      41.602  29.446  31.753  1.00  0.00    -0.248 NA
ATOM     49  C   UNL A   1      42.450  27.587  30.623  1.00  0.00     0.031 C 
ATOM     50  C   UNL A   1      43.247  31.012  35.575  1.00  0.00     0.029 A 
ATOM     51  C   UNL A   1      42.751  30.503  34.386  1.00  0.00     0.049 A 
ATOM     52  H   UNL A   1      41.165  31.223  33.192  1.00  0.00     0.167 HD
ATOM     53  C   UNL A   1      42.654  28.911  32.485  1.00  0.00     0.074 A 
ATOM     54  C   UNL A   1      43.113  27.743  31.760  1.00  0.00     0.031 C 
ATOM     55  C   UNL A   1      43.192  29.345  33.650  1.00  0.00     0.037 A 
BRANCH  42  56
ATOM     56  C   UNL A   1      40.527  34.442  35.924  1.00  0.00     0.057 A 
ATOM     57  C   UNL A   1      39.737  34.317  37.075  1.00  0.00     0.134 A 
ATOM     58  C   UNL A   1      41.324  35.588  35.813  1.00  0.00     0.134 A 
ATOM     59  F   UNL A   1      38.938  33.251  37.240  1.00  0.00    -0.206 F 
ATOM     60  C   UNL A   1      39.720  35.304  38.063  1.00  0.00     0.040 A 
ATOM     61  C   UNL A   1      41.340  36.567  36.808  1.00  0.00     0.040 A 
ATOM     62  F   UNL A   1      42.109  35.772  34.740  1.00  0.00    -0.206 F 
ATOM     63  C   UNL A   1      40.531  36.430  37.934  1.00  0.00     0.006 A 
ENDBRANCH  42  56
BRANCH  43  64
ATOM     64  C   UNL A   1      40.481  27.780  28.468  1.00  0.00     0.057 A 
ATOM     65  C   UNL A   1      41.202  28.021  27.292  1.00  0.00     0.134 A 
ATOM     66  C   UNL A   1      39.767  26.579  28.551  1.00  0.00     0.134 A 
ATOM     67  F   UNL A   1      41.895  29.160  27.148  1.00  0.00    -0.206 F 
ATOM     68  C   UNL A   1      41.194  27.116  26.230  1.00  0.00     0.040 A 
ATOM     69  C   UNL A   1      39.772  25.651  27.508  1.00  0.00     0.040 A 
ATOM     70  F   UNL A   1      39.066  26.282  29.655  1.00  0.00    -0.206 F 
ATOM     71  C   UNL A   1      40.479  25.924  26.339  1.00  0.00     0.006 A 
ENDBRANCH  43  64
BRANCH  55  72
ATOM     72  C   UNL A   1      44.314  28.530  34.227  1.00  0.00     0.057 A 
ATOM     73  C   UNL A   1      45.657  28.804  33.941  1.00  0.00     0.134 A 
ATOM     74  C   UNL A   1      44.042  27.458  35.089  1.00  0.00     0.134 A 
ATOM     75  F   UNL A   1      45.984  29.808  33.113  1.00  0.00    -0.206 F 
ATOM     76  C   UNL A   1      46.689  28.019  34.460  1.00  0.00     0.040 A 
ATOM     77  C   UNL A   1      45.066  26.687  35.640  1.00  0.00     0.040 A 
ATOM     78  F   UNL A   1      42.778  27.148  35.413  1.00  0.00    -0.206 F 
ATOM     79  C   UNL A   1      46.393  26.960  35.316  1.00  0.00     0.006 A 
ENDBRANCH  55  72
ENDBRANCH  29  30
ENDBRANCH  21  24
ENDBRANCH  19  20
ENDBRANCH  18  19
ENDBRANCH   1  18
TORSDOF 15
ENDMDL
MODEL 2
REMARK VINA RESULT:     -10.0      5.815     10.473
REMARK SMILES CC[N@@H+](C/C(Cl)=C/Cl)C[C@@H](C)C(=O)NCCCNC(=O)c1ccc(-c2c3nc(c(-c4c(F)cccc4F)c4ccc([nH]4)c(-c4c(F)cccc4F)c4nc(c(-c5c(F)cccc5F)c5ccc2[nH]5)C=C4)C=C3)cc1
REMARK SMILES IDX 15 1 14 2 12 3 13 4 10 6 11 7 9 8 3 9 2 11 1 12 4 13 5 14
REMARK SMILES IDX 6 15 7 16 8 17 16 18 17 19 18 20 19 21 20 23 21 24 22 25
REMARK SMILES IDX 74 26 23 27 73 28 24 29 25 30 26 31 67 32 27 33 72 34 66 35
REMARK SMILES IDX 68 36 28 37 71 38 65 39 64 40 29 42 55 43 38 44 54 45 39 46
REMARK SMILES IDX 42 47 53 48 69 49 40 50 41 51 52 53 70 54 43 55 30 56 31 57
REMARK SMILES IDX 36 58 32 59 33 60 35 61 37 62 34 63 56 64 57 65 62 66 58 67
REMARK SMILES IDX 59 68 61 69 63 70 60 71 44 72 45 73 50 74 46 75 47 76 49 77
REMARK SMILES IDX 51 78 48 79
REMARK H PARENT 14 5 3 10 18 22 68 41 42 52
REMARK Flexibility Score: inf
ROOT
ATOM      1  C   UNL A   1      36.580  20.418  25.008  1.00  0.00     0.117 C 
ENDROOT
BRANCH   1   2
ATOM      2  N   UNL A   1      36.879  21.700  25.613  1.00  0.00    -0.356 N 
ATOM      3  C   UNL A   1      36.181  22.865  25.605  1.00  0.00     0.228 C 
ATOM      4  O   UNL A   1      36.712  23.845  26.132  1.00  0.00    -0.275 OA
ATOM      5  H   UNL A   1      37.726  21.732  26.111  1.00  0.00     0.163 HD
BRANCH   3   6
ATOM      6  C   UNL A   1      34.794  22.967  24.980  1.00  0.00     0.130 C 
ATOM      7  C   UNL A   1      34.590  24.347  24.355  1.00  0.00     0.024 C 
BRANCH   6   8
ATOM      8  C   UNL A   1      33.725  22.436  25.961  1.00  0.00     0.275 C 
BRANCH   8   9
ATOM      9  N   UNL A   1      32.531  21.739  25.473  1.00  0.00    -0.330 N 
ATOM     10  H   UNL A   1      32.457  21.049  26.220  1.00  0.00     0.348 HD
BRANCH   9  11
ATOM     11  C   UNL A   1      31.228  22.371  25.627  1.00  0.00     0.259 C 
ATOM     12  C   UNL A   1      31.249  23.675  26.422  1.00  0.00     0.071 C 
ENDBRANCH   9  11
BRANCH   9  13
ATOM     13  C   UNL A   1      32.708  20.925  24.265  1.00  0.00     0.312 C 
BRANCH  13  14
ATOM     14  C   UNL A   1      32.644  19.420  24.386  1.00  0.00     0.083 C 
ATOM     15  Cl  UNL A   1      32.247  18.591  22.908  1.00  0.00    -0.082 Cl
ATOM     16  C   UNL A   1      32.902  18.751  25.515  1.00  0.00     0.102 C 
ATOM     17  Cl  UNL A   1      32.795  17.054  25.731  1.00  0.00    -0.091 Cl
ENDBRANCH  13  14
ENDBRANCH   9  13
ENDBRANCH   8   9
ENDBRANCH   6   8
ENDBRANCH   3   6
ENDBRANCH   1   2
BRANCH   1  18
ATOM     18  C   UNL A   1      37.808  19.525  24.943  1.00  0.00     0.042 C 
BRANCH  18  19
ATOM     19  C   UNL A   1      38.977  20.059  25.754  1.00  0.00     0.118 C 
BRANCH  19  20
ATOM     20  N   UNL A   1      40.057  19.088  25.870  1.00  0.00    -0.352 N 
ATOM     21  C   UNL A   1      41.397  19.282  26.091  1.00  0.00     0.251 C 
ATOM     22  H   UNL A   1      39.783  18.147  25.777  1.00  0.00     0.163 HD
ATOM     23  O   UNL A   1      42.183  18.358  25.924  1.00  0.00    -0.269 OA
BRANCH  21  24
ATOM     24  C   UNL A   1      41.886  20.610  26.515  1.00  0.00     0.039 A 
ATOM     25  C   UNL A   1      42.273  21.528  25.537  1.00  0.00     0.014 A 
ATOM     26  C   UNL A   1      41.973  20.943  27.869  1.00  0.00     0.014 A 
ATOM     27  C   UNL A   1      42.689  22.802  25.921  1.00  0.00     0.010 A 
ATOM     28  C   UNL A   1      42.287  22.243  28.242  1.00  0.00     0.010 A 
ATOM     29  C   UNL A   1      42.661  23.182  27.273  1.00  0.00    -0.014 A 
BRANCH  29  30
ATOM     30  C   UNL A   1      43.024  24.560  27.684  1.00  0.00     0.031 A 
ATOM     31  C   UNL A   1      44.465  24.988  27.723  1.00  0.00     0.074 A 
ATOM     32  C   UNL A   1      42.051  25.408  28.066  1.00  0.00     0.049 A 
ATOM     33  N   UNL A   1      44.971  26.147  28.057  1.00  0.00    -0.248 NA
ATOM     34  C   UNL A   1      45.472  23.973  27.371  1.00  0.00     0.031 C 
ATOM     35  C   UNL A   1      40.624  25.084  28.137  1.00  0.00     0.029 A 
ATOM     36  N   UNL A   1      42.112  26.718  28.464  1.00  0.00    -0.354 N 
ATOM     37  C   UNL A   1      46.349  25.998  27.962  1.00  0.00     0.074 A 
ATOM     38  C   UNL A   1      46.603  24.620  27.606  1.00  0.00     0.031 C 
ATOM     39  C   UNL A   1      39.942  26.177  28.511  1.00  0.00     0.029 A 
ATOM     40  C   UNL A   1      40.883  27.267  28.742  1.00  0.00     0.049 A 
ATOM     41  H   UNL A   1      42.956  27.219  28.543  1.00  0.00     0.167 HD
ATOM     42  C   UNL A   1      47.315  26.933  28.128  1.00  0.00     0.037 A 
ATOM     43  C   UNL A   1      40.555  28.511  29.135  1.00  0.00     0.037 A 
ATOM     44  C   UNL A   1      47.053  28.308  28.465  1.00  0.00     0.049 A 
ATOM     45  C   UNL A   1      41.644  29.533  29.300  1.00  0.00     0.074 A 
ATOM     46  C   UNL A   1      47.954  29.349  28.601  1.00  0.00     0.029 A 
ATOM     47  N   UNL A   1      45.795  28.831  28.723  1.00  0.00    -0.354 N 
ATOM     48  N   UNL A   1      42.937  29.400  29.129  1.00  0.00    -0.248 NA
ATOM     49  C   UNL A   1      41.226  30.882  29.701  1.00  0.00     0.031 C 
ATOM     50  C   UNL A   1      47.245  30.491  28.990  1.00  0.00     0.029 A 
ATOM     51  C   UNL A   1      45.897  30.176  29.038  1.00  0.00     0.049 A 
ATOM     52  H   UNL A   1      44.952  28.321  28.687  1.00  0.00     0.167 HD
ATOM     53  C   UNL A   1      43.485  30.653  29.372  1.00  0.00     0.074 A 
ATOM     54  C   UNL A   1      42.378  31.536  29.682  1.00  0.00     0.031 C 
ATOM     55  C   UNL A   1      44.783  31.039  29.343  1.00  0.00     0.037 A 
BRANCH  42  56
ATOM     56  C   UNL A   1      48.740  26.497  27.940  1.00  0.00     0.057 A 
ATOM     57  C   UNL A   1      49.363  26.524  26.684  1.00  0.00     0.134 A 
ATOM     58  C   UNL A   1      49.510  26.074  29.031  1.00  0.00     0.134 A 
ATOM     59  F   UNL A   1      48.681  26.906  25.593  1.00  0.00    -0.206 F 
ATOM     60  C   UNL A   1      50.690  26.119  26.516  1.00  0.00     0.040 A 
ATOM     61  C   UNL A   1      50.845  25.696  28.880  1.00  0.00     0.040 A 
ATOM     62  F   UNL A   1      48.980  26.028  30.262  1.00  0.00    -0.206 F 
ATOM     63  C   UNL A   1      51.437  25.711  27.619  1.00  0.00     0.006 A 
ENDBRANCH  42  56
BRANCH  43  64
ATOM     64  C   UNL A   1      39.132  28.869  29.361  1.00  0.00     0.057 A 
ATOM     65  C   UNL A   1      38.351  29.415  28.335  1.00  0.00     0.134 A 
ATOM     66  C   UNL A   1      38.518  28.680  30.605  1.00  0.00     0.134 A 
ATOM     67  F   UNL A   1      38.886  29.633  27.125  1.00  0.00    -0.206 F 
ATOM     68  C   UNL A   1      37.021  29.782  28.543  1.00  0.00     0.040 A 
ATOM     69  C   UNL A   1      37.181  29.016  30.820  1.00  0.00     0.040 A 
ATOM     70  F   UNL A   1      39.207  28.149  31.626  1.00  0.00    -0.206 F 
ATOM     71  C   UNL A   1      36.431  29.579  29.790  1.00  0.00     0.006 A 
ENDBRANCH  43  64
BRANCH  55  72
ATOM     72  C   UNL A   1      45.069  32.488  29.619  1.00  0.00     0.057 A 
ATOM     73  C   UNL A   1      45.356  32.957  30.907  1.00  0.00     0.134 A 
ATOM     74  C   UNL A   1      45.064  33.423  28.576  1.00  0.00     0.134 A 
ATOM     75  F   UNL A   1      45.364  32.115  31.952  1.00  0.00    -0.206 F 
ATOM     76  C   UNL A   1      45.590  34.311  31.154  1.00  0.00     0.040 A 
ATOM     77  C   UNL A   1      45.329  34.774  28.805  1.00  0.00     0.040 A 
ATOM     78  F   UNL A   1      44.808  33.039  27.317  1.00  0.00    -0.206 F 
ATOM     79  C   UNL A   1      45.581  35.222  30.100  1.00  0.00     0.006 A 
ENDBRANCH  55  72
ENDBRANCH  29  30
ENDBRANCH  21  24
ENDBRANCH  19  20
ENDBRANCH  18  19
ENDBRANCH   1  18
TORSDOF 15
ENDMDL
MODEL 3
REMARK VINA RESULT:     -10.0      5.879     10.047
REMARK SMILES CC[N@@H+](C/C(Cl)=C/Cl)C[C@@H](C)C(=O)NCCCNC(=O)c1ccc(-c2c3nc(c(-c4c(F)cccc4F)c4ccc([nH]4)c(-c4c(F)cccc4F)c4nc(c(-c5c(F)cccc5F)c5ccc2[nH]5)C=C4)C=C3)cc1
REMARK SMILES IDX 15 1 14 2 12 3 13 4 10 6 11 7 9 8 3 9 2 11 1 12 4 13 5 14
REMARK SMILES IDX 6 15 7 16 8 17 16 18 17 19 18 20 19 21 20 23 21 24 22 25
REMARK SMILES IDX 74 26 23 27 73 28 24 29 25 30 26 31 67 32 27 33 72 34 66 35
REMARK SMILES IDX 68 36 28 37 71 38 65 39 64 40 29 42 55 43 38 44 54 45 39 46
REMARK SMILES IDX 42 47 53 48 69 49 40 50 41 51 52 53 70 54 43 55 30 56 31 57
REMARK SMILES IDX 36 58 32 59 33 60 35 61 37 62 34 63 56 64 57 65 62 66 58 67
REMARK SMILES IDX 59 68 61 69 63 70 60 71 44 72 45 73 50 74 46 75 47 76 49 77
REMARK SMILES IDX 51 78 48 79
REMARK H PARENT 14 5 3 10 18 22 68 41 42 52
REMARK Flexibility Score: inf
ROOT
ATOM      1  C   UNL A   1      36.726  20.683  24.702  1.00  0.00     0.117 C 
ENDROOT
BRANCH   1   2
ATOM      2  N   UNL A   1      35.845  20.867  25.836  1.00  0.00    -0.356 N 
ATOM      3  C   UNL A   1      34.950  21.852  26.110  1.00  0.00     0.228 C 
ATOM      4  O   UNL A   1      34.383  21.812  27.204  1.00  0.00    -0.275 OA
ATOM      5  H   UNL A   1      35.902  20.163  26.521  1.00  0.00     0.163 HD
BRANCH   3   6
ATOM      6  C   UNL A   1      34.645  22.961  25.109  1.00  0.00     0.130 C 
ATOM      7  C   UNL A   1      34.624  24.320  25.809  1.00  0.00     0.024 C 
BRANCH   6   8
ATOM      8  C   UNL A   1      33.442  22.567  24.225  1.00  0.00     0.275 C 
BRANCH   8   9
ATOM      9  N   UNL A   1      32.514  21.509  24.637  1.00  0.00    -0.330 N 
ATOM     10  H   UNL A   1      33.080  21.110  25.386  1.00  0.00     0.348 HD
BRANCH   9  11
ATOM     11  C   UNL A   1      31.336  21.863  25.417  1.00  0.00     0.259 C 
ATOM     12  C   UNL A   1      31.017  23.356  25.437  1.00  0.00     0.071 C 
ENDBRANCH   9  11
BRANCH   9  13
ATOM     13  C   UNL A   1      32.347  20.395  23.697  1.00  0.00     0.312 C 
BRANCH  13  14
ATOM     14  C   UNL A   1      32.801  19.015  24.116  1.00  0.00     0.083 C 
ATOM     15  Cl  UNL A   1      32.885  18.771  25.837  1.00  0.00    -0.082 Cl
ATOM     16  C   UNL A   1      33.089  18.032  23.255  1.00  0.00     0.102 C 
ATOM     17  Cl  UNL A   1      33.659  16.467  23.663  1.00  0.00    -0.091 Cl
ENDBRANCH  13  14
ENDBRANCH   9  13
ENDBRANCH   8   9
ENDBRANCH   6   8
ENDBRANCH   3   6
ENDBRANCH   1   2
BRANCH   1  18
ATOM     18  C   UNL A   1      37.781  19.622  24.974  1.00  0.00     0.042 C 
BRANCH  18  19
ATOM     19  C   UNL A   1      39.054  20.189  25.580  1.00  0.00     0.118 C 
BRANCH  19  20
ATOM     20  N   UNL A   1      40.063  19.162  25.806  1.00  0.00    -0.352 N 
ATOM     21  C   UNL A   1      41.396  19.286  26.100  1.00  0.00     0.251 C 
ATOM     22  H   UNL A   1      39.736  18.235  25.737  1.00  0.00     0.163 HD
ATOM     23  O   UNL A   1      42.132  18.309  26.024  1.00  0.00    -0.269 OA
BRANCH  21  24
ATOM     24  C   UNL A   1      41.942  20.600  26.494  1.00  0.00     0.039 A 
ATOM     25  C   UNL A   1      42.352  21.485  25.496  1.00  0.00     0.014 A 
ATOM     26  C   UNL A   1      42.058  20.953  27.841  1.00  0.00     0.014 A 
ATOM     27  C   UNL A   1      42.822  22.749  25.851  1.00  0.00     0.010 A 
ATOM     28  C   UNL A   1      42.427  22.247  28.187  1.00  0.00     0.010 A 
ATOM     29  C   UNL A   1      42.826  23.153  27.197  1.00  0.00    -0.014 A 
BRANCH  29  30
ATOM     30  C   UNL A   1      43.247  24.523  27.578  1.00  0.00     0.031 A 
ATOM     31  C   UNL A   1      42.222  25.565  27.927  1.00  0.00     0.074 A 
ATOM     32  C   UNL A   1      44.557  24.834  27.564  1.00  0.00     0.049 A 
ATOM     33  N   UNL A   1      42.402  26.812  28.282  1.00  0.00    -0.248 NA
ATOM     34  C   UNL A   1      40.808  25.166  27.837  1.00  0.00     0.031 C 
ATOM     35  C   UNL A   1      45.640  23.926  27.176  1.00  0.00     0.029 A 
ATOM     36  N   UNL A   1      45.204  25.998  27.888  1.00  0.00    -0.354 N 
ATOM     37  C   UNL A   1      41.129  27.343  28.449  1.00  0.00     0.074 A 
ATOM     38  C   UNL A   1      40.186  26.307  28.091  1.00  0.00     0.031 C 
ATOM     39  C   UNL A   1      46.816  24.553  27.324  1.00  0.00     0.029 A 
ATOM     40  C   UNL A   1      46.571  25.916  27.782  1.00  0.00     0.049 A 
ATOM     41  H   UNL A   1      44.732  26.816  28.170  1.00  0.00     0.167 HD
ATOM     42  C   UNL A   1      40.778  28.576  28.888  1.00  0.00     0.037 A 
ATOM     43  C   UNL A   1      47.519  26.838  28.033  1.00  0.00     0.037 A 
ATOM     44  C   UNL A   1      41.722  29.596  29.259  1.00  0.00     0.049 A 
ATOM     45  C   UNL A   1      47.103  28.193  28.530  1.00  0.00     0.074 A 
ATOM     46  C   UNL A   1      41.473  30.858  29.769  1.00  0.00     0.029 A 
ATOM     47  N   UNL A   1      43.100  29.472  29.154  1.00  0.00    -0.354 N 
ATOM     48  N   UNL A   1      45.899  28.657  28.760  1.00  0.00    -0.248 NA
ATOM     49  C   UNL A   1      48.181  29.149  28.816  1.00  0.00     0.031 C 
ATOM     50  C   UNL A   1      42.698  31.514  29.927  1.00  0.00     0.029 A 
ATOM     51  C   UNL A   1      43.714  30.642  29.571  1.00  0.00     0.049 A 
ATOM     52  H   UNL A   1      43.572  28.669  28.831  1.00  0.00     0.167 HD
ATOM     53  C   UNL A   1      46.074  29.947  29.244  1.00  0.00     0.074 A 
ATOM     54  C   UNL A   1      47.503  30.182  29.294  1.00  0.00     0.031 C 
ATOM     55  C   UNL A   1      45.138  30.856  29.614  1.00  0.00     0.037 A 
BRANCH  42  56
ATOM     56  C   UNL A   1      39.310  28.880  28.995  1.00  0.00     0.057 A 
ATOM     57  C   UNL A   1      38.603  28.702  30.193  1.00  0.00     0.134 A 
ATOM     58  C   UNL A   1      38.601  29.385  27.899  1.00  0.00     0.134 A 
ATOM     59  F   UNL A   1      39.217  28.209  31.279  1.00  0.00    -0.206 F 
ATOM     60  C   UNL A   1      37.239  28.988  30.287  1.00  0.00     0.040 A 
ATOM     61  C   UNL A   1      37.245  29.704  27.989  1.00  0.00     0.040 A 
ATOM     62  F   UNL A   1      39.215  29.585  26.723  1.00  0.00    -0.206 F 
ATOM     63  C   UNL A   1      36.558  29.499  29.184  1.00  0.00     0.006 A 
ENDBRANCH  42  56
BRANCH  43  64
ATOM     64  C   UNL A   1      48.953  26.497  27.853  1.00  0.00     0.057 A 
ATOM     65  C   UNL A   1      49.714  25.987  28.912  1.00  0.00     0.134 A 
ATOM     66  C   UNL A   1      49.600  26.677  26.625  1.00  0.00     0.134 A 
ATOM     67  F   UNL A   1      49.154  25.806  30.118  1.00  0.00    -0.206 F 
ATOM     68  C   UNL A   1      51.069  25.690  28.764  1.00  0.00     0.040 A 
ATOM     69  C   UNL A   1      50.948  26.358  26.454  1.00  0.00     0.040 A 
ATOM     70  F   UNL A   1      48.925  27.149  25.567  1.00  0.00    -0.206 F 
ATOM     71  C   UNL A   1      51.689  25.873  27.529  1.00  0.00     0.006 A 
ENDBRANCH  43  64
BRANCH  55  72
ATOM     72  C   UNL A   1      45.638  32.172  30.138  1.00  0.00     0.057 A 
ATOM     73  C   UNL A   1      45.915  32.375  31.495  1.00  0.00     0.134 A 
ATOM     74  C   UNL A   1      45.852  33.248  29.265  1.00  0.00     0.134 A 
ATOM     75  F   UNL A   1      45.720  31.389  32.385  1.00  0.00    -0.206 F 
ATOM     76  C   UNL A   1      46.351  33.613  31.973  1.00  0.00     0.040 A 
ATOM     77  C   UNL A   1      46.318  34.479  29.726  1.00  0.00     0.040 A 
ATOM     78  F   UNL A   1      45.616  33.117  27.952  1.00  0.00    -0.206 F 
ATOM     79  C   UNL A   1      46.557  34.667  31.086  1.00  0.00     0.006 A 
ENDBRANCH  55  72
ENDBRANCH  29  30
ENDBRANCH  21  24
ENDBRANCH  19  20
ENDBRANCH  18  19
ENDBRANCH   1  18
TORSDOF 15
ENDMDL
