MODEL 1
REMARK VINA RESULT:     -10.0      0.000      0.000
REMARK SMILES CCN(CCOC)C(=O)c1cccn1CC(=O)NCCCNC(=O)c1ccc(-c2c3nc(c(-c4c(F)cccc4F)c4ccc([nH]4)c(-c4c(F)cccc4F)c4nc(c(-c5c(F)cccc5F)c5ccc2[nH]5)C=C4)C=C3)cc1
REMARK SMILES IDX 16 1 17 2 18 3 15 5 14 6 10 7 11 8 12 9 13 10 8 11 9 12 3 13
REMARK SMILES IDX 2 14 1 15 4 16 5 17 6 18 7 19 19 20 20 21 21 22 22 23 23 24
REMARK SMILES IDX 24 26 25 27 26 28 78 29 27 30 77 31 28 32 29 33 30 34 71 35
REMARK SMILES IDX 31 36 76 37 70 38 72 39 32 40 75 41 69 42 68 43 33 45 59 46
REMARK SMILES IDX 42 47 58 48 43 49 46 50 57 51 73 52 44 53 45 54 56 56 74 57
REMARK SMILES IDX 47 58 34 59 35 60 40 61 36 62 37 63 39 64 41 65 38 66 60 67
REMARK SMILES IDX 61 68 66 69 62 70 63 71 65 72 67 73 64 74 48 75 49 76 54 77
REMARK SMILES IDX 50 78 51 79 53 80 55 81 52 82
REMARK H PARENT 18 4 22 25 72 44 46 55
REMARK Flexibility Score: inf
ROOT
ATOM      1  C   UNL A   1      32.828  28.974  26.335  1.00  0.00     0.239 C 
ATOM      2  O   UNL A   1      33.865  28.574  26.871  1.00  0.00    -0.273 OA
ATOM      3  N   UNL A   1      32.439  30.264  26.569  1.00  0.00    -0.354 N 
ATOM      4  H   UNL A   1      33.027  30.786  27.162  1.00  0.00     0.163 HD
ENDROOT
BRANCH   1   5
ATOM      5  C   UNL A   1      32.009  28.078  25.422  1.00  0.00     0.222 C 
BRANCH   5   6
ATOM      6  N   UNL A   1      32.668  27.863  24.140  1.00  0.00    -0.334 N 
ATOM      7  C   UNL A   1      32.900  26.645  23.501  1.00  0.00     0.107 A 
ATOM      8  C   UNL A   1      33.700  26.965  22.408  1.00  0.00     0.033 A 
ATOM      9  C   UNL A   1      33.894  28.364  22.354  1.00  0.00     0.020 A 
ATOM     10  C   UNL A   1      33.209  28.898  23.412  1.00  0.00     0.087 A 
BRANCH   7  11
ATOM     11  C   UNL A   1      32.319  25.378  23.951  1.00  0.00     0.270 C 
ATOM     12  O   UNL A   1      31.210  25.041  23.531  1.00  0.00    -0.267 OA
BRANCH  11  13
ATOM     13  N   UNL A   1      32.956  24.564  24.907  1.00  0.00    -0.335 N 
BRANCH  13  14
ATOM     14  C   UNL A   1      34.198  25.069  25.513  1.00  0.00     0.116 C 
ATOM     15  C   UNL A   1      35.432  24.240  25.172  1.00  0.00     0.027 C 
ENDBRANCH  13  14
BRANCH  13  16
ATOM     16  C   UNL A   1      32.402  23.347  25.510  1.00  0.00     0.148 C 
BRANCH  16  17
ATOM     17  C   UNL A   1      31.588  23.615  26.793  1.00  0.00     0.181 C 
BRANCH  17  18
ATOM     18  O   UNL A   1      32.055  22.872  27.917  1.00  0.00    -0.383 OA
ATOM     19  C   UNL A   1      33.301  22.215  27.715  1.00  0.00     0.194 C 
ENDBRANCH  17  18
ENDBRANCH  16  17
ENDBRANCH  13  16
ENDBRANCH  11  13
ENDBRANCH   7  11
ENDBRANCH   5   6
ENDBRANCH   1   5
BRANCH   3  20
ATOM     20  C   UNL A   1      31.276  30.967  26.061  1.00  0.00     0.117 C 
BRANCH  20  21
ATOM     21  C   UNL A   1      31.252  32.439  26.480  1.00  0.00     0.042 C 
BRANCH  21  22
ATOM     22  C   UNL A   1      32.525  32.881  27.182  1.00  0.00     0.118 C 
BRANCH  22  23
ATOM     23  N   UNL A   1      32.426  34.275  27.587  1.00  0.00    -0.352 N 
ATOM     24  C   UNL A   1      33.052  34.939  28.610  1.00  0.00     0.251 C 
ATOM     25  H   UNL A   1      31.816  34.824  27.044  1.00  0.00     0.163 HD
ATOM     26  O   UNL A   1      32.581  35.995  29.009  1.00  0.00    -0.269 OA
BRANCH  24  27
ATOM     27  C   UNL A   1      34.266  34.389  29.243  1.00  0.00     0.039 A 
ATOM     28  C   UNL A   1      34.118  33.721  30.464  1.00  0.00     0.014 A 
ATOM     29  C   UNL A   1      35.538  34.589  28.695  1.00  0.00     0.014 A 
ATOM     30  C   UNL A   1      35.235  33.195  31.100  1.00  0.00     0.010 A 
ATOM     31  C   UNL A   1      36.651  34.028  29.301  1.00  0.00     0.010 A 
ATOM     32  C   UNL A   1      36.493  33.322  30.498  1.00  0.00    -0.014 A 
BRANCH  32  33
ATOM     33  C   UNL A   1      37.619  32.545  31.049  1.00  0.00     0.031 A 
ATOM     34  C   UNL A   1      37.827  31.237  30.248  1.00  0.00     0.074 A 
ATOM     35  C   UNL A   1      38.246  33.080  32.143  1.00  0.00     0.049 A 
ATOM     36  N   UNL A   1      38.298  30.089  30.623  1.00  0.00    -0.248 NA
ATOM     37  C   UNL A   1      37.374  31.177  28.826  1.00  0.00     0.031 C 
ATOM     38  C   UNL A   1      37.930  34.404  32.728  1.00  0.00     0.029 A 
ATOM     39  N   UNL A   1      39.256  32.654  32.983  1.00  0.00    -0.354 N 
ATOM     40  C   UNL A   1      38.390  29.260  29.478  1.00  0.00     0.074 A 
ATOM     41  C   UNL A   1      37.692  29.941  28.433  1.00  0.00     0.031 C 
ATOM     42  C   UNL A   1      38.653  34.626  33.846  1.00  0.00     0.029 A 
ATOM     43  C   UNL A   1      39.510  33.489  34.108  1.00  0.00     0.049 A 
ATOM     44  H   UNL A   1      39.766  31.828  32.815  1.00  0.00     0.167 HD
ATOM     45  C   UNL A   1      39.166  28.134  29.437  1.00  0.00     0.037 A 
ATOM     46  C   UNL A   1      40.312  33.254  35.198  1.00  0.00     0.037 A 
ATOM     47  C   UNL A   1      39.790  27.947  30.700  1.00  0.00     0.049 A 
ATOM     48  C   UNL A   1      41.010  32.003  34.886  1.00  0.00     0.074 A 
ATOM     49  C   UNL A   1      39.301  27.551  31.915  1.00  0.00     0.029 A 
ATOM     50  N   UNL A   1      41.007  28.559  30.872  1.00  0.00    -0.354 N 
ATOM     51  N   UNL A   1      41.978  31.894  34.027  1.00  0.00    -0.248 NA
ATOM     52  C   UNL A   1      40.522  30.758  35.490  1.00  0.00     0.031 C 
ATOM     53  C   UNL A   1      39.991  28.385  32.816  1.00  0.00     0.029 A 
ATOM     54  C   UNL A   1      41.038  29.039  32.155  1.00  0.00     0.049 A 
ATOM     55  H   UNL A   1      41.723  28.639  30.200  1.00  0.00     0.167 HD
ATOM     56  C   UNL A   1      41.955  30.551  33.744  1.00  0.00     0.074 A 
ATOM     57  C   UNL A   1      41.323  29.898  34.870  1.00  0.00     0.031 C 
ATOM     58  C   UNL A   1      41.918  30.143  32.450  1.00  0.00     0.037 A 
BRANCH  45  59
ATOM     59  C   UNL A   1      39.676  27.268  28.316  1.00  0.00     0.057 A 
ATOM     60  C   UNL A   1      39.636  25.862  28.492  1.00  0.00     0.134 A 
ATOM     61  C   UNL A   1      40.523  27.727  27.305  1.00  0.00     0.134 A 
ATOM     62  F   UNL A   1      38.811  25.301  29.392  1.00  0.00    -0.206 F 
ATOM     63  C   UNL A   1      40.501  24.991  27.825  1.00  0.00     0.040 A 
ATOM     64  C   UNL A   1      41.361  26.855  26.592  1.00  0.00     0.040 A 
ATOM     65  F   UNL A   1      40.642  29.034  27.036  1.00  0.00    -0.206 F 
ATOM     66  C   UNL A   1      41.388  25.494  26.886  1.00  0.00     0.006 A 
ENDBRANCH  45  59
BRANCH  46  67
ATOM     67  C   UNL A   1      40.574  33.834  36.573  1.00  0.00     0.057 A 
ATOM     68  C   UNL A   1      41.817  34.194  37.101  1.00  0.00     0.134 A 
ATOM     69  C   UNL A   1      39.485  34.133  37.443  1.00  0.00     0.134 A 
ATOM     70  F   UNL A   1      42.957  33.864  36.487  1.00  0.00    -0.206 F 
ATOM     71  C   UNL A   1      41.947  34.901  38.317  1.00  0.00     0.040 A 
ATOM     72  C   UNL A   1      39.593  34.872  38.624  1.00  0.00     0.040 A 
ATOM     73  F   UNL A   1      38.237  33.717  37.189  1.00  0.00    -0.206 F 
ATOM     74  C   UNL A   1      40.834  35.282  39.059  1.00  0.00     0.006 A 
ENDBRANCH  46  67
BRANCH  58  75
ATOM     75  C   UNL A   1      42.492  31.141  31.460  1.00  0.00     0.057 A 
ATOM     76  C   UNL A   1      43.857  31.456  31.499  1.00  0.00     0.134 A 
ATOM     77  C   UNL A   1      41.731  31.892  30.551  1.00  0.00     0.134 A 
ATOM     78  F   UNL A   1      44.678  30.782  32.319  1.00  0.00    -0.206 F 
ATOM     79  C   UNL A   1      44.419  32.470  30.711  1.00  0.00     0.040 A 
ATOM     80  C   UNL A   1      42.276  32.906  29.749  1.00  0.00     0.040 A 
ATOM     81  F   UNL A   1      40.424  31.678  30.412  1.00  0.00    -0.206 F 
ATOM     82  C   UNL A   1      43.628  33.205  29.834  1.00  0.00     0.006 A 
ENDBRANCH  58  75
ENDBRANCH  32  33
ENDBRANCH  24  27
ENDBRANCH  22  23
ENDBRANCH  21  22
ENDBRANCH  20  21
ENDBRANCH   3  20
TORSDOF 17
ENDMDL
MODEL 2
REMARK VINA RESULT:     -10.0      4.702     10.058
REMARK SMILES CCN(CCOC)C(=O)c1cccn1CC(=O)NCCCNC(=O)c1ccc(-c2c3nc(c(-c4c(F)cccc4F)c4ccc([nH]4)c(-c4c(F)cccc4F)c4nc(c(-c5c(F)cccc5F)c5ccc2[nH]5)C=C4)C=C3)cc1
REMARK SMILES IDX 16 1 17 2 18 3 15 5 14 6 10 7 11 8 12 9 13 10 8 11 9 12 3 13
REMARK SMILES IDX 2 14 1 15 4 16 5 17 6 18 7 19 19 20 20 21 21 22 22 23 23 24
REMARK SMILES IDX 24 26 25 27 26 28 78 29 27 30 77 31 28 32 29 33 30 34 71 35
REMARK SMILES IDX 31 36 76 37 70 38 72 39 32 40 75 41 69 42 68 43 33 45 59 46
REMARK SMILES IDX 42 47 58 48 43 49 46 50 57 51 73 52 44 53 45 54 56 56 74 57
REMARK SMILES IDX 47 58 34 59 35 60 40 61 36 62 37 63 39 64 41 65 38 66 60 67
REMARK SMILES IDX 61 68 66 69 62 70 63 71 65 72 67 73 64 74 48 75 49 76 54 77
REMARK SMILES IDX 50 78 51 79 53 80 55 81 52 82
REMARK H PARENT 18 4 22 25 72 44 46 55
REMARK Flexibility Score: inf
ROOT
ATOM      1  C   UNL A   1      36.256  22.481  24.865  1.00  0.00     0.239 C 
ATOM      2  O   UNL A   1      36.661  23.594  24.520  1.00  0.00    -0.273 OA
ATOM      3  N   UNL A   1      37.077  21.406  24.663  1.00  0.00    -0.354 N 
ATOM      4  H   UNL A   1      37.947  21.606  24.246  1.00  0.00     0.163 HD
ENDROOT
BRANCH   1   5
ATOM      5  C   UNL A   1      34.897  22.296  25.518  1.00  0.00     0.222 C 
BRANCH   5   6
ATOM      6  N   UNL A   1      33.889  21.861  24.559  1.00  0.00    -0.334 N 
ATOM      7  C   UNL A   1      33.156  22.657  23.680  1.00  0.00     0.107 A 
ATOM      8  C   UNL A   1      32.223  21.794  23.113  1.00  0.00     0.033 A 
ATOM      9  C   UNL A   1      32.432  20.484  23.597  1.00  0.00     0.020 A 
ATOM     10  C   UNL A   1      33.496  20.546  24.456  1.00  0.00     0.087 A 
BRANCH   7  11
ATOM     11  C   UNL A   1      33.446  24.074  23.448  1.00  0.00     0.270 C 
ATOM     12  O   UNL A   1      34.129  24.399  22.474  1.00  0.00    -0.267 OA
BRANCH  11  13
ATOM     13  N   UNL A   1      33.029  25.076  24.345  1.00  0.00    -0.335 N 
BRANCH  13  14
ATOM     14  C   UNL A   1      33.876  26.273  24.473  1.00  0.00     0.116 C 
ATOM     15  C   UNL A   1      33.525  27.153  25.667  1.00  0.00     0.027 C 
ENDBRANCH  13  14
BRANCH  13  16
ATOM     16  C   UNL A   1      31.730  25.141  25.023  1.00  0.00     0.148 C 
BRANCH  16  17
ATOM     17  C   UNL A   1      30.557  25.449  24.070  1.00  0.00     0.181 C 
BRANCH  17  18
ATOM     18  O   UNL A   1      29.754  26.543  24.506  1.00  0.00    -0.383 OA
ATOM     19  C   UNL A   1      28.495  26.650  23.852  1.00  0.00     0.194 C 
ENDBRANCH  17  18
ENDBRANCH  16  17
ENDBRANCH  13  16
ENDBRANCH  11  13
ENDBRANCH   7  11
ENDBRANCH   5   6
ENDBRANCH   1   5
BRANCH   3  20
ATOM     20  C   UNL A   1      36.841  20.011  24.982  1.00  0.00     0.117 C 
BRANCH  20  21
ATOM     21  C   UNL A   1      38.126  19.180  24.973  1.00  0.00     0.042 C 
BRANCH  21  22
ATOM     22  C   UNL A   1      39.257  19.824  25.759  1.00  0.00     0.118 C 
BRANCH  22  23
ATOM     23  N   UNL A   1      40.361  18.891  25.921  1.00  0.00    -0.352 N 
ATOM     24  C   UNL A   1      41.702  19.133  26.060  1.00  0.00     0.251 C 
ATOM     25  H   UNL A   1      40.105  17.940  25.931  1.00  0.00     0.163 HD
ATOM     26  O   UNL A   1      42.497  18.231  25.828  1.00  0.00    -0.269 OA
BRANCH  24  27
ATOM     27  C   UNL A   1      42.197  20.462  26.465  1.00  0.00     0.039 A 
ATOM     28  C   UNL A   1      42.717  21.296  25.467  1.00  0.00     0.014 A 
ATOM     29  C   UNL A   1      42.226  20.860  27.806  1.00  0.00     0.014 A 
ATOM     30  C   UNL A   1      43.201  22.552  25.805  1.00  0.00     0.010 A 
ATOM     31  C   UNL A   1      42.667  22.131  28.144  1.00  0.00     0.010 A 
ATOM     32  C   UNL A   1      43.143  22.977  27.138  1.00  0.00    -0.014 A 
BRANCH  32  33
ATOM     33  C   UNL A   1      43.420  24.395  27.438  1.00  0.00     0.031 A 
ATOM     34  C   UNL A   1      42.102  25.195  27.568  1.00  0.00     0.074 A 
ATOM     35  C   UNL A   1      44.740  24.749  27.523  1.00  0.00     0.049 A 
ATOM     36  N   UNL A   1      41.852  26.444  27.327  1.00  0.00    -0.248 NA
ATOM     37  C   UNL A   1      40.852  24.477  27.958  1.00  0.00     0.031 C 
ATOM     38  C   UNL A   1      45.873  23.798  27.431  1.00  0.00     0.029 A 
ATOM     39  N   UNL A   1      45.411  25.942  27.702  1.00  0.00    -0.354 N 
ATOM     40  C   UNL A   1      40.516  26.705  27.719  1.00  0.00     0.074 A 
ATOM     41  C   UNL A   1      39.919  25.433  27.979  1.00  0.00     0.031 C 
ATOM     42  C   UNL A   1      47.057  24.446  27.468  1.00  0.00     0.029 A 
ATOM     43  C   UNL A   1      46.829  25.871  27.589  1.00  0.00     0.049 A 
ATOM     44  H   UNL A   1      44.942  26.786  27.895  1.00  0.00     0.167 HD
ATOM     45  C   UNL A   1      40.040  27.968  27.944  1.00  0.00     0.037 A 
ATOM     46  C   UNL A   1      47.747  26.891  27.542  1.00  0.00     0.037 A 
ATOM     47  C   UNL A   1      41.072  28.911  27.685  1.00  0.00     0.049 A 
ATOM     48  C   UNL A   1      46.970  28.106  27.808  1.00  0.00     0.074 A 
ATOM     49  C   UNL A   1      41.644  29.347  26.520  1.00  0.00     0.029 A 
ATOM     50  N   UNL A   1      41.887  29.226  28.743  1.00  0.00    -0.354 N 
ATOM     51  N   UNL A   1      46.508  28.444  28.973  1.00  0.00    -0.248 NA
ATOM     52  C   UNL A   1      46.581  28.951  26.674  1.00  0.00     0.031 C 
ATOM     53  C   UNL A   1      43.007  29.450  26.862  1.00  0.00     0.029 A 
ATOM     54  C   UNL A   1      43.160  29.342  28.250  1.00  0.00     0.049 A 
ATOM     55  H   UNL A   1      41.610  29.345  29.681  1.00  0.00     0.167 HD
ATOM     56  C   UNL A   1      45.506  29.320  28.636  1.00  0.00     0.074 A 
ATOM     57  C   UNL A   1      45.822  29.830  27.320  1.00  0.00     0.031 C 
ATOM     58  C   UNL A   1      44.264  29.143  29.156  1.00  0.00     0.037 A 
BRANCH  45  59
ATOM     59  C   UNL A   1      38.814  28.506  28.632  1.00  0.00     0.057 A 
ATOM     60  C   UNL A   1      38.132  29.589  28.022  1.00  0.00     0.134 A 
ATOM     61  C   UNL A   1      38.525  28.292  29.982  1.00  0.00     0.134 A 
ATOM     62  F   UNL A   1      38.282  29.851  26.713  1.00  0.00    -0.206 F 
ATOM     63  C   UNL A   1      37.349  30.493  28.744  1.00  0.00     0.040 A 
ATOM     64  C   UNL A   1      37.699  29.167  30.706  1.00  0.00     0.040 A 
ATOM     65  F   UNL A   1      39.100  27.297  30.669  1.00  0.00    -0.206 F 
ATOM     66  C   UNL A   1      37.152  30.295  30.101  1.00  0.00     0.006 A 
ENDBRANCH  45  59
BRANCH  46  67
ATOM     67  C   UNL A   1      49.212  27.099  27.213  1.00  0.00     0.057 A 
ATOM     68  C   UNL A   1      50.176  27.681  28.040  1.00  0.00     0.134 A 
ATOM     69  C   UNL A   1      49.743  26.618  25.980  1.00  0.00     0.134 A 
ATOM     70  F   UNL A   1      49.837  28.309  29.170  1.00  0.00    -0.206 F 
ATOM     71  C   UNL A   1      51.553  27.664  27.726  1.00  0.00     0.040 A 
ATOM     72  C   UNL A   1      51.106  26.552  25.677  1.00  0.00     0.040 A 
ATOM     73  F   UNL A   1      48.956  26.178  24.989  1.00  0.00    -0.206 F 
ATOM     74  C   UNL A   1      52.026  27.059  26.566  1.00  0.00     0.006 A 
ENDBRANCH  46  67
BRANCH  58  75
ATOM     75  C   UNL A   1      44.236  28.393  30.476  1.00  0.00     0.057 A 
ATOM     76  C   UNL A   1      44.821  28.964  31.615  1.00  0.00     0.134 A 
ATOM     77  C   UNL A   1      43.765  27.081  30.639  1.00  0.00     0.134 A 
ATOM     78  F   UNL A   1      45.286  30.222  31.572  1.00  0.00    -0.206 F 
ATOM     79  C   UNL A   1      44.955  28.265  32.824  1.00  0.00     0.040 A 
ATOM     80  C   UNL A   1      43.883  26.369  31.842  1.00  0.00     0.040 A 
ATOM     81  F   UNL A   1      43.177  26.436  29.634  1.00  0.00    -0.206 F 
ATOM     82  C   UNL A   1      44.490  26.960  32.940  1.00  0.00     0.006 A 
ENDBRANCH  58  75
ENDBRANCH  32  33
ENDBRANCH  24  27
ENDBRANCH  22  23
ENDBRANCH  21  22
ENDBRANCH  20  21
ENDBRANCH   3  20
TORSDOF 17
ENDMDL
MODEL 3
REMARK VINA RESULT:      -9.7      1.046      2.101
REMARK SMILES CCN(CCOC)C(=O)c1cccn1CC(=O)NCCCNC(=O)c1ccc(-c2c3nc(c(-c4c(F)cccc4F)c4ccc([nH]4)c(-c4c(F)cccc4F)c4nc(c(-c5c(F)cccc5F)c5ccc2[nH]5)C=C4)C=C3)cc1
REMARK SMILES IDX 16 1 17 2 18 3 15 5 14 6 10 7 11 8 12 9 13 10 8 11 9 12 3 13
REMARK SMILES IDX 2 14 1 15 4 16 5 17 6 18 7 19 19 20 20 21 21 22 22 23 23 24
REMARK SMILES IDX 24 26 25 27 26 28 78 29 27 30 77 31 28 32 29 33 30 34 71 35
REMARK SMILES IDX 31 36 76 37 70 38 72 39 32 40 75 41 69 42 68 43 33 45 59 46
REMARK SMILES IDX 42 47 58 48 43 49 46 50 57 51 73 52 44 53 45 54 56 56 74 57
REMARK SMILES IDX 47 58 34 59 35 60 40 61 36 62 37 63 39 64 41 65 38 66 60 67
REMARK SMILES IDX 61 68 66 69 62 70 63 71 65 72 67 73 64 74 48 75 49 76 54 77
REMARK SMILES IDX 50 78 51 79 53 80 55 81 52 82
REMARK H PARENT 18 4 22 25 72 44 46 55
REMARK Flexibility Score: inf
ROOT
ATOM      1  C   UNL A   1      32.412  28.918  23.992  1.00  0.00     0.239 C 
ATOM      2  O   UNL A   1      32.600  29.017  22.777  1.00  0.00    -0.273 OA
ATOM      3  N   UNL A   1      32.002  30.033  24.672  1.00  0.00    -0.354 N 
ATOM      4  H   UNL A   1      31.888  30.846  24.129  1.00  0.00     0.163 HD
ENDROOT
BRANCH   1   5
ATOM      5  C   UNL A   1      32.605  27.601  24.723  1.00  0.00     0.222 C 
BRANCH   5   6
ATOM      6  N   UNL A   1      31.621  26.605  24.314  1.00  0.00    -0.334 N 
ATOM      7  C   UNL A   1      31.860  25.399  23.656  1.00  0.00     0.107 A 
ATOM      8  C   UNL A   1      30.596  24.907  23.348  1.00  0.00     0.033 A 
ATOM      9  C   UNL A   1      29.608  25.773  23.868  1.00  0.00     0.020 A 
ATOM     10  C   UNL A   1      30.270  26.792  24.498  1.00  0.00     0.087 A 
BRANCH   7  11
ATOM     11  C   UNL A   1      33.202  24.848  23.450  1.00  0.00     0.270 C 
ATOM     12  O   UNL A   1      33.859  25.209  22.472  1.00  0.00    -0.267 OA
BRANCH  11  13
ATOM     13  N   UNL A   1      33.740  23.862  24.299  1.00  0.00    -0.335 N 
BRANCH  13  14
ATOM     14  C   UNL A   1      35.191  23.886  24.539  1.00  0.00     0.116 C 
ATOM     15  C   UNL A   1      35.972  22.879  23.703  1.00  0.00     0.027 C 
ENDBRANCH  13  14
BRANCH  13  16
ATOM     16  C   UNL A   1      32.973  22.926  25.129  1.00  0.00     0.148 C 
BRANCH  16  17
ATOM     17  C   UNL A   1      33.285  23.048  26.635  1.00  0.00     0.181 C 
BRANCH  17  18
ATOM     18  O   UNL A   1      32.142  23.385  27.417  1.00  0.00    -0.383 OA
ATOM     19  C   UNL A   1      30.919  23.424  26.691  1.00  0.00     0.194 C 
ENDBRANCH  17  18
ENDBRANCH  16  17
ENDBRANCH  13  16
ENDBRANCH  11  13
ENDBRANCH   7  11
ENDBRANCH   5   6
ENDBRANCH   1   5
BRANCH   3  20
ATOM     20  C   UNL A   1      31.713  30.177  26.086  1.00  0.00     0.117 C 
BRANCH  20  21
ATOM     21  C   UNL A   1      31.528  31.639  26.501  1.00  0.00     0.042 C 
BRANCH  21  22
ATOM     22  C   UNL A   1      32.727  32.202  27.247  1.00  0.00     0.118 C 
BRANCH  22  23
ATOM     23  N   UNL A   1      32.546  33.623  27.502  1.00  0.00    -0.352 N 
ATOM     24  C   UNL A   1      33.115  34.423  28.458  1.00  0.00     0.251 C 
ATOM     25  H   UNL A   1      31.918  34.079  26.896  1.00  0.00     0.163 HD
ATOM     26  O   UNL A   1      32.580  35.487  28.738  1.00  0.00    -0.269 OA
BRANCH  24  27
ATOM     27  C   UNL A   1      34.343  34.010  29.163  1.00  0.00     0.039 A 
ATOM     28  C   UNL A   1      34.200  33.331  30.379  1.00  0.00     0.014 A 
ATOM     29  C   UNL A   1      35.615  34.347  28.685  1.00  0.00     0.014 A 
ATOM     30  C   UNL A   1      35.330  32.931  31.080  1.00  0.00     0.010 A 
ATOM     31  C   UNL A   1      36.746  33.911  29.358  1.00  0.00     0.010 A 
ATOM     32  C   UNL A   1      36.598  33.194  30.548  1.00  0.00    -0.014 A 
BRANCH  32  33
ATOM     33  C   UNL A   1      37.770  32.544  31.168  1.00  0.00     0.031 A 
ATOM     34  C   UNL A   1      38.137  31.244  30.415  1.00  0.00     0.074 A 
ATOM     35  C   UNL A   1      38.294  33.166  32.270  1.00  0.00     0.049 A 
ATOM     36  N   UNL A   1      38.700  30.157  30.843  1.00  0.00    -0.248 NA
ATOM     37  C   UNL A   1      37.754  31.103  28.978  1.00  0.00     0.031 C 
ATOM     38  C   UNL A   1      37.827  34.467  32.802  1.00  0.00     0.029 A 
ATOM     39  N   UNL A   1      39.303  32.862  33.162  1.00  0.00    -0.354 N 
ATOM     40  C   UNL A   1      38.921  29.312  29.727  1.00  0.00     0.074 A 
ATOM     41  C   UNL A   1      38.207  29.894  28.635  1.00  0.00     0.031 C 
ATOM     42  C   UNL A   1      38.476  34.788  33.942  1.00  0.00     0.029 A 
ATOM     43  C   UNL A   1      39.426  33.747  34.272  1.00  0.00     0.049 A 
ATOM     44  H   UNL A   1      39.897  32.087  33.040  1.00  0.00     0.167 HD
ATOM     45  C   UNL A   1      39.803  28.267  29.751  1.00  0.00     0.037 A 
ATOM     46  C   UNL A   1      40.199  33.620  35.399  1.00  0.00     0.037 A 
ATOM     47  C   UNL A   1      40.388  28.174  31.043  1.00  0.00     0.049 A 
ATOM     48  C   UNL A   1      41.028  32.435  35.153  1.00  0.00     0.074 A 
ATOM     49  C   UNL A   1      39.887  27.763  32.249  1.00  0.00     0.029 A 
ATOM     50  N   UNL A   1      41.531  28.906  31.247  1.00  0.00    -0.354 N 
ATOM     51  N   UNL A   1      42.038  32.400  34.338  1.00  0.00    -0.248 NA
ATOM     52  C   UNL A   1      40.637  31.165  35.773  1.00  0.00     0.031 C 
ATOM     53  C   UNL A   1      40.454  28.683  33.152  1.00  0.00     0.029 A 
ATOM     54  C   UNL A   1      41.461  29.419  32.514  1.00  0.00     0.049 A 
ATOM     55  H   UNL A   1      42.265  29.039  30.602  1.00  0.00     0.167 HD
ATOM     56  C   UNL A   1      42.158  31.054  34.094  1.00  0.00     0.074 A 
ATOM     57  C   UNL A   1      41.544  30.371  35.213  1.00  0.00     0.031 C 
ATOM     58  C   UNL A   1      42.215  30.612  32.812  1.00  0.00     0.037 A 
BRANCH  45  59
ATOM     59  C   UNL A   1      40.443  27.427  28.678  1.00  0.00     0.057 A 
ATOM     60  C   UNL A   1      41.288  28.075  27.742  1.00  0.00     0.134 A 
ATOM     61  C   UNL A   1      39.978  26.164  28.300  1.00  0.00     0.134 A 
ATOM     62  F   UNL A   1      41.846  29.265  28.022  1.00  0.00    -0.206 F 
ATOM     63  C   UNL A   1      41.516  27.577  26.457  1.00  0.00     0.040 A 
ATOM     64  C   UNL A   1      40.243  25.631  27.029  1.00  0.00     0.040 A 
ATOM     65  F   UNL A   1      39.179  25.448  29.101  1.00  0.00    -0.206 F 
ATOM     66  C   UNL A   1      40.969  26.358  26.088  1.00  0.00     0.006 A 
ENDBRANCH  45  59
BRANCH  46  67
ATOM     67  C   UNL A   1      40.345  34.258  36.766  1.00  0.00     0.057 A 
ATOM     68  C   UNL A   1      39.337  34.422  37.719  1.00  0.00     0.134 A 
ATOM     69  C   UNL A   1      41.624  34.696  37.217  1.00  0.00     0.134 A 
ATOM     70  F   UNL A   1      38.054  34.196  37.423  1.00  0.00    -0.206 F 
ATOM     71  C   UNL A   1      39.604  34.857  39.037  1.00  0.00     0.040 A 
ATOM     72  C   UNL A   1      41.912  35.083  38.530  1.00  0.00     0.040 A 
ATOM     73  F   UNL A   1      42.681  34.773  36.397  1.00  0.00    -0.206 F 
ATOM     74  C   UNL A   1      40.898  35.145  39.459  1.00  0.00     0.006 A 
ENDBRANCH  46  67
BRANCH  58  75
ATOM     75  C   UNL A   1      42.734  31.635  31.817  1.00  0.00     0.057 A 
ATOM     76  C   UNL A   1      41.891  32.111  30.803  1.00  0.00     0.134 A 
ATOM     77  C   UNL A   1      44.065  32.075  31.745  1.00  0.00     0.134 A 
ATOM     78  F   UNL A   1      40.594  31.766  30.791  1.00  0.00    -0.206 F 
ATOM     79  C   UNL A   1      42.350  32.944  29.772  1.00  0.00     0.040 A 
ATOM     80  C   UNL A   1      44.540  32.914  30.726  1.00  0.00     0.040 A 
ATOM     81  F   UNL A   1      44.958  31.702  32.659  1.00  0.00    -0.206 F 
ATOM     82  C   UNL A   1      43.681  33.344  29.727  1.00  0.00     0.006 A 
ENDBRANCH  58  75
ENDBRANCH  32  33
ENDBRANCH  24  27
ENDBRANCH  22  23
ENDBRANCH  21  22
ENDBRANCH  20  21
ENDBRANCH   3  20
TORSDOF 17
ENDMDL
