MODEL 1
REMARK VINA RESULT:     -13.3      0.000      0.000
REMARK SMILES C/C(=N\NC(N)=O)c1nnn(-c2ccc(C(=O)NCCCNC(=O)c3ccc(-c4c5nc(c(-c6c(F)cccc6F)c6ccc([nH]6)c(-c6c(F)cccc6F)c6nc(c(-c7c(F)cccc7F)c7ccc4[nH]7)C=C6)C=C5)cc3)cc2)c1C
REMARK SMILES IDX 19 1 18 2 16 3 17 4 15 6 12 7 13 8 80 9 14 10 79 11 11 12
REMARK SMILES IDX 8 13 9 14 81 15 10 16 82 17 2 18 1 19 3 20 4 21 5 22 6 24
REMARK SMILES IDX 7 25 20 28 21 29 22 30 23 31 24 33 25 34 26 35 78 36 27 37
REMARK SMILES IDX 77 38 28 39 29 40 30 41 71 42 31 43 76 44 70 45 72 46 32 47
REMARK SMILES IDX 75 48 69 49 68 50 33 52 59 53 42 54 58 55 43 56 46 57 57 58
REMARK SMILES IDX 73 59 44 60 45 61 56 63 74 64 47 65 34 66 35 67 40 68 36 69
REMARK SMILES IDX 37 70 39 71 41 72 38 73 60 74 61 75 66 76 62 77 63 78 65 79
REMARK SMILES IDX 67 80 64 81 48 82 49 83 54 84 50 85 51 86 53 87 55 88 52 89
REMARK H PARENT 18 5 4 23 6 26 6 27 22 32 72 51 46 62
REMARK Flexibility Score: inf
ROOT
ATOM      1  C   UNL A   1      36.325  20.640  25.055  1.00  0.00     0.118 C 
ENDROOT
BRANCH   1   2
ATOM      2  N   UNL A   1      35.107  19.868  25.275  1.00  0.00    -0.352 N 
ATOM      3  C   UNL A   1      33.774  20.201  25.160  1.00  0.00     0.251 C 
ATOM      4  O   UNL A   1      32.941  19.303  25.278  1.00  0.00    -0.269 OA
ATOM      5  H   UNL A   1      35.265  18.937  25.555  1.00  0.00     0.163 HD
BRANCH   3   6
ATOM      6  C   UNL A   1      33.313  21.584  24.844  1.00  0.00     0.039 A 
ATOM      7  C   UNL A   1      32.719  24.206  24.103  1.00  0.00     0.067 A 
ATOM      8  C   UNL A   1      32.622  23.194  23.147  1.00  0.00     0.029 A 
ATOM      9  C   UNL A   1      32.982  23.909  25.437  1.00  0.00     0.029 A 
ATOM     10  C   UNL A   1      32.950  21.884  23.519  1.00  0.00     0.016 A 
ATOM     11  C   UNL A   1      33.229  22.594  25.803  1.00  0.00     0.016 A 
BRANCH   7  12
ATOM     12  N   UNL A   1      32.660  25.554  23.723  1.00  0.00    -0.217 N 
ATOM     13  C   UNL A   1      32.011  27.556  23.198  1.00  0.00     0.132 A 
ATOM     14  N   UNL A   1      33.377  27.489  23.088  1.00  0.00    -0.128 NA
ATOM     15  C   UNL A   1      31.523  26.335  23.623  1.00  0.00     0.071 A 
ATOM     16  N   UNL A   1      33.765  26.286  23.490  1.00  0.00    -0.061 NA
ATOM     17  C   UNL A   1      30.170  25.913  24.059  1.00  0.00     0.069 C 
BRANCH  13  18
ATOM     18  C   UNL A   1      31.280  28.805  23.090  1.00  0.00     0.087 C 
ATOM     19  C   UNL A   1      30.930  29.465  24.398  1.00  0.00     0.071 C 
ATOM     20  N   UNL A   1      31.049  29.217  21.879  1.00  0.00    -0.174 NA
BRANCH  20  21
ATOM     21  N   UNL A   1      30.363  30.365  21.600  1.00  0.00    -0.229 N 
ATOM     22  C   UNL A   1      29.008  30.515  21.406  1.00  0.00     0.332 C 
ATOM     23  H   UNL A   1      30.903  31.186  21.528  1.00  0.00     0.195 HD
ATOM     24  N   UNL A   1      28.656  31.815  21.194  1.00  0.00    -0.350 N 
ATOM     25  O   UNL A   1      28.150  29.644  21.420  1.00  0.00    -0.247 OA
ATOM     26  H   UNL A   1      29.347  32.516  21.183  1.00  0.00     0.161 HD
ATOM     27  H   UNL A   1      27.712  32.053  21.052  1.00  0.00     0.161 HD
ENDBRANCH  20  21
ENDBRANCH  13  18
ENDBRANCH   7  12
ENDBRANCH   3   6
ENDBRANCH   1   2
BRANCH   1  28
ATOM     28  C   UNL A   1      37.549  19.744  24.810  1.00  0.00     0.042 C 
BRANCH  28  29
ATOM     29  C   UNL A   1      38.787  20.222  25.542  1.00  0.00     0.118 C 
BRANCH  29  30
ATOM     30  N   UNL A   1      39.791  19.168  25.693  1.00  0.00    -0.352 N 
ATOM     31  C   UNL A   1      41.146  19.301  25.954  1.00  0.00     0.251 C 
ATOM     32  H   UNL A   1      39.462  18.245  25.597  1.00  0.00     0.163 HD
ATOM     33  O   UNL A   1      41.926  18.400  25.710  1.00  0.00    -0.269 OA
BRANCH  31  34
ATOM     34  C   UNL A   1      41.620  20.568  26.536  1.00  0.00     0.039 A 
ATOM     35  C   UNL A   1      42.246  21.549  25.760  1.00  0.00     0.014 A 
ATOM     36  C   UNL A   1      41.375  20.776  27.887  1.00  0.00     0.014 A 
ATOM     37  C   UNL A   1      42.548  22.775  26.348  1.00  0.00     0.010 A 
ATOM     38  C   UNL A   1      41.472  22.038  28.397  1.00  0.00     0.010 A 
ATOM     39  C   UNL A   1      42.141  23.013  27.668  1.00  0.00    -0.014 A 
BRANCH  39  40
ATOM     40  C   UNL A   1      42.326  24.306  28.314  1.00  0.00     0.031 A 
ATOM     41  C   UNL A   1      41.207  25.268  28.122  1.00  0.00     0.074 A 
ATOM     42  C   UNL A   1      43.283  24.488  29.251  1.00  0.00     0.049 A 
ATOM     43  N   UNL A   1      41.230  26.409  27.517  1.00  0.00    -0.248 NA
ATOM     44  C   UNL A   1      39.861  24.849  28.551  1.00  0.00     0.031 C 
ATOM     45  C   UNL A   1      44.222  23.496  29.799  1.00  0.00     0.029 A 
ATOM     46  N   UNL A   1      43.533  25.579  30.021  1.00  0.00    -0.354 N 
ATOM     47  C   UNL A   1      39.957  26.952  27.684  1.00  0.00     0.074 A 
ATOM     48  C   UNL A   1      39.116  25.874  28.132  1.00  0.00     0.031 C 
ATOM     49  C   UNL A   1      44.744  23.954  30.956  1.00  0.00     0.029 A 
ATOM     50  C   UNL A   1      44.332  25.331  31.132  1.00  0.00     0.049 A 
ATOM     51  H   UNL A   1      43.177  26.473  29.809  1.00  0.00     0.167 HD
ATOM     52  C   UNL A   1      39.763  28.301  27.703  1.00  0.00     0.037 A 
ATOM     53  C   UNL A   1      44.605  26.195  32.139  1.00  0.00     0.037 A 
ATOM     54  C   UNL A   1      40.907  28.994  27.163  1.00  0.00     0.049 A 
ATOM     55  C   UNL A   1      44.273  27.556  31.651  1.00  0.00     0.074 A 
ATOM     56  C   UNL A   1      41.579  28.977  25.956  1.00  0.00     0.029 A 
ATOM     57  N   UNL A   1      41.764  29.592  28.055  1.00  0.00    -0.354 N 
ATOM     58  N   UNL A   1      44.926  28.169  30.704  1.00  0.00    -0.248 NA
ATOM     59  C   UNL A   1      42.928  28.048  31.901  1.00  0.00     0.031 C 
ATOM     60  C   UNL A   1      42.958  29.102  26.301  1.00  0.00     0.029 A 
ATOM     61  C   UNL A   1      43.042  29.258  27.686  1.00  0.00     0.049 A 
ATOM     62  H   UNL A   1      41.508  30.159  28.818  1.00  0.00     0.167 HD
ATOM     63  C   UNL A   1      43.949  28.814  29.960  1.00  0.00     0.074 A 
ATOM     64  C   UNL A   1      42.752  28.783  30.800  1.00  0.00     0.031 C 
ATOM     65  C   UNL A   1      44.119  29.045  28.625  1.00  0.00     0.037 A 
BRANCH  52  66
ATOM     66  C   UNL A   1      38.736  29.008  28.562  1.00  0.00     0.057 A 
ATOM     67  C   UNL A   1      38.719  28.756  29.947  1.00  0.00     0.134 A 
ATOM     68  C   UNL A   1      37.597  29.676  28.068  1.00  0.00     0.134 A 
ATOM     69  F   UNL A   1      39.738  28.121  30.545  1.00  0.00    -0.206 F 
ATOM     70  C   UNL A   1      37.618  29.063  30.757  1.00  0.00     0.040 A 
ATOM     71  C   UNL A   1      36.515  30.036  28.878  1.00  0.00     0.040 A 
ATOM     72  F   UNL A   1      37.412  29.929  26.768  1.00  0.00    -0.206 F 
ATOM     73  C   UNL A   1      36.506  29.697  30.220  1.00  0.00     0.006 A 
ENDBRANCH  52  66
BRANCH  53  74
ATOM     74  C   UNL A   1      44.854  25.904  33.568  1.00  0.00     0.057 A 
ATOM     75  C   UNL A   1      43.794  25.654  34.450  1.00  0.00     0.134 A 
ATOM     76  C   UNL A   1      46.140  25.592  34.041  1.00  0.00     0.134 A 
ATOM     77  F   UNL A   1      42.529  25.886  34.075  1.00  0.00    -0.206 F 
ATOM     78  C   UNL A   1      43.998  25.097  35.719  1.00  0.00     0.040 A 
ATOM     79  C   UNL A   1      46.359  25.040  35.308  1.00  0.00     0.040 A 
ATOM     80  F   UNL A   1      47.219  25.727  33.255  1.00  0.00    -0.206 F 
ATOM     81  C   UNL A   1      45.283  24.776  36.147  1.00  0.00     0.006 A 
ENDBRANCH  53  74
BRANCH  65  82
ATOM     82  C   UNL A   1      45.490  28.827  28.042  1.00  0.00     0.057 A 
ATOM     83  C   UNL A   1      45.930  27.614  27.488  1.00  0.00     0.134 A 
ATOM     84  C   UNL A   1      46.341  29.926  27.899  1.00  0.00     0.134 A 
ATOM     85  F   UNL A   1      45.149  26.529  27.483  1.00  0.00    -0.206 F 
ATOM     86  C   UNL A   1      47.174  27.493  26.862  1.00  0.00     0.040 A 
ATOM     87  C   UNL A   1      47.572  29.829  27.247  1.00  0.00     0.040 A 
ATOM     88  F   UNL A   1      45.967  31.133  28.353  1.00  0.00    -0.206 F 
ATOM     89  C   UNL A   1      47.998  28.607  26.733  1.00  0.00     0.006 A 
ENDBRANCH  65  82
ENDBRANCH  39  40
ENDBRANCH  31  34
ENDBRANCH  29  30
ENDBRANCH  28  29
ENDBRANCH   1  28
TORSDOF 13
ENDMDL
MODEL 2
REMARK VINA RESULT:     -12.9      3.730      9.475
REMARK SMILES C/C(=N\NC(N)=O)c1nnn(-c2ccc(C(=O)NCCCNC(=O)c3ccc(-c4c5nc(c(-c6c(F)cccc6F)c6ccc([nH]6)c(-c6c(F)cccc6F)c6nc(c(-c7c(F)cccc7F)c7ccc4[nH]7)C=C6)C=C5)cc3)cc2)c1C
REMARK SMILES IDX 19 1 18 2 16 3 17 4 15 6 12 7 13 8 80 9 14 10 79 11 11 12
REMARK SMILES IDX 8 13 9 14 81 15 10 16 82 17 2 18 1 19 3 20 4 21 5 22 6 24
REMARK SMILES IDX 7 25 20 28 21 29 22 30 23 31 24 33 25 34 26 35 78 36 27 37
REMARK SMILES IDX 77 38 28 39 29 40 30 41 71 42 31 43 76 44 70 45 72 46 32 47
REMARK SMILES IDX 75 48 69 49 68 50 33 52 59 53 42 54 58 55 43 56 46 57 57 58
REMARK SMILES IDX 73 59 44 60 45 61 56 63 74 64 47 65 34 66 35 67 40 68 36 69
REMARK SMILES IDX 37 70 39 71 41 72 38 73 60 74 61 75 66 76 62 77 63 78 65 79
REMARK SMILES IDX 67 80 64 81 48 82 49 83 54 84 50 85 51 86 53 87 55 88 52 89
REMARK H PARENT 18 5 4 23 6 26 6 27 22 32 72 51 46 62
REMARK Flexibility Score: inf
ROOT
ATOM      1  C   UNL A   1      31.593  30.642  25.808  1.00  0.00     0.118 C 
ENDROOT
BRANCH   1   2
ATOM      2  N   UNL A   1      30.761  30.474  24.622  1.00  0.00    -0.352 N 
ATOM      3  C   UNL A   1      30.481  29.370  23.845  1.00  0.00     0.251 C 
ATOM      4  O   UNL A   1      29.627  29.484  22.966  1.00  0.00    -0.269 OA
ATOM      5  H   UNL A   1      30.318  31.300  24.321  1.00  0.00     0.163 HD
BRANCH   3   6
ATOM      6  C   UNL A   1      31.125  28.043  24.067  1.00  0.00     0.039 A 
ATOM      7  C   UNL A   1      32.453  25.595  24.203  1.00  0.00     0.067 A 
ATOM      8  C   UNL A   1      33.183  26.772  24.379  1.00  0.00     0.029 A 
ATOM      9  C   UNL A   1      31.066  25.622  24.089  1.00  0.00     0.029 A 
ATOM     10  C   UNL A   1      32.514  27.999  24.281  1.00  0.00     0.016 A 
ATOM     11  C   UNL A   1      30.411  26.845  24.071  1.00  0.00     0.016 A 
BRANCH   7  12
ATOM     12  N   UNL A   1      33.109  24.368  24.030  1.00  0.00    -0.217 N 
ATOM     13  C   UNL A   1      34.090  22.458  24.328  1.00  0.00     0.132 A 
ATOM     14  N   UNL A   1      34.073  22.743  22.987  1.00  0.00    -0.128 NA
ATOM     15  C   UNL A   1      33.461  23.473  25.023  1.00  0.00     0.071 A 
ATOM     16  N   UNL A   1      33.399  23.872  22.813  1.00  0.00    -0.061 NA
ATOM     17  C   UNL A   1      33.058  23.590  26.445  1.00  0.00     0.069 C 
BRANCH  13  18
ATOM     18  C   UNL A   1      34.515  21.170  24.847  1.00  0.00     0.087 C 
ATOM     19  C   UNL A   1      35.990  21.037  25.118  1.00  0.00     0.071 C 
ATOM     20  N   UNL A   1      33.565  20.305  25.049  1.00  0.00    -0.174 NA
BRANCH  20  21
ATOM     21  N   UNL A   1      33.794  19.044  25.522  1.00  0.00    -0.229 N 
ATOM     22  C   UNL A   1      32.953  17.955  25.468  1.00  0.00     0.332 C 
ATOM     23  H   UNL A   1      34.666  18.895  25.956  1.00  0.00     0.195 HD
ATOM     24  N   UNL A   1      33.523  16.835  25.996  1.00  0.00    -0.350 N 
ATOM     25  O   UNL A   1      31.821  17.906  25.006  1.00  0.00    -0.247 OA
ATOM     26  H   UNL A   1      34.434  16.874  26.367  1.00  0.00     0.161 HD
ATOM     27  H   UNL A   1      33.024  15.986  26.006  1.00  0.00     0.161 HD
ENDBRANCH  20  21
ENDBRANCH  13  18
ENDBRANCH   7  12
ENDBRANCH   3   6
ENDBRANCH   1   2
BRANCH   1  28
ATOM     28  C   UNL A   1      31.295  31.954  26.551  1.00  0.00     0.042 C 
BRANCH  28  29
ATOM     29  C   UNL A   1      32.514  32.533  27.241  1.00  0.00     0.118 C 
BRANCH  29  30
ATOM     30  N   UNL A   1      32.333  33.936  27.616  1.00  0.00    -0.352 N 
ATOM     31  C   UNL A   1      33.016  34.664  28.578  1.00  0.00     0.251 C 
ATOM     32  H   UNL A   1      31.637  34.426  27.122  1.00  0.00     0.163 HD
ATOM     33  O   UNL A   1      32.551  35.690  29.038  1.00  0.00    -0.269 OA
BRANCH  31  34
ATOM     34  C   UNL A   1      34.324  34.161  29.032  1.00  0.00     0.039 A 
ATOM     35  C   UNL A   1      34.469  33.459  30.232  1.00  0.00     0.014 A 
ATOM     36  C   UNL A   1      35.409  34.368  28.190  1.00  0.00     0.014 A 
ATOM     37  C   UNL A   1      35.708  32.899  30.534  1.00  0.00     0.010 A 
ATOM     38  C   UNL A   1      36.549  33.642  28.380  1.00  0.00     0.010 A 
ATOM     39  C   UNL A   1      36.740  32.985  29.589  1.00  0.00    -0.014 A 
BRANCH  39  40
ATOM     40  C   UNL A   1      38.027  32.333  29.786  1.00  0.00     0.031 A 
ATOM     41  C   UNL A   1      38.086  30.915  29.339  1.00  0.00     0.074 A 
ATOM     42  C   UNL A   1      39.139  33.050  30.062  1.00  0.00     0.049 A 
ATOM     43  N   UNL A   1      38.286  29.859  30.056  1.00  0.00    -0.248 NA
ATOM     44  C   UNL A   1      37.757  30.624  27.933  1.00  0.00     0.031 C 
ATOM     45  C   UNL A   1      39.278  34.512  30.164  1.00  0.00     0.029 A 
ATOM     46  N   UNL A   1      40.426  32.628  30.177  1.00  0.00    -0.354 N 
ATOM     47  C   UNL A   1      38.330  28.794  29.158  1.00  0.00     0.074 A 
ATOM     48  C   UNL A   1      37.794  29.290  27.919  1.00  0.00     0.031 C 
ATOM     49  C   UNL A   1      40.580  34.853  30.072  1.00  0.00     0.029 A 
ATOM     50  C   UNL A   1      41.374  33.642  30.097  1.00  0.00     0.049 A 
ATOM     51  H   UNL A   1      40.666  31.683  30.306  1.00  0.00     0.167 HD
ATOM     52  C   UNL A   1      39.057  27.673  29.429  1.00  0.00     0.037 A 
ATOM     53  C   UNL A   1      42.718  33.486  30.026  1.00  0.00     0.037 A 
ATOM     54  C   UNL A   1      39.398  27.605  30.829  1.00  0.00     0.049 A 
ATOM     55  C   UNL A   1      43.024  32.106  30.475  1.00  0.00     0.074 A 
ATOM     56  C   UNL A   1      38.679  27.581  32.009  1.00  0.00     0.029 A 
ATOM     57  N   UNL A   1      40.682  27.937  31.186  1.00  0.00    -0.354 N 
ATOM     58  N   UNL A   1      42.857  31.685  31.697  1.00  0.00    -0.248 NA
ATOM     59  C   UNL A   1      43.080  31.067  29.459  1.00  0.00     0.031 C 
ATOM     60  C   UNL A   1      39.438  28.377  32.919  1.00  0.00     0.029 A 
ATOM     61  C   UNL A   1      40.605  28.778  32.266  1.00  0.00     0.049 A 
ATOM     62  H   UNL A   1      41.506  27.626  30.748  1.00  0.00     0.167 HD
ATOM     63  C   UNL A   1      42.359  30.398  31.563  1.00  0.00     0.074 A 
ATOM     64  C   UNL A   1      42.609  30.038  30.168  1.00  0.00     0.031 C 
ATOM     65  C   UNL A   1      41.530  29.862  32.508  1.00  0.00     0.037 A 
BRANCH  52  66
ATOM     66  C   UNL A   1      39.797  26.858  28.390  1.00  0.00     0.057 A 
ATOM     67  C   UNL A   1      40.668  27.518  27.502  1.00  0.00     0.134 A 
ATOM     68  C   UNL A   1      39.477  25.533  28.029  1.00  0.00     0.134 A 
ATOM     69  F   UNL A   1      41.048  28.785  27.723  1.00  0.00    -0.206 F 
ATOM     70  C   UNL A   1      41.110  26.937  26.306  1.00  0.00     0.040 A 
ATOM     71  C   UNL A   1      39.956  24.924  26.865  1.00  0.00     0.040 A 
ATOM     72  F   UNL A   1      38.607  24.785  28.716  1.00  0.00    -0.206 F 
ATOM     73  C   UNL A   1      40.746  25.637  25.979  1.00  0.00     0.006 A 
ENDBRANCH  52  66
BRANCH  53  74
ATOM     74  C   UNL A   1      43.714  34.333  29.334  1.00  0.00     0.057 A 
ATOM     75  C   UNL A   1      43.968  34.177  27.964  1.00  0.00     0.134 A 
ATOM     76  C   UNL A   1      44.235  35.494  29.932  1.00  0.00     0.134 A 
ATOM     77  F   UNL A   1      43.482  33.121  27.299  1.00  0.00    -0.206 F 
ATOM     78  C   UNL A   1      44.675  35.135  27.225  1.00  0.00     0.040 A 
ATOM     79  C   UNL A   1      44.947  36.455  29.207  1.00  0.00     0.040 A 
ATOM     80  F   UNL A   1      43.992  35.776  31.221  1.00  0.00    -0.206 F 
ATOM     81  C   UNL A   1      45.156  36.285  27.843  1.00  0.00     0.006 A 
ENDBRANCH  53  74
BRANCH  65  82
ATOM     82  C   UNL A   1      41.385  30.595  33.815  1.00  0.00     0.057 A 
ATOM     83  C   UNL A   1      40.407  31.568  34.072  1.00  0.00     0.134 A 
ATOM     84  C   UNL A   1      42.169  30.191  34.900  1.00  0.00     0.134 A 
ATOM     85  F   UNL A   1      39.541  31.950  33.127  1.00  0.00    -0.206 F 
ATOM     86  C   UNL A   1      40.246  32.141  35.337  1.00  0.00     0.040 A 
ATOM     87  C   UNL A   1      41.997  30.730  36.176  1.00  0.00     0.040 A 
ATOM     88  F   UNL A   1      43.088  29.225  34.746  1.00  0.00    -0.206 F 
ATOM     89  C   UNL A   1      41.040  31.717  36.398  1.00  0.00     0.006 A 
ENDBRANCH  65  82
ENDBRANCH  39  40
ENDBRANCH  31  34
ENDBRANCH  29  30
ENDBRANCH  28  29
ENDBRANCH   1  28
TORSDOF 13
ENDMDL
MODEL 3
REMARK VINA RESULT:     -12.5      2.828      6.606
REMARK SMILES C/C(=N\NC(N)=O)c1nnn(-c2ccc(C(=O)NCCCNC(=O)c3ccc(-c4c5nc(c(-c6c(F)cccc6F)c6ccc([nH]6)c(-c6c(F)cccc6F)c6nc(c(-c7c(F)cccc7F)c7ccc4[nH]7)C=C6)C=C5)cc3)cc2)c1C
REMARK SMILES IDX 19 1 18 2 16 3 17 4 15 6 12 7 13 8 80 9 14 10 79 11 11 12
REMARK SMILES IDX 8 13 9 14 81 15 10 16 82 17 2 18 1 19 3 20 4 21 5 22 6 24
REMARK SMILES IDX 7 25 20 28 21 29 22 30 23 31 24 33 25 34 26 35 78 36 27 37
REMARK SMILES IDX 77 38 28 39 29 40 30 41 71 42 31 43 76 44 70 45 72 46 32 47
REMARK SMILES IDX 75 48 69 49 68 50 33 52 59 53 42 54 58 55 43 56 46 57 57 58
REMARK SMILES IDX 73 59 44 60 45 61 56 63 74 64 47 65 34 66 35 67 40 68 36 69
REMARK SMILES IDX 37 70 39 71 41 72 38 73 60 74 61 75 66 76 62 77 63 78 65 79
REMARK SMILES IDX 67 80 64 81 48 82 49 83 54 84 50 85 51 86 53 87 55 88 52 89
REMARK H PARENT 18 5 4 23 6 26 6 27 22 32 72 51 46 62
REMARK Flexibility Score: inf
ROOT
ATOM      1  C   UNL A   1      37.894  22.108  25.437  1.00  0.00     0.118 C 
ENDROOT
BRANCH   1   2
ATOM      2  N   UNL A   1      36.889  21.055  25.353  1.00  0.00    -0.352 N 
ATOM      3  C   UNL A   1      35.554  21.084  25.009  1.00  0.00     0.251 C 
ATOM      4  O   UNL A   1      34.964  20.010  24.891  1.00  0.00    -0.269 OA
ATOM      5  H   UNL A   1      37.224  20.159  25.584  1.00  0.00     0.163 HD
BRANCH   3   6
ATOM      6  C   UNL A   1      34.823  22.352  24.720  1.00  0.00     0.039 A 
ATOM      7  C   UNL A   1      33.200  24.571  24.258  1.00  0.00     0.067 A 
ATOM      8  C   UNL A   1      33.500  24.214  25.573  1.00  0.00     0.029 A 
ATOM      9  C   UNL A   1      33.798  23.919  23.184  1.00  0.00     0.029 A 
ATOM     10  C   UNL A   1      34.293  23.081  25.798  1.00  0.00     0.016 A 
ATOM     11  C   UNL A   1      34.642  22.845  23.427  1.00  0.00     0.016 A 
BRANCH   7  12
ATOM     12  N   UNL A   1      32.210  25.526  23.986  1.00  0.00    -0.217 N 
ATOM     13  C   UNL A   1      31.108  27.361  23.642  1.00  0.00     0.132 A 
ATOM     14  N   UNL A   1      30.245  26.301  23.541  1.00  0.00    -0.128 NA
ATOM     15  C   UNL A   1      32.381  26.895  23.909  1.00  0.00     0.071 A 
ATOM     16  N   UNL A   1      30.947  25.182  23.671  1.00  0.00    -0.061 NA
ATOM     17  C   UNL A   1      33.694  27.583  23.945  1.00  0.00     0.069 C 
BRANCH  13  18
ATOM     18  C   UNL A   1      30.725  28.717  23.291  1.00  0.00     0.087 C 
ATOM     19  C   UNL A   1      30.681  29.694  24.436  1.00  0.00     0.071 C 
ATOM     20  N   UNL A   1      30.503  28.927  22.027  1.00  0.00    -0.174 NA
BRANCH  20  21
ATOM     21  N   UNL A   1      30.123  30.142  21.529  1.00  0.00    -0.229 N 
ATOM     22  C   UNL A   1      28.846  30.643  21.410  1.00  0.00     0.332 C 
ATOM     23  H   UNL A   1      30.849  30.729  21.217  1.00  0.00     0.195 HD
ATOM     24  N   UNL A   1      28.833  31.913  20.913  1.00  0.00    -0.350 N 
ATOM     25  O   UNL A   1      27.794  30.091  21.702  1.00  0.00    -0.247 OA
ATOM     26  H   UNL A   1      29.680  32.358  20.678  1.00  0.00     0.161 HD
ATOM     27  H   UNL A   1      27.979  32.385  20.790  1.00  0.00     0.161 HD
ENDBRANCH  20  21
ENDBRANCH  13  18
ENDBRANCH   7  12
ENDBRANCH   3   6
ENDBRANCH   1   2
BRANCH   1  28
ATOM     28  C   UNL A   1      39.123  21.680  26.255  1.00  0.00     0.042 C 
BRANCH  28  29
ATOM     29  C   UNL A   1      40.077  22.825  26.531  1.00  0.00     0.118 C 
BRANCH  29  30
ATOM     30  N   UNL A   1      41.380  22.635  25.894  1.00  0.00    -0.352 N 
ATOM     31  C   UNL A   1      42.306  23.598  25.525  1.00  0.00     0.251 C 
ATOM     32  H   UNL A   1      41.633  21.703  25.702  1.00  0.00     0.163 HD
ATOM     33  O   UNL A   1      43.170  23.358  24.702  1.00  0.00    -0.269 OA
BRANCH  31  34
ATOM     34  C   UNL A   1      42.216  24.926  26.156  1.00  0.00     0.039 A 
ATOM     35  C   UNL A   1      41.287  25.882  25.735  1.00  0.00     0.014 A 
ATOM     36  C   UNL A   1      43.064  25.178  27.227  1.00  0.00     0.014 A 
ATOM     37  C   UNL A   1      41.168  27.064  26.462  1.00  0.00     0.010 A 
ATOM     38  C   UNL A   1      42.798  26.228  28.056  1.00  0.00     0.010 A 
ATOM     39  C   UNL A   1      41.922  27.219  27.634  1.00  0.00    -0.014 A 
BRANCH  39  40
ATOM     40  C   UNL A   1      41.773  28.379  28.503  1.00  0.00     0.031 A 
ATOM     41  C   UNL A   1      42.812  29.430  28.328  1.00  0.00     0.074 A 
ATOM     42  C   UNL A   1      40.624  28.604  29.177  1.00  0.00     0.049 A 
ATOM     43  N   UNL A   1      43.688  29.837  29.186  1.00  0.00    -0.248 NA
ATOM     44  C   UNL A   1      42.978  30.015  26.987  1.00  0.00     0.031 C 
ATOM     45  C   UNL A   1      39.378  27.822  29.139  1.00  0.00     0.029 A 
ATOM     46  N   UNL A   1      40.273  29.670  29.944  1.00  0.00    -0.354 N 
ATOM     47  C   UNL A   1      44.367  30.884  28.566  1.00  0.00     0.074 A 
ATOM     48  C   UNL A   1      44.038  30.805  27.168  1.00  0.00     0.031 C 
ATOM     49  C   UNL A   1      38.362  28.560  29.633  1.00  0.00     0.029 A 
ATOM     50  C   UNL A   1      38.910  29.779  30.192  1.00  0.00     0.049 A 
ATOM     51  H   UNL A   1      40.932  30.312  30.294  1.00  0.00     0.167 HD
ATOM     52  C   UNL A   1      44.924  31.893  29.295  1.00  0.00     0.037 A 
ATOM     53  C   UNL A   1      38.278  30.818  30.789  1.00  0.00     0.037 A 
ATOM     54  C   UNL A   1      45.042  31.521  30.684  1.00  0.00     0.049 A 
ATOM     55  C   UNL A   1      39.311  31.604  31.506  1.00  0.00     0.074 A 
ATOM     56  C   UNL A   1      45.673  30.502  31.371  1.00  0.00     0.029 A 
ATOM     57  N   UNL A   1      44.125  32.046  31.561  1.00  0.00    -0.354 N 
ATOM     58  N   UNL A   1      39.966  31.168  32.546  1.00  0.00    -0.248 NA
ATOM     59  C   UNL A   1      39.941  32.699  30.786  1.00  0.00     0.031 C 
ATOM     60  C   UNL A   1      44.769  30.151  32.419  1.00  0.00     0.029 A 
ATOM     61  C   UNL A   1      43.679  31.020  32.353  1.00  0.00     0.049 A 
ATOM     62  H   UNL A   1      43.841  32.987  31.612  1.00  0.00     0.167 HD
ATOM     63  C   UNL A   1      41.264  31.621  32.362  1.00  0.00     0.074 A 
ATOM     64  C   UNL A   1      41.166  32.637  31.315  1.00  0.00     0.031 C 
ATOM     65  C   UNL A   1      42.329  30.925  32.860  1.00  0.00     0.037 A 
BRANCH  52  66
ATOM     66  C   UNL A   1      44.989  33.338  28.850  1.00  0.00     0.057 A 
ATOM     67  C   UNL A   1      43.793  33.999  28.507  1.00  0.00     0.134 A 
ATOM     68  C   UNL A   1      46.167  34.008  28.460  1.00  0.00     0.134 A 
ATOM     69  F   UNL A   1      42.600  33.467  28.813  1.00  0.00    -0.206 F 
ATOM     70  C   UNL A   1      43.772  35.183  27.759  1.00  0.00     0.040 A 
ATOM     71  C   UNL A   1      46.158  35.218  27.760  1.00  0.00     0.040 A 
ATOM     72  F   UNL A   1      47.387  33.491  28.638  1.00  0.00    -0.206 F 
ATOM     73  C   UNL A   1      44.958  35.792  27.374  1.00  0.00     0.006 A 
ENDBRANCH  52  66
BRANCH  53  74
ATOM     74  C   UNL A   1      36.913  31.335  30.549  1.00  0.00     0.057 A 
ATOM     75  C   UNL A   1      36.036  31.581  31.615  1.00  0.00     0.134 A 
ATOM     76  C   UNL A   1      36.534  31.860  29.301  1.00  0.00     0.134 A 
ATOM     77  F   UNL A   1      36.330  31.150  32.849  1.00  0.00    -0.206 F 
ATOM     78  C   UNL A   1      34.864  32.332  31.456  1.00  0.00     0.040 A 
ATOM     79  C   UNL A   1      35.364  32.607  29.127  1.00  0.00     0.040 A 
ATOM     80  F   UNL A   1      37.332  31.742  28.230  1.00  0.00    -0.206 F 
ATOM     81  C   UNL A   1      34.531  32.858  30.211  1.00  0.00     0.006 A 
ENDBRANCH  53  74
BRANCH  65  82
ATOM     82  C   UNL A   1      42.048  29.810  33.832  1.00  0.00     0.057 A 
ATOM     83  C   UNL A   1      41.848  28.470  33.463  1.00  0.00     0.134 A 
ATOM     84  C   UNL A   1      42.136  30.077  35.202  1.00  0.00     0.134 A 
ATOM     85  F   UNL A   1      41.850  28.095  32.179  1.00  0.00    -0.206 F 
ATOM     86  C   UNL A   1      41.699  27.455  34.412  1.00  0.00     0.040 A 
ATOM     87  C   UNL A   1      42.023  29.067  36.160  1.00  0.00     0.040 A 
ATOM     88  F   UNL A   1      42.382  31.324  35.632  1.00  0.00    -0.206 F 
ATOM     89  C   UNL A   1      41.794  27.751  35.767  1.00  0.00     0.006 A 
ENDBRANCH  65  82
ENDBRANCH  39  40
ENDBRANCH  31  34
ENDBRANCH  29  30
ENDBRANCH  28  29
ENDBRANCH   1  28
TORSDOF 13
ENDMDL
