MODEL 1
REMARK VINA RESULT:     -12.6      0.000      0.000
REMARK SMILES O=C(NCCCNC(=O)[C@@H]1CCC[C@@H](C(=O)N2CCN3C(=O)NC[C@@H]3C2)C1)c1ccc(-c2c3nc(c(-c4c(F)cccc4F)c4ccc([nH]4)c(-c4c(F)cccc4F)c4nc(c(-c5c(F)cccc5F)c5ccc2[nH]5)C=C4)C=C3)cc1
REMARK SMILES IDX 5 1 4 2 3 3 1 4 2 5 28 7 29 8 81 9 30 10 80 11 31 12 32 13
REMARK SMILES IDX 33 14 74 15 34 16 79 17 73 18 75 19 35 20 78 21 72 22 71 23
REMARK SMILES IDX 36 25 62 26 45 27 61 28 46 29 49 30 60 31 76 32 47 33 48 34
REMARK SMILES IDX 59 36 77 37 50 38 37 39 38 40 43 41 39 42 40 43 42 44 44 45
REMARK SMILES IDX 41 46 63 47 64 48 69 49 65 50 66 51 68 52 70 53 67 54 51 55
REMARK SMILES IDX 52 56 57 57 53 58 54 59 56 60 58 61 55 62 6 63 7 64 8 65
REMARK SMILES IDX 9 67 10 68 11 69 27 70 12 71 14 72 13 73 15 74 16 75 17 76
REMARK SMILES IDX 18 77 26 78 19 79 25 80 20 81 24 82 21 83 23 84 22 85
REMARK H PARENT 3 6 75 24 49 35 7 66 23 86
REMARK Flexibility Score: inf
ROOT
ATOM      1  C   UNL A   1      37.370  19.721  24.869  1.00  0.00     0.042 C 
ENDROOT
BRANCH   1   2
ATOM      2  C   UNL A   1      38.590  20.360  25.517  1.00  0.00     0.118 C 
BRANCH   2   3
ATOM      3  N   UNL A   1      39.673  19.399  25.684  1.00  0.00    -0.352 N 
ATOM      4  O   UNL A   1      41.809  18.713  25.831  1.00  0.00    -0.269 OA
ATOM      5  C   UNL A   1      40.988  19.607  26.007  1.00  0.00     0.251 C 
ATOM      6  H   UNL A   1      39.421  18.458  25.543  1.00  0.00     0.163 HD
BRANCH   5   7
ATOM      7  C   UNL A   1      41.414  20.903  26.572  1.00  0.00     0.039 A 
ATOM      8  C   UNL A   1      41.912  21.907  25.739  1.00  0.00     0.014 A 
ATOM      9  C   UNL A   1      41.259  21.138  27.941  1.00  0.00     0.014 A 
ATOM     10  C   UNL A   1      42.379  23.093  26.288  1.00  0.00     0.010 A 
ATOM     11  C   UNL A   1      41.635  22.372  28.478  1.00  0.00     0.010 A 
ATOM     12  C   UNL A   1      42.213  23.351  27.657  1.00  0.00    -0.014 A 
BRANCH  12  13
ATOM     13  C   UNL A   1      42.566  24.692  28.181  1.00  0.00     0.031 A 
ATOM     14  C   UNL A   1      43.984  25.047  28.519  1.00  0.00     0.074 A 
ATOM     15  C   UNL A   1      41.580  25.600  28.326  1.00  0.00     0.049 A 
ATOM     16  N   UNL A   1      44.461  26.176  28.981  1.00  0.00    -0.248 NA
ATOM     17  C   UNL A   1      44.999  24.002  28.321  1.00  0.00     0.031 C 
ATOM     18  C   UNL A   1      40.164  25.359  28.032  1.00  0.00     0.029 A 
ATOM     19  N   UNL A   1      41.614  26.907  28.736  1.00  0.00    -0.354 N 
ATOM     20  C   UNL A   1      45.825  25.975  29.140  1.00  0.00     0.074 A 
ATOM     21  C   UNL A   1      46.097  24.605  28.758  1.00  0.00     0.031 C 
ATOM     22  C   UNL A   1      39.475  26.493  28.223  1.00  0.00     0.029 A 
ATOM     23  C   UNL A   1      40.383  27.516  28.723  1.00  0.00     0.049 A 
ATOM     24  H   UNL A   1      42.441  27.365  29.013  1.00  0.00     0.167 HD
ATOM     25  C   UNL A   1      46.763  26.859  29.558  1.00  0.00     0.037 A 
ATOM     26  C   UNL A   1      40.019  28.756  29.098  1.00  0.00     0.037 A 
ATOM     27  C   UNL A   1      46.476  28.220  29.938  1.00  0.00     0.049 A 
ATOM     28  C   UNL A   1      41.071  29.693  29.611  1.00  0.00     0.074 A 
ATOM     29  C   UNL A   1      47.358  29.202  30.356  1.00  0.00     0.029 A 
ATOM     30  N   UNL A   1      45.210  28.788  29.955  1.00  0.00    -0.354 N 
ATOM     31  N   UNL A   1      42.363  29.500  29.728  1.00  0.00    -0.248 NA
ATOM     32  C   UNL A   1      40.616  31.017  30.051  1.00  0.00     0.031 C 
ATOM     33  C   UNL A   1      46.619  30.344  30.681  1.00  0.00     0.029 A 
ATOM     34  C   UNL A   1      45.284  30.098  30.403  1.00  0.00     0.049 A 
ATOM     35  H   UNL A   1      44.381  28.330  29.687  1.00  0.00     0.167 HD
ATOM     36  C   UNL A   1      42.879  30.687  30.228  1.00  0.00     0.074 A 
ATOM     37  C   UNL A   1      41.762  31.598  30.374  1.00  0.00     0.031 C 
ATOM     38  C   UNL A   1      44.163  30.993  30.539  1.00  0.00     0.037 A 
BRANCH  25  39
ATOM     39  C   UNL A   1      48.183  26.378  29.651  1.00  0.00     0.057 A 
ATOM     40  C   UNL A   1      49.088  26.525  28.590  1.00  0.00     0.134 A 
ATOM     41  C   UNL A   1      48.667  25.802  30.833  1.00  0.00     0.134 A 
ATOM     42  F   UNL A   1      48.690  27.058  27.425  1.00  0.00    -0.206 F 
ATOM     43  C   UNL A   1      50.413  26.097  28.695  1.00  0.00     0.040 A 
ATOM     44  C   UNL A   1      49.996  25.396  30.959  1.00  0.00     0.040 A 
ATOM     45  F   UNL A   1      47.859  25.637  31.890  1.00  0.00    -0.206 F 
ATOM     46  C   UNL A   1      50.873  25.537  29.885  1.00  0.00     0.006 A 
ENDBRANCH  25  39
BRANCH  26  47
ATOM     47  C   UNL A   1      38.596  29.169  29.010  1.00  0.00     0.057 A 
ATOM     48  C   UNL A   1      38.051  29.635  27.808  1.00  0.00     0.134 A 
ATOM     49  C   UNL A   1      37.747  29.108  30.123  1.00  0.00     0.134 A 
ATOM     50  F   UNL A   1      38.815  29.729  26.711  1.00  0.00    -0.206 F 
ATOM     51  C   UNL A   1      36.718  30.044  27.720  1.00  0.00     0.040 A 
ATOM     52  C   UNL A   1      36.406  29.483  30.041  1.00  0.00     0.040 A 
ATOM     53  F   UNL A   1      38.205  28.661  31.301  1.00  0.00    -0.206 F 
ATOM     54  C   UNL A   1      35.891  29.963  28.840  1.00  0.00     0.006 A 
ENDBRANCH  26  47
BRANCH  38  55
ATOM     55  C   UNL A   1      44.430  32.387  31.030  1.00  0.00     0.057 A 
ATOM     56  C   UNL A   1      44.432  32.709  32.393  1.00  0.00     0.134 A 
ATOM     57  C   UNL A   1      44.713  33.417  30.122  1.00  0.00     0.134 A 
ATOM     58  F   UNL A   1      44.151  31.773  33.314  1.00  0.00    -0.206 F 
ATOM     59  C   UNL A   1      44.678  34.010  32.834  1.00  0.00     0.040 A 
ATOM     60  C   UNL A   1      44.993  34.713  30.554  1.00  0.00     0.040 A 
ATOM     61  F   UNL A   1      44.735  33.176  28.803  1.00  0.00    -0.206 F 
ATOM     62  C   UNL A   1      44.967  35.015  31.913  1.00  0.00     0.006 A 
ENDBRANCH  38  55
ENDBRANCH  12  13
ENDBRANCH   5   7
ENDBRANCH   2   3
ENDBRANCH   1   2
BRANCH   1  63
ATOM     63  C   UNL A   1      36.108  20.567  25.037  1.00  0.00     0.117 C 
BRANCH  63  64
ATOM     64  N   UNL A   1      34.927  19.730  25.043  1.00  0.00    -0.356 N 
ATOM     65  C   UNL A   1      33.607  20.038  24.975  1.00  0.00     0.223 C 
ATOM     66  H   UNL A   1      35.115  18.765  25.108  1.00  0.00     0.163 HD
ATOM     67  O   UNL A   1      32.817  19.097  25.100  1.00  0.00    -0.275 OA
BRANCH  65  68
ATOM     68  C   UNL A   1      33.092  21.437  24.641  1.00  0.00     0.079 C 
ATOM     69  C   UNL A   1      32.033  21.845  25.668  1.00  0.00     0.013 C 
ATOM     70  C   UNL A   1      32.648  21.690  23.192  1.00  0.00     0.027 C 
ATOM     71  C   UNL A   1      31.560  23.273  25.431  1.00  0.00     0.002 C 
ATOM     72  C   UNL A   1      32.090  23.112  22.951  1.00  0.00     0.079 C 
ATOM     73  C   UNL A   1      31.035  23.432  24.012  1.00  0.00     0.013 C 
BRANCH  72  74
ATOM     74  C   UNL A   1      33.255  24.093  22.736  1.00  0.00     0.225 C 
ATOM     75  O   UNL A   1      34.358  23.703  22.347  1.00  0.00    -0.275 OA
BRANCH  74  76
ATOM     76  N   UNL A   1      32.959  25.441  22.740  1.00  0.00    -0.339 N 
ATOM     77  C   UNL A   1      32.129  26.145  21.752  1.00  0.00     0.141 C 
ATOM     78  C   UNL A   1      33.465  26.248  23.856  1.00  0.00     0.146 C 
ATOM     79  C   UNL A   1      31.123  27.156  22.355  1.00  0.00     0.143 C 
ATOM     80  C   UNL A   1      32.318  26.943  24.559  1.00  0.00     0.125 C 
ATOM     81  N   UNL A   1      31.558  27.731  23.609  1.00  0.00    -0.317 N 
ATOM     82  C   UNL A   1      32.713  27.978  25.604  1.00  0.00     0.144 C 
ATOM     83  C   UNL A   1      31.076  28.885  24.202  1.00  0.00     0.317 C 
ATOM     84  N   UNL A   1      31.714  29.004  25.430  1.00  0.00    -0.336 N 
ATOM     85  O   UNL A   1      30.256  29.661  23.753  1.00  0.00    -0.249 OA
ATOM     86  H   UNL A   1      31.511  29.699  26.097  1.00  0.00     0.165 HD
ENDBRANCH  74  76
ENDBRANCH  72  74
ENDBRANCH  65  68
ENDBRANCH  63  64
ENDBRANCH   1  63
TORSDOF 12
ENDMDL
MODEL 2
REMARK VINA RESULT:     -12.5      0.066      1.300
REMARK SMILES O=C(NCCCNC(=O)[C@@H]1CCC[C@@H](C(=O)N2CCN3C(=O)NC[C@@H]3C2)C1)c1ccc(-c2c3nc(c(-c4c(F)cccc4F)c4ccc([nH]4)c(-c4c(F)cccc4F)c4nc(c(-c5c(F)cccc5F)c5ccc2[nH]5)C=C4)C=C3)cc1
REMARK SMILES IDX 5 1 4 2 3 3 1 4 2 5 28 7 29 8 81 9 30 10 80 11 31 12 32 13
REMARK SMILES IDX 33 14 74 15 34 16 79 17 73 18 75 19 35 20 78 21 72 22 71 23
REMARK SMILES IDX 36 25 62 26 45 27 61 28 46 29 49 30 60 31 76 32 47 33 48 34
REMARK SMILES IDX 59 36 77 37 50 38 37 39 38 40 43 41 39 42 40 43 42 44 44 45
REMARK SMILES IDX 41 46 63 47 64 48 69 49 65 50 66 51 68 52 70 53 67 54 51 55
REMARK SMILES IDX 52 56 57 57 53 58 54 59 56 60 58 61 55 62 6 63 7 64 8 65
REMARK SMILES IDX 9 67 10 68 11 69 27 70 12 71 14 72 13 73 15 74 16 75 17 76
REMARK SMILES IDX 18 77 26 78 19 79 25 80 20 81 24 82 21 83 23 84 22 85
REMARK H PARENT 3 6 75 24 49 35 7 66 23 86
REMARK Flexibility Score: inf
ROOT
ATOM      1  C   UNL A   1      37.377  19.749  24.862  1.00  0.00     0.042 C 
ENDROOT
BRANCH   1   2
ATOM      2  C   UNL A   1      38.604  20.391  25.496  1.00  0.00     0.118 C 
BRANCH   2   3
ATOM      3  N   UNL A   1      39.678  19.424  25.682  1.00  0.00    -0.352 N 
ATOM      4  O   UNL A   1      41.808  18.725  25.866  1.00  0.00    -0.269 OA
ATOM      5  C   UNL A   1      40.989  19.625  26.027  1.00  0.00     0.251 C 
ATOM      6  H   UNL A   1      39.423  18.484  25.539  1.00  0.00     0.163 HD
BRANCH   5   7
ATOM      7  C   UNL A   1      41.413  20.919  26.596  1.00  0.00     0.039 A 
ATOM      8  C   UNL A   1      41.899  21.931  25.765  1.00  0.00     0.014 A 
ATOM      9  C   UNL A   1      41.270  21.145  27.968  1.00  0.00     0.014 A 
ATOM     10  C   UNL A   1      42.365  23.116  26.317  1.00  0.00     0.010 A 
ATOM     11  C   UNL A   1      41.645  22.378  28.509  1.00  0.00     0.010 A 
ATOM     12  C   UNL A   1      42.209  23.365  27.689  1.00  0.00    -0.014 A 
BRANCH  12  13
ATOM     13  C   UNL A   1      42.560  24.704  28.218  1.00  0.00     0.031 A 
ATOM     14  C   UNL A   1      43.976  25.055  28.571  1.00  0.00     0.074 A 
ATOM     15  C   UNL A   1      41.575  25.615  28.353  1.00  0.00     0.049 A 
ATOM     16  N   UNL A   1      44.451  26.182  29.040  1.00  0.00    -0.248 NA
ATOM     17  C   UNL A   1      44.990  24.007  28.383  1.00  0.00     0.031 C 
ATOM     18  C   UNL A   1      40.162  25.378  28.044  1.00  0.00     0.029 A 
ATOM     19  N   UNL A   1      41.609  26.921  28.765  1.00  0.00    -0.354 N 
ATOM     20  C   UNL A   1      45.813  25.977  29.213  1.00  0.00     0.074 A 
ATOM     21  C   UNL A   1      46.085  24.607  28.832  1.00  0.00     0.031 C 
ATOM     22  C   UNL A   1      39.475  26.513  28.228  1.00  0.00     0.029 A 
ATOM     23  C   UNL A   1      40.380  27.533  28.740  1.00  0.00     0.049 A 
ATOM     24  H   UNL A   1      42.434  27.376  29.052  1.00  0.00     0.167 HD
ATOM     25  C   UNL A   1      46.748  26.859  29.642  1.00  0.00     0.037 A 
ATOM     26  C   UNL A   1      40.015  28.773  29.112  1.00  0.00     0.037 A 
ATOM     27  C   UNL A   1      46.461  28.220  30.020  1.00  0.00     0.049 A 
ATOM     28  C   UNL A   1      41.064  29.707  29.637  1.00  0.00     0.074 A 
ATOM     29  C   UNL A   1      47.341  29.199  30.450  1.00  0.00     0.029 A 
ATOM     30  N   UNL A   1      45.196  28.791  30.025  1.00  0.00    -0.354 N 
ATOM     31  N   UNL A   1      42.354  29.511  29.768  1.00  0.00    -0.248 NA
ATOM     32  C   UNL A   1      40.607  31.032  30.074  1.00  0.00     0.031 C 
ATOM     33  C   UNL A   1      46.601  30.342  30.768  1.00  0.00     0.029 A 
ATOM     34  C   UNL A   1      45.269  30.101  30.475  1.00  0.00     0.049 A 
ATOM     35  H   UNL A   1      44.369  28.336  29.747  1.00  0.00     0.167 HD
ATOM     36  C   UNL A   1      42.868  30.695  30.275  1.00  0.00     0.074 A 
ATOM     37  C   UNL A   1      41.751  31.610  30.410  1.00  0.00     0.031 C 
ATOM     38  C   UNL A   1      44.148  30.999  30.600  1.00  0.00     0.037 A 
BRANCH  25  39
ATOM     39  C   UNL A   1      48.166  26.374  29.749  1.00  0.00     0.057 A 
ATOM     40  C   UNL A   1      49.082  26.517  28.697  1.00  0.00     0.134 A 
ATOM     41  C   UNL A   1      48.637  25.798  30.937  1.00  0.00     0.134 A 
ATOM     42  F   UNL A   1      48.697  27.049  27.528  1.00  0.00    -0.206 F 
ATOM     43  C   UNL A   1      50.405  26.085  28.816  1.00  0.00     0.040 A 
ATOM     44  C   UNL A   1      49.964  25.389  31.077  1.00  0.00     0.040 A 
ATOM     45  F   UNL A   1      47.818  25.637  31.987  1.00  0.00    -0.206 F 
ATOM     46  C   UNL A   1      50.851  25.525  30.012  1.00  0.00     0.006 A 
ENDBRANCH  25  39
BRANCH  26  47
ATOM     47  C   UNL A   1      38.594  29.191  29.009  1.00  0.00     0.057 A 
ATOM     48  C   UNL A   1      37.744  29.146  30.120  1.00  0.00     0.134 A 
ATOM     49  C   UNL A   1      38.051  29.646  27.800  1.00  0.00     0.134 A 
ATOM     50  F   UNL A   1      38.200  28.706  31.302  1.00  0.00    -0.206 F 
ATOM     51  C   UNL A   1      36.402  29.518  30.029  1.00  0.00     0.040 A 
ATOM     52  C   UNL A   1      36.721  30.052  27.702  1.00  0.00     0.040 A 
ATOM     53  F   UNL A   1      38.815  29.724  26.701  1.00  0.00    -0.206 F 
ATOM     54  C   UNL A   1      35.888  29.978  28.817  1.00  0.00     0.006 A 
ENDBRANCH  26  47
BRANCH  38  55
ATOM     55  C   UNL A   1      44.414  32.391  31.095  1.00  0.00     0.057 A 
ATOM     56  C   UNL A   1      44.670  33.456  30.222  1.00  0.00     0.134 A 
ATOM     57  C   UNL A   1      44.388  32.673  32.468  1.00  0.00     0.134 A 
ATOM     58  F   UNL A   1      44.726  33.250  28.897  1.00  0.00    -0.206 F 
ATOM     59  C   UNL A   1      44.919  34.744  30.697  1.00  0.00     0.040 A 
ATOM     60  C   UNL A   1      44.602  33.963  32.952  1.00  0.00     0.040 A 
ATOM     61  F   UNL A   1      44.140  31.702  33.359  1.00  0.00    -0.206 F 
ATOM     62  C   UNL A   1      44.877  35.002  32.065  1.00  0.00     0.006 A 
ENDBRANCH  38  55
ENDBRANCH  12  13
ENDBRANCH   5   7
ENDBRANCH   2   3
ENDBRANCH   1   2
BRANCH   1  63
ATOM     63  C   UNL A   1      36.114  20.587  25.054  1.00  0.00     0.117 C 
BRANCH  63  64
ATOM     64  N   UNL A   1      34.936  19.747  25.053  1.00  0.00    -0.356 N 
ATOM     65  C   UNL A   1      33.615  20.050  24.978  1.00  0.00     0.223 C 
ATOM     66  H   UNL A   1      35.127  18.783  25.118  1.00  0.00     0.163 HD
ATOM     67  O   UNL A   1      32.828  19.107  25.097  1.00  0.00    -0.275 OA
BRANCH  65  68
ATOM     68  C   UNL A   1      33.098  21.448  24.643  1.00  0.00     0.079 C 
ATOM     69  C   UNL A   1      32.021  21.845  25.656  1.00  0.00     0.013 C 
ATOM     70  C   UNL A   1      32.673  21.706  23.188  1.00  0.00     0.027 C 
ATOM     71  C   UNL A   1      31.543  23.272  25.419  1.00  0.00     0.002 C 
ATOM     72  C   UNL A   1      32.111  23.125  22.946  1.00  0.00     0.079 C 
ATOM     73  C   UNL A   1      31.039  23.435  23.993  1.00  0.00     0.013 C 
BRANCH  72  74
ATOM     74  C   UNL A   1      33.273  24.114  22.752  1.00  0.00     0.225 C 
ATOM     75  O   UNL A   1      34.384  23.732  22.378  1.00  0.00    -0.275 OA
BRANCH  74  76
ATOM     76  N   UNL A   1      32.971  25.461  22.759  1.00  0.00    -0.339 N 
ATOM     77  C   UNL A   1      32.149  26.165  21.764  1.00  0.00     0.141 C 
ATOM     78  C   UNL A   1      33.458  26.265  23.886  1.00  0.00     0.146 C 
ATOM     79  C   UNL A   1      31.130  27.167  22.360  1.00  0.00     0.143 C 
ATOM     80  C   UNL A   1      32.298  26.950  24.578  1.00  0.00     0.125 C 
ATOM     81  N   UNL A   1      31.546  27.739  23.621  1.00  0.00    -0.317 N 
ATOM     82  C   UNL A   1      32.674  27.982  25.633  1.00  0.00     0.144 C 
ATOM     83  C   UNL A   1      31.051  28.887  24.214  1.00  0.00     0.317 C 
ATOM     84  N   UNL A   1      31.673  29.003  25.451  1.00  0.00    -0.336 N 
ATOM     85  O   UNL A   1      30.232  29.661  23.758  1.00  0.00    -0.249 OA
ATOM     86  H   UNL A   1      31.457  29.694  26.118  1.00  0.00     0.165 HD
ENDBRANCH  74  76
ENDBRANCH  72  74
ENDBRANCH  65  68
ENDBRANCH  63  64
ENDBRANCH   1  63
TORSDOF 12
ENDMDL
MODEL 3
REMARK VINA RESULT:     -12.5      0.195      6.248
REMARK SMILES O=C(NCCCNC(=O)[C@@H]1CCC[C@@H](C(=O)N2CCN3C(=O)NC[C@@H]3C2)C1)c1ccc(-c2c3nc(c(-c4c(F)cccc4F)c4ccc([nH]4)c(-c4c(F)cccc4F)c4nc(c(-c5c(F)cccc5F)c5ccc2[nH]5)C=C4)C=C3)cc1
REMARK SMILES IDX 5 1 4 2 3 3 1 4 2 5 28 7 29 8 81 9 30 10 80 11 31 12 32 13
REMARK SMILES IDX 33 14 74 15 34 16 79 17 73 18 75 19 35 20 78 21 72 22 71 23
REMARK SMILES IDX 36 25 62 26 45 27 61 28 46 29 49 30 60 31 76 32 47 33 48 34
REMARK SMILES IDX 59 36 77 37 50 38 37 39 38 40 43 41 39 42 40 43 42 44 44 45
REMARK SMILES IDX 41 46 63 47 64 48 69 49 65 50 66 51 68 52 70 53 67 54 51 55
REMARK SMILES IDX 52 56 57 57 53 58 54 59 56 60 58 61 55 62 6 63 7 64 8 65
REMARK SMILES IDX 9 67 10 68 11 69 27 70 12 71 14 72 13 73 15 74 16 75 17 76
REMARK SMILES IDX 18 77 26 78 19 79 25 80 20 81 24 82 21 83 23 84 22 85
REMARK H PARENT 3 6 75 24 49 35 7 66 23 86
REMARK Flexibility Score: inf
ROOT
ATOM      1  C   UNL A   1      37.420  19.728  24.867  1.00  0.00     0.042 C 
ENDROOT
BRANCH   1   2
ATOM      2  C   UNL A   1      38.616  20.353  25.572  1.00  0.00     0.118 C 
BRANCH   2   3
ATOM      3  N   UNL A   1      39.703  19.396  25.734  1.00  0.00    -0.352 N 
ATOM      4  O   UNL A   1      41.843  18.714  25.857  1.00  0.00    -0.269 OA
ATOM      5  C   UNL A   1      41.023  19.610  26.034  1.00  0.00     0.251 C 
ATOM      6  H   UNL A   1      39.450  18.452  25.611  1.00  0.00     0.163 HD
BRANCH   5   7
ATOM      7  C   UNL A   1      41.456  20.914  26.575  1.00  0.00     0.039 A 
ATOM      8  C   UNL A   1      41.910  21.918  25.717  1.00  0.00     0.014 A 
ATOM      9  C   UNL A   1      41.353  21.155  27.948  1.00  0.00     0.014 A 
ATOM     10  C   UNL A   1      42.385  23.112  26.241  1.00  0.00     0.010 A 
ATOM     11  C   UNL A   1      41.736  22.396  28.462  1.00  0.00     0.010 A 
ATOM     12  C   UNL A   1      42.269  23.377  27.614  1.00  0.00    -0.014 A 
BRANCH  12  13
ATOM     13  C   UNL A   1      42.628  24.724  28.116  1.00  0.00     0.031 A 
ATOM     14  C   UNL A   1      41.582  25.779  28.329  1.00  0.00     0.074 A 
ATOM     15  C   UNL A   1      43.921  24.975  28.404  1.00  0.00     0.049 A 
ATOM     16  N   UNL A   1      41.728  27.004  28.768  1.00  0.00    -0.248 NA
ATOM     17  C   UNL A   1      40.195  25.419  28.001  1.00  0.00     0.031 C 
ATOM     18  C   UNL A   1      45.021  24.022  28.230  1.00  0.00     0.029 A 
ATOM     19  N   UNL A   1      44.528  26.090  28.917  1.00  0.00    -0.354 N 
ATOM     20  C   UNL A   1      40.458  27.565  28.759  1.00  0.00     0.074 A 
ATOM     21  C   UNL A   1      39.557  26.558  28.239  1.00  0.00     0.031 C 
ATOM     22  C   UNL A   1      46.158  24.575  28.675  1.00  0.00     0.029 A 
ATOM     23  C   UNL A   1      45.882  25.943  29.094  1.00  0.00     0.049 A 
ATOM     24  H   UNL A   1      44.041  26.918  29.137  1.00  0.00     0.167 HD
ATOM     25  C   UNL A   1      40.083  28.804  29.158  1.00  0.00     0.037 A 
ATOM     26  C   UNL A   1      46.807  26.820  29.523  1.00  0.00     0.037 A 
ATOM     27  C   UNL A   1      40.993  29.797  29.673  1.00  0.00     0.049 A 
ATOM     28  C   UNL A   1      46.368  28.203  29.903  1.00  0.00     0.074 A 
ATOM     29  C   UNL A   1      40.709  31.075  30.123  1.00  0.00     0.029 A 
ATOM     30  N   UNL A   1      42.364  29.626  29.795  1.00  0.00    -0.354 N 
ATOM     31  N   UNL A   1      45.159  28.711  29.918  1.00  0.00    -0.248 NA
ATOM     32  C   UNL A   1      47.421  29.137  30.319  1.00  0.00     0.031 C 
ATOM     33  C   UNL A   1      41.915  31.696  30.463  1.00  0.00     0.029 A 
ATOM     34  C   UNL A   1      42.944  30.785  30.288  1.00  0.00     0.049 A 
ATOM     35  H   UNL A   1      42.854  28.804  29.567  1.00  0.00     0.167 HD
ATOM     36  C   UNL A   1      45.302  30.014  30.371  1.00  0.00     0.074 A 
ATOM     37  C   UNL A   1      46.713  30.211  30.636  1.00  0.00     0.031 C 
ATOM     38  C   UNL A   1      44.350  30.963  30.550  1.00  0.00     0.037 A 
BRANCH  25  39
ATOM     39  C   UNL A   1      38.630  29.166  29.034  1.00  0.00     0.057 A 
ATOM     40  C   UNL A   1      37.756  29.121  30.129  1.00  0.00     0.134 A 
ATOM     41  C   UNL A   1      38.106  29.611  27.813  1.00  0.00     0.134 A 
ATOM     42  F   UNL A   1      38.187  28.694  31.326  1.00  0.00    -0.206 F 
ATOM     43  C   UNL A   1      36.413  29.483  30.009  1.00  0.00     0.040 A 
ATOM     44  C   UNL A   1      36.772  30.003  27.687  1.00  0.00     0.040 A 
ATOM     45  F   UNL A   1      38.886  29.687  26.725  1.00  0.00    -0.206 F 
ATOM     46  C   UNL A   1      35.919  29.933  28.786  1.00  0.00     0.006 A 
ENDBRANCH  25  39
BRANCH  26  47
ATOM     47  C   UNL A   1      48.233  26.417  29.601  1.00  0.00     0.057 A 
ATOM     48  C   UNL A   1      49.098  26.599  28.515  1.00  0.00     0.134 A 
ATOM     49  C   UNL A   1      48.767  25.841  30.761  1.00  0.00     0.134 A 
ATOM     50  F   UNL A   1      48.644  27.132  27.372  1.00  0.00    -0.206 F 
ATOM     51  C   UNL A   1      50.436  26.205  28.573  1.00  0.00     0.040 A 
ATOM     52  C   UNL A   1      50.110  25.472  30.844  1.00  0.00     0.040 A 
ATOM     53  F   UNL A   1      47.995  25.649  31.840  1.00  0.00    -0.206 F 
ATOM     54  C   UNL A   1      50.946  25.644  29.743  1.00  0.00     0.006 A 
ENDBRANCH  26  47
BRANCH  38  55
ATOM     55  C   UNL A   1      44.803  32.287  31.097  1.00  0.00     0.057 A 
ATOM     56  C   UNL A   1      45.173  33.350  30.263  1.00  0.00     0.134 A 
ATOM     57  C   UNL A   1      44.844  32.506  32.480  1.00  0.00     0.134 A 
ATOM     58  F   UNL A   1      45.171  33.200  28.929  1.00  0.00    -0.206 F 
ATOM     59  C   UNL A   1      45.595  34.573  30.786  1.00  0.00     0.040 A 
ATOM     60  C   UNL A   1      45.233  33.735  33.013  1.00  0.00     0.040 A 
ATOM     61  F   UNL A   1      44.496  31.533  33.336  1.00  0.00    -0.206 F 
ATOM     62  C   UNL A   1      45.618  34.770  32.165  1.00  0.00     0.006 A 
ENDBRANCH  38  55
ENDBRANCH  12  13
ENDBRANCH   5   7
ENDBRANCH   2   3
ENDBRANCH   1   2
BRANCH   1  63
ATOM     63  C   UNL A   1      36.151  20.567  25.013  1.00  0.00     0.117 C 
BRANCH  63  64
ATOM     64  N   UNL A   1      34.976  19.723  25.010  1.00  0.00    -0.356 N 
ATOM     65  C   UNL A   1      33.654  20.024  24.947  1.00  0.00     0.223 C 
ATOM     66  H   UNL A   1      35.170  18.759  25.061  1.00  0.00     0.163 HD
ATOM     67  O   UNL A   1      32.870  19.077  25.061  1.00  0.00    -0.275 OA
BRANCH  65  68
ATOM     68  C   UNL A   1      33.130  21.424  24.634  1.00  0.00     0.079 C 
ATOM     69  C   UNL A   1      32.109  21.834  25.698  1.00  0.00     0.013 C 
ATOM     70  C   UNL A   1      32.634  21.679  23.201  1.00  0.00     0.027 C 
ATOM     71  C   UNL A   1      31.631  23.263  25.479  1.00  0.00     0.002 C 
ATOM     72  C   UNL A   1      32.071  23.102  22.982  1.00  0.00     0.079 C 
ATOM     73  C   UNL A   1      31.055  23.424  24.080  1.00  0.00     0.013 C 
BRANCH  72  74
ATOM     74  C   UNL A   1      33.228  24.081  22.724  1.00  0.00     0.225 C 
ATOM     75  O   UNL A   1      34.322  23.687  22.315  1.00  0.00    -0.275 OA
BRANCH  74  76
ATOM     76  N   UNL A   1      32.932  25.429  22.717  1.00  0.00    -0.339 N 
ATOM     77  C   UNL A   1      32.071  26.117  21.744  1.00  0.00     0.141 C 
ATOM     78  C   UNL A   1      33.471  26.254  23.805  1.00  0.00     0.146 C 
ATOM     79  C   UNL A   1      31.083  27.136  22.362  1.00  0.00     0.143 C 
ATOM     80  C   UNL A   1      32.344  26.958  24.532  1.00  0.00     0.125 C 
ATOM     81  N   UNL A   1      31.554  27.731  23.593  1.00  0.00    -0.317 N 
ATOM     82  C   UNL A   1      32.769  28.009  25.549  1.00  0.00     0.144 C 
ATOM     83  C   UNL A   1      31.090  28.893  24.183  1.00  0.00     0.317 C 
ATOM     84  N   UNL A   1      31.765  29.031  25.390  1.00  0.00    -0.336 N 
ATOM     85  O   UNL A   1      30.256  29.662  23.747  1.00  0.00    -0.249 OA
ATOM     86  H   UNL A   1      31.581  29.736  26.052  1.00  0.00     0.165 HD
ENDBRANCH  74  76
ENDBRANCH  72  74
ENDBRANCH  65  68
ENDBRANCH  63  64
ENDBRANCH   1  63
TORSDOF 12
ENDMDL
