MODEL 1
REMARK VINA RESULT:     -11.6      0.000      0.000
REMARK SMILES CCOc1cccc2c(SCC(=O)NCCCNC(=O)c3ccc(-c4c5nc(c(-c6c(F)cccc6F)c6ccc([nH]6)c(-c6c(F)cccc6F)c6nc(c(-c7c(F)cccc7F)c7ccc4[nH]7)C=C6)C=C5)cc3)cc(C)nc12
REMARK SMILES IDX 15 1 14 2 12 3 13 4 11 6 10 7 9 8 4 9 5 10 79 11 6 12 8 13
REMARK SMILES IDX 78 14 7 15 76 16 75 17 77 18 3 19 2 20 1 21 16 22 17 23
REMARK SMILES IDX 18 24 19 25 20 27 21 28 22 29 74 30 23 31 73 32 24 33 25 34
REMARK SMILES IDX 26 35 67 36 27 37 72 38 66 39 68 40 28 41 71 42 65 43 64 44
REMARK SMILES IDX 29 46 55 47 38 48 54 49 39 50 42 51 53 52 69 53 40 54 41 55
REMARK SMILES IDX 52 57 70 58 43 59 30 60 31 61 36 62 32 63 33 64 35 65 37 66
REMARK SMILES IDX 34 67 56 68 57 69 62 70 58 71 59 72 61 73 63 74 60 75 44 76
REMARK SMILES IDX 45 77 50 78 46 79 47 80 49 81 51 82 48 83
REMARK H PARENT 14 5 18 26 68 45 42 56
REMARK Flexibility Score: inf
ROOT
ATOM      1  C   UNL A   1      36.858  22.330  25.300  1.00  0.00     0.117 C 
ENDROOT
BRANCH   1   2
ATOM      2  N   UNL A   1      35.962  22.111  26.420  1.00  0.00    -0.355 N 
ATOM      3  C   UNL A   1      34.782  21.430  26.468  1.00  0.00     0.230 C 
ATOM      4  O   UNL A   1      34.183  21.402  27.546  1.00  0.00    -0.274 OA
ATOM      5  H   UNL A   1      36.249  22.512  27.272  1.00  0.00     0.163 HD
BRANCH   3   6
ATOM      6  C   UNL A   1      34.264  20.670  25.261  1.00  0.00     0.174 C 
BRANCH   6   7
ATOM      7  S   UNL A   1      33.186  21.651  24.167  1.00  0.00    -0.115 SA
BRANCH   7   8
ATOM      8  C   UNL A   1      32.217  22.732  25.244  1.00  0.00     0.019 A 
ATOM      9  C   UNL A   1      32.175  26.242  26.447  1.00  0.00     0.145 A 
ATOM     10  C   UNL A   1      33.295  26.811  25.841  1.00  0.00     0.049 A 
ATOM     11  C   UNL A   1      31.815  24.900  26.259  1.00  0.00     0.114 A 
ATOM     12  C   UNL A   1      34.111  26.022  25.046  1.00  0.00     0.005 A 
ATOM     13  C   UNL A   1      32.627  24.089  25.435  1.00  0.00     0.018 A 
ATOM     14  N   UNL A   1      30.714  24.418  26.865  1.00  0.00    -0.249 NA
ATOM     15  C   UNL A   1      33.781  24.680  24.847  1.00  0.00     0.012 A 
ATOM     16  C   UNL A   1      30.354  23.136  26.694  1.00  0.00     0.039 A 
ATOM     17  C   UNL A   1      31.057  22.277  25.872  1.00  0.00     0.039 A 
ATOM     18  C   UNL A   1      29.168  22.669  27.481  1.00  0.00     0.067 C 
BRANCH   9  19
ATOM     19  O   UNL A   1      31.356  27.099  27.153  1.00  0.00    -0.492 OA
BRANCH  19  20
ATOM     20  C   UNL A   1      32.066  28.230  27.670  1.00  0.00     0.226 C 
ATOM     21  C   UNL A   1      31.725  29.497  26.902  1.00  0.00     0.049 C 
ENDBRANCH  19  20
ENDBRANCH   9  19
ENDBRANCH   7   8
ENDBRANCH   6   7
ENDBRANCH   3   6
ENDBRANCH   1   2
BRANCH   1  22
ATOM     22  C   UNL A   1      37.513  23.708  25.355  1.00  0.00     0.042 C 
BRANCH  22  23
ATOM     23  C   UNL A   1      38.458  23.910  26.536  1.00  0.00     0.118 C 
BRANCH  23  24
ATOM     24  N   UNL A   1      39.859  23.785  26.165  1.00  0.00    -0.352 N 
ATOM     25  C   UNL A   1      40.941  24.559  26.501  1.00  0.00     0.251 C 
ATOM     26  H   UNL A   1      40.064  23.022  25.577  1.00  0.00     0.163 HD
ATOM     27  O   UNL A   1      42.012  24.375  25.931  1.00  0.00    -0.269 OA
BRANCH  25  28
ATOM     28  C   UNL A   1      40.833  25.619  27.529  1.00  0.00     0.039 A 
ATOM     29  C   UNL A   1      39.776  25.556  28.444  1.00  0.00     0.014 A 
ATOM     30  C   UNL A   1      41.721  26.697  27.565  1.00  0.00     0.014 A 
ATOM     31  C   UNL A   1      39.638  26.546  29.421  1.00  0.00     0.010 A 
ATOM     32  C   UNL A   1      41.623  27.647  28.581  1.00  0.00     0.010 A 
ATOM     33  C   UNL A   1      40.575  27.587  29.513  1.00  0.00    -0.014 A 
BRANCH  33  34
ATOM     34  C   UNL A   1      40.462  28.633  30.562  1.00  0.00     0.031 A 
ATOM     35  C   UNL A   1      41.330  28.568  31.789  1.00  0.00     0.074 A 
ATOM     36  C   UNL A   1      39.540  29.607  30.440  1.00  0.00     0.049 A 
ATOM     37  N   UNL A   1      41.318  29.332  32.853  1.00  0.00    -0.248 NA
ATOM     38  C   UNL A   1      42.327  27.486  31.840  1.00  0.00     0.031 C 
ATOM     39  C   UNL A   1      38.611  29.761  29.319  1.00  0.00     0.029 A 
ATOM     40  N   UNL A   1      39.221  30.647  31.279  1.00  0.00    -0.354 N 
ATOM     41  C   UNL A   1      42.283  28.810  33.705  1.00  0.00     0.074 A 
ATOM     42  C   UNL A   1      42.836  27.642  33.053  1.00  0.00     0.031 C 
ATOM     43  C   UNL A   1      37.837  30.838  29.533  1.00  0.00     0.029 A 
ATOM     44  C   UNL A   1      38.190  31.430  30.819  1.00  0.00     0.049 A 
ATOM     45  H   UNL A   1      39.687  30.815  32.129  1.00  0.00     0.167 HD
ATOM     46  C   UNL A   1      42.686  29.273  34.912  1.00  0.00     0.037 A 
ATOM     47  C   UNL A   1      37.592  32.501  31.377  1.00  0.00     0.037 A 
ATOM     48  C   UNL A   1      42.166  30.456  35.543  1.00  0.00     0.049 A 
ATOM     49  C   UNL A   1      38.071  33.002  32.711  1.00  0.00     0.074 A 
ATOM     50  C   UNL A   1      42.554  31.037  36.738  1.00  0.00     0.029 A 
ATOM     51  N   UNL A   1      41.151  31.245  35.025  1.00  0.00    -0.354 N 
ATOM     52  N   UNL A   1      39.024  32.531  33.478  1.00  0.00    -0.248 NA
ATOM     53  C   UNL A   1      37.397  34.190  33.254  1.00  0.00     0.031 C 
ATOM     54  C   UNL A   1      41.750  32.160  36.960  1.00  0.00     0.029 A 
ATOM     55  C   UNL A   1      40.891  32.301  35.882  1.00  0.00     0.049 A 
ATOM     56  H   UNL A   1      40.684  31.078  34.175  1.00  0.00     0.167 HD
ATOM     57  C   UNL A   1      39.087  33.382  34.573  1.00  0.00     0.074 A 
ATOM     58  C   UNL A   1      38.083  34.404  34.368  1.00  0.00     0.031 C 
ATOM     59  C   UNL A   1      39.903  33.323  35.653  1.00  0.00     0.037 A 
BRANCH  46  60
ATOM     60  C   UNL A   1      43.752  28.499  35.632  1.00  0.00     0.057 A 
ATOM     61  C   UNL A   1      43.437  27.480  36.540  1.00  0.00     0.134 A 
ATOM     62  C   UNL A   1      45.107  28.740  35.374  1.00  0.00     0.134 A 
ATOM     63  F   UNL A   1      42.158  27.208  36.840  1.00  0.00    -0.206 F 
ATOM     64  C   UNL A   1      44.433  26.741  37.180  1.00  0.00     0.040 A 
ATOM     65  C   UNL A   1      46.112  27.990  35.990  1.00  0.00     0.040 A 
ATOM     66  F   UNL A   1      45.478  29.696  34.508  1.00  0.00    -0.206 F 
ATOM     67  C   UNL A   1      45.775  26.990  36.899  1.00  0.00     0.006 A 
ENDBRANCH  46  60
BRANCH  47  68
ATOM     68  C   UNL A   1      36.483  33.188  30.669  1.00  0.00     0.057 A 
ATOM     69  C   UNL A   1      35.154  33.012  31.072  1.00  0.00     0.134 A 
ATOM     70  C   UNL A   1      36.719  34.012  29.564  1.00  0.00     0.134 A 
ATOM     71  F   UNL A   1      34.864  32.219  32.114  1.00  0.00    -0.206 F 
ATOM     72  C   UNL A   1      34.096  33.609  30.384  1.00  0.00     0.040 A 
ATOM     73  C   UNL A   1      35.673  34.635  28.880  1.00  0.00     0.040 A 
ATOM     74  F   UNL A   1      37.971  34.226  29.132  1.00  0.00    -0.206 F 
ATOM     75  C   UNL A   1      34.356  34.426  29.286  1.00  0.00     0.006 A 
ENDBRANCH  47  68
BRANCH  59  76
ATOM     76  C   UNL A   1      39.782  34.420  36.667  1.00  0.00     0.057 A 
ATOM     77  C   UNL A   1      38.990  34.285  37.813  1.00  0.00     0.134 A 
ATOM     78  C   UNL A   1      40.501  35.613  36.512  1.00  0.00     0.134 A 
ATOM     79  F   UNL A   1      38.267  33.173  38.012  1.00  0.00    -0.206 F 
ATOM     80  C   UNL A   1      38.899  35.307  38.759  1.00  0.00     0.040 A 
ATOM     81  C   UNL A   1      40.438  36.631  37.463  1.00  0.00     0.040 A 
ATOM     82  F   UNL A   1      41.286  35.800  35.440  1.00  0.00    -0.206 F 
ATOM     83  C   UNL A   1      39.630  36.482  38.589  1.00  0.00     0.006 A 
ENDBRANCH  59  76
ENDBRANCH  33  34
ENDBRANCH  25  28
ENDBRANCH  23  24
ENDBRANCH  22  23
ENDBRANCH   1  22
TORSDOF 14
ENDMDL
MODEL 2
REMARK VINA RESULT:     -11.5      3.107      8.197
REMARK SMILES CCOc1cccc2c(SCC(=O)NCCCNC(=O)c3ccc(-c4c5nc(c(-c6c(F)cccc6F)c6ccc([nH]6)c(-c6c(F)cccc6F)c6nc(c(-c7c(F)cccc7F)c7ccc4[nH]7)C=C6)C=C5)cc3)cc(C)nc12
REMARK SMILES IDX 15 1 14 2 12 3 13 4 11 6 10 7 9 8 4 9 5 10 79 11 6 12 8 13
REMARK SMILES IDX 78 14 7 15 76 16 75 17 77 18 3 19 2 20 1 21 16 22 17 23
REMARK SMILES IDX 18 24 19 25 20 27 21 28 22 29 74 30 23 31 73 32 24 33 25 34
REMARK SMILES IDX 26 35 67 36 27 37 72 38 66 39 68 40 28 41 71 42 65 43 64 44
REMARK SMILES IDX 29 46 55 47 38 48 54 49 39 50 42 51 53 52 69 53 40 54 41 55
REMARK SMILES IDX 52 57 70 58 43 59 30 60 31 61 36 62 32 63 33 64 35 65 37 66
REMARK SMILES IDX 34 67 56 68 57 69 62 70 58 71 59 72 61 73 63 74 60 75 44 76
REMARK SMILES IDX 45 77 50 78 46 79 47 80 49 81 51 82 48 83
REMARK H PARENT 14 5 18 26 68 45 42 56
REMARK Flexibility Score: inf
ROOT
ATOM      1  C   UNL A   1      31.693  30.324  26.799  1.00  0.00     0.117 C 
ENDROOT
BRANCH   1   2
ATOM      2  N   UNL A   1      32.698  29.967  25.815  1.00  0.00    -0.355 N 
ATOM      3  C   UNL A   1      32.547  29.393  24.589  1.00  0.00     0.230 C 
ATOM      4  O   UNL A   1      33.568  29.163  23.936  1.00  0.00    -0.274 OA
ATOM      5  H   UNL A   1      33.626  30.171  26.071  1.00  0.00     0.163 HD
BRANCH   3   6
ATOM      6  C   UNL A   1      31.170  29.119  24.015  1.00  0.00     0.174 C 
BRANCH   6   7
ATOM      7  S   UNL A   1      30.600  27.401  24.227  1.00  0.00    -0.115 SA
BRANCH   7   8
ATOM      8  C   UNL A   1      31.730  26.368  23.265  1.00  0.00     0.019 A 
ATOM      9  C   UNL A   1      34.526  23.983  23.778  1.00  0.00     0.145 A 
ATOM     10  C   UNL A   1      34.687  23.958  25.163  1.00  0.00     0.049 A 
ATOM     11  C   UNL A   1      33.559  24.777  23.145  1.00  0.00     0.114 A 
ATOM     12  C   UNL A   1      33.888  24.767  25.954  1.00  0.00     0.005 A 
ATOM     13  C   UNL A   1      32.724  25.592  23.941  1.00  0.00     0.018 A 
ATOM     14  N   UNL A   1      33.450  24.744  21.804  1.00  0.00    -0.249 NA
ATOM     15  C   UNL A   1      32.921  25.572  25.351  1.00  0.00     0.012 A 
ATOM     16  C   UNL A   1      32.527  25.496  21.182  1.00  0.00     0.039 A 
ATOM     17  C   UNL A   1      31.635  26.290  21.876  1.00  0.00     0.039 A 
ATOM     18  C   UNL A   1      32.543  25.463  19.685  1.00  0.00     0.067 C 
BRANCH   9  19
ATOM     19  O   UNL A   1      35.289  23.091  23.054  1.00  0.00    -0.492 OA
BRANCH  19  20
ATOM     20  C   UNL A   1      36.681  23.172  23.382  1.00  0.00     0.226 C 
ATOM     21  C   UNL A   1      37.158  21.913  24.089  1.00  0.00     0.049 C 
ENDBRANCH  19  20
ENDBRANCH   9  19
ENDBRANCH   7   8
ENDBRANCH   6   7
ENDBRANCH   3   6
ENDBRANCH   1   2
BRANCH   1  22
ATOM     22  C   UNL A   1      31.404  31.823  26.801  1.00  0.00     0.042 C 
BRANCH  22  23
ATOM     23  C   UNL A   1      32.646  32.705  26.894  1.00  0.00     0.118 C 
BRANCH  23  24
ATOM     24  N   UNL A   1      32.418  33.919  27.663  1.00  0.00    -0.352 N 
ATOM     25  C   UNL A   1      33.110  34.441  28.727  1.00  0.00     0.251 C 
ATOM     26  H   UNL A   1      31.642  34.452  27.375  1.00  0.00     0.163 HD
ATOM     27  O   UNL A   1      32.640  35.392  29.343  1.00  0.00    -0.269 OA
BRANCH  25  28
ATOM     28  C   UNL A   1      34.408  33.867  29.151  1.00  0.00     0.039 A 
ATOM     29  C   UNL A   1      35.565  34.254  28.466  1.00  0.00     0.014 A 
ATOM     30  C   UNL A   1      34.489  32.913  30.169  1.00  0.00     0.014 A 
ATOM     31  C   UNL A   1      36.805  33.724  28.833  1.00  0.00     0.010 A 
ATOM     32  C   UNL A   1      35.733  32.435  30.578  1.00  0.00     0.010 A 
ATOM     33  C   UNL A   1      36.902  32.827  29.909  1.00  0.00    -0.014 A 
BRANCH  33  34
ATOM     34  C   UNL A   1      38.214  32.273  30.332  1.00  0.00     0.031 A 
ATOM     35  C   UNL A   1      38.706  30.974  29.755  1.00  0.00     0.074 A 
ATOM     36  C   UNL A   1      38.934  32.905  31.279  1.00  0.00     0.049 A 
ATOM     37  N   UNL A   1      39.776  30.284  30.061  1.00  0.00    -0.248 NA
ATOM     38  C   UNL A   1      37.873  30.354  28.712  1.00  0.00     0.031 C 
ATOM     39  C   UNL A   1      38.552  34.150  31.946  1.00  0.00     0.029 A 
ATOM     40  N   UNL A   1      40.137  32.576  31.856  1.00  0.00    -0.354 N 
ATOM     41  C   UNL A   1      39.732  29.143  29.270  1.00  0.00     0.074 A 
ATOM     42  C   UNL A   1      38.510  29.213  28.497  1.00  0.00     0.031 C 
ATOM     43  C   UNL A   1      39.505  34.487  32.831  1.00  0.00     0.029 A 
ATOM     44  C   UNL A   1      40.548  33.466  32.818  1.00  0.00     0.049 A 
ATOM     45  H   UNL A   1      40.654  31.778  31.604  1.00  0.00     0.167 HD
ATOM     46  C   UNL A   1      40.635  28.139  29.181  1.00  0.00     0.037 A 
ATOM     47  C   UNL A   1      41.640  33.455  33.607  1.00  0.00     0.037 A 
ATOM     48  C   UNL A   1      41.869  28.088  29.919  1.00  0.00     0.049 A 
ATOM     49  C   UNL A   1      42.635  32.335  33.476  1.00  0.00     0.074 A 
ATOM     50  C   UNL A   1      42.876  27.141  29.852  1.00  0.00     0.029 A 
ATOM     51  N   UNL A   1      42.268  29.031  30.854  1.00  0.00    -0.354 N 
ATOM     52  N   UNL A   1      42.605  31.293  32.681  1.00  0.00    -0.248 NA
ATOM     53  C   UNL A   1      43.818  32.394  34.344  1.00  0.00     0.031 C 
ATOM     54  C   UNL A   1      43.870  27.492  30.771  1.00  0.00     0.029 A 
ATOM     55  C   UNL A   1      43.500  28.681  31.379  1.00  0.00     0.049 A 
ATOM     56  H   UNL A   1      41.751  29.829  31.107  1.00  0.00     0.167 HD
ATOM     57  C   UNL A   1      43.779  30.593  32.929  1.00  0.00     0.074 A 
ATOM     58  C   UNL A   1      44.503  31.333  33.941  1.00  0.00     0.031 C 
ATOM     59  C   UNL A   1      44.218  29.441  32.370  1.00  0.00     0.037 A 
BRANCH  46  60
ATOM     60  C   UNL A   1      40.327  27.008  28.243  1.00  0.00     0.057 A 
ATOM     61  C   UNL A   1      40.889  26.940  26.962  1.00  0.00     0.134 A 
ATOM     62  C   UNL A   1      39.503  25.950  28.646  1.00  0.00     0.134 A 
ATOM     63  F   UNL A   1      41.676  27.927  26.511  1.00  0.00    -0.206 F 
ATOM     64  C   UNL A   1      40.625  25.868  26.107  1.00  0.00     0.040 A 
ATOM     65  C   UNL A   1      39.253  24.861  27.809  1.00  0.00     0.040 A 
ATOM     66  F   UNL A   1      38.939  25.949  29.864  1.00  0.00    -0.206 F 
ATOM     67  C   UNL A   1      39.812  24.820  26.534  1.00  0.00     0.006 A 
ENDBRANCH  46  60
BRANCH  47  68
ATOM     68  C   UNL A   1      41.866  34.551  34.584  1.00  0.00     0.057 A 
ATOM     69  C   UNL A   1      42.462  35.754  34.190  1.00  0.00     0.134 A 
ATOM     70  C   UNL A   1      41.520  34.411  35.932  1.00  0.00     0.134 A 
ATOM     71  F   UNL A   1      42.832  35.938  32.914  1.00  0.00    -0.206 F 
ATOM     72  C   UNL A   1      42.729  36.772  35.107  1.00  0.00     0.040 A 
ATOM     73  C   UNL A   1      41.760  35.430  36.856  1.00  0.00     0.040 A 
ATOM     74  F   UNL A   1      40.940  33.284  36.371  1.00  0.00    -0.206 F 
ATOM     75  C   UNL A   1      42.375  36.612  36.445  1.00  0.00     0.006 A 
ENDBRANCH  47  68
BRANCH  59  76
ATOM     76  C   UNL A   1      45.564  28.938  32.797  1.00  0.00     0.057 A 
ATOM     77  C   UNL A   1      46.742  29.336  32.154  1.00  0.00     0.134 A 
ATOM     78  C   UNL A   1      45.684  28.072  33.892  1.00  0.00     0.134 A 
ATOM     79  F   UNL A   1      46.692  30.153  31.090  1.00  0.00    -0.206 F 
ATOM     80  C   UNL A   1      47.991  28.875  32.571  1.00  0.00     0.040 A 
ATOM     81  C   UNL A   1      46.929  27.624  34.334  1.00  0.00     0.040 A 
ATOM     82  F   UNL A   1      44.594  27.660  34.557  1.00  0.00    -0.206 F 
ATOM     83  C   UNL A   1      48.087  28.022  33.669  1.00  0.00     0.006 A 
ENDBRANCH  59  76
ENDBRANCH  33  34
ENDBRANCH  25  28
ENDBRANCH  23  24
ENDBRANCH  22  23
ENDBRANCH   1  22
TORSDOF 14
ENDMDL
MODEL 3
REMARK VINA RESULT:     -11.5      2.425      7.784
REMARK SMILES CCOc1cccc2c(SCC(=O)NCCCNC(=O)c3ccc(-c4c5nc(c(-c6c(F)cccc6F)c6ccc([nH]6)c(-c6c(F)cccc6F)c6nc(c(-c7c(F)cccc7F)c7ccc4[nH]7)C=C6)C=C5)cc3)cc(C)nc12
REMARK SMILES IDX 15 1 14 2 12 3 13 4 11 6 10 7 9 8 4 9 5 10 79 11 6 12 8 13
REMARK SMILES IDX 78 14 7 15 76 16 75 17 77 18 3 19 2 20 1 21 16 22 17 23
REMARK SMILES IDX 18 24 19 25 20 27 21 28 22 29 74 30 23 31 73 32 24 33 25 34
REMARK SMILES IDX 26 35 67 36 27 37 72 38 66 39 68 40 28 41 71 42 65 43 64 44
REMARK SMILES IDX 29 46 55 47 38 48 54 49 39 50 42 51 53 52 69 53 40 54 41 55
REMARK SMILES IDX 52 57 70 58 43 59 30 60 31 61 36 62 32 63 33 64 35 65 37 66
REMARK SMILES IDX 34 67 56 68 57 69 62 70 58 71 59 72 61 73 63 74 60 75 44 76
REMARK SMILES IDX 45 77 50 78 46 79 47 80 49 81 51 82 48 83
REMARK H PARENT 14 5 18 26 68 45 42 56
REMARK Flexibility Score: inf
ROOT
ATOM      1  C   UNL A   1      31.414  30.427  26.164  1.00  0.00     0.117 C 
ENDROOT
BRANCH   1   2
ATOM      2  N   UNL A   1      31.169  30.165  24.759  1.00  0.00    -0.355 N 
ATOM      3  C   UNL A   1      31.033  28.976  24.108  1.00  0.00     0.230 C 
ATOM      4  O   UNL A   1      30.850  29.010  22.888  1.00  0.00    -0.274 OA
ATOM      5  H   UNL A   1      31.089  30.965  24.191  1.00  0.00     0.163 HD
BRANCH   3   6
ATOM      6  C   UNL A   1      31.027  27.662  24.866  1.00  0.00     0.174 C 
BRANCH   6   7
ATOM      7  S   UNL A   1      32.674  26.904  25.059  1.00  0.00    -0.115 SA
BRANCH   7   8
ATOM      8  C   UNL A   1      32.389  25.172  25.491  1.00  0.00     0.019 A 
ATOM      9  C   UNL A   1      34.063  21.870  25.234  1.00  0.00     0.145 A 
ATOM     10  C   UNL A   1      35.258  22.158  24.575  1.00  0.00     0.049 A 
ATOM     11  C   UNL A   1      33.111  22.855  25.535  1.00  0.00     0.114 A 
ATOM     12  C   UNL A   1      35.513  23.457  24.168  1.00  0.00     0.005 A 
ATOM     13  C   UNL A   1      33.367  24.188  25.145  1.00  0.00     0.018 A 
ATOM     14  N   UNL A   1      31.984  22.510  26.185  1.00  0.00    -0.249 NA
ATOM     15  C   UNL A   1      34.580  24.458  24.449  1.00  0.00     0.012 A 
ATOM     16  C   UNL A   1      31.063  23.441  26.484  1.00  0.00     0.039 A 
ATOM     17  C   UNL A   1      31.244  24.777  26.183  1.00  0.00     0.039 A 
ATOM     18  C   UNL A   1      29.803  22.947  27.123  1.00  0.00     0.067 C 
BRANCH   9  19
ATOM     19  O   UNL A   1      33.908  20.578  25.690  1.00  0.00    -0.492 OA
BRANCH  19  20
ATOM     20  C   UNL A   1      33.909  19.619  24.626  1.00  0.00     0.226 C 
ATOM     21  C   UNL A   1      32.529  19.485  24.000  1.00  0.00     0.049 C 
ENDBRANCH  19  20
ENDBRANCH   9  19
ENDBRANCH   7   8
ENDBRANCH   6   7
ENDBRANCH   3   6
ENDBRANCH   1   2
BRANCH   1  22
ATOM     22  C   UNL A   1      31.288  31.911  26.499  1.00  0.00     0.042 C 
BRANCH  22  23
ATOM     23  C   UNL A   1      32.604  32.587  26.875  1.00  0.00     0.118 C 
BRANCH  23  24
ATOM     24  N   UNL A   1      32.415  33.916  27.436  1.00  0.00    -0.352 N 
ATOM     25  C   UNL A   1      33.041  34.534  28.489  1.00  0.00     0.251 C 
ATOM     26  H   UNL A   1      31.726  34.459  26.990  1.00  0.00     0.163 HD
ATOM     27  O   UNL A   1      32.602  35.600  28.909  1.00  0.00    -0.269 OA
BRANCH  25  28
ATOM     28  C   UNL A   1      34.228  33.928  29.135  1.00  0.00     0.039 A 
ATOM     29  C   UNL A   1      34.030  32.929  30.094  1.00  0.00     0.014 A 
ATOM     30  C   UNL A   1      35.522  34.372  28.849  1.00  0.00     0.014 A 
ATOM     31  C   UNL A   1      35.129  32.344  30.730  1.00  0.00     0.010 A 
ATOM     32  C   UNL A   1      36.620  33.742  29.434  1.00  0.00     0.010 A 
ATOM     33  C   UNL A   1      36.434  32.729  30.387  1.00  0.00    -0.014 A 
BRANCH  33  34
ATOM     34  C   UNL A   1      37.616  32.099  31.032  1.00  0.00     0.031 A 
ATOM     35  C   UNL A   1      38.373  31.010  30.321  1.00  0.00     0.074 A 
ATOM     36  C   UNL A   1      37.973  32.463  32.278  1.00  0.00     0.049 A 
ATOM     37  N   UNL A   1      39.370  30.279  30.750  1.00  0.00    -0.248 NA
ATOM     38  C   UNL A   1      37.934  30.682  28.955  1.00  0.00     0.031 C 
ATOM     39  C   UNL A   1      37.300  33.479  33.091  1.00  0.00     0.029 A 
ATOM     40  N   UNL A   1      38.985  32.009  33.088  1.00  0.00    -0.354 N 
ATOM     41  C   UNL A   1      39.660  29.392  29.722  1.00  0.00     0.074 A 
ATOM     42  C   UNL A   1      38.710  29.649  28.661  1.00  0.00     0.031 C 
ATOM     43  C   UNL A   1      37.925  33.578  34.276  1.00  0.00     0.029 A 
ATOM     44  C   UNL A   1      39.019  32.613  34.321  1.00  0.00     0.049 A 
ATOM     45  H   UNL A   1      39.626  31.315  32.810  1.00  0.00     0.167 HD
ATOM     46  C   UNL A   1      40.641  28.461  29.658  1.00  0.00     0.037 A 
ATOM     47  C   UNL A   1      39.836  32.406  35.372  1.00  0.00     0.037 A 
ATOM     48  C   UNL A   1      41.612  28.231  30.695  1.00  0.00     0.049 A 
ATOM     49  C   UNL A   1      40.927  31.377  35.268  1.00  0.00     0.074 A 
ATOM     50  C   UNL A   1      42.680  27.351  30.697  1.00  0.00     0.029 A 
ATOM     51  N   UNL A   1      41.637  28.893  31.913  1.00  0.00    -0.354 N 
ATOM     52  N   UNL A   1      41.224  30.586  34.265  1.00  0.00    -0.248 NA
ATOM     53  C   UNL A   1      41.802  31.217  36.437  1.00  0.00     0.031 C 
ATOM     54  C   UNL A   1      43.332  27.456  31.930  1.00  0.00     0.029 A 
ATOM     55  C   UNL A   1      42.694  28.432  32.678  1.00  0.00     0.049 A 
ATOM     56  H   UNL A   1      40.996  29.587  32.191  1.00  0.00     0.167 HD
ATOM     57  C   UNL A   1      42.338  29.862  34.669  1.00  0.00     0.074 A 
ATOM     58  C   UNL A   1      42.669  30.313  36.004  1.00  0.00     0.031 C 
ATOM     59  C   UNL A   1      43.024  28.908  33.996  1.00  0.00     0.037 A 
BRANCH  46  60
ATOM     60  C   UNL A   1      40.722  27.619  28.418  1.00  0.00     0.057 A 
ATOM     61  C   UNL A   1      41.513  27.994  27.324  1.00  0.00     0.134 A 
ATOM     62  C   UNL A   1      40.044  26.396  28.338  1.00  0.00     0.134 A 
ATOM     63  F   UNL A   1      42.177  29.158  27.332  1.00  0.00    -0.206 F 
ATOM     64  C   UNL A   1      41.611  27.189  26.187  1.00  0.00     0.040 A 
ATOM     65  C   UNL A   1      40.154  25.573  27.216  1.00  0.00     0.040 A 
ATOM     66  F   UNL A   1      39.276  25.975  29.355  1.00  0.00    -0.206 F 
ATOM     67  C   UNL A   1      40.937  25.971  26.135  1.00  0.00     0.006 A 
ENDBRANCH  46  60
BRANCH  47  68
ATOM     68  C   UNL A   1      39.669  33.202  36.614  1.00  0.00     0.057 A 
ATOM     69  C   UNL A   1      38.772  32.801  37.611  1.00  0.00     0.134 A 
ATOM     70  C   UNL A   1      40.378  34.390  36.823  1.00  0.00     0.134 A 
ATOM     71  F   UNL A   1      38.050  31.681  37.458  1.00  0.00    -0.206 F 
ATOM     72  C   UNL A   1      38.566  33.566  38.760  1.00  0.00     0.040 A 
ATOM     73  C   UNL A   1      40.200  35.153  37.978  1.00  0.00     0.040 A 
ATOM     74  F   UNL A   1      41.258  34.825  35.908  1.00  0.00    -0.206 F 
ATOM     75  C   UNL A   1      39.284  34.746  38.947  1.00  0.00     0.006 A 
ENDBRANCH  47  68
BRANCH  59  76
ATOM     76  C   UNL A   1      44.233  28.328  34.667  1.00  0.00     0.057 A 
ATOM     77  C   UNL A   1      45.498  28.917  34.553  1.00  0.00     0.134 A 
ATOM     78  C   UNL A   1      44.120  27.185  35.470  1.00  0.00     0.134 A 
ATOM     79  F   UNL A   1      45.674  30.005  33.788  1.00  0.00    -0.206 F 
ATOM     80  C   UNL A   1      46.612  28.378  35.196  1.00  0.00     0.040 A 
ATOM     81  C   UNL A   1      45.222  26.651  36.138  1.00  0.00     0.040 A 
ATOM     82  F   UNL A   1      42.933  26.579  35.628  1.00  0.00    -0.206 F 
ATOM     83  C   UNL A   1      46.475  27.245  35.997  1.00  0.00     0.006 A 
ENDBRANCH  59  76
ENDBRANCH  33  34
ENDBRANCH  25  28
ENDBRANCH  23  24
ENDBRANCH  22  23
ENDBRANCH   1  22
TORSDOF 14
ENDMDL
