MODEL 1
REMARK VINA RESULT:     -11.8      0.000      0.000
REMARK SMILES O=C(CCC(=O)N1CCc2[nH]c3ccc(F)cc3c2C1)NCCCNC(=O)c1ccc(-c2c3nc(c(-c4c(F)cccc4F)c4ccc([nH]4)c(-c4c(F)cccc4F)c4nc(c(-c5c(F)cccc5F)c5ccc2[nH]5)C=C4)C=C3)cc1
REMARK SMILES IDX 22 1 21 2 1 3 2 4 3 6 4 7 5 8 6 9 7 10 8 11 20 12 9 13 19 14
REMARK SMILES IDX 10 15 18 16 11 17 12 18 17 19 13 21 15 22 14 23 16 24 23 25
REMARK SMILES IDX 24 26 25 27 26 28 27 30 28 31 29 32 81 33 30 34 80 35 31 36
REMARK SMILES IDX 32 37 33 38 74 39 34 40 79 41 73 42 75 43 35 44 78 45 72 46
REMARK SMILES IDX 71 47 36 49 62 50 45 51 61 52 46 53 49 54 60 55 76 56 47 57
REMARK SMILES IDX 48 58 59 60 77 61 50 62 37 63 38 64 43 65 39 66 40 67 42 68
REMARK SMILES IDX 44 69 41 70 63 71 64 72 69 73 65 74 66 75 68 76 70 77 67 78
REMARK SMILES IDX 51 79 52 80 57 81 53 82 54 83 56 84 58 85 55 86
REMARK H PARENT 21 5 11 20 25 29 75 48 49 59
REMARK Flexibility Score: inf
ROOT
ATOM      1  C   UNL A   1      35.137  34.982  34.269  1.00  0.00     0.117 C 
ENDROOT
BRANCH   1   2
ATOM      2  N   UNL A   1      34.092  35.182  33.276  1.00  0.00    -0.356 N 
ATOM      3  O   UNL A   1      34.033  37.459  33.538  1.00  0.00    -0.275 OA
ATOM      4  C   UNL A   1      33.654  36.446  32.941  1.00  0.00     0.220 C 
ATOM      5  H   UNL A   1      33.691  34.400  32.833  1.00  0.00     0.163 HD
BRANCH   4   6
ATOM      6  C   UNL A   1      32.709  36.510  31.749  1.00  0.00     0.110 C 
BRANCH   6   7
ATOM      7  C   UNL A   1      32.974  35.430  30.686  1.00  0.00     0.110 C 
BRANCH   7   8
ATOM      8  C   UNL A   1      33.246  35.927  29.250  1.00  0.00     0.223 C 
ATOM      9  O   UNL A   1      33.257  37.135  29.014  1.00  0.00    -0.275 OA
BRANCH   8  10
ATOM     10  N   UNL A   1      33.514  34.977  28.269  1.00  0.00    -0.338 N 
ATOM     11  C   UNL A   1      34.850  34.893  27.687  1.00  0.00     0.126 C 
ATOM     12  C   UNL A   1      32.646  33.752  28.074  1.00  0.00     0.157 C 
ATOM     13  C   UNL A   1      35.590  33.834  28.501  1.00  0.00     0.075 C 
ATOM     14  C   UNL A   1      33.515  32.502  27.961  1.00  0.00     0.000 A 
ATOM     15  C   UNL A   1      34.869  32.582  28.219  1.00  0.00     0.023 A 
ATOM     16  C   UNL A   1      33.308  31.171  27.428  1.00  0.00     0.008 A 
ATOM     17  N   UNL A   1      35.466  31.432  27.868  1.00  0.00    -0.358 N 
ATOM     18  C   UNL A   1      34.550  30.525  27.437  1.00  0.00     0.046 A 
ATOM     19  C   UNL A   1      32.243  30.442  26.863  1.00  0.00     0.050 A 
ATOM     20  H   UNL A   1      36.435  31.268  27.917  1.00  0.00     0.166 HD
ATOM     21  C   UNL A   1      34.805  29.230  26.975  1.00  0.00     0.030 A 
ATOM     22  C   UNL A   1      32.484  29.140  26.386  1.00  0.00     0.123 A 
ATOM     23  C   UNL A   1      33.733  28.532  26.450  1.00  0.00     0.041 A 
ATOM     24  F   UNL A   1      31.479  28.456  25.821  1.00  0.00    -0.207 F 
ENDBRANCH   8  10
ENDBRANCH   7   8
ENDBRANCH   6   7
ENDBRANCH   4   6
ENDBRANCH   1   2
BRANCH   1  25
ATOM     25  C   UNL A   1      35.638  33.535  34.371  1.00  0.00     0.042 C 
BRANCH  25  26
ATOM     26  C   UNL A   1      36.138  32.917  33.063  1.00  0.00     0.118 C 
BRANCH  26  27
ATOM     27  N   UNL A   1      36.266  31.486  33.207  1.00  0.00    -0.352 N 
ATOM     28  C   UNL A   1      36.668  30.496  32.369  1.00  0.00     0.251 C 
ATOM     29  H   UNL A   1      36.008  31.159  34.099  1.00  0.00     0.163 HD
ATOM     30  O   UNL A   1      36.896  29.409  32.908  1.00  0.00    -0.269 OA
BRANCH  28  31
ATOM     31  C   UNL A   1      36.747  30.638  30.876  1.00  0.00     0.039 A 
ATOM     32  C   UNL A   1      36.707  29.347  30.377  1.00  0.00     0.014 A 
ATOM     33  C   UNL A   1      37.884  31.412  30.555  1.00  0.00     0.014 A 
ATOM     34  C   UNL A   1      37.905  28.670  30.387  1.00  0.00     0.010 A 
ATOM     35  C   UNL A   1      39.117  30.773  30.452  1.00  0.00     0.010 A 
ATOM     36  C   UNL A   1      39.121  29.384  30.492  1.00  0.00    -0.014 A 
BRANCH  36  37
ATOM     37  C   UNL A   1      40.312  28.589  30.234  1.00  0.00     0.031 A 
ATOM     38  C   UNL A   1      41.049  28.422  31.511  1.00  0.00     0.074 A 
ATOM     39  C   UNL A   1      40.729  28.044  29.079  1.00  0.00     0.049 A 
ATOM     40  N   UNL A   1      42.143  29.017  31.853  1.00  0.00    -0.248 NA
ATOM     41  C   UNL A   1      40.309  27.809  32.630  1.00  0.00     0.031 C 
ATOM     42  C   UNL A   1      40.024  27.886  27.811  1.00  0.00     0.029 A 
ATOM     43  N   UNL A   1      41.929  27.440  28.842  1.00  0.00    -0.354 N 
ATOM     44  C   UNL A   1      42.318  28.708  33.194  1.00  0.00     0.074 A 
ATOM     45  C   UNL A   1      41.073  28.165  33.661  1.00  0.00     0.031 C 
ATOM     46  C   UNL A   1      40.723  27.031  27.021  1.00  0.00     0.029 A 
ATOM     47  C   UNL A   1      41.980  26.694  27.673  1.00  0.00     0.049 A 
ATOM     48  H   UNL A   1      42.698  27.528  29.451  1.00  0.00     0.167 HD
ATOM     49  C   UNL A   1      43.563  28.655  33.728  1.00  0.00     0.037 A 
ATOM     50  C   UNL A   1      42.961  25.816  27.337  1.00  0.00     0.037 A 
ATOM     51  C   UNL A   1      44.487  29.455  32.958  1.00  0.00     0.049 A 
ATOM     52  C   UNL A   1      44.156  26.134  28.164  1.00  0.00     0.074 A 
ATOM     53  C   UNL A   1      44.594  30.798  32.650  1.00  0.00     0.029 A 
ATOM     54  N   UNL A   1      45.283  28.799  32.050  1.00  0.00    -0.354 N 
ATOM     55  N   UNL A   1      44.881  27.205  28.007  1.00  0.00    -0.248 NA
ATOM     56  C   UNL A   1      44.275  25.488  29.463  1.00  0.00     0.031 C 
ATOM     57  C   UNL A   1      45.082  30.839  31.309  1.00  0.00     0.029 A 
ATOM     58  C   UNL A   1      45.295  29.527  30.889  1.00  0.00     0.049 A 
ATOM     59  H   UNL A   1      45.763  27.954  32.207  1.00  0.00     0.167 HD
ATOM     60  C   UNL A   1      45.193  27.614  29.297  1.00  0.00     0.074 A 
ATOM     61  C   UNL A   1      44.867  26.472  30.146  1.00  0.00     0.031 C 
ATOM     62  C   UNL A   1      45.416  28.932  29.578  1.00  0.00     0.037 A 
BRANCH  49  63
ATOM     63  C   UNL A   1      43.997  27.490  34.589  1.00  0.00     0.057 A 
ATOM     64  C   UNL A   1      44.172  26.163  34.132  1.00  0.00     0.134 A 
ATOM     65  C   UNL A   1      44.585  27.768  35.834  1.00  0.00     0.134 A 
ATOM     66  F   UNL A   1      43.694  25.714  32.968  1.00  0.00    -0.206 F 
ATOM     67  C   UNL A   1      44.943  25.220  34.809  1.00  0.00     0.040 A 
ATOM     68  C   UNL A   1      45.395  26.841  36.500  1.00  0.00     0.040 A 
ATOM     69  F   UNL A   1      44.474  28.983  36.391  1.00  0.00    -0.206 F 
ATOM     70  C   UNL A   1      45.593  25.570  35.976  1.00  0.00     0.006 A 
ENDBRANCH  49  63
BRANCH  50  71
ATOM     71  C   UNL A   1      42.851  24.539  26.596  1.00  0.00     0.057 A 
ATOM     72  C   UNL A   1      42.272  23.402  27.185  1.00  0.00     0.134 A 
ATOM     73  C   UNL A   1      43.559  24.317  25.404  1.00  0.00     0.134 A 
ATOM     74  F   UNL A   1      41.649  23.479  28.369  1.00  0.00    -0.206 F 
ATOM     75  C   UNL A   1      42.394  22.123  26.630  1.00  0.00     0.040 A 
ATOM     76  C   UNL A   1      43.694  23.041  24.840  1.00  0.00     0.040 A 
ATOM     77  F   UNL A   1      44.195  25.328  24.791  1.00  0.00    -0.206 F 
ATOM     78  C   UNL A   1      43.117  21.936  25.459  1.00  0.00     0.006 A 
ENDBRANCH  50  71
BRANCH  62  79
ATOM     79  C   UNL A   1      45.583  29.867  28.412  1.00  0.00     0.057 A 
ATOM     80  C   UNL A   1      46.877  30.199  27.999  1.00  0.00     0.134 A 
ATOM     81  C   UNL A   1      44.523  30.522  27.767  1.00  0.00     0.134 A 
ATOM     82  F   UNL A   1      47.942  29.653  28.608  1.00  0.00    -0.206 F 
ATOM     83  C   UNL A   1      47.112  31.125  26.981  1.00  0.00     0.040 A 
ATOM     84  C   UNL A   1      44.743  31.425  26.721  1.00  0.00     0.040 A 
ATOM     85  F   UNL A   1      43.254  30.343  28.160  1.00  0.00    -0.206 F 
ATOM     86  C   UNL A   1      46.042  31.732  26.328  1.00  0.00     0.006 A 
ENDBRANCH  62  79
ENDBRANCH  36  37
ENDBRANCH  28  31
ENDBRANCH  26  27
ENDBRANCH  25  26
ENDBRANCH   1  25
TORSDOF 13
ENDMDL
MODEL 2
REMARK VINA RESULT:     -11.5      3.944     11.618
REMARK SMILES O=C(CCC(=O)N1CCc2[nH]c3ccc(F)cc3c2C1)NCCCNC(=O)c1ccc(-c2c3nc(c(-c4c(F)cccc4F)c4ccc([nH]4)c(-c4c(F)cccc4F)c4nc(c(-c5c(F)cccc5F)c5ccc2[nH]5)C=C4)C=C3)cc1
REMARK SMILES IDX 22 1 21 2 1 3 2 4 3 6 4 7 5 8 6 9 7 10 8 11 20 12 9 13 19 14
REMARK SMILES IDX 10 15 18 16 11 17 12 18 17 19 13 21 15 22 14 23 16 24 23 25
REMARK SMILES IDX 24 26 25 27 26 28 27 30 28 31 29 32 81 33 30 34 80 35 31 36
REMARK SMILES IDX 32 37 33 38 74 39 34 40 79 41 73 42 75 43 35 44 78 45 72 46
REMARK SMILES IDX 71 47 36 49 62 50 45 51 61 52 46 53 49 54 60 55 76 56 47 57
REMARK SMILES IDX 48 58 59 60 77 61 50 62 37 63 38 64 43 65 39 66 40 67 42 68
REMARK SMILES IDX 44 69 41 70 63 71 64 72 69 73 65 74 66 75 68 76 70 77 67 78
REMARK SMILES IDX 51 79 52 80 57 81 53 82 54 83 56 84 58 85 55 86
REMARK H PARENT 21 5 11 20 25 29 75 48 49 59
REMARK Flexibility Score: inf
ROOT
ATOM      1  C   UNL A   1      41.383  19.624  27.555  1.00  0.00     0.117 C 
ENDROOT
BRANCH   1   2
ATOM      2  N   UNL A   1      42.760  19.411  27.133  1.00  0.00    -0.356 N 
ATOM      3  O   UNL A   1      42.243  17.700  25.697  1.00  0.00    -0.275 OA
ATOM      4  C   UNL A   1      43.079  18.479  26.169  1.00  0.00     0.220 C 
ATOM      5  H   UNL A   1      43.478  19.944  27.545  1.00  0.00     0.163 HD
BRANCH   4   6
ATOM      6  C   UNL A   1      44.523  18.512  25.688  1.00  0.00     0.110 C 
BRANCH   6   7
ATOM      7  C   UNL A   1      44.744  19.383  24.441  1.00  0.00     0.110 C 
BRANCH   7   8
ATOM      8  C   UNL A   1      45.901  20.404  24.508  1.00  0.00     0.223 C 
ATOM      9  O   UNL A   1      47.067  20.008  24.484  1.00  0.00    -0.275 OA
BRANCH   8  10
ATOM     10  N   UNL A   1      45.579  21.756  24.553  1.00  0.00    -0.338 N 
ATOM     11  C   UNL A   1      44.257  22.172  25.013  1.00  0.00     0.126 C 
ATOM     12  C   UNL A   1      46.639  22.838  24.571  1.00  0.00     0.157 C 
ATOM     13  C   UNL A   1      44.409  22.458  26.505  1.00  0.00     0.075 C 
ATOM     14  C   UNL A   1      46.333  23.859  25.663  1.00  0.00     0.000 A 
ATOM     15  C   UNL A   1      45.320  23.613  26.568  1.00  0.00     0.023 A 
ATOM     16  C   UNL A   1      46.739  25.228  25.911  1.00  0.00     0.008 A 
ATOM     17  N   UNL A   1      45.090  24.714  27.303  1.00  0.00    -0.358 N 
ATOM     18  C   UNL A   1      45.965  25.701  26.978  1.00  0.00     0.046 A 
ATOM     19  C   UNL A   1      47.610  26.165  25.324  1.00  0.00     0.050 A 
ATOM     20  H   UNL A   1      44.383  24.794  27.983  1.00  0.00     0.166 HD
ATOM     21  C   UNL A   1      46.016  26.989  27.520  1.00  0.00     0.030 A 
ATOM     22  C   UNL A   1      47.667  27.469  25.852  1.00  0.00     0.123 A 
ATOM     23  C   UNL A   1      46.900  27.877  26.937  1.00  0.00     0.041 A 
ATOM     24  F   UNL A   1      48.475  28.371  25.276  1.00  0.00    -0.207 F 
ENDBRANCH   8  10
ENDBRANCH   7   8
ENDBRANCH   6   7
ENDBRANCH   4   6
ENDBRANCH   1   2
BRANCH   1  25
ATOM     25  C   UNL A   1      40.971  21.100  27.634  1.00  0.00     0.042 C 
BRANCH  25  26
ATOM     26  C   UNL A   1      39.993  21.570  26.556  1.00  0.00     0.118 C 
BRANCH  26  27
ATOM     27  N   UNL A   1      39.331  22.782  26.979  1.00  0.00    -0.352 N 
ATOM     28  C   UNL A   1      39.641  24.100  26.873  1.00  0.00     0.251 C 
ATOM     29  H   UNL A   1      38.477  22.619  27.442  1.00  0.00     0.163 HD
ATOM     30  O   UNL A   1      38.717  24.880  27.125  1.00  0.00    -0.269 OA
BRANCH  28  31
ATOM     31  C   UNL A   1      41.017  24.619  26.574  1.00  0.00     0.039 A 
ATOM     32  C   UNL A   1      41.651  24.722  27.801  1.00  0.00     0.014 A 
ATOM     33  C   UNL A   1      40.898  25.805  25.815  1.00  0.00     0.014 A 
ATOM     34  C   UNL A   1      41.367  25.859  28.521  1.00  0.00     0.010 A 
ATOM     35  C   UNL A   1      40.706  27.008  26.487  1.00  0.00     0.010 A 
ATOM     36  C   UNL A   1      40.827  26.993  27.871  1.00  0.00    -0.014 A 
BRANCH  36  37
ATOM     37  C   UNL A   1      40.813  28.203  28.680  1.00  0.00     0.031 A 
ATOM     38  C   UNL A   1      42.016  29.004  28.342  1.00  0.00     0.074 A 
ATOM     39  C   UNL A   1      39.900  28.610  29.576  1.00  0.00     0.049 A 
ATOM     40  N   UNL A   1      43.077  29.145  29.065  1.00  0.00    -0.248 NA
ATOM     41  C   UNL A   1      42.184  29.386  26.927  1.00  0.00     0.031 C 
ATOM     42  C   UNL A   1      38.560  28.097  29.845  1.00  0.00     0.029 A 
ATOM     43  N   UNL A   1      40.000  29.670  30.428  1.00  0.00    -0.354 N 
ATOM     44  C   UNL A   1      43.990  29.792  28.245  1.00  0.00     0.074 A 
ATOM     45  C   UNL A   1      43.475  29.712  26.907  1.00  0.00     0.031 C 
ATOM     46  C   UNL A   1      37.895  28.986  30.626  1.00  0.00     0.029 A 
ATOM     47  C   UNL A   1      38.804  30.053  31.017  1.00  0.00     0.049 A 
ATOM     48  H   UNL A   1      40.853  30.127  30.611  1.00  0.00     0.167 HD
ATOM     49  C   UNL A   1      44.946  30.591  28.780  1.00  0.00     0.037 A 
ATOM     50  C   UNL A   1      38.594  31.208  31.702  1.00  0.00     0.037 A 
ATOM     51  C   UNL A   1      45.211  30.226  30.153  1.00  0.00     0.049 A 
ATOM     52  C   UNL A   1      39.921  31.739  32.112  1.00  0.00     0.074 A 
ATOM     53  C   UNL A   1      45.694  29.096  30.786  1.00  0.00     0.029 A 
ATOM     54  N   UNL A   1      44.604  30.973  31.132  1.00  0.00    -0.354 N 
ATOM     55  N   UNL A   1      40.674  31.185  33.020  1.00  0.00    -0.248 NA
ATOM     56  C   UNL A   1      40.612  32.627  31.189  1.00  0.00     0.031 C 
ATOM     57  C   UNL A   1      44.965  29.010  32.010  1.00  0.00     0.029 A 
ATOM     58  C   UNL A   1      44.115  30.115  32.082  1.00  0.00     0.049 A 
ATOM     59  H   UNL A   1      44.533  31.955  31.149  1.00  0.00     0.167 HD
ATOM     60  C   UNL A   1      41.966  31.294  32.523  1.00  0.00     0.074 A 
ATOM     61  C   UNL A   1      41.874  32.266  31.437  1.00  0.00     0.031 C 
ATOM     62  C   UNL A   1      42.922  30.377  32.854  1.00  0.00     0.037 A 
BRANCH  49  63
ATOM     63  C   UNL A   1      45.212  31.973  28.226  1.00  0.00     0.057 A 
ATOM     64  C   UNL A   1      46.359  32.344  27.488  1.00  0.00     0.134 A 
ATOM     65  C   UNL A   1      44.134  32.869  28.136  1.00  0.00     0.134 A 
ATOM     66  F   UNL A   1      47.477  31.615  27.443  1.00  0.00    -0.206 F 
ATOM     67  C   UNL A   1      46.399  33.463  26.657  1.00  0.00     0.040 A 
ATOM     68  C   UNL A   1      44.152  33.971  27.273  1.00  0.00     0.040 A 
ATOM     69  F   UNL A   1      42.995  32.645  28.807  1.00  0.00    -0.206 F 
ATOM     70  C   UNL A   1      45.278  34.257  26.514  1.00  0.00     0.006 A 
ENDBRANCH  49  63
BRANCH  50  71
ATOM     71  C   UNL A   1      37.374  32.046  31.760  1.00  0.00     0.057 A 
ATOM     72  C   UNL A   1      36.574  32.089  32.914  1.00  0.00     0.134 A 
ATOM     73  C   UNL A   1      36.809  32.604  30.602  1.00  0.00     0.134 A 
ATOM     74  F   UNL A   1      36.974  31.509  34.054  1.00  0.00    -0.206 F 
ATOM     75  C   UNL A   1      35.289  32.642  32.918  1.00  0.00     0.040 A 
ATOM     76  C   UNL A   1      35.520  33.157  30.590  1.00  0.00     0.040 A 
ATOM     77  F   UNL A   1      37.470  32.565  29.435  1.00  0.00    -0.206 F 
ATOM     78  C   UNL A   1      34.752  33.168  31.750  1.00  0.00     0.006 A 
ENDBRANCH  50  71
BRANCH  62  79
ATOM     79  C   UNL A   1      42.606  29.425  33.974  1.00  0.00     0.057 A 
ATOM     80  C   UNL A   1      43.099  29.706  35.252  1.00  0.00     0.134 A 
ATOM     81  C   UNL A   1      41.933  28.204  33.807  1.00  0.00     0.134 A 
ATOM     82  F   UNL A   1      43.800  30.829  35.475  1.00  0.00    -0.206 F 
ATOM     83  C   UNL A   1      42.918  28.827  36.322  1.00  0.00     0.040 A 
ATOM     84  C   UNL A   1      41.714  27.332  34.878  1.00  0.00     0.040 A 
ATOM     85  F   UNL A   1      41.513  27.803  32.600  1.00  0.00    -0.206 F 
ATOM     86  C   UNL A   1      42.212  27.640  36.141  1.00  0.00     0.006 A 
ENDBRANCH  62  79
ENDBRANCH  36  37
ENDBRANCH  28  31
ENDBRANCH  26  27
ENDBRANCH  25  26
ENDBRANCH   1  25
TORSDOF 13
ENDMDL
MODEL 3
REMARK VINA RESULT:     -11.4      5.062      9.860
REMARK SMILES O=C(CCC(=O)N1CCc2[nH]c3ccc(F)cc3c2C1)NCCCNC(=O)c1ccc(-c2c3nc(c(-c4c(F)cccc4F)c4ccc([nH]4)c(-c4c(F)cccc4F)c4nc(c(-c5c(F)cccc5F)c5ccc2[nH]5)C=C4)C=C3)cc1
REMARK SMILES IDX 22 1 21 2 1 3 2 4 3 6 4 7 5 8 6 9 7 10 8 11 20 12 9 13 19 14
REMARK SMILES IDX 10 15 18 16 11 17 12 18 17 19 13 21 15 22 14 23 16 24 23 25
REMARK SMILES IDX 24 26 25 27 26 28 27 30 28 31 29 32 81 33 30 34 80 35 31 36
REMARK SMILES IDX 32 37 33 38 74 39 34 40 79 41 73 42 75 43 35 44 78 45 72 46
REMARK SMILES IDX 71 47 36 49 62 50 45 51 61 52 46 53 49 54 60 55 76 56 47 57
REMARK SMILES IDX 48 58 59 60 77 61 50 62 37 63 38 64 43 65 39 66 40 67 42 68
REMARK SMILES IDX 44 69 41 70 63 71 64 72 69 73 65 74 66 75 68 76 70 77 67 78
REMARK SMILES IDX 51 79 52 80 57 81 53 82 54 83 56 84 58 85 55 86
REMARK H PARENT 21 5 11 20 25 29 75 48 49 59
REMARK Flexibility Score: inf
ROOT
ATOM      1  C   UNL A   1      36.807  21.767  24.957  1.00  0.00     0.117 C 
ENDROOT
BRANCH   1   2
ATOM      2  N   UNL A   1      36.082  23.023  25.087  1.00  0.00    -0.356 N 
ATOM      3  O   UNL A   1      35.679  23.229  22.840  1.00  0.00    -0.275 OA
ATOM      4  C   UNL A   1      35.511  23.638  23.994  1.00  0.00     0.220 C 
ATOM      5  H   UNL A   1      35.997  23.440  25.974  1.00  0.00     0.163 HD
BRANCH   4   6
ATOM      6  C   UNL A   1      34.617  24.829  24.313  1.00  0.00     0.110 C 
BRANCH   6   7
ATOM      7  C   UNL A   1      34.081  24.836  25.754  1.00  0.00     0.110 C 
BRANCH   7   8
ATOM      8  C   UNL A   1      32.552  24.700  25.923  1.00  0.00     0.223 C 
ATOM      9  O   UNL A   1      31.888  25.676  26.272  1.00  0.00    -0.275 OA
BRANCH   8  10
ATOM     10  N   UNL A   1      31.968  23.472  25.631  1.00  0.00    -0.338 N 
ATOM     11  C   UNL A   1      31.021  23.364  24.525  1.00  0.00     0.126 C 
ATOM     12  C   UNL A   1      32.568  22.161  26.097  1.00  0.00     0.157 C 
ATOM     13  C   UNL A   1      31.844  22.929  23.315  1.00  0.00     0.075 C 
ATOM     14  C   UNL A   1      32.622  21.165  24.943  1.00  0.00     0.000 A 
ATOM     15  C   UNL A   1      32.326  21.583  23.661  1.00  0.00     0.023 A 
ATOM     16  C   UNL A   1      32.734  19.723  24.856  1.00  0.00     0.008 A 
ATOM     17  N   UNL A   1      32.238  20.519  22.846  1.00  0.00    -0.358 N 
ATOM     18  C   UNL A   1      32.534  19.373  23.515  1.00  0.00     0.046 A 
ATOM     19  C   UNL A   1      32.903  18.647  25.750  1.00  0.00     0.050 A 
ATOM     20  H   UNL A   1      31.993  20.563  21.894  1.00  0.00     0.166 HD
ATOM     21  C   UNL A   1      32.527  18.075  22.998  1.00  0.00     0.030 A 
ATOM     22  C   UNL A   1      32.890  17.332  25.247  1.00  0.00     0.123 A 
ATOM     23  C   UNL A   1      32.722  17.043  23.898  1.00  0.00     0.041 A 
ATOM     24  F   UNL A   1      33.022  16.307  26.100  1.00  0.00    -0.207 F 
ENDBRANCH   8  10
ENDBRANCH   7   8
ENDBRANCH   6   7
ENDBRANCH   4   6
ENDBRANCH   1   2
BRANCH   1  25
ATOM     25  C   UNL A   1      38.227  21.798  25.537  1.00  0.00     0.042 C 
BRANCH  25  26
ATOM     26  C   UNL A   1      38.622  23.096  26.245  1.00  0.00     0.118 C 
BRANCH  26  27
ATOM     27  N   UNL A   1      39.627  22.829  27.247  1.00  0.00    -0.352 N 
ATOM     28  C   UNL A   1      40.821  23.403  27.546  1.00  0.00     0.251 C 
ATOM     29  H   UNL A   1      39.400  22.074  27.836  1.00  0.00     0.163 HD
ATOM     30  O   UNL A   1      41.304  23.078  28.635  1.00  0.00    -0.269 OA
BRANCH  28  31
ATOM     31  C   UNL A   1      41.585  24.293  26.609  1.00  0.00     0.039 A 
ATOM     32  C   UNL A   1      42.616  24.829  27.363  1.00  0.00     0.014 A 
ATOM     33  C   UNL A   1      40.685  25.207  26.019  1.00  0.00     0.014 A 
ATOM     34  C   UNL A   1      42.280  25.914  28.139  1.00  0.00     0.010 A 
ATOM     35  C   UNL A   1      40.375  26.376  26.707  1.00  0.00     0.010 A 
ATOM     36  C   UNL A   1      41.113  26.658  27.851  1.00  0.00    -0.014 A 
BRANCH  36  37
ATOM     37  C   UNL A   1      41.006  27.918  28.570  1.00  0.00     0.031 A 
ATOM     38  C   UNL A   1      42.198  28.742  28.248  1.00  0.00     0.074 A 
ATOM     39  C   UNL A   1      40.025  28.348  29.380  1.00  0.00     0.049 A 
ATOM     40  N   UNL A   1      43.207  28.974  29.021  1.00  0.00    -0.248 NA
ATOM     41  C   UNL A   1      42.439  29.034  26.822  1.00  0.00     0.031 C 
ATOM     42  C   UNL A   1      38.690  27.802  29.604  1.00  0.00     0.029 A 
ATOM     43  N   UNL A   1      40.035  29.467  30.159  1.00  0.00    -0.354 N 
ATOM     44  C   UNL A   1      44.145  29.600  28.213  1.00  0.00     0.074 A 
ATOM     45  C   UNL A   1      43.717  29.408  26.855  1.00  0.00     0.031 C 
ATOM     46  C   UNL A   1      37.948  28.715  30.281  1.00  0.00     0.029 A 
ATOM     47  C   UNL A   1      38.792  29.842  30.649  1.00  0.00     0.049 A 
ATOM     48  H   UNL A   1      40.858  29.969  30.360  1.00  0.00     0.167 HD
ATOM     49  C   UNL A   1      45.036  30.471  28.746  1.00  0.00     0.037 A 
ATOM     50  C   UNL A   1      38.498  31.031  31.237  1.00  0.00     0.037 A 
ATOM     51  C   UNL A   1      45.230  30.211  30.154  1.00  0.00     0.049 A 
ATOM     52  C   UNL A   1      39.778  31.641  31.687  1.00  0.00     0.074 A 
ATOM     53  C   UNL A   1      45.713  29.147  30.892  1.00  0.00     0.029 A 
ATOM     54  N   UNL A   1      44.537  30.998  31.040  1.00  0.00    -0.354 N 
ATOM     55  N   UNL A   1      40.493  31.181  32.674  1.00  0.00    -0.248 NA
ATOM     56  C   UNL A   1      40.493  32.492  30.746  1.00  0.00     0.031 C 
ATOM     57  C   UNL A   1      44.913  29.116  32.074  1.00  0.00     0.029 A 
ATOM     58  C   UNL A   1      44.022  30.188  32.018  1.00  0.00     0.049 A 
ATOM     59  H   UNL A   1      44.430  31.975  30.984  1.00  0.00     0.167 HD
ATOM     60  C   UNL A   1      41.809  31.307  32.247  1.00  0.00     0.074 A 
ATOM     61  C   UNL A   1      41.749  32.199  31.092  1.00  0.00     0.031 C 
ATOM     62  C   UNL A   1      42.775  30.454  32.698  1.00  0.00     0.037 A 
BRANCH  49  63
ATOM     63  C   UNL A   1      45.286  31.821  28.112  1.00  0.00     0.057 A 
ATOM     64  C   UNL A   1      46.456  32.182  27.404  1.00  0.00     0.134 A 
ATOM     65  C   UNL A   1      44.187  32.673  27.912  1.00  0.00     0.134 A 
ATOM     66  F   UNL A   1      47.597  31.489  27.460  1.00  0.00    -0.206 F 
ATOM     67  C   UNL A   1      46.502  33.244  26.502  1.00  0.00     0.040 A 
ATOM     68  C   UNL A   1      44.213  33.715  26.979  1.00  0.00     0.040 A 
ATOM     69  F   UNL A   1      43.025  32.455  28.544  1.00  0.00    -0.206 F 
ATOM     70  C   UNL A   1      45.365  33.989  26.255  1.00  0.00     0.006 A 
ENDBRANCH  49  63
BRANCH  50  71
ATOM     71  C   UNL A   1      37.248  31.822  31.164  1.00  0.00     0.057 A 
ATOM     72  C   UNL A   1      36.360  31.881  32.251  1.00  0.00     0.134 A 
ATOM     73  C   UNL A   1      36.755  32.307  29.942  1.00  0.00     0.134 A 
ATOM     74  F   UNL A   1      36.691  31.366  33.443  1.00  0.00    -0.206 F 
ATOM     75  C   UNL A   1      35.059  32.383  32.131  1.00  0.00     0.040 A 
ATOM     76  C   UNL A   1      35.452  32.807  29.807  1.00  0.00     0.040 A 
ATOM     77  F   UNL A   1      37.506  32.245  28.832  1.00  0.00    -0.206 F 
ATOM     78  C   UNL A   1      34.596  32.838  30.904  1.00  0.00     0.006 A 
ENDBRANCH  50  71
BRANCH  62  79
ATOM     79  C   UNL A   1      42.424  29.568  33.862  1.00  0.00     0.057 A 
ATOM     80  C   UNL A   1      42.850  29.941  35.140  1.00  0.00     0.134 A 
ATOM     81  C   UNL A   1      41.784  28.325  33.743  1.00  0.00     0.134 A 
ATOM     82  F   UNL A   1      43.518  31.092  35.321  1.00  0.00    -0.206 F 
ATOM     83  C   UNL A   1      42.637  29.129  36.255  1.00  0.00     0.040 A 
ATOM     84  C   UNL A   1      41.532  27.518  34.858  1.00  0.00     0.040 A 
ATOM     85  F   UNL A   1      41.429  27.838  32.546  1.00  0.00    -0.206 F 
ATOM     86  C   UNL A   1      41.963  27.917  36.119  1.00  0.00     0.006 A 
ENDBRANCH  62  79
ENDBRANCH  36  37
ENDBRANCH  28  31
ENDBRANCH  26  27
ENDBRANCH  25  26
ENDBRANCH   1  25
TORSDOF 13
ENDMDL
