MODEL 1
REMARK VINA RESULT:     -11.0      0.000      0.000
REMARK SMILES C[C@H]1[C@@H](C(=O)NCCCNC(=O)c2ccc(-c3c4nc(c(-c5c(F)cccc5F)c5ccc([nH]5)c(-c5c(F)cccc5F)c5nc(c(-c6c(F)cccc6F)c6ccc3[nH]6)C=C5)C=C4)cc2)CCN1C(=O)NCC(C1CC1)C1CC1
REMARK SMILES IDX 7 1 6 2 4 3 5 4 3 6 1 7 2 8 69 9 67 10 68 11 70 12 71 13
REMARK SMILES IDX 72 14 73 16 74 17 75 18 76 19 77 20 78 21 79 22 80 23 8 24
REMARK SMILES IDX 9 25 10 26 11 27 12 29 13 30 14 31 66 32 15 33 65 34 16 35
REMARK SMILES IDX 17 36 18 37 59 38 19 39 64 40 58 41 60 42 20 43 63 44 57 45
REMARK SMILES IDX 56 46 21 48 47 49 30 50 46 51 31 52 34 53 45 54 61 55 32 56
REMARK SMILES IDX 33 57 44 59 62 60 35 61 22 62 23 63 28 64 24 65 25 66 27 67
REMARK SMILES IDX 29 68 26 69 48 70 49 71 54 72 50 73 51 74 53 75 55 76 52 77
REMARK SMILES IDX 36 78 37 79 42 80 38 81 39 82 41 83 43 84 40 85
REMARK H PARENT 6 5 72 15 10 28 60 47 34 58
REMARK Flexibility Score: inf
ROOT
ATOM      1  C   UNL A   1      37.050  20.667  24.999  1.00  0.00     0.117 C 
ENDROOT
BRANCH   1   2
ATOM      2  N   UNL A   1      35.938  19.727  24.946  1.00  0.00    -0.356 N 
ATOM      3  C   UNL A   1      34.586  19.902  24.898  1.00  0.00     0.225 C 
ATOM      4  O   UNL A   1      33.898  18.881  24.927  1.00  0.00    -0.275 OA
ATOM      5  H   UNL A   1      36.216  18.782  24.945  1.00  0.00     0.163 HD
BRANCH   3   6
ATOM      6  C   UNL A   1      33.967  21.284  24.723  1.00  0.00     0.102 C 
ATOM      7  C   UNL A   1      33.999  21.574  27.330  1.00  0.00     0.032 C 
ATOM      8  C   UNL A   1      33.905  22.214  25.945  1.00  0.00     0.096 C 
ATOM      9  N   UNL A   1      32.630  22.906  25.860  1.00  0.00    -0.321 N 
ATOM     10  C   UNL A   1      32.527  21.272  24.170  1.00  0.00     0.037 C 
ATOM     11  C   UNL A   1      31.688  22.040  25.178  1.00  0.00     0.122 C 
BRANCH   9  12
ATOM     12  C   UNL A   1      32.187  24.025  26.499  1.00  0.00     0.317 C 
ATOM     13  O   UNL A   1      31.262  23.971  27.317  1.00  0.00    -0.249 OA
ATOM     14  N   UNL A   1      32.729  25.246  26.311  1.00  0.00    -0.338 N 
ATOM     15  H   UNL A   1      32.278  25.930  26.857  1.00  0.00     0.165 HD
BRANCH  14  16
ATOM     16  C   UNL A   1      33.808  25.825  25.511  1.00  0.00     0.121 C 
BRANCH  16  17
ATOM     17  C   UNL A   1      33.291  26.599  24.280  1.00  0.00     0.014 C 
BRANCH  17  18
ATOM     18  C   UNL A   1      33.927  27.967  24.094  1.00  0.00    -0.006 C 
ATOM     19  C   UNL A   1      33.621  28.939  22.977  1.00  0.00     0.004 C 
ATOM     20  C   UNL A   1      33.126  29.219  24.369  1.00  0.00     0.004 C 
ENDBRANCH  17  18
BRANCH  17  21
ATOM     21  C   UNL A   1      33.378  25.841  22.956  1.00  0.00    -0.006 C 
ATOM     22  C   UNL A   1      33.943  24.445  22.835  1.00  0.00     0.004 C 
ATOM     23  C   UNL A   1      32.474  24.684  22.599  1.00  0.00     0.004 C 
ENDBRANCH  17  21
ENDBRANCH  16  17
ENDBRANCH  14  16
ENDBRANCH   9  12
ENDBRANCH   3   6
ENDBRANCH   1   2
BRANCH   1  24
ATOM     24  C   UNL A   1      38.395  19.967  24.769  1.00  0.00     0.042 C 
BRANCH  24  25
ATOM     25  C   UNL A   1      38.991  19.304  26.007  1.00  0.00     0.118 C 
BRANCH  25  26
ATOM     26  N   UNL A   1      40.355  18.861  25.787  1.00  0.00    -0.352 N 
ATOM     27  C   UNL A   1      41.558  19.509  25.898  1.00  0.00     0.251 C 
ATOM     28  H   UNL A   1      40.431  17.920  25.508  1.00  0.00     0.163 HD
ATOM     29  O   UNL A   1      42.556  18.941  25.437  1.00  0.00    -0.269 OA
BRANCH  27  30
ATOM     30  C   UNL A   1      41.727  20.849  26.524  1.00  0.00     0.039 A 
ATOM     31  C   UNL A   1      42.007  21.933  25.681  1.00  0.00     0.014 A 
ATOM     32  C   UNL A   1      41.733  21.062  27.904  1.00  0.00     0.014 A 
ATOM     33  C   UNL A   1      42.270  23.205  26.207  1.00  0.00     0.010 A 
ATOM     34  C   UNL A   1      41.903  22.350  28.427  1.00  0.00     0.010 A 
ATOM     35  C   UNL A   1      42.204  23.434  27.589  1.00  0.00    -0.014 A 
BRANCH  35  36
ATOM     36  C   UNL A   1      42.505  24.777  28.160  1.00  0.00     0.031 A 
ATOM     37  C   UNL A   1      43.908  25.135  28.588  1.00  0.00     0.074 A 
ATOM     38  C   UNL A   1      41.518  25.681  28.322  1.00  0.00     0.049 A 
ATOM     39  N   UNL A   1      44.354  26.241  29.131  1.00  0.00    -0.248 NA
ATOM     40  C   UNL A   1      44.941  24.105  28.401  1.00  0.00     0.031 C 
ATOM     41  C   UNL A   1      40.108  25.460  27.997  1.00  0.00     0.029 A 
ATOM     42  N   UNL A   1      41.549  26.968  28.803  1.00  0.00    -0.354 N 
ATOM     43  C   UNL A   1      45.707  26.032  29.369  1.00  0.00     0.074 A 
ATOM     44  C   UNL A   1      46.000  24.676  28.958  1.00  0.00     0.031 C 
ATOM     45  C   UNL A   1      39.416  26.580  28.264  1.00  0.00     0.029 A 
ATOM     46  C   UNL A   1      40.323  27.587  28.806  1.00  0.00     0.049 A 
ATOM     47  H   UNL A   1      42.375  27.404  29.117  1.00  0.00     0.167 HD
ATOM     48  C   UNL A   1      46.632  26.893  29.859  1.00  0.00     0.037 A 
ATOM     49  C   UNL A   1      39.967  28.824  29.199  1.00  0.00     0.037 A 
ATOM     50  C   UNL A   1      46.359  28.255  30.236  1.00  0.00     0.049 A 
ATOM     51  C   UNL A   1      41.013  29.771  29.717  1.00  0.00     0.074 A 
ATOM     52  C   UNL A   1      47.244  29.219  30.690  1.00  0.00     0.029 A 
ATOM     53  N   UNL A   1      45.108  28.850  30.198  1.00  0.00    -0.354 N 
ATOM     54  N   UNL A   1      42.298  29.573  29.882  1.00  0.00    -0.248 NA
ATOM     55  C   UNL A   1      40.559  31.118  30.094  1.00  0.00     0.031 C 
ATOM     56  C   UNL A   1      46.522  30.388  30.956  1.00  0.00     0.029 A 
ATOM     57  C   UNL A   1      45.194  30.162  30.632  1.00  0.00     0.049 A 
ATOM     58  H   UNL A   1      44.280  28.404  29.906  1.00  0.00     0.167 HD
ATOM     59  C   UNL A   1      42.809  30.772  30.363  1.00  0.00     0.074 A 
ATOM     60  C   UNL A   1      41.699  31.698  30.444  1.00  0.00     0.031 C 
ATOM     61  C   UNL A   1      44.084  31.075  30.709  1.00  0.00     0.037 A 
BRANCH  48  62
ATOM     62  C   UNL A   1      48.038  26.384  30.006  1.00  0.00     0.057 A 
ATOM     63  C   UNL A   1      48.489  25.800  31.197  1.00  0.00     0.134 A 
ATOM     64  C   UNL A   1      48.942  26.452  28.939  1.00  0.00     0.134 A 
ATOM     65  F   UNL A   1      47.677  25.713  32.261  1.00  0.00    -0.206 F 
ATOM     66  C   UNL A   1      49.797  25.330  31.332  1.00  0.00     0.040 A 
ATOM     67  C   UNL A   1      50.244  25.962  29.052  1.00  0.00     0.040 A 
ATOM     68  F   UNL A   1      48.573  26.992  27.767  1.00  0.00    -0.206 F 
ATOM     69  C   UNL A   1      50.677  25.406  30.254  1.00  0.00     0.006 A 
ENDBRANCH  48  62
BRANCH  49  70
ATOM     70  C   UNL A   1      38.549  29.252  29.092  1.00  0.00     0.057 A 
ATOM     71  C   UNL A   1      38.016  29.691  27.875  1.00  0.00     0.134 A 
ATOM     72  C   UNL A   1      37.696  29.232  30.202  1.00  0.00     0.134 A 
ATOM     73  F   UNL A   1      38.792  29.752  26.782  1.00  0.00    -0.206 F 
ATOM     74  C   UNL A   1      36.690  30.110  27.766  1.00  0.00     0.040 A 
ATOM     75  C   UNL A   1      36.360  29.626  30.102  1.00  0.00     0.040 A 
ATOM     76  F   UNL A   1      38.146  28.816  31.395  1.00  0.00    -0.206 F 
ATOM     77  C   UNL A   1      35.856  30.072  28.882  1.00  0.00     0.006 A 
ENDBRANCH  49  70
BRANCH  61  78
ATOM     78  C   UNL A   1      44.348  32.473  31.186  1.00  0.00     0.057 A 
ATOM     79  C   UNL A   1      44.669  33.507  30.296  1.00  0.00     0.134 A 
ATOM     80  C   UNL A   1      44.255  32.794  32.546  1.00  0.00     0.134 A 
ATOM     81  F   UNL A   1      44.787  33.261  28.982  1.00  0.00    -0.206 F 
ATOM     82  C   UNL A   1      44.914  34.805  30.746  1.00  0.00     0.040 A 
ATOM     83  C   UNL A   1      44.475  34.094  33.005  1.00  0.00     0.040 A 
ATOM     84  F   UNL A   1      43.944  31.852  33.449  1.00  0.00    -0.206 F 
ATOM     85  C   UNL A   1      44.811  35.102  32.104  1.00  0.00     0.006 A 
ENDBRANCH  61  78
ENDBRANCH  35  36
ENDBRANCH  27  30
ENDBRANCH  25  26
ENDBRANCH  24  25
ENDBRANCH   1  24
TORSDOF 15
ENDMDL
MODEL 2
REMARK VINA RESULT:     -10.9      0.620      1.573
REMARK SMILES C[C@H]1[C@@H](C(=O)NCCCNC(=O)c2ccc(-c3c4nc(c(-c5c(F)cccc5F)c5ccc([nH]5)c(-c5c(F)cccc5F)c5nc(c(-c6c(F)cccc6F)c6ccc3[nH]6)C=C5)C=C4)cc2)CCN1C(=O)NCC(C1CC1)C1CC1
REMARK SMILES IDX 7 1 6 2 4 3 5 4 3 6 1 7 2 8 69 9 67 10 68 11 70 12 71 13
REMARK SMILES IDX 72 14 73 16 74 17 75 18 76 19 77 20 78 21 79 22 80 23 8 24
REMARK SMILES IDX 9 25 10 26 11 27 12 29 13 30 14 31 66 32 15 33 65 34 16 35
REMARK SMILES IDX 17 36 18 37 59 38 19 39 64 40 58 41 60 42 20 43 63 44 57 45
REMARK SMILES IDX 56 46 21 48 47 49 30 50 46 51 31 52 34 53 45 54 61 55 32 56
REMARK SMILES IDX 33 57 44 59 62 60 35 61 22 62 23 63 28 64 24 65 25 66 27 67
REMARK SMILES IDX 29 68 26 69 48 70 49 71 54 72 50 73 51 74 53 75 55 76 52 77
REMARK SMILES IDX 36 78 37 79 42 80 38 81 39 82 41 83 43 84 40 85
REMARK H PARENT 6 5 72 15 10 28 60 47 34 58
REMARK Flexibility Score: inf
ROOT
ATOM      1  C   UNL A   1      36.889  20.406  24.945  1.00  0.00     0.117 C 
ENDROOT
BRANCH   1   2
ATOM      2  N   UNL A   1      35.717  19.540  24.886  1.00  0.00    -0.356 N 
ATOM      3  C   UNL A   1      34.379  19.803  24.845  1.00  0.00     0.225 C 
ATOM      4  O   UNL A   1      33.627  18.828  24.865  1.00  0.00    -0.275 OA
ATOM      5  H   UNL A   1      35.934  18.579  24.872  1.00  0.00     0.163 HD
BRANCH   3   6
ATOM      6  C   UNL A   1      33.851  21.224  24.690  1.00  0.00     0.102 C 
ATOM      7  C   UNL A   1      33.760  21.424  27.304  1.00  0.00     0.032 C 
ATOM      8  C   UNL A   1      33.777  22.115  25.941  1.00  0.00     0.096 C 
ATOM      9  N   UNL A   1      32.549  22.883  25.815  1.00  0.00    -0.321 N 
ATOM     10  C   UNL A   1      32.444  21.316  24.063  1.00  0.00     0.037 C 
ATOM     11  C   UNL A   1      31.597  22.097  25.055  1.00  0.00     0.122 C 
BRANCH   9  12
ATOM     12  C   UNL A   1      32.138  24.004  26.472  1.00  0.00     0.317 C 
ATOM     13  O   UNL A   1      31.158  23.980  27.224  1.00  0.00    -0.249 OA
ATOM     14  N   UNL A   1      32.770  25.191  26.372  1.00  0.00    -0.338 N 
ATOM     15  H   UNL A   1      32.328  25.882  26.916  1.00  0.00     0.165 HD
BRANCH  14  16
ATOM     16  C   UNL A   1      33.935  25.727  25.670  1.00  0.00     0.121 C 
BRANCH  16  17
ATOM     17  C   UNL A   1      33.628  27.033  24.908  1.00  0.00     0.014 C 
BRANCH  17  18
ATOM     18  C   UNL A   1      32.841  26.833  23.623  1.00  0.00    -0.006 C 
ATOM     19  C   UNL A   1      32.317  27.931  22.727  1.00  0.00     0.004 C 
ATOM     20  C   UNL A   1      33.492  27.104  22.286  1.00  0.00     0.004 C 
ENDBRANCH  17  18
BRANCH  17  21
ATOM     21  C   UNL A   1      32.937  28.117  25.734  1.00  0.00    -0.006 C 
ATOM     22  C   UNL A   1      33.276  28.402  27.179  1.00  0.00     0.004 C 
ATOM     23  C   UNL A   1      33.598  29.421  26.116  1.00  0.00     0.004 C 
ENDBRANCH  17  21
ENDBRANCH  16  17
ENDBRANCH  14  16
ENDBRANCH   9  12
ENDBRANCH   3   6
ENDBRANCH   1   2
BRANCH   1  24
ATOM     24  C   UNL A   1      38.192  19.601  24.874  1.00  0.00     0.042 C 
BRANCH  24  25
ATOM     25  C   UNL A   1      39.141  19.816  26.048  1.00  0.00     0.118 C 
BRANCH  25  26
ATOM     26  N   UNL A   1      40.418  19.157  25.847  1.00  0.00    -0.352 N 
ATOM     27  C   UNL A   1      41.708  19.620  25.898  1.00  0.00     0.251 C 
ATOM     28  H   UNL A   1      40.345  18.198  25.635  1.00  0.00     0.163 HD
ATOM     29  O   UNL A   1      42.598  18.877  25.468  1.00  0.00    -0.269 OA
BRANCH  27  30
ATOM     30  C   UNL A   1      42.089  20.959  26.424  1.00  0.00     0.039 A 
ATOM     31  C   UNL A   1      42.029  21.158  27.811  1.00  0.00     0.014 A 
ATOM     32  C   UNL A   1      42.392  22.053  25.610  1.00  0.00     0.014 A 
ATOM     33  C   UNL A   1      42.283  22.417  28.370  1.00  0.00     0.010 A 
ATOM     34  C   UNL A   1      42.738  23.288  26.172  1.00  0.00     0.010 A 
ATOM     35  C   UNL A   1      42.658  23.496  27.557  1.00  0.00    -0.014 A 
BRANCH  35  36
ATOM     36  C   UNL A   1      42.909  24.846  28.139  1.00  0.00     0.031 A 
ATOM     37  C   UNL A   1      44.298  25.253  28.567  1.00  0.00     0.074 A 
ATOM     38  C   UNL A   1      41.888  25.710  28.309  1.00  0.00     0.049 A 
ATOM     39  N   UNL A   1      44.703  26.371  29.118  1.00  0.00    -0.248 NA
ATOM     40  C   UNL A   1      45.369  24.265  28.370  1.00  0.00     0.031 C 
ATOM     41  C   UNL A   1      40.487  25.439  27.985  1.00  0.00     0.029 A 
ATOM     42  N   UNL A   1      41.872  26.993  28.801  1.00  0.00    -0.354 N 
ATOM     43  C   UNL A   1      46.063  26.212  29.351  1.00  0.00     0.074 A 
ATOM     44  C   UNL A   1      46.407  24.871  28.929  1.00  0.00     0.031 C 
ATOM     45  C   UNL A   1      39.753  26.529  28.263  1.00  0.00     0.029 A 
ATOM     46  C   UNL A   1      40.623  27.565  28.811  1.00  0.00     0.049 A 
ATOM     47  H   UNL A   1      42.681  27.459  29.116  1.00  0.00     0.167 HD
ATOM     48  C   UNL A   1      46.956  27.104  29.846  1.00  0.00     0.037 A 
ATOM     49  C   UNL A   1      40.221  28.785  29.214  1.00  0.00     0.037 A 
ATOM     50  C   UNL A   1      46.632  28.452  30.235  1.00  0.00     0.049 A 
ATOM     51  C   UNL A   1      41.231  29.767  29.737  1.00  0.00     0.074 A 
ATOM     52  C   UNL A   1      47.481  29.445  30.694  1.00  0.00     0.029 A 
ATOM     53  N   UNL A   1      45.359  28.998  30.204  1.00  0.00    -0.354 N 
ATOM     54  N   UNL A   1      42.523  29.617  29.898  1.00  0.00    -0.248 NA
ATOM     55  C   UNL A   1      40.727  31.093  30.126  1.00  0.00     0.031 C 
ATOM     56  C   UNL A   1      46.716  30.584  30.971  1.00  0.00     0.029 A 
ATOM     57  C   UNL A   1      45.397  30.310  30.647  1.00  0.00     0.049 A 
ATOM     58  H   UNL A   1      44.549  28.524  29.909  1.00  0.00     0.167 HD
ATOM     59  C   UNL A   1      42.989  30.830  30.388  1.00  0.00     0.074 A 
ATOM     60  C   UNL A   1      41.846  31.713  30.478  1.00  0.00     0.031 C 
ATOM     61  C   UNL A   1      44.252  31.179  30.734  1.00  0.00     0.037 A 
BRANCH  48  62
ATOM     62  C   UNL A   1      48.381  26.648  29.987  1.00  0.00     0.057 A 
ATOM     63  C   UNL A   1      48.827  25.966  31.127  1.00  0.00     0.134 A 
ATOM     64  C   UNL A   1      49.310  26.867  28.962  1.00  0.00     0.134 A 
ATOM     65  F   UNL A   1      47.991  25.733  32.149  1.00  0.00    -0.206 F 
ATOM     66  C   UNL A   1      50.152  25.544  31.255  1.00  0.00     0.040 A 
ATOM     67  C   UNL A   1      50.630  26.428  29.067  1.00  0.00     0.040 A 
ATOM     68  F   UNL A   1      48.947  27.507  27.840  1.00  0.00    -0.206 F 
ATOM     69  C   UNL A   1      51.056  25.772  30.220  1.00  0.00     0.006 A 
ENDBRANCH  48  62
BRANCH  49  70
ATOM     70  C   UNL A   1      38.788  29.160  29.113  1.00  0.00     0.057 A 
ATOM     71  C   UNL A   1      37.945  29.097  30.228  1.00  0.00     0.134 A 
ATOM     72  C   UNL A   1      38.229  29.590  27.904  1.00  0.00     0.134 A 
ATOM     73  F   UNL A   1      38.419  28.672  31.409  1.00  0.00    -0.206 F 
ATOM     74  C   UNL A   1      36.593  29.434  30.143  1.00  0.00     0.040 A 
ATOM     75  C   UNL A   1      36.884  29.953  27.810  1.00  0.00     0.040 A 
ATOM     76  F   UNL A   1      38.988  29.679  26.801  1.00  0.00    -0.206 F 
ATOM     77  C   UNL A   1      36.061  29.869  28.931  1.00  0.00     0.006 A 
ENDBRANCH  49  70
BRANCH  61  78
ATOM     78  C   UNL A   1      44.465  32.582  31.221  1.00  0.00     0.057 A 
ATOM     79  C   UNL A   1      44.751  33.633  30.340  1.00  0.00     0.134 A 
ATOM     80  C   UNL A   1      44.356  32.890  32.583  1.00  0.00     0.134 A 
ATOM     81  F   UNL A   1      44.882  33.401  29.025  1.00  0.00    -0.206 F 
ATOM     82  C   UNL A   1      44.947  34.936  30.800  1.00  0.00     0.040 A 
ATOM     83  C   UNL A   1      44.526  34.194  33.052  1.00  0.00     0.040 A 
ATOM     84  F   UNL A   1      44.075  31.931  33.478  1.00  0.00    -0.206 F 
ATOM     85  C   UNL A   1      44.829  35.220  32.159  1.00  0.00     0.006 A 
ENDBRANCH  61  78
ENDBRANCH  35  36
ENDBRANCH  27  30
ENDBRANCH  25  26
ENDBRANCH  24  25
ENDBRANCH   1  24
TORSDOF 15
ENDMDL
MODEL 3
REMARK VINA RESULT:     -10.6      1.392      6.406
REMARK SMILES C[C@H]1[C@@H](C(=O)NCCCNC(=O)c2ccc(-c3c4nc(c(-c5c(F)cccc5F)c5ccc([nH]5)c(-c5c(F)cccc5F)c5nc(c(-c6c(F)cccc6F)c6ccc3[nH]6)C=C5)C=C4)cc2)CCN1C(=O)NCC(C1CC1)C1CC1
REMARK SMILES IDX 7 1 6 2 4 3 5 4 3 6 1 7 2 8 69 9 67 10 68 11 70 12 71 13
REMARK SMILES IDX 72 14 73 16 74 17 75 18 76 19 77 20 78 21 79 22 80 23 8 24
REMARK SMILES IDX 9 25 10 26 11 27 12 29 13 30 14 31 66 32 15 33 65 34 16 35
REMARK SMILES IDX 17 36 18 37 59 38 19 39 64 40 58 41 60 42 20 43 63 44 57 45
REMARK SMILES IDX 56 46 21 48 47 49 30 50 46 51 31 52 34 53 45 54 61 55 32 56
REMARK SMILES IDX 33 57 44 59 62 60 35 61 22 62 23 63 28 64 24 65 25 66 27 67
REMARK SMILES IDX 29 68 26 69 48 70 49 71 54 72 50 73 51 74 53 75 55 76 52 77
REMARK SMILES IDX 36 78 37 79 42 80 38 81 39 82 41 83 43 84 40 85
REMARK H PARENT 6 5 72 15 10 28 60 47 34 58
REMARK Flexibility Score: inf
ROOT
ATOM      1  C   UNL A   1      37.153  21.201  24.561  1.00  0.00     0.117 C 
ENDROOT
BRANCH   1   2
ATOM      2  N   UNL A   1      35.897  21.007  25.274  1.00  0.00    -0.356 N 
ATOM      3  C   UNL A   1      34.647  21.522  25.093  1.00  0.00     0.225 C 
ATOM      4  O   UNL A   1      33.795  21.202  25.924  1.00  0.00    -0.275 OA
ATOM      5  H   UNL A   1      35.964  20.383  26.034  1.00  0.00     0.163 HD
BRANCH   3   6
ATOM      6  C   UNL A   1      34.304  22.371  23.876  1.00  0.00     0.102 C 
ATOM      7  C   UNL A   1      34.783  24.520  25.301  1.00  0.00     0.032 C 
ATOM      8  C   UNL A   1      34.616  23.876  23.926  1.00  0.00     0.096 C 
ATOM      9  N   UNL A   1      33.510  24.538  23.254  1.00  0.00    -0.321 N 
ATOM     10  C   UNL A   1      32.825  22.295  23.441  1.00  0.00     0.037 C 
ATOM     11  C   UNL A   1      32.321  23.729  23.431  1.00  0.00     0.122 C 
BRANCH   9  12
ATOM     12  C   UNL A   1      33.405  25.806  22.765  1.00  0.00     0.317 C 
ATOM     13  O   UNL A   1      33.836  26.097  21.645  1.00  0.00    -0.249 OA
ATOM     14  N   UNL A   1      32.815  26.812  23.443  1.00  0.00    -0.338 N 
ATOM     15  H   UNL A   1      32.835  27.653  22.933  1.00  0.00     0.165 HD
BRANCH  14  16
ATOM     16  C   UNL A   1      32.153  26.986  24.736  1.00  0.00     0.121 C 
BRANCH  16  17
ATOM     17  C   UNL A   1      31.494  28.373  24.889  1.00  0.00     0.014 C 
BRANCH  17  18
ATOM     18  C   UNL A   1      32.334  29.380  25.658  1.00  0.00    -0.006 C 
ATOM     19  C   UNL A   1      31.811  30.605  26.372  1.00  0.00     0.004 C 
ATOM     20  C   UNL A   1      32.278  29.418  27.168  1.00  0.00     0.004 C 
ENDBRANCH  17  18
BRANCH  17  21
ATOM     21  C   UNL A   1      31.038  29.020  23.582  1.00  0.00    -0.006 C 
ATOM     22  C   UNL A   1      29.876  28.509  22.763  1.00  0.00     0.004 C 
ATOM     23  C   UNL A   1      29.777  29.844  23.456  1.00  0.00     0.004 C 
ENDBRANCH  17  21
ENDBRANCH  16  17
ENDBRANCH  14  16
ENDBRANCH   9  12
ENDBRANCH   3   6
ENDBRANCH   1   2
BRANCH   1  24
ATOM     24  C   UNL A   1      38.101  20.009  24.748  1.00  0.00     0.042 C 
BRANCH  24  25
ATOM     25  C   UNL A   1      38.931  20.046  26.027  1.00  0.00     0.118 C 
BRANCH  25  26
ATOM     26  N   UNL A   1      40.164  19.291  25.900  1.00  0.00    -0.352 N 
ATOM     27  C   UNL A   1      41.481  19.661  25.996  1.00  0.00     0.251 C 
ATOM     28  H   UNL A   1      40.029  18.334  25.712  1.00  0.00     0.163 HD
ATOM     29  O   UNL A   1      42.331  18.843  25.626  1.00  0.00    -0.269 OA
BRANCH  27  30
ATOM     30  C   UNL A   1      41.937  20.984  26.501  1.00  0.00     0.039 A 
ATOM     31  C   UNL A   1      41.907  21.200  27.887  1.00  0.00     0.014 A 
ATOM     32  C   UNL A   1      42.283  22.053  25.671  1.00  0.00     0.014 A 
ATOM     33  C   UNL A   1      42.234  22.450  28.427  1.00  0.00     0.010 A 
ATOM     34  C   UNL A   1      42.699  23.275  26.214  1.00  0.00     0.010 A 
ATOM     35  C   UNL A   1      42.651  23.501  27.597  1.00  0.00    -0.014 A 
BRANCH  35  36
ATOM     36  C   UNL A   1      42.978  24.842  28.160  1.00  0.00     0.031 A 
ATOM     37  C   UNL A   1      41.894  25.870  28.378  1.00  0.00     0.074 A 
ATOM     38  C   UNL A   1      44.253  25.158  28.461  1.00  0.00     0.049 A 
ATOM     39  N   UNL A   1      41.991  27.097  28.829  1.00  0.00    -0.248 NA
ATOM     40  C   UNL A   1      40.523  25.475  28.019  1.00  0.00     0.031 C 
ATOM     41  C   UNL A   1      45.411  24.284  28.262  1.00  0.00     0.029 A 
ATOM     42  N   UNL A   1      44.792  26.303  28.996  1.00  0.00    -0.354 N 
ATOM     43  C   UNL A   1      40.705  27.622  28.788  1.00  0.00     0.074 A 
ATOM     44  C   UNL A   1      39.852  26.600  28.221  1.00  0.00     0.031 C 
ATOM     45  C   UNL A   1      46.516  24.914  28.692  1.00  0.00     0.029 A 
ATOM     46  C   UNL A   1      46.153  26.246  29.169  1.00  0.00     0.049 A 
ATOM     47  H   UNL A   1      44.251  27.092  29.233  1.00  0.00     0.167 HD
ATOM     48  C   UNL A   1      40.263  28.833  29.207  1.00  0.00     0.037 A 
ATOM     49  C   UNL A   1      47.015  27.158  29.656  1.00  0.00     0.037 A 
ATOM     50  C   UNL A   1      41.096  29.843  29.807  1.00  0.00     0.049 A 
ATOM     51  C   UNL A   1      46.499  28.486  30.137  1.00  0.00     0.074 A 
ATOM     52  C   UNL A   1      40.727  31.078  30.313  1.00  0.00     0.029 A 
ATOM     53  N   UNL A   1      42.466  29.732  29.987  1.00  0.00    -0.354 N 
ATOM     54  N   UNL A   1      45.271  28.943  30.142  1.00  0.00    -0.248 NA
ATOM     55  C   UNL A   1      47.491  29.421  30.691  1.00  0.00     0.031 C 
ATOM     56  C   UNL A   1      41.878  31.727  30.771  1.00  0.00     0.029 A 
ATOM     57  C   UNL A   1      42.958  30.880  30.584  1.00  0.00     0.049 A 
ATOM     58  H   UNL A   1      43.007  28.952  29.728  1.00  0.00     0.167 HD
ATOM     59  C   UNL A   1      45.338  30.208  30.713  1.00  0.00     0.074 A 
ATOM     60  C   UNL A   1      46.724  30.437  31.061  1.00  0.00     0.031 C 
ATOM     61  C   UNL A   1      44.340  31.099  30.926  1.00  0.00     0.037 A 
BRANCH  48  62
ATOM     62  C   UNL A   1      38.800  29.129  29.038  1.00  0.00     0.057 A 
ATOM     63  C   UNL A   1      37.901  29.036  30.109  1.00  0.00     0.134 A 
ATOM     64  C   UNL A   1      38.288  29.540  27.801  1.00  0.00     0.134 A 
ATOM     65  F   UNL A   1      38.324  28.638  31.318  1.00  0.00    -0.206 F 
ATOM     66  C   UNL A   1      36.541  29.311  29.948  1.00  0.00     0.040 A 
ATOM     67  C   UNL A   1      36.936  29.843  27.633  1.00  0.00     0.040 A 
ATOM     68  F   UNL A   1      39.096  29.659  26.736  1.00  0.00    -0.206 F 
ATOM     69  C   UNL A   1      36.057  29.720  28.707  1.00  0.00     0.006 A 
ENDBRANCH  48  62
BRANCH  49  70
ATOM     70  C   UNL A   1      48.461  26.837  29.740  1.00  0.00     0.057 A 
ATOM     71  C   UNL A   1      49.335  27.160  28.696  1.00  0.00     0.134 A 
ATOM     72  C   UNL A   1      49.004  26.201  30.863  1.00  0.00     0.134 A 
ATOM     73  F   UNL A   1      48.869  27.752  27.586  1.00  0.00    -0.206 F 
ATOM     74  C   UNL A   1      50.695  26.851  28.757  1.00  0.00     0.040 A 
ATOM     75  C   UNL A   1      50.366  25.906  30.947  1.00  0.00     0.040 A 
ATOM     76  F   UNL A   1      48.219  25.870  31.899  1.00  0.00    -0.206 F 
ATOM     77  C   UNL A   1      51.214  26.226  29.890  1.00  0.00     0.006 A 
ENDBRANCH  49  70
BRANCH  61  78
ATOM     78  C   UNL A   1      44.709  32.395  31.586  1.00  0.00     0.057 A 
ATOM     79  C   UNL A   1      45.070  33.525  30.840  1.00  0.00     0.134 A 
ATOM     80  C   UNL A   1      44.680  32.522  32.980  1.00  0.00     0.134 A 
ATOM     81  F   UNL A   1      45.131  33.464  29.500  1.00  0.00    -0.206 F 
ATOM     82  C   UNL A   1      45.412  34.727  31.459  1.00  0.00     0.040 A 
ATOM     83  C   UNL A   1      44.997  33.727  33.610  1.00  0.00     0.040 A 
ATOM     84  F   UNL A   1      44.335  31.480  33.752  1.00  0.00    -0.206 F 
ATOM     85  C   UNL A   1      45.371  34.832  32.848  1.00  0.00     0.006 A 
ENDBRANCH  61  78
ENDBRANCH  35  36
ENDBRANCH  27  30
ENDBRANCH  25  26
ENDBRANCH  24  25
ENDBRANCH   1  24
TORSDOF 15
ENDMDL
