MODEL 1
REMARK VINA RESULT:     -12.8      0.000      0.000
REMARK SMILES Cc1cccc(-c2cc(C(=O)NCCCNC(=O)c3ccc(-c4c5nc(c(-c6c(F)cccc6F)c6ccc([nH]6)c(-c6c(F)cccc6F)c6nc(c(-c7c(F)cccc7F)c7ccc4[nH]7)C=C6)C=C5)cc3)ccn2)c1
REMARK SMILES IDX 14 1 13 2 12 3 10 4 11 5 9 7 7 8 8 9 75 10 74 11 73 12 6 13
REMARK SMILES IDX 1 14 2 15 3 16 76 17 4 18 5 19 15 20 16 21 17 22 18 24 19 25
REMARK SMILES IDX 20 26 72 27 21 28 71 29 22 30 23 31 24 32 65 33 25 34 70 35
REMARK SMILES IDX 64 36 66 37 26 38 69 39 63 40 62 41 27 43 53 44 36 45 52 46
REMARK SMILES IDX 37 47 40 48 51 49 67 50 38 51 39 52 50 54 68 55 41 56 28 57
REMARK SMILES IDX 29 58 34 59 30 60 31 61 33 62 35 63 32 64 54 65 55 66 60 67
REMARK SMILES IDX 56 68 57 69 59 70 61 71 58 72 42 73 43 74 48 75 44 76 45 77
REMARK SMILES IDX 47 78 49 79 46 80
REMARK H PARENT 12 6 16 23 66 42 40 53
REMARK Flexibility Score: inf
ROOT
ATOM      1  C   UNL A   1      39.019  21.556  26.017  1.00  0.00     0.042 C 
ENDROOT
BRANCH   1   2
ATOM      2  C   UNL A   1      37.620  21.297  25.443  1.00  0.00     0.118 C 
BRANCH   2   3
ATOM      3  N   UNL A   1      37.421  21.941  24.149  1.00  0.00    -0.352 N 
ATOM      4  C   UNL A   1      36.379  22.656  23.599  1.00  0.00     0.251 C 
ATOM      5  O   UNL A   1      36.574  23.177  22.500  1.00  0.00    -0.269 OA
ATOM      6  H   UNL A   1      38.191  21.845  23.542  1.00  0.00     0.163 HD
BRANCH   4   7
ATOM      7  C   UNL A   1      35.047  22.844  24.244  1.00  0.00     0.043 A 
ATOM      8  C   UNL A   1      33.322  24.161  25.300  1.00  0.00     0.071 A 
ATOM      9  C   UNL A   1      34.577  24.059  24.710  1.00  0.00     0.042 A 
ATOM     10  N   UNL A   1      32.532  23.089  25.501  1.00  0.00    -0.256 NA
ATOM     11  C   UNL A   1      33.005  21.898  25.066  1.00  0.00     0.112 A 
ATOM     12  C   UNL A   1      34.231  21.728  24.437  1.00  0.00     0.034 A 
BRANCH   8  13
ATOM     13  C   UNL A   1      32.834  25.489  25.689  1.00  0.00     0.000 A 
ATOM     14  C   UNL A   1      34.370  28.868  26.615  1.00  0.00     0.044 C 
ATOM     15  C   UNL A   1      33.365  27.775  26.402  1.00  0.00    -0.050 A 
ATOM     16  C   UNL A   1      32.022  27.969  26.736  1.00  0.00     0.003 A 
ATOM     17  C   UNL A   1      33.756  26.541  25.871  1.00  0.00     0.013 A 
ATOM     18  C   UNL A   1      31.090  26.948  26.536  1.00  0.00     0.001 A 
ATOM     19  C   UNL A   1      31.492  25.716  26.012  1.00  0.00     0.010 A 
ENDBRANCH   8  13
ENDBRANCH   4   7
ENDBRANCH   2   3
ENDBRANCH   1   2
BRANCH   1  20
ATOM     20  C   UNL A   1      39.340  23.023  26.245  1.00  0.00     0.118 C 
BRANCH  20  21
ATOM     21  N   UNL A   1      40.753  23.287  26.509  1.00  0.00    -0.352 N 
ATOM     22  C   UNL A   1      41.335  24.491  26.884  1.00  0.00     0.251 C 
ATOM     23  H   UNL A   1      41.365  22.522  26.410  1.00  0.00     0.163 HD
ATOM     24  O   UNL A   1      42.524  24.580  27.116  1.00  0.00    -0.269 OA
BRANCH  22  25
ATOM     25  C   UNL A   1      40.425  25.636  27.110  1.00  0.00     0.039 A 
ATOM     26  C   UNL A   1      40.707  26.817  26.420  1.00  0.00     0.014 A 
ATOM     27  C   UNL A   1      39.572  25.625  28.213  1.00  0.00     0.014 A 
ATOM     28  C   UNL A   1      40.350  28.028  27.000  1.00  0.00     0.010 A 
ATOM     29  C   UNL A   1      39.293  26.828  28.832  1.00  0.00     0.010 A 
ATOM     30  C   UNL A   1      39.758  28.021  28.265  1.00  0.00    -0.014 A 
BRANCH  30  31
ATOM     31  C   UNL A   1      39.746  29.207  29.115  1.00  0.00     0.031 A 
ATOM     32  C   UNL A   1      38.707  30.237  28.948  1.00  0.00     0.074 A 
ATOM     33  C   UNL A   1      40.698  29.361  30.062  1.00  0.00     0.049 A 
ATOM     34  N   UNL A   1      38.866  31.487  29.222  1.00  0.00    -0.248 NA
ATOM     35  C   UNL A   1      37.400  29.928  28.388  1.00  0.00     0.031 C 
ATOM     36  C   UNL A   1      40.745  30.367  31.119  1.00  0.00     0.029 A 
ATOM     37  N   UNL A   1      41.959  28.748  30.105  1.00  0.00    -0.354 N 
ATOM     38  C   UNL A   1      37.629  32.090  29.159  1.00  0.00     0.074 A 
ATOM     39  C   UNL A   1      36.779  31.100  28.538  1.00  0.00     0.031 C 
ATOM     40  C   UNL A   1      42.020  30.526  31.504  1.00  0.00     0.029 A 
ATOM     41  C   UNL A   1      42.843  29.722  30.616  1.00  0.00     0.049 A 
ATOM     42  H   UNL A   1      42.182  27.828  29.834  1.00  0.00     0.167 HD
ATOM     43  C   UNL A   1      37.441  33.291  29.783  1.00  0.00     0.037 A 
ATOM     44  C   UNL A   1      43.896  30.188  29.887  1.00  0.00     0.037 A 
ATOM     45  C   UNL A   1      38.705  33.817  30.307  1.00  0.00     0.049 A 
ATOM     46  C   UNL A   1      43.874  31.680  29.663  1.00  0.00     0.074 A 
ATOM     47  C   UNL A   1      39.258  33.833  31.578  1.00  0.00     0.029 A 
ATOM     48  N   UNL A   1      39.730  34.172  29.432  1.00  0.00    -0.354 N 
ATOM     49  N   UNL A   1      42.808  32.420  29.791  1.00  0.00    -0.248 NA
ATOM     50  C   UNL A   1      45.041  32.449  29.240  1.00  0.00     0.031 C 
ATOM     51  C   UNL A   1      40.632  34.154  31.461  1.00  0.00     0.029 A 
ATOM     52  C   UNL A   1      40.917  34.345  30.120  1.00  0.00     0.049 A 
ATOM     53  H   UNL A   1      39.624  34.285  28.461  1.00  0.00     0.167 HD
ATOM     54  C   UNL A   1      43.107  33.714  29.444  1.00  0.00     0.074 A 
ATOM     55  C   UNL A   1      44.524  33.685  29.136  1.00  0.00     0.031 C 
ATOM     56  C   UNL A   1      42.152  34.692  29.428  1.00  0.00     0.037 A 
BRANCH  43  57
ATOM     57  C   UNL A   1      36.078  33.812  30.221  1.00  0.00     0.057 A 
ATOM     58  C   UNL A   1      35.157  34.314  29.277  1.00  0.00     0.134 A 
ATOM     59  C   UNL A   1      35.640  33.937  31.551  1.00  0.00     0.134 A 
ATOM     60  F   UNL A   1      35.331  34.142  27.961  1.00  0.00    -0.206 F 
ATOM     61  C   UNL A   1      33.996  35.016  29.632  1.00  0.00     0.040 A 
ATOM     62  C   UNL A   1      34.508  34.680  31.925  1.00  0.00     0.040 A 
ATOM     63  F   UNL A   1      36.236  33.288  32.555  1.00  0.00    -0.206 F 
ATOM     64  C   UNL A   1      33.690  35.244  30.962  1.00  0.00     0.006 A 
ENDBRANCH  43  57
BRANCH  44  65
ATOM     65  C   UNL A   1      44.449  29.198  28.928  1.00  0.00     0.057 A 
ATOM     66  C   UNL A   1      45.302  28.189  29.407  1.00  0.00     0.134 A 
ATOM     67  C   UNL A   1      43.908  29.021  27.652  1.00  0.00     0.134 A 
ATOM     68  F   UNL A   1      45.852  28.294  30.627  1.00  0.00    -0.206 F 
ATOM     69  C   UNL A   1      45.526  27.009  28.694  1.00  0.00     0.040 A 
ATOM     70  C   UNL A   1      44.132  27.846  26.924  1.00  0.00     0.040 A 
ATOM     71  F   UNL A   1      43.067  29.927  27.134  1.00  0.00    -0.206 F 
ATOM     72  C   UNL A   1      44.914  26.823  27.459  1.00  0.00     0.006 A 
ENDBRANCH  44  65
BRANCH  56  73
ATOM     73  C   UNL A   1      42.314  36.084  28.862  1.00  0.00     0.057 A 
ATOM     74  C   UNL A   1      43.011  37.124  29.497  1.00  0.00     0.134 A 
ATOM     75  C   UNL A   1      41.864  36.383  27.555  1.00  0.00     0.134 A 
ATOM     76  F   UNL A   1      43.603  36.950  30.686  1.00  0.00    -0.206 F 
ATOM     77  C   UNL A   1      43.184  38.385  28.909  1.00  0.00     0.040 A 
ATOM     78  C   UNL A   1      42.079  37.620  26.939  1.00  0.00     0.040 A 
ATOM     79  F   UNL A   1      41.215  35.478  26.808  1.00  0.00    -0.206 F 
ATOM     80  C   UNL A   1      42.726  38.634  27.623  1.00  0.00     0.006 A 
ENDBRANCH  56  73
ENDBRANCH  30  31
ENDBRANCH  22  25
ENDBRANCH  20  21
ENDBRANCH   1  20
TORSDOF 11
ENDMDL
MODEL 2
REMARK VINA RESULT:     -12.7      3.793      9.518
REMARK SMILES Cc1cccc(-c2cc(C(=O)NCCCNC(=O)c3ccc(-c4c5nc(c(-c6c(F)cccc6F)c6ccc([nH]6)c(-c6c(F)cccc6F)c6nc(c(-c7c(F)cccc7F)c7ccc4[nH]7)C=C6)C=C5)cc3)ccn2)c1
REMARK SMILES IDX 14 1 13 2 12 3 10 4 11 5 9 7 7 8 8 9 75 10 74 11 73 12 6 13
REMARK SMILES IDX 1 14 2 15 3 16 76 17 4 18 5 19 15 20 16 21 17 22 18 24 19 25
REMARK SMILES IDX 20 26 72 27 21 28 71 29 22 30 23 31 24 32 65 33 25 34 70 35
REMARK SMILES IDX 64 36 66 37 26 38 69 39 63 40 62 41 27 43 53 44 36 45 52 46
REMARK SMILES IDX 37 47 40 48 51 49 67 50 38 51 39 52 50 54 68 55 41 56 28 57
REMARK SMILES IDX 29 58 34 59 30 60 31 61 33 62 35 63 32 64 54 65 55 66 60 67
REMARK SMILES IDX 56 68 57 69 59 70 61 71 58 72 42 73 43 74 48 75 44 76 45 77
REMARK SMILES IDX 47 78 49 79 46 80
REMARK H PARENT 12 6 16 23 66 42 40 53
REMARK Flexibility Score: inf
ROOT
ATOM      1  C   UNL A   1      33.679  31.344  27.267  1.00  0.00     0.042 C 
ENDROOT
BRANCH   1   2
ATOM      2  C   UNL A   1      32.660  30.375  26.654  1.00  0.00     0.118 C 
BRANCH   2   3
ATOM      3  N   UNL A   1      32.954  30.068  25.258  1.00  0.00    -0.352 N 
ATOM      4  C   UNL A   1      32.805  28.934  24.488  1.00  0.00     0.251 C 
ATOM      5  O   UNL A   1      33.045  29.038  23.284  1.00  0.00    -0.269 OA
ATOM      6  H   UNL A   1      33.336  30.829  24.763  1.00  0.00     0.163 HD
BRANCH   4   7
ATOM      7  C   UNL A   1      32.371  27.606  25.010  1.00  0.00     0.043 A 
ATOM      8  C   UNL A   1      32.759  25.345  25.760  1.00  0.00     0.071 A 
ATOM      9  C   UNL A   1      33.235  26.558  25.273  1.00  0.00     0.042 A 
ATOM     10  N   UNL A   1      31.447  25.109  25.944  1.00  0.00    -0.256 NA
ATOM     11  C   UNL A   1      30.601  26.127  25.662  1.00  0.00     0.112 A 
ATOM     12  C   UNL A   1      31.008  27.374  25.207  1.00  0.00     0.034 A 
BRANCH   8  13
ATOM     13  C   UNL A   1      33.728  24.302  26.113  1.00  0.00     0.000 A 
ATOM     14  C   UNL A   1      37.339  23.420  25.206  1.00  0.00     0.044 C 
ATOM     15  C   UNL A   1      35.955  23.329  25.777  1.00  0.00    -0.050 A 
ATOM     16  C   UNL A   1      35.549  22.190  26.479  1.00  0.00     0.003 A 
ATOM     17  C   UNL A   1      35.044  24.377  25.611  1.00  0.00     0.013 A 
ATOM     18  C   UNL A   1      34.259  22.110  27.008  1.00  0.00     0.001 A 
ATOM     19  C   UNL A   1      33.354  23.160  26.829  1.00  0.00     0.010 A 
ENDBRANCH   8  13
ENDBRANCH   4   7
ENDBRANCH   2   3
ENDBRANCH   1   2
BRANCH   1  20
ATOM     20  C   UNL A   1      34.540  30.738  28.360  1.00  0.00     0.118 C 
BRANCH  20  21
ATOM     21  N   UNL A   1      35.546  31.652  28.900  1.00  0.00    -0.352 N 
ATOM     22  C   UNL A   1      36.879  31.379  29.173  1.00  0.00     0.251 C 
ATOM     23  H   UNL A   1      35.242  32.569  29.092  1.00  0.00     0.163 HD
ATOM     24  O   UNL A   1      37.634  32.237  29.586  1.00  0.00    -0.269 OA
BRANCH  22  25
ATOM     25  C   UNL A   1      37.375  30.029  28.825  1.00  0.00     0.039 A 
ATOM     26  C   UNL A   1      37.555  29.127  29.876  1.00  0.00     0.014 A 
ATOM     27  C   UNL A   1      37.960  29.817  27.577  1.00  0.00     0.014 A 
ATOM     28  C   UNL A   1      38.541  28.155  29.757  1.00  0.00     0.010 A 
ATOM     29  C   UNL A   1      38.997  28.907  27.490  1.00  0.00     0.010 A 
ATOM     30  C   UNL A   1      39.339  28.140  28.611  1.00  0.00    -0.014 A 
BRANCH  30  31
ATOM     31  C   UNL A   1      40.632  27.466  28.583  1.00  0.00     0.031 A 
ATOM     32  C   UNL A   1      40.715  26.014  28.356  1.00  0.00     0.074 A 
ATOM     33  C   UNL A   1      41.763  28.183  28.769  1.00  0.00     0.049 A 
ATOM     34  N   UNL A   1      41.655  25.255  28.811  1.00  0.00    -0.248 NA
ATOM     35  C   UNL A   1      39.683  25.288  27.633  1.00  0.00     0.031 C 
ATOM     36  C   UNL A   1      43.140  27.730  28.590  1.00  0.00     0.029 A 
ATOM     37  N   UNL A   1      41.883  29.434  29.392  1.00  0.00    -0.354 N 
ATOM     38  C   UNL A   1      41.522  24.022  28.212  1.00  0.00     0.074 A 
ATOM     39  C   UNL A   1      40.226  24.069  27.575  1.00  0.00     0.031 C 
ATOM     40  C   UNL A   1      43.945  28.505  29.333  1.00  0.00     0.029 A 
ATOM     41  C   UNL A   1      43.096  29.391  30.111  1.00  0.00     0.049 A 
ATOM     42  H   UNL A   1      41.251  30.187  29.338  1.00  0.00     0.167 HD
ATOM     43  C   UNL A   1      42.591  23.171  28.198  1.00  0.00     0.037 A 
ATOM     44  C   UNL A   1      43.131  29.521  31.466  1.00  0.00     0.037 A 
ATOM     45  C   UNL A   1      43.699  23.700  28.999  1.00  0.00     0.049 A 
ATOM     46  C   UNL A   1      43.755  28.346  32.179  1.00  0.00     0.074 A 
ATOM     47  C   UNL A   1      44.874  24.351  28.658  1.00  0.00     0.029 A 
ATOM     48  N   UNL A   1      43.552  23.858  30.376  1.00  0.00    -0.354 N 
ATOM     49  N   UNL A   1      43.901  27.165  31.646  1.00  0.00    -0.248 NA
ATOM     50  C   UNL A   1      44.228  28.398  33.560  1.00  0.00     0.031 C 
ATOM     51  C   UNL A   1      45.411  24.941  29.828  1.00  0.00     0.029 A 
ATOM     52  C   UNL A   1      44.570  24.642  30.886  1.00  0.00     0.049 A 
ATOM     53  H   UNL A   1      42.825  23.466  30.910  1.00  0.00     0.167 HD
ATOM     54  C   UNL A   1      44.430  26.306  32.577  1.00  0.00     0.074 A 
ATOM     55  C   UNL A   1      44.644  27.135  33.748  1.00  0.00     0.031 C 
ATOM     56  C   UNL A   1      44.628  24.983  32.302  1.00  0.00     0.037 A 
BRANCH  43  57
ATOM     57  C   UNL A   1      42.761  22.044  27.186  1.00  0.00     0.057 A 
ATOM     58  C   UNL A   1      42.008  20.856  27.293  1.00  0.00     0.134 A 
ATOM     59  C   UNL A   1      43.704  22.017  26.144  1.00  0.00     0.134 A 
ATOM     60  F   UNL A   1      40.963  20.754  28.123  1.00  0.00    -0.206 F 
ATOM     61  C   UNL A   1      42.280  19.701  26.545  1.00  0.00     0.040 A 
ATOM     62  C   UNL A   1      44.023  20.857  25.420  1.00  0.00     0.040 A 
ATOM     63  F   UNL A   1      44.313  23.125  25.715  1.00  0.00    -0.206 F 
ATOM     64  C   UNL A   1      43.324  19.681  25.636  1.00  0.00     0.006 A 
ENDBRANCH  43  57
BRANCH  44  65
ATOM     65  C   UNL A   1      42.037  30.359  32.020  1.00  0.00     0.057 A 
ATOM     66  C   UNL A   1      42.159  31.759  31.967  1.00  0.00     0.134 A 
ATOM     67  C   UNL A   1      40.766  29.840  32.281  1.00  0.00     0.134 A 
ATOM     68  F   UNL A   1      43.350  32.323  31.715  1.00  0.00    -0.206 F 
ATOM     69  C   UNL A   1      41.050  32.602  32.068  1.00  0.00     0.040 A 
ATOM     70  C   UNL A   1      39.649  30.677  32.393  1.00  0.00     0.040 A 
ATOM     71  F   UNL A   1      40.564  28.517  32.324  1.00  0.00    -0.206 F 
ATOM     72  C   UNL A   1      39.784  32.058  32.251  1.00  0.00     0.006 A 
ENDBRANCH  44  65
BRANCH  56  73
ATOM     73  C   UNL A   1      44.995  23.911  33.303  1.00  0.00     0.057 A 
ATOM     74  C   UNL A   1      44.143  22.869  33.700  1.00  0.00     0.134 A 
ATOM     75  C   UNL A   1      46.312  23.827  33.812  1.00  0.00     0.134 A 
ATOM     76  F   UNL A   1      42.906  22.744  33.202  1.00  0.00    -0.206 F 
ATOM     77  C   UNL A   1      44.545  21.863  34.590  1.00  0.00     0.040 A 
ATOM     78  C   UNL A   1      46.738  22.798  34.657  1.00  0.00     0.040 A 
ATOM     79  F   UNL A   1      47.251  24.729  33.493  1.00  0.00    -0.206 F 
ATOM     80  C   UNL A   1      45.848  21.819  35.065  1.00  0.00     0.006 A 
ENDBRANCH  56  73
ENDBRANCH  30  31
ENDBRANCH  22  25
ENDBRANCH  20  21
ENDBRANCH   1  20
TORSDOF 11
ENDMDL
MODEL 3
REMARK VINA RESULT:     -12.5      1.079      1.795
REMARK SMILES Cc1cccc(-c2cc(C(=O)NCCCNC(=O)c3ccc(-c4c5nc(c(-c6c(F)cccc6F)c6ccc([nH]6)c(-c6c(F)cccc6F)c6nc(c(-c7c(F)cccc7F)c7ccc4[nH]7)C=C6)C=C5)cc3)ccn2)c1
REMARK SMILES IDX 14 1 13 2 12 3 10 4 11 5 9 7 7 8 8 9 75 10 74 11 73 12 6 13
REMARK SMILES IDX 1 14 2 15 3 16 76 17 4 18 5 19 15 20 16 21 17 22 18 24 19 25
REMARK SMILES IDX 20 26 72 27 21 28 71 29 22 30 23 31 24 32 65 33 25 34 70 35
REMARK SMILES IDX 64 36 66 37 26 38 69 39 63 40 62 41 27 43 53 44 36 45 52 46
REMARK SMILES IDX 37 47 40 48 51 49 67 50 38 51 39 52 50 54 68 55 41 56 28 57
REMARK SMILES IDX 29 58 34 59 30 60 31 61 33 62 35 63 32 64 54 65 55 66 60 67
REMARK SMILES IDX 56 68 57 69 59 70 61 71 58 72 42 73 43 74 48 75 44 76 45 77
REMARK SMILES IDX 47 78 49 79 46 80
REMARK H PARENT 12 6 16 23 66 42 40 53
REMARK Flexibility Score: inf
ROOT
ATOM      1  C   UNL A   1      38.897  21.619  25.744  1.00  0.00     0.042 C 
ENDROOT
BRANCH   1   2
ATOM      2  C   UNL A   1      37.497  21.611  25.116  1.00  0.00     0.118 C 
BRANCH   2   3
ATOM      3  N   UNL A   1      36.437  21.595  26.119  1.00  0.00    -0.352 N 
ATOM      4  C   UNL A   1      35.146  22.076  26.136  1.00  0.00     0.251 C 
ATOM      5  O   UNL A   1      34.454  21.792  27.115  1.00  0.00    -0.269 OA
ATOM      6  H   UNL A   1      36.698  21.147  26.956  1.00  0.00     0.163 HD
BRANCH   4   7
ATOM      7  C   UNL A   1      34.534  22.903  25.055  1.00  0.00     0.043 A 
ATOM      8  C   UNL A   1      33.746  24.975  24.102  1.00  0.00     0.071 A 
ATOM      9  C   UNL A   1      34.320  24.266  25.151  1.00  0.00     0.042 A 
ATOM     10  N   UNL A   1      33.320  24.373  22.975  1.00  0.00    -0.256 NA
ATOM     11  C   UNL A   1      33.508  23.036  22.894  1.00  0.00     0.112 A 
ATOM     12  C   UNL A   1      34.106  22.271  23.886  1.00  0.00     0.034 A 
BRANCH   8  13
ATOM     13  C   UNL A   1      33.630  26.433  24.219  1.00  0.00     0.000 A 
ATOM     14  C   UNL A   1      33.989  29.050  26.987  1.00  0.00     0.044 C 
ATOM     15  C   UNL A   1      33.683  28.416  25.663  1.00  0.00    -0.050 A 
ATOM     16  C   UNL A   1      33.133  29.171  24.623  1.00  0.00     0.003 A 
ATOM     17  C   UNL A   1      33.936  27.057  25.446  1.00  0.00     0.013 A 
ATOM     18  C   UNL A   1      32.849  28.576  23.392  1.00  0.00     0.001 A 
ATOM     19  C   UNL A   1      33.099  27.216  23.189  1.00  0.00     0.010 A 
ENDBRANCH   8  13
ENDBRANCH   4   7
ENDBRANCH   2   3
ENDBRANCH   1   2
BRANCH   1  20
ATOM     20  C   UNL A   1      39.230  22.885  26.514  1.00  0.00     0.118 C 
BRANCH  20  21
ATOM     21  N   UNL A   1      40.663  23.150  26.630  1.00  0.00    -0.352 N 
ATOM     22  C   UNL A   1      41.285  24.376  26.828  1.00  0.00     0.251 C 
ATOM     23  H   UNL A   1      41.257  22.368  26.560  1.00  0.00     0.163 HD
ATOM     24  O   UNL A   1      42.491  24.467  26.948  1.00  0.00    -0.269 OA
BRANCH  22  25
ATOM     25  C   UNL A   1      40.408  25.554  27.008  1.00  0.00     0.039 A 
ATOM     26  C   UNL A   1      40.774  26.727  26.343  1.00  0.00     0.014 A 
ATOM     27  C   UNL A   1      39.493  25.571  28.060  1.00  0.00     0.014 A 
ATOM     28  C   UNL A   1      40.430  27.947  26.910  1.00  0.00     0.010 A 
ATOM     29  C   UNL A   1      39.224  26.782  28.670  1.00  0.00     0.010 A 
ATOM     30  C   UNL A   1      39.767  27.958  28.139  1.00  0.00    -0.014 A 
BRANCH  30  31
ATOM     31  C   UNL A   1      39.750  29.140  28.993  1.00  0.00     0.031 A 
ATOM     32  C   UNL A   1      38.718  30.176  28.820  1.00  0.00     0.074 A 
ATOM     33  C   UNL A   1      40.692  29.284  29.952  1.00  0.00     0.049 A 
ATOM     34  N   UNL A   1      38.881  31.424  29.101  1.00  0.00    -0.248 NA
ATOM     35  C   UNL A   1      37.417  29.876  28.242  1.00  0.00     0.031 C 
ATOM     36  C   UNL A   1      40.732  30.285  31.014  1.00  0.00     0.029 A 
ATOM     37  N   UNL A   1      41.950  28.665  30.007  1.00  0.00    -0.354 N 
ATOM     38  C   UNL A   1      37.648  32.033  29.027  1.00  0.00     0.074 A 
ATOM     39  C   UNL A   1      36.800  31.051  28.391  1.00  0.00     0.031 C 
ATOM     40  C   UNL A   1      42.003  30.436  31.415  1.00  0.00     0.029 A 
ATOM     41  C   UNL A   1      42.832  29.632  30.533  1.00  0.00     0.049 A 
ATOM     42  H   UNL A   1      42.171  27.745  29.735  1.00  0.00     0.167 HD
ATOM     43  C   UNL A   1      37.459  33.232  29.654  1.00  0.00     0.037 A 
ATOM     44  C   UNL A   1      43.896  30.096  29.819  1.00  0.00     0.037 A 
ATOM     45  C   UNL A   1      38.720  33.750  30.195  1.00  0.00     0.049 A 
ATOM     46  C   UNL A   1      43.884  31.589  29.601  1.00  0.00     0.074 A 
ATOM     47  C   UNL A   1      39.258  33.757  31.473  1.00  0.00     0.029 A 
ATOM     48  N   UNL A   1      39.756  34.104  29.334  1.00  0.00    -0.354 N 
ATOM     49  N   UNL A   1      42.821  32.334  29.720  1.00  0.00    -0.248 NA
ATOM     50  C   UNL A   1      45.060  32.354  29.195  1.00  0.00     0.031 C 
ATOM     51  C   UNL A   1      40.635  34.071  31.373  1.00  0.00     0.029 A 
ATOM     52  C   UNL A   1      40.936  34.267  30.037  1.00  0.00     0.049 A 
ATOM     53  H   UNL A   1      39.662  34.221  28.362  1.00  0.00     0.167 HD
ATOM     54  C   UNL A   1      43.130  33.628  29.383  1.00  0.00     0.074 A 
ATOM     55  C   UNL A   1      44.551  33.593  29.092  1.00  0.00     0.031 C 
ATOM     56  C   UNL A   1      42.181  34.610  29.360  1.00  0.00     0.037 A 
BRANCH  43  57
ATOM     57  C   UNL A   1      36.094  33.759  30.079  1.00  0.00     0.057 A 
ATOM     58  C   UNL A   1      35.177  34.247  29.124  1.00  0.00     0.134 A 
ATOM     59  C   UNL A   1      35.649  33.901  31.405  1.00  0.00     0.134 A 
ATOM     60  F   UNL A   1      35.357  34.059  27.811  1.00  0.00    -0.206 F 
ATOM     61  C   UNL A   1      34.014  34.954  29.463  1.00  0.00     0.040 A 
ATOM     62  C   UNL A   1      34.515  34.647  31.764  1.00  0.00     0.040 A 
ATOM     63  F   UNL A   1      36.241  33.265  32.420  1.00  0.00    -0.206 F 
ATOM     64  C   UNL A   1      33.701  35.199  30.789  1.00  0.00     0.006 A 
ENDBRANCH  43  57
BRANCH  44  65
ATOM     65  C   UNL A   1      44.455  29.108  28.861  1.00  0.00     0.057 A 
ATOM     66  C   UNL A   1      44.068  29.173  27.511  1.00  0.00     0.134 A 
ATOM     67  C   UNL A   1      45.584  28.341  29.163  1.00  0.00     0.134 A 
ATOM     68  F   UNL A   1      42.996  29.896  27.152  1.00  0.00    -0.206 F 
ATOM     69  C   UNL A   1      44.826  28.588  26.495  1.00  0.00     0.040 A 
ATOM     70  C   UNL A   1      46.346  27.742  28.153  1.00  0.00     0.040 A 
ATOM     71  F   UNL A   1      46.030  28.248  30.423  1.00  0.00    -0.206 F 
ATOM     72  C   UNL A   1      45.988  27.894  26.814  1.00  0.00     0.006 A 
ENDBRANCH  44  65
BRANCH  56  73
ATOM     73  C   UNL A   1      42.356  36.005  28.803  1.00  0.00     0.057 A 
ATOM     74  C   UNL A   1      41.761  36.468  27.619  1.00  0.00     0.134 A 
ATOM     75  C   UNL A   1      43.051  36.989  29.543  1.00  0.00     0.134 A 
ATOM     76  F   UNL A   1      40.968  35.684  26.877  1.00  0.00    -0.206 F 
ATOM     77  C   UNL A   1      41.906  37.789  27.169  1.00  0.00     0.040 A 
ATOM     78  C   UNL A   1      43.155  38.321  29.130  1.00  0.00     0.040 A 
ATOM     79  F   UNL A   1      43.641  36.707  30.714  1.00  0.00    -0.206 F 
ATOM     80  C   UNL A   1      42.597  38.722  27.928  1.00  0.00     0.006 A 
ENDBRANCH  56  73
ENDBRANCH  30  31
ENDBRANCH  22  25
ENDBRANCH  20  21
ENDBRANCH   1  20
TORSDOF 11
ENDMDL
