MODEL 1
REMARK VINA RESULT:     -10.2      0.000      0.000
REMARK SMILES CCC1C[NH+]([C@H](C(=O)NCCCNC(=O)c2ccc(-c3c4nc(c(-c5c(F)cccc5F)c5ccc([nH]5)c(-c5c(F)cccc5F)c5nc(c(-c6c(F)cccc6F)c6ccc3[nH]6)C=C5)C=C4)cc2)C(C)C)C1
REMARK SMILES IDX 11 1 10 2 9 3 7 4 8 5 6 7 5 8 3 9 4 10 73 11 2 13 1 14 70 15
REMARK SMILES IDX 71 16 72 17 12 18 13 19 14 20 15 22 16 23 17 24 69 25 18 26
REMARK SMILES IDX 68 27 19 28 20 29 21 30 62 31 22 32 67 33 61 34 63 35 23 36
REMARK SMILES IDX 66 37 60 38 59 39 24 41 50 42 33 43 49 44 34 45 37 46 48 47
REMARK SMILES IDX 64 48 35 49 36 50 47 52 65 53 38 54 25 55 26 56 31 57 27 58
REMARK SMILES IDX 28 59 30 60 32 61 29 62 51 63 52 64 57 65 53 66 54 67 56 68
REMARK SMILES IDX 58 69 55 70 39 71 40 72 45 73 41 74 42 75 44 76 46 77 43 78
REMARK H PARENT 9 6 5 12 13 21 63 40 37 51
REMARK Flexibility Score: inf
ROOT
ATOM      1  C   UNL A   1      37.222  20.226  24.939  1.00  0.00     0.042 C 
ENDROOT
BRANCH   1   2
ATOM      2  C   UNL A   1      36.135  21.281  24.949  1.00  0.00     0.118 C 
BRANCH   2   3
ATOM      3  N   UNL A   1      35.524  21.461  26.254  1.00  0.00    -0.351 N 
ATOM      4  C   UNL A   1      34.265  21.737  26.682  1.00  0.00     0.278 C 
ATOM      5  O   UNL A   1      34.087  21.520  27.889  1.00  0.00    -0.268 OA
ATOM      6  H   UNL A   1      36.166  21.362  26.993  1.00  0.00     0.163 HD
BRANCH   4   7
ATOM      7  C   UNL A   1      33.106  22.344  25.822  1.00  0.00     0.276 C 
BRANCH   7   8
ATOM      8  N   UNL A   1      33.458  23.625  25.159  1.00  0.00    -0.324 N 
ATOM      9  C   UNL A   1      33.534  25.707  25.328  1.00  0.00     0.099 C 
ATOM     10  C   UNL A   1      34.336  24.520  25.929  1.00  0.00     0.272 C 
ATOM     11  C   UNL A   1      32.400  24.659  25.161  1.00  0.00     0.272 C 
ATOM     12  H   UNL A   1      33.780  23.223  24.278  1.00  0.00     0.348 HD
BRANCH   9  13
ATOM     13  C   UNL A   1      33.253  26.887  26.247  1.00  0.00     0.012 C 
ATOM     14  C   UNL A   1      33.841  28.161  25.663  1.00  0.00     0.004 C 
ENDBRANCH   9  13
ENDBRANCH   7   8
BRANCH   7  15
ATOM     15  C   UNL A   1      32.400  21.415  24.803  1.00  0.00     0.051 C 
ATOM     16  C   UNL A   1      32.850  21.705  23.362  1.00  0.00     0.014 C 
ATOM     17  C   UNL A   1      32.616  19.917  25.068  1.00  0.00     0.014 C 
ENDBRANCH   7  15
ENDBRANCH   4   7
ENDBRANCH   2   3
ENDBRANCH   1   2
BRANCH   1  18
ATOM     18  C   UNL A   1      38.532  20.730  25.524  1.00  0.00     0.118 C 
BRANCH  18  19
ATOM     19  N   UNL A   1      39.527  19.668  25.650  1.00  0.00    -0.352 N 
ATOM     20  C   UNL A   1      40.861  19.733  25.966  1.00  0.00     0.251 C 
ATOM     21  H   UNL A   1      39.187  18.759  25.479  1.00  0.00     0.163 HD
ATOM     22  O   UNL A   1      41.590  18.763  25.762  1.00  0.00    -0.269 OA
BRANCH  20  23
ATOM     23  C   UNL A   1      41.419  20.970  26.544  1.00  0.00     0.039 A 
ATOM     24  C   UNL A   1      42.016  21.916  25.707  1.00  0.00     0.014 A 
ATOM     25  C   UNL A   1      41.347  21.193  27.919  1.00  0.00     0.014 A 
ATOM     26  C   UNL A   1      42.467  23.121  26.247  1.00  0.00     0.010 A 
ATOM     27  C   UNL A   1      41.680  22.436  28.432  1.00  0.00     0.010 A 
ATOM     28  C   UNL A   1      42.258  23.410  27.606  1.00  0.00    -0.014 A 
BRANCH  28  29
ATOM     29  C   UNL A   1      42.649  24.709  28.202  1.00  0.00     0.031 A 
ATOM     30  C   UNL A   1      41.608  25.778  28.408  1.00  0.00     0.074 A 
ATOM     31  C   UNL A   1      43.944  24.958  28.472  1.00  0.00     0.049 A 
ATOM     32  N   UNL A   1      41.760  27.014  28.807  1.00  0.00    -0.248 NA
ATOM     33  C   UNL A   1      40.217  25.420  28.085  1.00  0.00     0.031 C 
ATOM     34  C   UNL A   1      45.051  24.020  28.260  1.00  0.00     0.029 A 
ATOM     35  N   UNL A   1      44.554  26.080  28.970  1.00  0.00    -0.354 N 
ATOM     36  C   UNL A   1      40.493  27.581  28.762  1.00  0.00     0.074 A 
ATOM     37  C   UNL A   1      39.596  26.580  28.232  1.00  0.00     0.031 C 
ATOM     38  C   UNL A   1      46.197  24.595  28.656  1.00  0.00     0.029 A 
ATOM     39  C   UNL A   1      45.916  25.956  29.102  1.00  0.00     0.049 A 
ATOM     40  H   UNL A   1      44.062  26.899  29.210  1.00  0.00     0.167 HD
ATOM     41  C   UNL A   1      40.105  28.816  29.159  1.00  0.00     0.037 A 
ATOM     42  C   UNL A   1      46.834  26.844  29.526  1.00  0.00     0.037 A 
ATOM     43  C   UNL A   1      40.999  29.796  29.713  1.00  0.00     0.049 A 
ATOM     44  C   UNL A   1      46.379  28.214  29.950  1.00  0.00     0.074 A 
ATOM     45  C   UNL A   1      40.701  31.056  30.201  1.00  0.00     0.029 A 
ATOM     46  N   UNL A   1      42.368  29.624  29.852  1.00  0.00    -0.354 N 
ATOM     47  N   UNL A   1      45.167  28.714  29.970  1.00  0.00    -0.248 NA
ATOM     48  C   UNL A   1      47.418  29.141  30.417  1.00  0.00     0.031 C 
ATOM     49  C   UNL A   1      41.898  31.666  30.589  1.00  0.00     0.029 A 
ATOM     50  C   UNL A   1      42.933  30.765  30.397  1.00  0.00     0.049 A 
ATOM     51  H   UNL A   1      42.865  28.812  29.600  1.00  0.00     0.167 HD
ATOM     52  C   UNL A   1      45.293  29.999  30.480  1.00  0.00     0.074 A 
ATOM     53  C   UNL A   1      46.699  30.195  30.771  1.00  0.00     0.031 C 
ATOM     54  C   UNL A   1      44.334  30.934  30.690  1.00  0.00     0.037 A 
BRANCH  41  55
ATOM     55  C   UNL A   1      38.652  29.167  29.012  1.00  0.00     0.057 A 
ATOM     56  C   UNL A   1      37.765  29.116  30.097  1.00  0.00     0.134 A 
ATOM     57  C   UNL A   1      38.138  29.590  27.780  1.00  0.00     0.134 A 
ATOM     58  F   UNL A   1      38.187  28.705  31.303  1.00  0.00    -0.206 F 
ATOM     59  C   UNL A   1      36.415  29.442  29.954  1.00  0.00     0.040 A 
ATOM     60  C   UNL A   1      36.797  29.949  27.632  1.00  0.00     0.040 A 
ATOM     61  F   UNL A   1      38.931  29.667  26.701  1.00  0.00    -0.206 F 
ATOM     62  C   UNL A   1      35.930  29.868  28.720  1.00  0.00     0.006 A 
ENDBRANCH  41  55
BRANCH  42  63
ATOM     63  C   UNL A   1      48.269  26.464  29.593  1.00  0.00     0.057 A 
ATOM     64  C   UNL A   1      48.796  25.836  30.729  1.00  0.00     0.134 A 
ATOM     65  C   UNL A   1      49.149  26.725  28.536  1.00  0.00     0.134 A 
ATOM     66  F   UNL A   1      48.007  25.572  31.780  1.00  0.00    -0.206 F 
ATOM     67  C   UNL A   1      50.149  25.508  30.823  1.00  0.00     0.040 A 
ATOM     68  C   UNL A   1      50.499  26.378  28.605  1.00  0.00     0.040 A 
ATOM     69  F   UNL A   1      48.705  27.313  27.415  1.00  0.00    -0.206 F 
ATOM     70  C   UNL A   1      51.005  25.776  29.756  1.00  0.00     0.006 A 
ENDBRANCH  42  63
BRANCH  54  71
ATOM     71  C   UNL A   1      44.764  32.235  31.302  1.00  0.00     0.057 A 
ATOM     72  C   UNL A   1      45.133  33.337  30.521  1.00  0.00     0.134 A 
ATOM     73  C   UNL A   1      44.762  32.399  32.693  1.00  0.00     0.134 A 
ATOM     74  F   UNL A   1      45.168  33.242  29.182  1.00  0.00    -0.206 F 
ATOM     75  C   UNL A   1      45.508  34.549  31.103  1.00  0.00     0.040 A 
ATOM     76  C   UNL A   1      45.104  33.615  33.285  1.00  0.00     0.040 A 
ATOM     77  F   UNL A   1      44.408  31.386  33.499  1.00  0.00    -0.206 F 
ATOM     78  C   UNL A   1      45.485  34.692  32.489  1.00  0.00     0.006 A 
ENDBRANCH  54  71
ENDBRANCH  28  29
ENDBRANCH  20  23
ENDBRANCH  18  19
ENDBRANCH   1  18
TORSDOF 13
ENDMDL
MODEL 2
REMARK VINA RESULT:     -10.1      0.996      6.964
REMARK SMILES CCC1C[NH+]([C@H](C(=O)NCCCNC(=O)c2ccc(-c3c4nc(c(-c5c(F)cccc5F)c5ccc([nH]5)c(-c5c(F)cccc5F)c5nc(c(-c6c(F)cccc6F)c6ccc3[nH]6)C=C5)C=C4)cc2)C(C)C)C1
REMARK SMILES IDX 11 1 10 2 9 3 7 4 8 5 6 7 5 8 3 9 4 10 73 11 2 13 1 14 70 15
REMARK SMILES IDX 71 16 72 17 12 18 13 19 14 20 15 22 16 23 17 24 69 25 18 26
REMARK SMILES IDX 68 27 19 28 20 29 21 30 62 31 22 32 67 33 61 34 63 35 23 36
REMARK SMILES IDX 66 37 60 38 59 39 24 41 50 42 33 43 49 44 34 45 37 46 48 47
REMARK SMILES IDX 64 48 35 49 36 50 47 52 65 53 38 54 25 55 26 56 31 57 27 58
REMARK SMILES IDX 28 59 30 60 32 61 29 62 51 63 52 64 57 65 53 66 54 67 56 68
REMARK SMILES IDX 58 69 55 70 39 71 40 72 45 73 41 74 42 75 44 76 46 77 43 78
REMARK H PARENT 9 6 5 12 13 21 63 40 37 51
REMARK Flexibility Score: inf
ROOT
ATOM      1  C   UNL A   1      37.670  19.746  24.975  1.00  0.00     0.042 C 
ENDROOT
BRANCH   1   2
ATOM      2  C   UNL A   1      36.591  20.777  24.710  1.00  0.00     0.118 C 
BRANCH   2   3
ATOM      3  N   UNL A   1      35.881  21.184  25.909  1.00  0.00    -0.351 N 
ATOM      4  C   UNL A   1      34.575  21.406  26.209  1.00  0.00     0.278 C 
ATOM      5  O   UNL A   1      34.342  21.456  27.426  1.00  0.00    -0.268 OA
ATOM      6  H   UNL A   1      36.481  21.334  26.675  1.00  0.00     0.163 HD
BRANCH   4   7
ATOM      7  C   UNL A   1      33.419  21.658  25.186  1.00  0.00     0.276 C 
BRANCH   7   8
ATOM      8  N   UNL A   1      32.590  20.458  24.908  1.00  0.00    -0.324 N 
ATOM      9  C   UNL A   1      32.466  18.623  23.914  1.00  0.00     0.099 C 
ATOM     10  C   UNL A   1      33.246  19.163  25.145  1.00  0.00     0.272 C 
ATOM     11  C   UNL A   1      32.423  20.113  23.479  1.00  0.00     0.272 C 
ATOM     12  H   UNL A   1      31.783  20.734  25.466  1.00  0.00     0.348 HD
BRANCH   9  13
ATOM     13  C   UNL A   1      33.202  17.657  22.997  1.00  0.00     0.012 C 
ATOM     14  C   UNL A   1      33.549  16.380  23.746  1.00  0.00     0.004 C 
ENDBRANCH   9  13
ENDBRANCH   7   8
BRANCH   7  15
ATOM     15  C   UNL A   1      32.493  22.877  25.427  1.00  0.00     0.051 C 
ATOM     16  C   UNL A   1      32.313  23.716  24.151  1.00  0.00     0.014 C 
ATOM     17  C   UNL A   1      31.096  22.507  25.945  1.00  0.00     0.014 C 
ENDBRANCH   7  15
ENDBRANCH   4   7
ENDBRANCH   2   3
ENDBRANCH   1   2
BRANCH   1  18
ATOM     18  C   UNL A   1      38.845  20.317  25.753  1.00  0.00     0.118 C 
BRANCH  18  19
ATOM     19  N   UNL A   1      39.962  19.379  25.836  1.00  0.00    -0.352 N 
ATOM     20  C   UNL A   1      41.297  19.605  26.056  1.00  0.00     0.251 C 
ATOM     21  H   UNL A   1      39.718  18.433  25.712  1.00  0.00     0.163 HD
ATOM     22  O   UNL A   1      42.118  18.718  25.827  1.00  0.00    -0.269 OA
BRANCH  20  23
ATOM     23  C   UNL A   1      41.746  20.915  26.563  1.00  0.00     0.039 A 
ATOM     24  C   UNL A   1      42.232  21.873  25.669  1.00  0.00     0.014 A 
ATOM     25  C   UNL A   1      41.684  21.196  27.928  1.00  0.00     0.014 A 
ATOM     26  C   UNL A   1      42.576  23.140  26.141  1.00  0.00     0.010 A 
ATOM     27  C   UNL A   1      41.907  22.488  28.375  1.00  0.00     0.010 A 
ATOM     28  C   UNL A   1      42.370  23.472  27.490  1.00  0.00    -0.014 A 
BRANCH  28  29
ATOM     29  C   UNL A   1      42.648  24.829  28.016  1.00  0.00     0.031 A 
ATOM     30  C   UNL A   1      44.042  25.186  28.460  1.00  0.00     0.074 A 
ATOM     31  C   UNL A   1      41.637  25.703  28.176  1.00  0.00     0.049 A 
ATOM     32  N   UNL A   1      44.469  26.273  29.049  1.00  0.00    -0.248 NA
ATOM     33  C   UNL A   1      45.086  24.169  28.249  1.00  0.00     0.031 C 
ATOM     34  C   UNL A   1      40.233  25.451  27.835  1.00  0.00     0.029 A 
ATOM     35  N   UNL A   1      41.629  26.979  28.679  1.00  0.00    -0.354 N 
ATOM     36  C   UNL A   1      45.820  26.060  29.294  1.00  0.00     0.074 A 
ATOM     37  C   UNL A   1      46.126  24.717  28.857  1.00  0.00     0.031 C 
ATOM     38  C   UNL A   1      39.509  26.547  28.109  1.00  0.00     0.029 A 
ATOM     39  C   UNL A   1      40.384  27.560  28.690  1.00  0.00     0.049 A 
ATOM     40  H   UNL A   1      42.439  27.435  29.004  1.00  0.00     0.167 HD
ATOM     41  C   UNL A   1      46.731  26.918  29.809  1.00  0.00     0.037 A 
ATOM     42  C   UNL A   1      39.993  28.771  29.128  1.00  0.00     0.037 A 
ATOM     43  C   UNL A   1      46.424  28.263  30.215  1.00  0.00     0.049 A 
ATOM     44  C   UNL A   1      41.023  29.703  29.707  1.00  0.00     0.074 A 
ATOM     45  C   UNL A   1      47.282  29.237  30.693  1.00  0.00     0.029 A 
ATOM     46  N   UNL A   1      45.155  28.823  30.187  1.00  0.00    -0.354 N 
ATOM     47  N   UNL A   1      42.311  29.515  29.868  1.00  0.00    -0.248 NA
ATOM     48  C   UNL A   1      40.546  31.017  30.158  1.00  0.00     0.031 C 
ATOM     49  C   UNL A   1      46.525  30.369  31.004  1.00  0.00     0.029 A 
ATOM     50  C   UNL A   1      45.204  30.122  30.665  1.00  0.00     0.049 A 
ATOM     51  H   UNL A   1      44.341  28.366  29.877  1.00  0.00     0.167 HD
ATOM     52  C   UNL A   1      42.803  30.696  30.408  1.00  0.00     0.074 A 
ATOM     53  C   UNL A   1      41.676  31.599  30.532  1.00  0.00     0.031 C 
ATOM     54  C   UNL A   1      44.072  31.008  30.768  1.00  0.00     0.037 A 
BRANCH  41  55
ATOM     55  C   UNL A   1      48.143  26.428  29.952  1.00  0.00     0.057 A 
ATOM     56  C   UNL A   1      48.588  25.783  31.116  1.00  0.00     0.134 A 
ATOM     57  C   UNL A   1      49.062  26.573  28.906  1.00  0.00     0.134 A 
ATOM     58  F   UNL A   1      47.764  25.624  32.163  1.00  0.00    -0.206 F 
ATOM     59  C   UNL A   1      49.903  25.331  31.244  1.00  0.00     0.040 A 
ATOM     60  C   UNL A   1      50.370  26.096  29.011  1.00  0.00     0.040 A 
ATOM     61  F   UNL A   1      48.703  27.175  27.762  1.00  0.00    -0.206 F 
ATOM     62  C   UNL A   1      50.796  25.479  30.186  1.00  0.00     0.006 A 
ENDBRANCH  41  55
BRANCH  42  63
ATOM     63  C   UNL A   1      38.569  29.183  29.019  1.00  0.00     0.057 A 
ATOM     64  C   UNL A   1      38.044  29.647  27.806  1.00  0.00     0.134 A 
ATOM     65  C   UNL A   1      37.704  29.136  30.118  1.00  0.00     0.134 A 
ATOM     66  F   UNL A   1      38.827  29.729  26.720  1.00  0.00    -0.206 F 
ATOM     67  C   UNL A   1      36.720  30.074  27.697  1.00  0.00     0.040 A 
ATOM     68  C   UNL A   1      36.370  29.535  30.017  1.00  0.00     0.040 A 
ATOM     69  F   UNL A   1      38.141  28.691  31.306  1.00  0.00    -0.206 F 
ATOM     70  C   UNL A   1      35.877  30.015  28.805  1.00  0.00     0.006 A 
ENDBRANCH  42  63
BRANCH  54  71
ATOM     71  C   UNL A   1      44.319  32.394  31.289  1.00  0.00     0.057 A 
ATOM     72  C   UNL A   1      44.277  32.691  32.657  1.00  0.00     0.134 A 
ATOM     73  C   UNL A   1      44.649  33.433  30.410  1.00  0.00     0.134 A 
ATOM     74  F   UNL A   1      43.953  31.743  33.550  1.00  0.00    -0.206 F 
ATOM     75  C   UNL A   1      44.531  33.979  33.129  1.00  0.00     0.040 A 
ATOM     76  C   UNL A   1      44.937  34.717  30.874  1.00  0.00     0.040 A 
ATOM     77  F   UNL A   1      44.718  33.213  29.088  1.00  0.00    -0.206 F 
ATOM     78  C   UNL A   1      44.872  34.994  32.237  1.00  0.00     0.006 A 
ENDBRANCH  54  71
ENDBRANCH  28  29
ENDBRANCH  20  23
ENDBRANCH  18  19
ENDBRANCH   1  18
TORSDOF 13
ENDMDL
MODEL 3
REMARK VINA RESULT:     -10.1      1.672      2.870
REMARK SMILES CCC1C[NH+]([C@H](C(=O)NCCCNC(=O)c2ccc(-c3c4nc(c(-c5c(F)cccc5F)c5ccc([nH]5)c(-c5c(F)cccc5F)c5nc(c(-c6c(F)cccc6F)c6ccc3[nH]6)C=C5)C=C4)cc2)C(C)C)C1
REMARK SMILES IDX 11 1 10 2 9 3 7 4 8 5 6 7 5 8 3 9 4 10 73 11 2 13 1 14 70 15
REMARK SMILES IDX 71 16 72 17 12 18 13 19 14 20 15 22 16 23 17 24 69 25 18 26
REMARK SMILES IDX 68 27 19 28 20 29 21 30 62 31 22 32 67 33 61 34 63 35 23 36
REMARK SMILES IDX 66 37 60 38 59 39 24 41 50 42 33 43 49 44 34 45 37 46 48 47
REMARK SMILES IDX 64 48 35 49 36 50 47 52 65 53 38 54 25 55 26 56 31 57 27 58
REMARK SMILES IDX 28 59 30 60 32 61 29 62 51 63 52 64 57 65 53 66 54 67 56 68
REMARK SMILES IDX 58 69 55 70 39 71 40 72 45 73 41 74 42 75 44 76 46 77 43 78
REMARK H PARENT 9 6 5 12 13 21 63 40 37 51
REMARK Flexibility Score: inf
ROOT
ATOM      1  C   UNL A   1      37.603  19.844  25.001  1.00  0.00     0.042 C 
ENDROOT
BRANCH   1   2
ATOM      2  C   UNL A   1      36.585  20.954  24.835  1.00  0.00     0.118 C 
BRANCH   2   3
ATOM      3  N   UNL A   1      35.892  21.285  26.067  1.00  0.00    -0.351 N 
ATOM      4  C   UNL A   1      34.590  21.474  26.401  1.00  0.00     0.278 C 
ATOM      5  O   UNL A   1      34.378  21.454  27.623  1.00  0.00    -0.268 OA
ATOM      6  H   UNL A   1      36.504  21.400  26.830  1.00  0.00     0.163 HD
BRANCH   4   7
ATOM      7  C   UNL A   1      33.413  21.769  25.414  1.00  0.00     0.276 C 
BRANCH   7   8
ATOM      8  N   UNL A   1      32.643  20.562  25.019  1.00  0.00    -0.324 N 
ATOM      9  C   UNL A   1      32.725  18.637  24.208  1.00  0.00     0.099 C 
ATOM     10  C   UNL A   1      33.141  19.286  25.557  1.00  0.00     0.272 C 
ATOM     11  C   UNL A   1      32.880  20.075  23.642  1.00  0.00     0.272 C 
ATOM     12  H   UNL A   1      31.723  20.909  25.288  1.00  0.00     0.348 HD
BRANCH   9  13
ATOM     13  C   UNL A   1      33.648  17.568  23.641  1.00  0.00     0.012 C 
ATOM     14  C   UNL A   1      33.280  16.203  24.199  1.00  0.00     0.004 C 
ENDBRANCH   9  13
ENDBRANCH   7   8
BRANCH   7  15
ATOM     15  C   UNL A   1      32.428  22.908  25.782  1.00  0.00     0.051 C 
ATOM     16  C   UNL A   1      33.152  24.254  25.949  1.00  0.00     0.014 C 
ATOM     17  C   UNL A   1      31.297  23.109  24.763  1.00  0.00     0.014 C 
ENDBRANCH   7  15
ENDBRANCH   4   7
ENDBRANCH   2   3
ENDBRANCH   1   2
BRANCH   1  18
ATOM     18  C   UNL A   1      38.863  20.308  25.713  1.00  0.00     0.118 C 
BRANCH  18  19
ATOM     19  N   UNL A   1      39.832  19.227  25.886  1.00  0.00    -0.352 N 
ATOM     20  C   UNL A   1      41.193  19.273  26.055  1.00  0.00     0.251 C 
ATOM     21  H   UNL A   1      39.447  18.321  25.878  1.00  0.00     0.163 HD
ATOM     22  O   UNL A   1      41.864  18.252  25.917  1.00  0.00    -0.269 OA
BRANCH  20  23
ATOM     23  C   UNL A   1      41.848  20.549  26.396  1.00  0.00     0.039 A 
ATOM     24  C   UNL A   1      42.319  21.380  25.376  1.00  0.00     0.014 A 
ATOM     25  C   UNL A   1      41.994  20.925  27.732  1.00  0.00     0.014 A 
ATOM     26  C   UNL A   1      42.861  22.624  25.700  1.00  0.00     0.010 A 
ATOM     27  C   UNL A   1      42.417  22.207  28.043  1.00  0.00     0.010 A 
ATOM     28  C   UNL A   1      42.870  23.066  27.033  1.00  0.00    -0.014 A 
BRANCH  28  29
ATOM     29  C   UNL A   1      43.364  24.411  27.411  1.00  0.00     0.031 A 
ATOM     30  C   UNL A   1      42.386  25.467  27.854  1.00  0.00     0.074 A 
ATOM     31  C   UNL A   1      44.670  24.707  27.271  1.00  0.00     0.049 A 
ATOM     32  N   UNL A   1      42.597  26.731  28.118  1.00  0.00    -0.248 NA
ATOM     33  C   UNL A   1      40.978  25.056  27.978  1.00  0.00     0.031 C 
ATOM     34  C   UNL A   1      45.705  23.783  26.796  1.00  0.00     0.029 A 
ATOM     35  N   UNL A   1      45.352  25.874  27.501  1.00  0.00    -0.354 N 
ATOM     36  C   UNL A   1      41.350  27.264  28.417  1.00  0.00     0.074 A 
ATOM     37  C   UNL A   1      40.380  26.209  28.234  1.00  0.00     0.031 C 
ATOM     38  C   UNL A   1      46.891  24.410  26.801  1.00  0.00     0.029 A 
ATOM     39  C   UNL A   1      46.697  25.791  27.231  1.00  0.00     0.049 A 
ATOM     40  H   UNL A   1      44.918  26.696  27.828  1.00  0.00     0.167 HD
ATOM     41  C   UNL A   1      41.044  28.513  28.839  1.00  0.00     0.037 A 
ATOM     42  C   UNL A   1      47.660  26.726  27.313  1.00  0.00     0.037 A 
ATOM     43  C   UNL A   1      42.019  29.550  29.046  1.00  0.00     0.049 A 
ATOM     44  C   UNL A   1      47.293  28.111  27.773  1.00  0.00     0.074 A 
ATOM     45  C   UNL A   1      41.826  30.832  29.528  1.00  0.00     0.029 A 
ATOM     46  N   UNL A   1      43.375  29.418  28.784  1.00  0.00    -0.354 N 
ATOM     47  N   UNL A   1      46.120  28.583  28.121  1.00  0.00    -0.248 NA
ATOM     48  C   UNL A   1      48.384  29.091  27.857  1.00  0.00     0.031 C 
ATOM     49  C   UNL A   1      43.057  31.494  29.508  1.00  0.00     0.029 A 
ATOM     50  C   UNL A   1      44.027  30.606  29.071  1.00  0.00     0.049 A 
ATOM     51  H   UNL A   1      43.810  28.603  28.444  1.00  0.00     0.167 HD
ATOM     52  C   UNL A   1      46.337  29.902  28.496  1.00  0.00     0.074 A 
ATOM     53  C   UNL A   1      47.756  30.150  28.346  1.00  0.00     0.031 C 
ATOM     54  C   UNL A   1      45.443  30.827  28.926  1.00  0.00     0.037 A 
BRANCH  41  55
ATOM     55  C   UNL A   1      39.599  28.821  29.108  1.00  0.00     0.057 A 
ATOM     56  C   UNL A   1      39.035  28.669  30.383  1.00  0.00     0.134 A 
ATOM     57  C   UNL A   1      38.766  29.302  28.090  1.00  0.00     0.134 A 
ATOM     58  F   UNL A   1      39.772  28.198  31.402  1.00  0.00    -0.206 F 
ATOM     59  C   UNL A   1      37.690  28.954  30.628  1.00  0.00     0.040 A 
ATOM     60  C   UNL A   1      37.429  29.621  28.330  1.00  0.00     0.040 A 
ATOM     61  F   UNL A   1      39.241  29.477  26.848  1.00  0.00    -0.206 F 
ATOM     62  C   UNL A   1      36.885  29.440  29.601  1.00  0.00     0.006 A 
ENDBRANCH  41  55
BRANCH  42  63
ATOM     63  C   UNL A   1      49.066  26.385  26.974  1.00  0.00     0.057 A 
ATOM     64  C   UNL A   1      49.936  25.867  27.943  1.00  0.00     0.134 A 
ATOM     65  C   UNL A   1      49.579  26.575  25.686  1.00  0.00     0.134 A 
ATOM     66  F   UNL A   1      49.508  25.676  29.199  1.00  0.00    -0.206 F 
ATOM     67  C   UNL A   1      51.270  25.578  27.650  1.00  0.00     0.040 A 
ATOM     68  C   UNL A   1      50.903  26.264  25.372  1.00  0.00     0.040 A 
ATOM     69  F   UNL A   1      48.796  27.056  24.709  1.00  0.00    -0.206 F 
ATOM     70  C   UNL A   1      51.756  25.773  26.359  1.00  0.00     0.006 A 
ENDBRANCH  42  63
BRANCH  54  71
ATOM     71  C   UNL A   1      45.979  32.176  29.307  1.00  0.00     0.057 A 
ATOM     72  C   UNL A   1      46.045  33.234  28.393  1.00  0.00     0.134 A 
ATOM     73  C   UNL A   1      46.391  32.430  30.622  1.00  0.00     0.134 A 
ATOM     74  F   UNL A   1      45.678  33.053  27.115  1.00  0.00    -0.206 F 
ATOM     75  C   UNL A   1      46.523  34.491  28.767  1.00  0.00     0.040 A 
ATOM     76  C   UNL A   1      46.840  33.691  31.016  1.00  0.00     0.040 A 
ATOM     77  F   UNL A   1      46.342  31.462  31.551  1.00  0.00    -0.206 F 
ATOM     78  C   UNL A   1      46.914  34.723  30.085  1.00  0.00     0.006 A 
ENDBRANCH  54  71
ENDBRANCH  28  29
ENDBRANCH  20  23
ENDBRANCH  18  19
ENDBRANCH   1  18
TORSDOF 13
ENDMDL
