MODEL 1
REMARK VINA RESULT:     -11.4      0.000      0.000
REMARK SMILES CSc1nc(O)nc(C)c1C(=O)N1C[C@@H](O)C[C@@H]1C(=O)NCCCNC(=O)c1ccc(-c2c3nc(c(-c4c(F)cccc4F)c4ccc([nH]4)c(-c4c(F)cccc4F)c4nc(c(-c5c(F)cccc5F)c5ccc2[nH]5)C=C4)C=C3)cc1
REMARK SMILES IDX 22 1 21 2 19 3 20 4 18 6 13 7 14 8 15 9 17 10 11 11 12 12
REMARK SMILES IDX 10 13 3 14 4 15 5 16 8 17 7 18 9 19 2 20 1 21 6 22 16 24
REMARK SMILES IDX 23 26 24 27 25 28 26 29 27 31 28 32 29 33 81 34 30 35 80 36
REMARK SMILES IDX 31 37 32 38 33 39 74 40 34 41 79 42 73 43 75 44 35 45 78 46
REMARK SMILES IDX 72 47 71 48 36 50 62 51 45 52 61 53 46 54 49 55 60 56 76 57
REMARK SMILES IDX 47 58 48 59 59 61 77 62 50 63 37 64 38 65 43 66 39 67 40 68
REMARK SMILES IDX 42 69 44 70 41 71 63 72 64 73 69 74 65 75 66 76 68 77 70 78
REMARK SMILES IDX 67 79 51 80 52 81 57 82 53 83 54 84 56 85 58 86 55 87
REMARK H PARENT 21 5 6 23 16 25 25 30 75 49 49 60
REMARK Flexibility Score: inf
ROOT
ATOM      1  C   UNL A   1      31.553  29.774  25.495  1.00  0.00     0.117 C 
ENDROOT
BRANCH   1   2
ATOM      2  N   UNL A   1      32.679  29.706  24.583  1.00  0.00    -0.354 N 
ATOM      3  C   UNL A   1      32.949  28.822  23.582  1.00  0.00     0.242 C 
ATOM      4  O   UNL A   1      33.971  29.012  22.919  1.00  0.00    -0.273 OA
ATOM      5  H   UNL A   1      33.356  30.411  24.708  1.00  0.00     0.163 HD
BRANCH   3   6
ATOM      6  C   UNL A   1      32.001  27.636  23.314  1.00  0.00     0.177 C 
ATOM      7  N   UNL A   1      32.652  26.356  23.603  1.00  0.00    -0.324 N 
ATOM      8  C   UNL A   1      32.469  25.430  22.498  1.00  0.00     0.152 C 
ATOM      9  C   UNL A   1      32.379  26.344  21.277  1.00  0.00     0.136 C 
ATOM     10  C   UNL A   1      31.661  27.587  21.814  1.00  0.00     0.069 C 
BRANCH   7  11
ATOM     11  C   UNL A   1      33.197  26.153  24.858  1.00  0.00     0.259 C 
ATOM     12  O   UNL A   1      33.999  26.969  25.316  1.00  0.00    -0.269 OA
BRANCH  11  13
ATOM     13  C   UNL A   1      32.943  24.924  25.654  1.00  0.00     0.093 A 
ATOM     14  C   UNL A   1      33.912  23.953  25.937  1.00  0.00     0.116 A 
ATOM     15  N   UNL A   1      33.695  22.931  26.796  1.00  0.00    -0.188 NA
ATOM     16  C   UNL A   1      32.528  22.925  27.418  1.00  0.00     0.315 A 
ATOM     17  C   UNL A   1      31.755  24.805  26.390  1.00  0.00     0.058 A 
ATOM     18  N   UNL A   1      31.540  23.798  27.278  1.00  0.00    -0.200 NA
ATOM     19  C   UNL A   1      30.651  25.827  26.385  1.00  0.00     0.068 C 
BRANCH  14  20
ATOM     20  S   UNL A   1      35.602  24.017  25.344  1.00  0.00    -0.109 SA
ATOM     21  C   UNL A   1      35.454  23.346  23.671  1.00  0.00     0.092 C 
ENDBRANCH  14  20
BRANCH  16  22
ATOM     22  O   UNL A   1      32.329  21.984  28.376  1.00  0.00    -0.479 OA
ATOM     23  H   UNL A   1      32.410  22.212  29.281  1.00  0.00     0.297 HD
ENDBRANCH  16  22
ENDBRANCH  11  13
ENDBRANCH   7  11
BRANCH   9  24
ATOM     24  O   UNL A   1      31.676  25.756  20.193  1.00  0.00    -0.391 OA
ATOM     25  H   UNL A   1      31.516  24.819  20.382  1.00  0.00     0.211 HD
ENDBRANCH   9  24
ENDBRANCH   3   6
ENDBRANCH   1   2
BRANCH   1  26
ATOM     26  C   UNL A   1      31.308  31.177  26.043  1.00  0.00     0.042 C 
BRANCH  26  27
ATOM     27  C   UNL A   1      32.406  31.673  26.977  1.00  0.00     0.118 C 
BRANCH  27  28
ATOM     28  N   UNL A   1      32.237  33.081  27.322  1.00  0.00    -0.352 N 
ATOM     29  C   UNL A   1      32.986  33.875  28.151  1.00  0.00     0.251 C 
ATOM     30  H   UNL A   1      31.470  33.527  26.895  1.00  0.00     0.163 HD
ATOM     31  O   UNL A   1      32.563  34.974  28.503  1.00  0.00    -0.269 OA
BRANCH  29  32
ATOM     32  C   UNL A   1      34.299  33.405  28.632  1.00  0.00     0.039 A 
ATOM     33  C   UNL A   1      34.373  32.718  29.846  1.00  0.00     0.014 A 
ATOM     34  C   UNL A   1      35.458  33.670  27.897  1.00  0.00     0.014 A 
ATOM     35  C   UNL A   1      35.606  32.245  30.297  1.00  0.00     0.010 A 
ATOM     36  C   UNL A   1      36.676  33.146  28.314  1.00  0.00     0.010 A 
ATOM     37  C   UNL A   1      36.761  32.438  29.524  1.00  0.00    -0.014 A 
BRANCH  37  38
ATOM     38  C   UNL A   1      38.084  31.958  29.988  1.00  0.00     0.031 A 
ATOM     39  C   UNL A   1      38.605  30.636  29.500  1.00  0.00     0.074 A 
ATOM     40  C   UNL A   1      38.789  32.680  30.878  1.00  0.00     0.049 A 
ATOM     41  N   UNL A   1      39.708  30.011  29.821  1.00  0.00    -0.248 NA
ATOM     42  C   UNL A   1      37.760  29.913  28.537  1.00  0.00     0.031 C 
ATOM     43  C   UNL A   1      38.376  33.965  31.443  1.00  0.00     0.029 A 
ATOM     44  N   UNL A   1      39.998  32.426  31.474  1.00  0.00    -0.354 N 
ATOM     45  C   UNL A   1      39.692  28.826  29.098  1.00  0.00     0.074 A 
ATOM     46  C   UNL A   1      38.440  28.788  28.374  1.00  0.00     0.031 C 
ATOM     47  C   UNL A   1      39.321  34.392  32.298  1.00  0.00     0.029 A 
ATOM     48  C   UNL A   1      40.388  33.395  32.365  1.00  0.00     0.049 A 
ATOM     49  H   UNL A   1      40.536  31.624  31.280  1.00  0.00     0.167 HD
ATOM     50  C   UNL A   1      40.644  27.866  29.022  1.00  0.00     0.037 A 
ATOM     51  C   UNL A   1      41.476  33.462  33.154  1.00  0.00     0.037 A 
ATOM     52  C   UNL A   1      41.884  27.900  29.752  1.00  0.00     0.049 A 
ATOM     53  C   UNL A   1      42.489  32.350  33.103  1.00  0.00     0.074 A 
ATOM     54  C   UNL A   1      42.929  26.996  29.723  1.00  0.00     0.029 A 
ATOM     55  N   UNL A   1      42.237  28.891  30.656  1.00  0.00    -0.354 N 
ATOM     56  N   UNL A   1      42.496  31.267  32.364  1.00  0.00    -0.248 NA
ATOM     57  C   UNL A   1      43.650  32.472  33.997  1.00  0.00     0.031 C 
ATOM     58  C   UNL A   1      43.891  27.410  30.651  1.00  0.00     0.029 A 
ATOM     59  C   UNL A   1      43.471  28.604  31.216  1.00  0.00     0.049 A 
ATOM     60  H   UNL A   1      41.691  29.683  30.870  1.00  0.00     0.167 HD
ATOM     61  C   UNL A   1      43.672  30.597  32.679  1.00  0.00     0.074 A 
ATOM     62  C   UNL A   1      44.359  31.404  33.665  1.00  0.00     0.031 C 
ATOM     63  C   UNL A   1      44.142  29.420  32.196  1.00  0.00     0.037 A 
BRANCH  50  64
ATOM     64  C   UNL A   1      40.365  26.698  28.121  1.00  0.00     0.057 A 
ATOM     65  C   UNL A   1      39.506  25.669  28.525  1.00  0.00     0.134 A 
ATOM     66  C   UNL A   1      40.943  26.593  26.847  1.00  0.00     0.134 A 
ATOM     67  F   UNL A   1      38.922  25.702  29.732  1.00  0.00    -0.206 F 
ATOM     68  C   UNL A   1      39.225  24.584  27.693  1.00  0.00     0.040 A 
ATOM     69  C   UNL A   1      40.646  25.530  25.994  1.00  0.00     0.040 A 
ATOM     70  F   UNL A   1      41.765  27.552  26.393  1.00  0.00    -0.206 F 
ATOM     71  C   UNL A   1      39.787  24.518  26.419  1.00  0.00     0.006 A 
ENDBRANCH  50  64
BRANCH  51  72
ATOM     72  C   UNL A   1      41.678  34.623  34.059  1.00  0.00     0.057 A 
ATOM     73  C   UNL A   1      42.360  35.770  33.638  1.00  0.00     0.134 A 
ATOM     74  C   UNL A   1      41.154  34.624  35.358  1.00  0.00     0.134 A 
ATOM     75  F   UNL A   1      42.891  35.831  32.408  1.00  0.00    -0.206 F 
ATOM     76  C   UNL A   1      42.513  36.878  34.474  1.00  0.00     0.040 A 
ATOM     77  C   UNL A   1      41.277  35.735  36.194  1.00  0.00     0.040 A 
ATOM     78  F   UNL A   1      40.473  33.562  35.811  1.00  0.00    -0.206 F 
ATOM     79  C   UNL A   1      41.961  36.866  35.753  1.00  0.00     0.006 A 
ENDBRANCH  51  72
BRANCH  63  80
ATOM     80  C   UNL A   1      45.477  28.956  32.704  1.00  0.00     0.057 A 
ATOM     81  C   UNL A   1      46.658  29.337  32.052  1.00  0.00     0.134 A 
ATOM     82  C   UNL A   1      45.597  28.113  33.815  1.00  0.00     0.134 A 
ATOM     83  F   UNL A   1      46.615  30.137  30.976  1.00  0.00    -0.206 F 
ATOM     84  C   UNL A   1      47.907  28.895  32.487  1.00  0.00     0.040 A 
ATOM     85  C   UNL A   1      46.843  27.688  34.278  1.00  0.00     0.040 A 
ATOM     86  F   UNL A   1      44.507  27.722  34.493  1.00  0.00    -0.206 F 
ATOM     87  C   UNL A   1      48.004  28.074  33.608  1.00  0.00     0.006 A 
ENDBRANCH  63  80
ENDBRANCH  37  38
ENDBRANCH  29  32
ENDBRANCH  27  28
ENDBRANCH  26  27
ENDBRANCH   1  26
TORSDOF 15
ENDMDL
MODEL 2
REMARK VINA RESULT:     -11.4      3.186      8.480
REMARK SMILES CSc1nc(O)nc(C)c1C(=O)N1C[C@@H](O)C[C@@H]1C(=O)NCCCNC(=O)c1ccc(-c2c3nc(c(-c4c(F)cccc4F)c4ccc([nH]4)c(-c4c(F)cccc4F)c4nc(c(-c5c(F)cccc5F)c5ccc2[nH]5)C=C4)C=C3)cc1
REMARK SMILES IDX 22 1 21 2 19 3 20 4 18 6 13 7 14 8 15 9 17 10 11 11 12 12
REMARK SMILES IDX 10 13 3 14 4 15 5 16 8 17 7 18 9 19 2 20 1 21 6 22 16 24
REMARK SMILES IDX 23 26 24 27 25 28 26 29 27 31 28 32 29 33 81 34 30 35 80 36
REMARK SMILES IDX 31 37 32 38 33 39 74 40 34 41 79 42 73 43 75 44 35 45 78 46
REMARK SMILES IDX 72 47 71 48 36 50 62 51 45 52 61 53 46 54 49 55 60 56 76 57
REMARK SMILES IDX 47 58 48 59 59 61 77 62 50 63 37 64 38 65 43 66 39 67 40 68
REMARK SMILES IDX 42 69 44 70 41 71 63 72 64 73 69 74 65 75 66 76 68 77 70 78
REMARK SMILES IDX 67 79 51 80 52 81 57 82 53 83 54 84 56 85 58 86 55 87
REMARK H PARENT 21 5 6 23 16 25 25 30 75 49 49 60
REMARK Flexibility Score: inf
ROOT
ATOM      1  C   UNL A   1      35.915  20.896  24.932  1.00  0.00     0.117 C 
ENDROOT
BRANCH   1   2
ATOM      2  N   UNL A   1      35.508  21.312  26.260  1.00  0.00    -0.354 N 
ATOM      3  C   UNL A   1      34.314  21.797  26.703  1.00  0.00     0.242 C 
ATOM      4  O   UNL A   1      34.214  22.043  27.907  1.00  0.00    -0.273 OA
ATOM      5  H   UNL A   1      36.204  21.231  26.952  1.00  0.00     0.163 HD
BRANCH   3   6
ATOM      6  C   UNL A   1      33.152  22.028  25.715  1.00  0.00     0.177 C 
ATOM      7  N   UNL A   1      32.809  23.448  25.616  1.00  0.00    -0.324 N 
ATOM      8  C   UNL A   1      31.375  23.637  25.759  1.00  0.00     0.152 C 
ATOM      9  C   UNL A   1      30.951  22.484  26.668  1.00  0.00     0.136 C 
ATOM     10  C   UNL A   1      31.884  21.341  26.254  1.00  0.00     0.069 C 
BRANCH   7  11
ATOM     11  C   UNL A   1      33.800  24.352  25.281  1.00  0.00     0.259 C 
ATOM     12  O   UNL A   1      34.845  24.384  25.933  1.00  0.00    -0.269 OA
BRANCH  11  13
ATOM     13  C   UNL A   1      33.623  25.382  24.224  1.00  0.00     0.093 A 
ATOM     14  C   UNL A   1      33.578  26.761  24.465  1.00  0.00     0.116 A 
ATOM     15  N   UNL A   1      33.579  27.678  23.471  1.00  0.00    -0.188 NA
ATOM     16  C   UNL A   1      33.692  27.209  22.239  1.00  0.00     0.315 A 
ATOM     17  C   UNL A   1      33.751  25.023  22.874  1.00  0.00     0.058 A 
ATOM     18  N   UNL A   1      33.783  25.939  21.871  1.00  0.00    -0.200 NA
ATOM     19  C   UNL A   1      33.995  23.618  22.394  1.00  0.00     0.068 C 
BRANCH  14  20
ATOM     20  S   UNL A   1      33.681  27.501  26.095  1.00  0.00    -0.109 SA
ATOM     21  C   UNL A   1      32.098  28.366  26.230  1.00  0.00     0.092 C 
ENDBRANCH  14  20
BRANCH  16  22
ATOM     22  O   UNL A   1      33.819  28.109  21.232  1.00  0.00    -0.479 OA
ATOM     23  H   UNL A   1      34.626  28.172  20.759  1.00  0.00     0.297 HD
ENDBRANCH  16  22
ENDBRANCH  11  13
ENDBRANCH   7  11
BRANCH   9  24
ATOM     24  O   UNL A   1      29.585  22.129  26.517  1.00  0.00    -0.391 OA
ATOM     25  H   UNL A   1      29.046  22.649  27.133  1.00  0.00     0.211 HD
ENDBRANCH   9  24
ENDBRANCH   3   6
ENDBRANCH   1   2
BRANCH   1  26
ATOM     26  C   UNL A   1      37.086  19.918  24.943  1.00  0.00     0.042 C 
BRANCH  26  27
ATOM     27  C   UNL A   1      38.394  20.529  25.432  1.00  0.00     0.118 C 
BRANCH  27  28
ATOM     28  N   UNL A   1      39.437  19.524  25.608  1.00  0.00    -0.352 N 
ATOM     29  C   UNL A   1      40.744  19.677  25.991  1.00  0.00     0.251 C 
ATOM     30  H   UNL A   1      39.161  18.597  25.424  1.00  0.00     0.163 HD
ATOM     31  O   UNL A   1      41.539  18.748  25.864  1.00  0.00    -0.269 OA
BRANCH  29  32
ATOM     32  C   UNL A   1      41.203  20.964  26.548  1.00  0.00     0.039 A 
ATOM     33  C   UNL A   1      41.759  21.917  25.692  1.00  0.00     0.014 A 
ATOM     34  C   UNL A   1      41.108  21.215  27.920  1.00  0.00     0.014 A 
ATOM     35  C   UNL A   1      42.171  23.148  26.203  1.00  0.00     0.010 A 
ATOM     36  C   UNL A   1      41.460  22.463  28.420  1.00  0.00     0.010 A 
ATOM     37  C   UNL A   1      42.005  23.436  27.567  1.00  0.00    -0.014 A 
BRANCH  37  38
ATOM     38  C   UNL A   1      42.447  24.731  28.137  1.00  0.00     0.031 A 
ATOM     39  C   UNL A   1      41.447  25.834  28.332  1.00  0.00     0.074 A 
ATOM     40  C   UNL A   1      43.745  24.930  28.430  1.00  0.00     0.049 A 
ATOM     41  N   UNL A   1      41.633  27.054  28.764  1.00  0.00    -0.248 NA
ATOM     42  C   UNL A   1      40.054  25.527  27.973  1.00  0.00     0.031 C 
ATOM     43  C   UNL A   1      44.813  23.944  28.260  1.00  0.00     0.029 A 
ATOM     44  N   UNL A   1      44.388  26.037  28.921  1.00  0.00    -0.354 N 
ATOM     45  C   UNL A   1      40.383  27.658  28.734  1.00  0.00     0.074 A 
ATOM     46  C   UNL A   1      39.460  26.693  28.178  1.00  0.00     0.031 C 
ATOM     47  C   UNL A   1      45.978  24.489  28.650  1.00  0.00     0.029 A 
ATOM     48  C   UNL A   1      45.743  25.870  29.064  1.00  0.00     0.049 A 
ATOM     49  H   UNL A   1      43.921  26.874  29.150  1.00  0.00     0.167 HD
ATOM     50  C   UNL A   1      40.029  28.896  29.154  1.00  0.00     0.037 A 
ATOM     51  C   UNL A   1      46.687  26.739  29.471  1.00  0.00     0.037 A 
ATOM     52  C   UNL A   1      40.952  29.858  29.695  1.00  0.00     0.049 A 
ATOM     53  C   UNL A   1      46.280  28.133  29.869  1.00  0.00     0.074 A 
ATOM     54  C   UNL A   1      40.692  31.127  30.179  1.00  0.00     0.029 A 
ATOM     55  N   UNL A   1      42.320  29.658  29.811  1.00  0.00    -0.354 N 
ATOM     56  N   UNL A   1      45.084  28.670  29.901  1.00  0.00    -0.248 NA
ATOM     57  C   UNL A   1      47.356  29.040  30.292  1.00  0.00     0.031 C 
ATOM     58  C   UNL A   1      41.910  31.716  30.537  1.00  0.00     0.029 A 
ATOM     59  C   UNL A   1      42.923  30.792  30.329  1.00  0.00     0.049 A 
ATOM     60  H   UNL A   1      42.793  28.831  29.561  1.00  0.00     0.167 HD
ATOM     61  C   UNL A   1      45.260  29.965  30.375  1.00  0.00     0.074 A 
ATOM     62  C   UNL A   1      46.677  30.124  30.633  1.00  0.00     0.031 C 
ATOM     63  C   UNL A   1      44.335  30.934  30.580  1.00  0.00     0.037 A 
BRANCH  50  64
ATOM     64  C   UNL A   1      38.580  29.270  29.029  1.00  0.00     0.057 A 
ATOM     65  C   UNL A   1      37.723  29.197  30.133  1.00  0.00     0.134 A 
ATOM     66  C   UNL A   1      38.034  29.711  27.815  1.00  0.00     0.134 A 
ATOM     67  F   UNL A   1      38.177  28.779  31.325  1.00  0.00    -0.206 F 
ATOM     68  C   UNL A   1      36.377  29.556  30.037  1.00  0.00     0.040 A 
ATOM     69  C   UNL A   1      36.699  30.103  27.714  1.00  0.00     0.040 A 
ATOM     70  F   UNL A   1      38.804  29.817  26.722  1.00  0.00    -0.206 F 
ATOM     71  C   UNL A   1      35.864  30.022  28.828  1.00  0.00     0.006 A 
ENDBRANCH  50  64
BRANCH  51  72
ATOM     72  C   UNL A   1      48.112  26.325  29.532  1.00  0.00     0.057 A 
ATOM     73  C   UNL A   1      48.976  26.511  28.445  1.00  0.00     0.134 A 
ATOM     74  C   UNL A   1      48.653  25.769  30.698  1.00  0.00     0.134 A 
ATOM     75  F   UNL A   1      48.519  27.034  27.298  1.00  0.00    -0.206 F 
ATOM     76  C   UNL A   1      50.326  26.162  28.517  1.00  0.00     0.040 A 
ATOM     77  C   UNL A   1      50.007  25.441  30.791  1.00  0.00     0.040 A 
ATOM     78  F   UNL A   1      47.881  25.585  31.779  1.00  0.00    -0.206 F 
ATOM     79  C   UNL A   1      50.847  25.635  29.696  1.00  0.00     0.006 A 
ENDBRANCH  51  72
BRANCH  63  80
ATOM     80  C   UNL A   1      44.823  32.239  31.141  1.00  0.00     0.057 A 
ATOM     81  C   UNL A   1      45.227  33.274  30.288  1.00  0.00     0.134 A 
ATOM     82  C   UNL A   1      44.921  32.464  32.520  1.00  0.00     0.134 A 
ATOM     83  F   UNL A   1      45.168  33.122  28.956  1.00  0.00    -0.206 F 
ATOM     84  C   UNL A   1      45.711  34.484  30.786  1.00  0.00     0.040 A 
ATOM     85  C   UNL A   1      45.375  33.681  33.031  1.00  0.00     0.040 A 
ATOM     86  F   UNL A   1      44.536  31.520  33.393  1.00  0.00    -0.206 F 
ATOM     87  C   UNL A   1      45.779  34.693  32.161  1.00  0.00     0.006 A 
ENDBRANCH  63  80
ENDBRANCH  37  38
ENDBRANCH  29  32
ENDBRANCH  27  28
ENDBRANCH  26  27
ENDBRANCH   1  26
TORSDOF 15
ENDMDL
MODEL 3
REMARK VINA RESULT:     -11.1      2.500      7.378
REMARK SMILES CSc1nc(O)nc(C)c1C(=O)N1C[C@@H](O)C[C@@H]1C(=O)NCCCNC(=O)c1ccc(-c2c3nc(c(-c4c(F)cccc4F)c4ccc([nH]4)c(-c4c(F)cccc4F)c4nc(c(-c5c(F)cccc5F)c5ccc2[nH]5)C=C4)C=C3)cc1
REMARK SMILES IDX 22 1 21 2 19 3 20 4 18 6 13 7 14 8 15 9 17 10 11 11 12 12
REMARK SMILES IDX 10 13 3 14 4 15 5 16 8 17 7 18 9 19 2 20 1 21 6 22 16 24
REMARK SMILES IDX 23 26 24 27 25 28 26 29 27 31 28 32 29 33 81 34 30 35 80 36
REMARK SMILES IDX 31 37 32 38 33 39 74 40 34 41 79 42 73 43 75 44 35 45 78 46
REMARK SMILES IDX 72 47 71 48 36 50 62 51 45 52 61 53 46 54 49 55 60 56 76 57
REMARK SMILES IDX 47 58 48 59 59 61 77 62 50 63 37 64 38 65 43 66 39 67 40 68
REMARK SMILES IDX 42 69 44 70 41 71 63 72 64 73 69 74 65 75 66 76 68 77 70 78
REMARK SMILES IDX 67 79 51 80 52 81 57 82 53 83 54 84 56 85 58 86 55 87
REMARK H PARENT 21 5 6 23 16 25 25 30 75 49 49 60
REMARK Flexibility Score: inf
ROOT
ATOM      1  C   UNL A   1      33.050  26.743  26.223  1.00  0.00     0.117 C 
ENDROOT
BRANCH   1   2
ATOM      2  N   UNL A   1      31.911  25.948  26.641  1.00  0.00    -0.354 N 
ATOM      3  C   UNL A   1      31.679  24.611  26.518  1.00  0.00     0.242 C 
ATOM      4  O   UNL A   1      30.632  24.172  26.999  1.00  0.00    -0.273 OA
ATOM      5  H   UNL A   1      31.192  26.455  27.083  1.00  0.00     0.163 HD
BRANCH   3   6
ATOM      6  C   UNL A   1      32.698  23.706  25.795  1.00  0.00     0.177 C 
ATOM      7  N   UNL A   1      32.067  22.955  24.708  1.00  0.00    -0.324 N 
ATOM      8  C   UNL A   1      32.416  21.546  24.793  1.00  0.00     0.152 C 
ATOM      9  C   UNL A   1      32.616  21.317  26.290  1.00  0.00     0.136 C 
ATOM     10  C   UNL A   1      33.215  22.641  26.778  1.00  0.00     0.069 C 
BRANCH   7  11
ATOM     11  C   UNL A   1      31.385  23.648  23.725  1.00  0.00     0.259 C 
ATOM     12  O   UNL A   1      30.274  23.258  23.360  1.00  0.00    -0.269 OA
BRANCH  11  13
ATOM     13  C   UNL A   1      31.979  24.798  22.995  1.00  0.00     0.093 A 
ATOM     14  C   UNL A   1      31.454  26.096  23.005  1.00  0.00     0.116 A 
ATOM     15  N   UNL A   1      32.103  27.153  22.466  1.00  0.00    -0.188 NA
ATOM     16  C   UNL A   1      33.309  26.914  21.977  1.00  0.00     0.315 A 
ATOM     17  C   UNL A   1      33.269  24.688  22.455  1.00  0.00     0.058 A 
ATOM     18  N   UNL A   1      33.942  25.750  21.938  1.00  0.00    -0.200 NA
ATOM     19  C   UNL A   1      34.100  23.434  22.500  1.00  0.00     0.068 C 
BRANCH  14  20
ATOM     20  S   UNL A   1      29.952  26.566  23.864  1.00  0.00    -0.109 SA
ATOM     21  C   UNL A   1      29.514  28.125  23.059  1.00  0.00     0.092 C 
ENDBRANCH  14  20
BRANCH  16  22
ATOM     22  O   UNL A   1      34.033  27.976  21.542  1.00  0.00    -0.479 OA
ATOM     23  H   UNL A   1      34.967  27.971  21.625  1.00  0.00     0.297 HD
ENDBRANCH  16  22
ENDBRANCH  11  13
ENDBRANCH   7  11
BRANCH   9  24
ATOM     24  O   UNL A   1      33.465  20.217  26.576  1.00  0.00    -0.391 OA
ATOM     25  H   UNL A   1      33.458  20.042  27.530  1.00  0.00     0.211 HD
ENDBRANCH   9  24
ENDBRANCH   3   6
ENDBRANCH   1   2
BRANCH   1  26
ATOM     26  C   UNL A   1      33.144  28.083  26.947  1.00  0.00     0.042 C 
BRANCH  26  27
ATOM     27  C   UNL A   1      34.000  29.115  26.222  1.00  0.00     0.118 C 
BRANCH  27  28
ATOM     28  N   UNL A   1      33.834  30.454  26.779  1.00  0.00    -0.352 N 
ATOM     29  C   UNL A   1      34.527  31.075  27.785  1.00  0.00     0.251 C 
ATOM     30  H   UNL A   1      33.117  30.991  26.370  1.00  0.00     0.163 HD
ATOM     31  O   UNL A   1      34.100  32.118  28.277  1.00  0.00    -0.269 OA
BRANCH  29  32
ATOM     32  C   UNL A   1      35.782  30.486  28.288  1.00  0.00     0.039 A 
ATOM     33  C   UNL A   1      36.969  30.712  27.587  1.00  0.00     0.014 A 
ATOM     34  C   UNL A   1      35.779  29.688  29.435  1.00  0.00     0.014 A 
ATOM     35  C   UNL A   1      38.167  30.182  28.068  1.00  0.00     0.010 A 
ATOM     36  C   UNL A   1      36.980  29.213  29.949  1.00  0.00     0.010 A 
ATOM     37  C   UNL A   1      38.182  29.447  29.263  1.00  0.00    -0.014 A 
BRANCH  37  38
ATOM     38  C   UNL A   1      39.439  28.863  29.788  1.00  0.00     0.031 A 
ATOM     39  C   UNL A   1      40.095  29.476  30.992  1.00  0.00     0.074 A 
ATOM     40  C   UNL A   1      40.012  27.820  29.158  1.00  0.00     0.049 A 
ATOM     41  N   UNL A   1      41.219  29.153  31.578  1.00  0.00    -0.248 NA
ATOM     42  C   UNL A   1      39.401  30.618  31.607  1.00  0.00     0.031 C 
ATOM     43  C   UNL A   1      39.484  27.156  27.967  1.00  0.00     0.029 A 
ATOM     44  N   UNL A   1      41.175  27.147  29.429  1.00  0.00    -0.354 N 
ATOM     45  C   UNL A   1      41.365  30.047  32.630  1.00  0.00     0.074 A 
ATOM     46  C   UNL A   1      40.249  30.967  32.562  1.00  0.00     0.031 C 
ATOM     47  C   UNL A   1      40.317  26.163  27.613  1.00  0.00     0.029 A 
ATOM     48  C   UNL A   1      41.453  26.144  28.532  1.00  0.00     0.049 A 
ATOM     49  H   UNL A   1      41.757  27.362  30.194  1.00  0.00     0.167 HD
ATOM     50  C   UNL A   1      42.325  30.086  33.583  1.00  0.00     0.037 A 
ATOM     51  C   UNL A   1      42.509  25.313  28.458  1.00  0.00     0.037 A 
ATOM     52  C   UNL A   1      43.440  29.177  33.642  1.00  0.00     0.049 A 
ATOM     53  C   UNL A   1      43.601  25.419  29.489  1.00  0.00     0.074 A 
ATOM     54  C   UNL A   1      44.451  29.110  34.582  1.00  0.00     0.029 A 
ATOM     55  N   UNL A   1      43.695  28.184  32.708  1.00  0.00    -0.354 N 
ATOM     56  N   UNL A   1      43.693  26.224  30.520  1.00  0.00    -0.248 NA
ATOM     57  C   UNL A   1      44.735  24.495  29.348  1.00  0.00     0.031 C 
ATOM     58  C   UNL A   1      45.348  28.111  34.188  1.00  0.00     0.029 A 
ATOM     59  C   UNL A   1      44.865  27.518  33.032  1.00  0.00     0.049 A 
ATOM     60  H   UNL A   1      43.127  27.981  31.929  1.00  0.00     0.167 HD
ATOM     61  C   UNL A   1      44.875  25.884  31.166  1.00  0.00     0.074 A 
ATOM     62  C   UNL A   1      45.457  24.789  30.418  1.00  0.00     0.031 C 
ATOM     63  C   UNL A   1      45.430  26.428  32.277  1.00  0.00     0.037 A 
BRANCH  50  64
ATOM     64  C   UNL A   1      42.206  31.156  34.629  1.00  0.00     0.057 A 
ATOM     65  C   UNL A   1      41.472  30.937  35.801  1.00  0.00     0.134 A 
ATOM     66  C   UNL A   1      42.825  32.406  34.480  1.00  0.00     0.134 A 
ATOM     67  F   UNL A   1      40.850  29.766  36.008  1.00  0.00    -0.206 F 
ATOM     68  C   UNL A   1      41.365  31.917  36.789  1.00  0.00     0.040 A 
ATOM     69  C   UNL A   1      42.752  33.382  35.475  1.00  0.00     0.040 A 
ATOM     70  F   UNL A   1      43.555  32.677  33.387  1.00  0.00    -0.206 F 
ATOM     71  C   UNL A   1      42.016  33.139  36.633  1.00  0.00     0.006 A 
ENDBRANCH  50  64
BRANCH  51  72
ATOM     72  C   UNL A   1      42.594  24.302  27.373  1.00  0.00     0.057 A 
ATOM     73  C   UNL A   1      43.146  24.612  26.124  1.00  0.00     0.134 A 
ATOM     74  C   UNL A   1      42.160  22.987  27.577  1.00  0.00     0.134 A 
ATOM     75  F   UNL A   1      43.576  25.855  25.863  1.00  0.00    -0.206 F 
ATOM     76  C   UNL A   1      43.266  23.651  25.119  1.00  0.00     0.040 A 
ATOM     77  C   UNL A   1      42.298  22.009  26.590  1.00  0.00     0.040 A 
ATOM     78  F   UNL A   1      41.641  22.623  28.759  1.00  0.00    -0.206 F 
ATOM     79  C   UNL A   1      42.851  22.342  25.355  1.00  0.00     0.006 A 
ENDBRANCH  51  72
BRANCH  63  80
ATOM     80  C   UNL A   1      46.713  25.821  32.768  1.00  0.00     0.057 A 
ATOM     81  C   UNL A   1      47.944  26.241  32.247  1.00  0.00     0.134 A 
ATOM     82  C   UNL A   1      46.733  24.806  33.732  1.00  0.00     0.134 A 
ATOM     83  F   UNL A   1      47.997  27.204  31.315  1.00  0.00    -0.206 F 
ATOM     84  C   UNL A   1      49.147  25.672  32.667  1.00  0.00     0.040 A 
ATOM     85  C   UNL A   1      47.931  24.250  34.183  1.00  0.00     0.040 A 
ATOM     86  F   UNL A   1      45.590  24.368  34.283  1.00  0.00    -0.206 F 
ATOM     87  C   UNL A   1      49.144  24.678  33.643  1.00  0.00     0.006 A 
ENDBRANCH  63  80
ENDBRANCH  37  38
ENDBRANCH  29  32
ENDBRANCH  27  28
ENDBRANCH  26  27
ENDBRANCH   1  26
TORSDOF 15
ENDMDL
