MODEL 1
REMARK VINA RESULT:     -10.8      0.000      0.000
REMARK SMILES C[C@H]1CCCC/C1=C\C(=O)NCCCNC(=O)c1ccc(-c2c3nc(c(-c4c(F)cccc4F)c4ccc([nH]4)c(-c4c(F)cccc4F)c4nc(c(-c5c(F)cccc5F)c5ccc2[nH]5)C=C4)C=C3)cc1
REMARK SMILES IDX 14 1 13 2 12 3 11 4 9 5 10 6 8 8 1 9 2 10 3 11 7 12 4 13
REMARK SMILES IDX 6 14 5 15 15 16 16 17 17 19 18 20 19 21 71 22 20 23 70 24
REMARK SMILES IDX 21 25 22 26 23 27 64 28 24 29 69 30 63 31 65 32 25 33 68 34
REMARK SMILES IDX 62 35 61 36 26 38 52 39 35 40 51 41 36 42 39 43 50 44 66 45
REMARK SMILES IDX 37 46 38 47 49 49 67 50 40 51 27 52 28 53 33 54 29 55 30 56
REMARK SMILES IDX 32 57 34 58 31 59 53 60 54 61 59 62 55 63 56 64 58 65 60 66
REMARK SMILES IDX 57 67 41 68 42 69 47 70 43 71 44 72 46 73 48 74 45 75
REMARK H PARENT 11 7 15 18 65 37 39 48
REMARK Flexibility Score: inf
ROOT
ATOM      1  C   UNL A   1      33.402  36.012  29.390  1.00  0.00     0.118 C 
ENDROOT
BRANCH   1   2
ATOM      2  C   UNL A   1      33.625  34.537  29.141  1.00  0.00     0.042 C 
BRANCH   2   3
ATOM      3  C   UNL A   1      34.664  34.237  28.089  1.00  0.00     0.118 C 
BRANCH   3   4
ATOM      4  N   UNL A   1      35.467  33.063  28.260  1.00  0.00    -0.352 N 
ATOM      5  C   UNL A   1      35.208  31.798  27.834  1.00  0.00     0.243 C 
ATOM      6  O   UNL A   1      36.073  30.939  28.022  1.00  0.00    -0.270 OA
ATOM      7  H   UNL A   1      36.314  33.188  28.747  1.00  0.00     0.163 HD
BRANCH   5   8
ATOM      8  C   UNL A   1      33.881  31.349  27.289  1.00  0.00     0.070 C 
ATOM      9  C   UNL A   1      31.084  31.505  26.243  1.00  0.00     0.012 C 
ATOM     10  C   UNL A   1      31.815  30.169  26.400  1.00  0.00     0.012 C 
ATOM     11  C   UNL A   1      31.947  29.469  25.031  1.00  0.00     0.008 C 
ATOM     12  C   UNL A   1      33.203  30.200  27.057  1.00  0.00    -0.062 C 
ATOM     13  C   UNL A   1      32.549  28.063  25.143  1.00  0.00     0.001 C 
ATOM     14  C   UNL A   1      33.632  28.771  27.327  1.00  0.00     0.031 C 
ATOM     15  C   UNL A   1      33.821  28.037  25.987  1.00  0.00     0.004 C 
ENDBRANCH   5   8
ENDBRANCH   3   4
ENDBRANCH   2   3
ENDBRANCH   1   2
BRANCH   1  16
ATOM     16  N   UNL A   1      32.539  36.284  30.537  1.00  0.00    -0.352 N 
ATOM     17  C   UNL A   1      32.590  35.886  31.853  1.00  0.00     0.251 C 
ATOM     18  H   UNL A   1      31.772  36.865  30.329  1.00  0.00     0.163 HD
ATOM     19  O   UNL A   1      31.636  36.131  32.591  1.00  0.00    -0.269 OA
BRANCH  17  20
ATOM     20  C   UNL A   1      33.749  35.138  32.390  1.00  0.00     0.039 A 
ATOM     21  C   UNL A   1      33.578  33.823  32.835  1.00  0.00     0.014 A 
ATOM     22  C   UNL A   1      35.009  35.724  32.473  1.00  0.00     0.014 A 
ATOM     23  C   UNL A   1      34.683  33.079  33.258  1.00  0.00     0.010 A 
ATOM     24  C   UNL A   1      36.124  34.943  32.740  1.00  0.00     0.010 A 
ATOM     25  C   UNL A   1      35.977  33.615  33.158  1.00  0.00    -0.014 A 
BRANCH  25  26
ATOM     26  C   UNL A   1      37.193  32.836  33.509  1.00  0.00     0.031 A 
ATOM     27  C   UNL A   1      37.928  33.132  34.793  1.00  0.00     0.074 A 
ATOM     28  C   UNL A   1      37.694  31.938  32.638  1.00  0.00     0.049 A 
ATOM     29  N   UNL A   1      39.076  32.669  35.218  1.00  0.00    -0.248 NA
ATOM     30  C   UNL A   1      37.312  34.117  35.699  1.00  0.00     0.031 C 
ATOM     31  C   UNL A   1      37.116  31.604  31.335  1.00  0.00     0.029 A 
ATOM     32  N   UNL A   1      38.816  31.150  32.712  1.00  0.00    -0.354 N 
ATOM     33  C   UNL A   1      39.329  33.330  36.414  1.00  0.00     0.074 A 
ATOM     34  C   UNL A   1      38.257  34.277  36.612  1.00  0.00     0.031 C 
ATOM     35  C   UNL A   1      37.866  30.657  30.749  1.00  0.00     0.029 A 
ATOM     36  C   UNL A   1      39.004  30.352  31.609  1.00  0.00     0.049 A 
ATOM     37  H   UNL A   1      39.428  31.156  33.483  1.00  0.00     0.167 HD
ATOM     38  C   UNL A   1      40.346  33.143  37.288  1.00  0.00     0.037 A 
ATOM     39  C   UNL A   1      39.989  29.481  31.320  1.00  0.00     0.037 A 
ATOM     40  C   UNL A   1      41.385  32.165  37.111  1.00  0.00     0.049 A 
ATOM     41  C   UNL A   1      41.101  29.281  32.311  1.00  0.00     0.074 A 
ATOM     42  C   UNL A   1      42.419  31.839  37.972  1.00  0.00     0.029 A 
ATOM     43  N   UNL A   1      41.518  31.350  35.996  1.00  0.00    -0.354 N 
ATOM     44  N   UNL A   1      41.289  29.861  33.472  1.00  0.00    -0.248 NA
ATOM     45  C   UNL A   1      42.137  28.300  31.956  1.00  0.00     0.031 C 
ATOM     46  C   UNL A   1      43.205  30.863  37.356  1.00  0.00     0.029 A 
ATOM     47  C   UNL A   1      42.632  30.539  36.137  1.00  0.00     0.049 A 
ATOM     48  H   UNL A   1      40.913  31.350  35.220  1.00  0.00     0.167 HD
ATOM     49  C   UNL A   1      42.443  29.295  33.998  1.00  0.00     0.074 A 
ATOM     50  C   UNL A   1      42.904  28.316  33.036  1.00  0.00     0.031 C 
ATOM     51  C   UNL A   1      43.067  29.562  35.172  1.00  0.00     0.037 A 
BRANCH  38  52
ATOM     52  C   UNL A   1      40.373  34.005  38.519  1.00  0.00     0.057 A 
ATOM     53  C   UNL A   1      39.698  33.643  39.694  1.00  0.00     0.134 A 
ATOM     54  C   UNL A   1      41.102  35.200  38.539  1.00  0.00     0.134 A 
ATOM     55  F   UNL A   1      38.970  32.517  39.740  1.00  0.00    -0.206 F 
ATOM     56  C   UNL A   1      39.719  34.453  40.830  1.00  0.00     0.040 A 
ATOM     57  C   UNL A   1      41.158  36.003  39.680  1.00  0.00     0.040 A 
ATOM     58  F   UNL A   1      41.777  35.606  37.453  1.00  0.00    -0.206 F 
ATOM     59  C   UNL A   1      40.458  35.634  40.827  1.00  0.00     0.006 A 
ENDBRANCH  38  52
BRANCH  39  60
ATOM     60  C   UNL A   1      39.955  28.712  30.049  1.00  0.00     0.057 A 
ATOM     61  C   UNL A   1      39.261  27.499  29.957  1.00  0.00     0.134 A 
ATOM     62  C   UNL A   1      40.617  29.162  28.899  1.00  0.00     0.134 A 
ATOM     63  F   UNL A   1      38.621  27.007  31.029  1.00  0.00    -0.206 F 
ATOM     64  C   UNL A   1      39.245  26.750  28.780  1.00  0.00     0.040 A 
ATOM     65  C   UNL A   1      40.586  28.437  27.706  1.00  0.00     0.040 A 
ATOM     66  F   UNL A   1      41.291  30.321  28.915  1.00  0.00    -0.206 F 
ATOM     67  C   UNL A   1      39.906  27.222  27.648  1.00  0.00     0.006 A 
ENDBRANCH  39  60
BRANCH  51  68
ATOM     68  C   UNL A   1      44.289  28.756  35.501  1.00  0.00     0.057 A 
ATOM     69  C   UNL A   1      45.573  29.172  35.132  1.00  0.00     0.134 A 
ATOM     70  C   UNL A   1      44.179  27.571  36.241  1.00  0.00     0.134 A 
ATOM     71  F   UNL A   1      45.746  30.291  34.413  1.00  0.00    -0.206 F 
ATOM     72  C   UNL A   1      46.705  28.427  35.468  1.00  0.00     0.040 A 
ATOM     73  C   UNL A   1      45.305  26.833  36.608  1.00  0.00     0.040 A 
ATOM     74  F   UNL A   1      42.978  27.122  36.635  1.00  0.00    -0.206 F 
ATOM     75  C   UNL A   1      46.572  27.258  36.215  1.00  0.00     0.006 A 
ENDBRANCH  51  68
ENDBRANCH  25  26
ENDBRANCH  17  20
ENDBRANCH   1  16
TORSDOF 10
ENDMDL
MODEL 2
REMARK VINA RESULT:     -10.8      4.379      7.380
REMARK SMILES C[C@H]1CCCC/C1=C\C(=O)NCCCNC(=O)c1ccc(-c2c3nc(c(-c4c(F)cccc4F)c4ccc([nH]4)c(-c4c(F)cccc4F)c4nc(c(-c5c(F)cccc5F)c5ccc2[nH]5)C=C4)C=C3)cc1
REMARK SMILES IDX 14 1 13 2 12 3 11 4 9 5 10 6 8 8 1 9 2 10 3 11 7 12 4 13
REMARK SMILES IDX 6 14 5 15 15 16 16 17 17 19 18 20 19 21 71 22 20 23 70 24
REMARK SMILES IDX 21 25 22 26 23 27 64 28 24 29 69 30 63 31 65 32 25 33 68 34
REMARK SMILES IDX 62 35 61 36 26 38 52 39 35 40 51 41 36 42 39 43 50 44 66 45
REMARK SMILES IDX 37 46 38 47 49 49 67 50 40 51 27 52 28 53 33 54 29 55 30 56
REMARK SMILES IDX 32 57 34 58 31 59 53 60 54 61 59 62 55 63 56 64 58 65 60 66
REMARK SMILES IDX 57 67 41 68 42 69 47 70 43 71 44 72 46 73 48 74 45 75
REMARK H PARENT 11 7 15 18 65 37 39 48
REMARK Flexibility Score: inf
ROOT
ATOM      1  C   UNL A   1      34.387  32.548  28.004  1.00  0.00     0.118 C 
ENDROOT
BRANCH   1   2
ATOM      2  C   UNL A   1      34.409  33.065  29.425  1.00  0.00     0.042 C 
BRANCH   2   3
ATOM      3  C   UNL A   1      35.051  34.422  29.580  1.00  0.00     0.118 C 
BRANCH   3   4
ATOM      4  N   UNL A   1      36.401  34.578  29.126  1.00  0.00    -0.352 N 
ATOM      5  C   UNL A   1      37.522  33.974  29.602  1.00  0.00     0.243 C 
ATOM      6  O   UNL A   1      38.585  34.193  29.016  1.00  0.00    -0.270 OA
ATOM      7  H   UNL A   1      36.533  35.202  28.375  1.00  0.00     0.163 HD
BRANCH   5   8
ATOM      8  C   UNL A   1      37.575  33.183  30.878  1.00  0.00     0.070 C 
ATOM      9  C   UNL A   1      37.028  30.999  32.846  1.00  0.00     0.012 C 
ATOM     10  C   UNL A   1      37.943  32.179  33.182  1.00  0.00     0.012 C 
ATOM     11  C   UNL A   1      39.365  31.676  33.505  1.00  0.00     0.008 C 
ATOM     12  C   UNL A   1      38.057  33.301  32.139  1.00  0.00    -0.062 C 
ATOM     13  C   UNL A   1      40.294  32.800  33.983  1.00  0.00     0.001 C 
ATOM     14  C   UNL A   1      38.806  34.459  32.767  1.00  0.00     0.031 C 
ATOM     15  C   UNL A   1      40.251  34.023  33.070  1.00  0.00     0.004 C 
ENDBRANCH   5   8
ENDBRANCH   3   4
ENDBRANCH   2   3
ENDBRANCH   1   2
BRANCH   1  16
ATOM     16  N   UNL A   1      33.833  31.201  27.884  1.00  0.00    -0.352 N 
ATOM     17  C   UNL A   1      34.413  29.953  27.900  1.00  0.00     0.251 C 
ATOM     18  H   UNL A   1      32.856  31.182  27.771  1.00  0.00     0.163 HD
ATOM     19  O   UNL A   1      33.729  28.971  27.616  1.00  0.00    -0.269 OA
BRANCH  17  20
ATOM     20  C   UNL A   1      35.849  29.772  28.212  1.00  0.00     0.039 A 
ATOM     21  C   UNL A   1      36.229  29.328  29.483  1.00  0.00     0.014 A 
ATOM     22  C   UNL A   1      36.832  30.048  27.266  1.00  0.00     0.014 A 
ATOM     23  C   UNL A   1      37.576  29.067  29.757  1.00  0.00     0.010 A 
ATOM     24  C   UNL A   1      38.140  29.642  27.483  1.00  0.00     0.010 A 
ATOM     25  C   UNL A   1      38.537  29.166  28.739  1.00  0.00    -0.014 A 
BRANCH  25  26
ATOM     26  C   UNL A   1      39.966  28.814  28.953  1.00  0.00     0.031 A 
ATOM     27  C   UNL A   1      40.910  29.838  29.532  1.00  0.00     0.074 A 
ATOM     28  C   UNL A   1      40.435  27.621  28.539  1.00  0.00     0.049 A 
ATOM     29  N   UNL A   1      42.211  29.783  29.669  1.00  0.00    -0.248 NA
ATOM     30  C   UNL A   1      40.320  31.114  29.971  1.00  0.00     0.031 C 
ATOM     31  C   UNL A   1      39.640  26.567  27.907  1.00  0.00     0.029 A 
ATOM     32  N   UNL A   1      41.705  27.098  28.577  1.00  0.00    -0.354 N 
ATOM     33  C   UNL A   1      42.589  31.020  30.174  1.00  0.00     0.074 A 
ATOM     34  C   UNL A   1      41.396  31.831  30.250  1.00  0.00     0.031 C 
ATOM     35  C   UNL A   1      40.430  25.512  27.648  1.00  0.00     0.029 A 
ATOM     36  C   UNL A   1      41.796  25.832  28.048  1.00  0.00     0.049 A 
ATOM     37  H   UNL A   1      42.476  27.584  28.948  1.00  0.00     0.167 HD
ATOM     38  C   UNL A   1      43.815  31.436  30.572  1.00  0.00     0.037 A 
ATOM     39  C   UNL A   1      42.863  25.026  27.896  1.00  0.00     0.037 A 
ATOM     40  C   UNL A   1      44.991  30.609  30.539  1.00  0.00     0.049 A 
ATOM     41  C   UNL A   1      44.212  25.504  28.356  1.00  0.00     0.074 A 
ATOM     42  C   UNL A   1      46.266  30.905  30.990  1.00  0.00     0.029 A 
ATOM     43  N   UNL A   1      45.033  29.319  30.031  1.00  0.00    -0.354 N 
ATOM     44  N   UNL A   1      44.542  26.651  28.899  1.00  0.00    -0.248 NA
ATOM     45  C   UNL A   1      45.338  24.574  28.188  1.00  0.00     0.031 C 
ATOM     46  C   UNL A   1      47.090  29.812  30.709  1.00  0.00     0.029 A 
ATOM     47  C   UNL A   1      46.318  28.815  30.136  1.00  0.00     0.049 A 
ATOM     48  H   UNL A   1      44.265  28.836  29.652  1.00  0.00     0.167 HD
ATOM     49  C   UNL A   1      45.903  26.569  29.165  1.00  0.00     0.074 A 
ATOM     50  C   UNL A   1      46.333  25.255  28.736  1.00  0.00     0.031 C 
ATOM     51  C   UNL A   1      46.724  27.499  29.714  1.00  0.00     0.037 A 
BRANCH  38  52
ATOM     52  C   UNL A   1      43.940  32.843  31.087  1.00  0.00     0.057 A 
ATOM     53  C   UNL A   1      44.181  33.928  30.233  1.00  0.00     0.134 A 
ATOM     54  C   UNL A   1      43.795  33.119  32.452  1.00  0.00     0.134 A 
ATOM     55  F   UNL A   1      44.344  33.733  28.915  1.00  0.00    -0.206 F 
ATOM     56  C   UNL A   1      44.306  35.230  30.720  1.00  0.00     0.040 A 
ATOM     57  C   UNL A   1      43.885  34.421  32.947  1.00  0.00     0.040 A 
ATOM     58  F   UNL A   1      43.557  32.130  33.327  1.00  0.00    -0.206 F 
ATOM     59  C   UNL A   1      44.150  35.480  32.082  1.00  0.00     0.006 A 
ENDBRANCH  38  52
BRANCH  39  60
ATOM     60  C   UNL A   1      42.697  23.673  27.304  1.00  0.00     0.057 A 
ATOM     61  C   UNL A   1      42.404  22.565  28.110  1.00  0.00     0.134 A 
ATOM     62  C   UNL A   1      42.832  23.449  25.928  1.00  0.00     0.134 A 
ATOM     63  F   UNL A   1      42.279  22.712  29.438  1.00  0.00    -0.206 F 
ATOM     64  C   UNL A   1      42.275  21.282  27.574  1.00  0.00     0.040 A 
ATOM     65  C   UNL A   1      42.677  22.177  25.375  1.00  0.00     0.040 A 
ATOM     66  F   UNL A   1      43.101  24.469  25.100  1.00  0.00    -0.206 F 
ATOM     67  C   UNL A   1      42.407  21.088  26.201  1.00  0.00     0.006 A 
ENDBRANCH  39  60
BRANCH  51  68
ATOM     68  C   UNL A   1      48.159  27.112  29.922  1.00  0.00     0.057 A 
ATOM     69  C   UNL A   1      49.156  27.434  28.993  1.00  0.00     0.134 A 
ATOM     70  C   UNL A   1      48.553  26.451  31.093  1.00  0.00     0.134 A 
ATOM     71  F   UNL A   1      48.842  28.056  27.846  1.00  0.00    -0.206 F 
ATOM     72  C   UNL A   1      50.491  27.093  29.211  1.00  0.00     0.040 A 
ATOM     73  C   UNL A   1      49.889  26.132  31.336  1.00  0.00     0.040 A 
ATOM     74  F   UNL A   1      47.649  26.124  32.028  1.00  0.00    -0.206 F 
ATOM     75  C   UNL A   1      50.862  26.448  30.390  1.00  0.00     0.006 A 
ENDBRANCH  51  68
ENDBRANCH  25  26
ENDBRANCH  17  20
ENDBRANCH   1  16
TORSDOF 10
ENDMDL
MODEL 3
REMARK VINA RESULT:     -10.8      2.020      7.233
REMARK SMILES C[C@H]1CCCC/C1=C\C(=O)NCCCNC(=O)c1ccc(-c2c3nc(c(-c4c(F)cccc4F)c4ccc([nH]4)c(-c4c(F)cccc4F)c4nc(c(-c5c(F)cccc5F)c5ccc2[nH]5)C=C4)C=C3)cc1
REMARK SMILES IDX 14 1 13 2 12 3 11 4 9 5 10 6 8 8 1 9 2 10 3 11 7 12 4 13
REMARK SMILES IDX 6 14 5 15 15 16 16 17 17 19 18 20 19 21 71 22 20 23 70 24
REMARK SMILES IDX 21 25 22 26 23 27 64 28 24 29 69 30 63 31 65 32 25 33 68 34
REMARK SMILES IDX 62 35 61 36 26 38 52 39 35 40 51 41 36 42 39 43 50 44 66 45
REMARK SMILES IDX 37 46 38 47 49 49 67 50 40 51 27 52 28 53 33 54 29 55 30 56
REMARK SMILES IDX 32 57 34 58 31 59 53 60 54 61 59 62 55 63 56 64 58 65 60 66
REMARK SMILES IDX 57 67 41 68 42 69 47 70 43 71 44 72 46 73 48 74 45 75
REMARK H PARENT 11 7 15 18 65 37 39 48
REMARK Flexibility Score: inf
ROOT
ATOM      1  C   UNL A   1      32.584  32.772  27.250  1.00  0.00     0.118 C 
ENDROOT
BRANCH   1   2
ATOM      2  C   UNL A   1      31.403  32.198  26.501  1.00  0.00     0.042 C 
BRANCH   2   3
ATOM      3  C   UNL A   1      31.409  30.693  26.394  1.00  0.00     0.118 C 
BRANCH   3   4
ATOM      4  N   UNL A   1      32.474  30.081  25.656  1.00  0.00    -0.352 N 
ATOM      5  C   UNL A   1      32.384  29.256  24.578  1.00  0.00     0.243 C 
ATOM      6  O   UNL A   1      33.434  28.895  24.042  1.00  0.00    -0.270 OA
ATOM      7  H   UNL A   1      33.386  30.283  25.968  1.00  0.00     0.163 HD
BRANCH   5   8
ATOM      8  C   UNL A   1      31.101  28.639  24.097  1.00  0.00     0.070 C 
ATOM      9  C   UNL A   1      28.833  26.704  23.876  1.00  0.00     0.012 C 
ATOM     10  C   UNL A   1      28.917  27.953  22.997  1.00  0.00     0.012 C 
ATOM     11  C   UNL A   1      27.695  28.863  23.245  1.00  0.00     0.008 C 
ATOM     12  C   UNL A   1      30.185  28.812  23.114  1.00  0.00    -0.062 C 
ATOM     13  C   UNL A   1      27.653  30.066  22.293  1.00  0.00     0.001 C 
ATOM     14  C   UNL A   1      30.165  29.843  22.003  1.00  0.00     0.031 C 
ATOM     15  C   UNL A   1      28.986  30.807  22.227  1.00  0.00     0.004 C 
ENDBRANCH   5   8
ENDBRANCH   3   4
ENDBRANCH   2   3
ENDBRANCH   1   2
BRANCH   1  16
ATOM     16  N   UNL A   1      32.409  34.174  27.626  1.00  0.00    -0.352 N 
ATOM     17  C   UNL A   1      33.020  34.965  28.571  1.00  0.00     0.251 C 
ATOM     18  H   UNL A   1      31.720  34.642  27.102  1.00  0.00     0.163 HD
ATOM     19  O   UNL A   1      32.569  36.088  28.795  1.00  0.00    -0.269 OA
BRANCH  17  20
ATOM     20  C   UNL A   1      34.183  34.482  29.350  1.00  0.00     0.039 A 
ATOM     21  C   UNL A   1      33.983  33.929  30.619  1.00  0.00     0.014 A 
ATOM     22  C   UNL A   1      35.476  34.578  28.847  1.00  0.00     0.014 A 
ATOM     23  C   UNL A   1      35.063  33.388  31.323  1.00  0.00     0.010 A 
ATOM     24  C   UNL A   1      36.518  33.905  29.469  1.00  0.00     0.010 A 
ATOM     25  C   UNL A   1      36.332  33.318  30.726  1.00  0.00    -0.014 A 
BRANCH  25  26
ATOM     26  C   UNL A   1      37.494  32.673  31.394  1.00  0.00     0.031 A 
ATOM     27  C   UNL A   1      38.204  31.527  30.719  1.00  0.00     0.074 A 
ATOM     28  C   UNL A   1      37.847  33.046  32.640  1.00  0.00     0.049 A 
ATOM     29  N   UNL A   1      39.143  30.742  31.185  1.00  0.00    -0.248 NA
ATOM     30  C   UNL A   1      37.769  31.186  29.353  1.00  0.00     0.031 C 
ATOM     31  C   UNL A   1      37.201  34.097  33.428  1.00  0.00     0.029 A 
ATOM     32  N   UNL A   1      38.832  32.569  33.470  1.00  0.00    -0.354 N 
ATOM     33  C   UNL A   1      39.379  29.804  30.187  1.00  0.00     0.074 A 
ATOM     34  C   UNL A   1      38.439  30.069  29.123  1.00  0.00     0.031 C 
ATOM     35  C   UNL A   1      37.827  34.209  34.611  1.00  0.00     0.029 A 
ATOM     36  C   UNL A   1      38.884  33.207  34.686  1.00  0.00     0.049 A 
ATOM     37  H   UNL A   1      39.442  31.840  33.217  1.00  0.00     0.167 HD
ATOM     38  C   UNL A   1      40.317  28.829  30.145  1.00  0.00     0.037 A 
ATOM     39  C   UNL A   1      39.688  32.999  35.745  1.00  0.00     0.037 A 
ATOM     40  C   UNL A   1      41.283  28.599  31.186  1.00  0.00     0.049 A 
ATOM     41  C   UNL A   1      40.731  31.919  35.671  1.00  0.00     0.074 A 
ATOM     42  C   UNL A   1      42.325  27.690  31.210  1.00  0.00     0.029 A 
ATOM     43  N   UNL A   1      41.326  29.293  32.386  1.00  0.00    -0.354 N 
ATOM     44  N   UNL A   1      40.991  31.086  34.692  1.00  0.00    -0.248 NA
ATOM     45  C   UNL A   1      41.598  31.752  36.846  1.00  0.00     0.031 C 
ATOM     46  C   UNL A   1      42.968  27.799  32.445  1.00  0.00     0.029 A 
ATOM     47  C   UNL A   1      42.363  28.814  33.169  1.00  0.00     0.049 A 
ATOM     48  H   UNL A   1      40.710  30.015  32.644  1.00  0.00     0.167 HD
ATOM     49  C   UNL A   1      42.067  30.319  35.119  1.00  0.00     0.074 A 
ATOM     50  C   UNL A   1      42.421  30.795  36.440  1.00  0.00     0.031 C 
ATOM     51  C   UNL A   1      42.706  29.310  34.476  1.00  0.00     0.037 A 
BRANCH  38  52
ATOM     52  C   UNL A   1      40.351  27.947  28.927  1.00  0.00     0.057 A 
ATOM     53  C   UNL A   1      41.104  28.279  27.792  1.00  0.00     0.134 A 
ATOM     54  C   UNL A   1      39.640  26.741  28.898  1.00  0.00     0.134 A 
ATOM     55  F   UNL A   1      41.798  29.426  27.747  1.00  0.00    -0.206 F 
ATOM     56  C   UNL A   1      41.122  27.460  26.661  1.00  0.00     0.040 A 
ATOM     57  C   UNL A   1      39.677  25.899  27.786  1.00  0.00     0.040 A 
ATOM     58  F   UNL A   1      38.903  26.358  29.951  1.00  0.00    -0.206 F 
ATOM     59  C   UNL A   1      40.412  26.262  26.660  1.00  0.00     0.006 A 
ENDBRANCH  38  52
BRANCH  39  60
ATOM     60  C   UNL A   1      39.559  33.848  36.958  1.00  0.00     0.057 A 
ATOM     61  C   UNL A   1      38.788  33.432  38.051  1.00  0.00     0.134 A 
ATOM     62  C   UNL A   1      40.192  35.094  37.056  1.00  0.00     0.134 A 
ATOM     63  F   UNL A   1      38.143  32.256  38.011  1.00  0.00    -0.206 F 
ATOM     64  C   UNL A   1      38.632  34.231  39.185  1.00  0.00     0.040 A 
ATOM     65  C   UNL A   1      40.068  35.890  38.195  1.00  0.00     0.040 A 
ATOM     66  F   UNL A   1      40.954  35.547  36.049  1.00  0.00    -0.206 F 
ATOM     67  C   UNL A   1      39.278  35.463  39.260  1.00  0.00     0.006 A 
ENDBRANCH  39  60
BRANCH  51  68
ATOM     68  C   UNL A   1      43.877  28.683  35.174  1.00  0.00     0.057 A 
ATOM     69  C   UNL A   1      43.729  27.590  36.035  1.00  0.00     0.134 A 
ATOM     70  C   UNL A   1      45.177  29.152  34.939  1.00  0.00     0.134 A 
ATOM     71  F   UNL A   1      42.511  27.100  36.311  1.00  0.00    -0.206 F 
ATOM     72  C   UNL A   1      44.830  26.998  36.657  1.00  0.00     0.040 A 
ATOM     73  C   UNL A   1      46.288  28.550  35.531  1.00  0.00     0.040 A 
ATOM     74  F   UNL A   1      45.389  30.189  34.116  1.00  0.00    -0.206 F 
ATOM     75  C   UNL A   1      46.115  27.473  36.398  1.00  0.00     0.006 A 
ENDBRANCH  51  68
ENDBRANCH  25  26
ENDBRANCH  17  20
ENDBRANCH   1  16
TORSDOF 10
ENDMDL
