MODEL 1
REMARK VINA RESULT:     -13.0      0.000      0.000
REMARK SMILES O=C1Nc2ccccc2/C1=C/c1cccc(C(=O)NCCCNC(=O)c2ccc(-c3c4nc(c(-c5c(F)cccc5F)c5ccc([nH]5)c(-c5c(F)cccc5F)c5nc(c(-c6c(F)cccc6F)c6ccc3[nH]6)C=C5)C=C4)cc2)c1
REMARK SMILES IDX 21 1 20 2 19 3 17 4 18 5 16 7 12 8 13 9 80 10 14 11 15 12
REMARK SMILES IDX 11 13 1 14 2 15 3 16 10 17 4 18 9 20 5 21 8 22 6 23 7 24
REMARK SMILES IDX 22 25 23 26 24 27 25 29 26 30 27 31 79 32 28 33 78 34 29 35
REMARK SMILES IDX 30 36 31 37 72 38 32 39 77 40 71 41 73 42 33 43 76 44 70 45
REMARK SMILES IDX 69 46 34 48 60 49 43 50 59 51 44 52 47 53 58 54 74 55 45 56
REMARK SMILES IDX 46 57 57 59 75 60 48 61 35 62 36 63 41 64 37 65 38 66 40 67
REMARK SMILES IDX 42 68 39 69 61 70 62 71 67 72 63 73 64 74 66 75 68 76 65 77
REMARK SMILES IDX 49 78 50 79 55 80 51 81 52 82 54 83 56 84 53 85
REMARK H PARENT 19 6 3 19 23 28 73 47 47 58
REMARK Flexibility Score: inf
ROOT
ATOM      1  C   UNL A   1      37.560  19.543  24.999  1.00  0.00     0.042 C 
ENDROOT
BRANCH   1   2
ATOM      2  C   UNL A   1      36.374  20.510  25.003  1.00  0.00     0.118 C 
BRANCH   2   3
ATOM      3  N   UNL A   1      35.133  19.805  25.274  1.00  0.00    -0.352 N 
ATOM      4  C   UNL A   1      33.813  20.127  25.080  1.00  0.00     0.251 C 
ATOM      5  O   UNL A   1      32.981  19.273  25.396  1.00  0.00    -0.269 OA
ATOM      6  H   UNL A   1      35.267  18.918  25.677  1.00  0.00     0.163 HD
BRANCH   4   7
ATOM      7  C   UNL A   1      33.341  21.408  24.480  1.00  0.00     0.040 A 
ATOM      8  C   UNL A   1      33.187  23.838  24.393  1.00  0.00    -0.024 A 
ATOM      9  C   UNL A   1      32.606  23.772  23.128  1.00  0.00     0.008 A 
ATOM     10  C   UNL A   1      33.462  22.653  25.091  1.00  0.00     0.022 A 
ATOM     11  C   UNL A   1      32.363  22.525  22.547  1.00  0.00     0.001 A 
ATOM     12  C   UNL A   1      32.754  21.355  23.207  1.00  0.00     0.014 A 
BRANCH   8  13
ATOM     13  C   UNL A   1      33.582  25.110  25.008  1.00  0.00     0.022 C 
ATOM     14  O   UNL A   1      30.690  24.509  25.950  1.00  0.00    -0.269 OA
ATOM     15  C   UNL A   1      31.323  25.523  26.153  1.00  0.00     0.256 C 
ATOM     16  N   UNL A   1      30.871  26.638  26.840  1.00  0.00    -0.321 N 
ATOM     17  C   UNL A   1      32.738  25.871  25.728  1.00  0.00     0.050 C 
ATOM     18  C   UNL A   1      31.835  27.638  26.881  1.00  0.00     0.049 A 
ATOM     19  H   UNL A   1      29.978  26.714  27.247  1.00  0.00     0.170 HD
ATOM     20  C   UNL A   1      33.000  27.228  26.222  1.00  0.00     0.011 A 
ATOM     21  C   UNL A   1      31.699  28.886  27.451  1.00  0.00     0.027 A 
ATOM     22  C   UNL A   1      34.070  28.094  26.098  1.00  0.00     0.011 A 
ATOM     23  C   UNL A   1      32.779  29.761  27.336  1.00  0.00     0.002 A 
ATOM     24  C   UNL A   1      33.952  29.371  26.661  1.00  0.00     0.001 A 
ENDBRANCH   8  13
ENDBRANCH   4   7
ENDBRANCH   2   3
ENDBRANCH   1   2
BRANCH   1  25
ATOM     25  C   UNL A   1      38.841  20.184  25.523  1.00  0.00     0.118 C 
BRANCH  25  26
ATOM     26  N   UNL A   1      39.869  19.185  25.796  1.00  0.00    -0.352 N 
ATOM     27  C   UNL A   1      41.199  19.336  26.085  1.00  0.00     0.251 C 
ATOM     28  H   UNL A   1      39.555  18.253  25.766  1.00  0.00     0.163 HD
ATOM     29  O   UNL A   1      41.950  18.367  26.015  1.00  0.00    -0.269 OA
BRANCH  27  30
ATOM     30  C   UNL A   1      41.738  20.654  26.480  1.00  0.00     0.039 A 
ATOM     31  C   UNL A   1      42.131  21.549  25.482  1.00  0.00     0.014 A 
ATOM     32  C   UNL A   1      41.900  20.991  27.826  1.00  0.00     0.014 A 
ATOM     33  C   UNL A   1      42.637  22.801  25.834  1.00  0.00     0.010 A 
ATOM     34  C   UNL A   1      42.321  22.269  28.175  1.00  0.00     0.010 A 
ATOM     35  C   UNL A   1      42.705  23.184  27.183  1.00  0.00    -0.014 A 
BRANCH  35  36
ATOM     36  C   UNL A   1      43.177  24.534  27.577  1.00  0.00     0.031 A 
ATOM     37  C   UNL A   1      42.192  25.588  28.000  1.00  0.00     0.074 A 
ATOM     38  C   UNL A   1      44.489  24.826  27.494  1.00  0.00     0.049 A 
ATOM     39  N   UNL A   1      42.405  26.838  28.323  1.00  0.00    -0.248 NA
ATOM     40  C   UNL A   1      40.774  25.193  28.037  1.00  0.00     0.031 C 
ATOM     41  C   UNL A   1      45.535  23.901  27.055  1.00  0.00     0.029 A 
ATOM     42  N   UNL A   1      45.165  25.987  27.768  1.00  0.00    -0.354 N 
ATOM     43  C   UNL A   1      41.154  27.378  28.589  1.00  0.00     0.074 A 
ATOM     44  C   UNL A   1      40.181  26.341  28.325  1.00  0.00     0.031 C 
ATOM     45  C   UNL A   1      46.724  24.518  27.122  1.00  0.00     0.029 A 
ATOM     46  C   UNL A   1      46.521  25.894  27.562  1.00  0.00     0.049 A 
ATOM     47  H   UNL A   1      44.722  26.808  28.081  1.00  0.00     0.167 HD
ATOM     48  C   UNL A   1      40.844  28.619  29.036  1.00  0.00     0.037 A 
ATOM     49  C   UNL A   1      47.489  26.818  27.706  1.00  0.00     0.037 A 
ATOM     50  C   UNL A   1      41.820  29.645  29.302  1.00  0.00     0.049 A 
ATOM     51  C   UNL A   1      47.118  28.198  28.173  1.00  0.00     0.074 A 
ATOM     52  C   UNL A   1      41.617  30.918  29.803  1.00  0.00     0.029 A 
ATOM     53  N   UNL A   1      43.183  29.514  29.078  1.00  0.00    -0.354 N 
ATOM     54  N   UNL A   1      45.938  28.676  28.486  1.00  0.00    -0.248 NA
ATOM     55  C   UNL A   1      48.215  29.164  28.310  1.00  0.00     0.031 C 
ATOM     56  C   UNL A   1      42.850  31.579  29.826  1.00  0.00     0.029 A 
ATOM     57  C   UNL A   1      43.831  30.695  29.402  1.00  0.00     0.049 A 
ATOM     58  H   UNL A   1      43.625  28.703  28.739  1.00  0.00     0.167 HD
ATOM     59  C   UNL A   1      46.153  29.988  28.888  1.00  0.00     0.074 A 
ATOM     60  C   UNL A   1      47.579  30.224  28.792  1.00  0.00     0.031 C 
ATOM     61  C   UNL A   1      45.253  30.913  29.303  1.00  0.00     0.037 A 
BRANCH  48  62
ATOM     62  C   UNL A   1      39.390  28.930  29.256  1.00  0.00     0.057 A 
ATOM     63  C   UNL A   1      38.769  28.741  30.500  1.00  0.00     0.134 A 
ATOM     64  C   UNL A   1      38.599  29.434  28.215  1.00  0.00     0.134 A 
ATOM     65  F   UNL A   1      39.463  28.252  31.539  1.00  0.00    -0.206 F 
ATOM     66  C   UNL A   1      37.410  29.001  30.688  1.00  0.00     0.040 A 
ATOM     67  C   UNL A   1      37.247  29.730  28.401  1.00  0.00     0.040 A 
ATOM     68  F   UNL A   1      39.126  29.648  27.000  1.00  0.00    -0.206 F 
ATOM     69  C   UNL A   1      36.646  29.503  29.637  1.00  0.00     0.006 A 
ENDBRANCH  48  62
BRANCH  49  70
ATOM     70  C   UNL A   1      48.903  26.457  27.434  1.00  0.00     0.057 A 
ATOM     71  C   UNL A   1      49.450  26.599  26.153  1.00  0.00     0.134 A 
ATOM     72  C   UNL A   1      49.744  25.968  28.442  1.00  0.00     0.134 A 
ATOM     73  F   UNL A   1      48.691  27.047  25.142  1.00  0.00    -0.206 F 
ATOM     74  C   UNL A   1      50.773  26.252  25.879  1.00  0.00     0.040 A 
ATOM     75  C   UNL A   1      51.078  25.644  28.188  1.00  0.00     0.040 A 
ATOM     76  F   UNL A   1      49.286  25.819  29.694  1.00  0.00    -0.206 F 
ATOM     77  C   UNL A   1      51.594  25.779  26.902  1.00  0.00     0.006 A 
ENDBRANCH  49  70
BRANCH  61  78
ATOM     78  C   UNL A   1      45.788  32.253  29.721  1.00  0.00     0.057 A 
ATOM     79  C   UNL A   1      45.891  33.326  28.826  1.00  0.00     0.134 A 
ATOM     80  C   UNL A   1      46.172  32.482  31.049  1.00  0.00     0.134 A 
ATOM     81  F   UNL A   1      45.554  33.172  27.536  1.00  0.00    -0.206 F 
ATOM     82  C   UNL A   1      46.382  34.569  29.231  1.00  0.00     0.040 A 
ATOM     83  C   UNL A   1      46.633  33.728  31.473  1.00  0.00     0.040 A 
ATOM     84  F   UNL A   1      46.089  31.500  31.961  1.00  0.00    -0.206 F 
ATOM     85  C   UNL A   1      46.746  34.775  30.560  1.00  0.00     0.006 A 
ENDBRANCH  61  78
ENDBRANCH  35  36
ENDBRANCH  27  30
ENDBRANCH  25  26
ENDBRANCH   1  25
TORSDOF 11
ENDMDL
MODEL 2
REMARK VINA RESULT:     -13.0      0.909      6.313
REMARK SMILES O=C1Nc2ccccc2/C1=C/c1cccc(C(=O)NCCCNC(=O)c2ccc(-c3c4nc(c(-c5c(F)cccc5F)c5ccc([nH]5)c(-c5c(F)cccc5F)c5nc(c(-c6c(F)cccc6F)c6ccc3[nH]6)C=C5)C=C4)cc2)c1
REMARK SMILES IDX 21 1 20 2 19 3 17 4 18 5 16 7 12 8 13 9 80 10 14 11 15 12
REMARK SMILES IDX 11 13 1 14 2 15 3 16 10 17 4 18 9 20 5 21 8 22 6 23 7 24
REMARK SMILES IDX 22 25 23 26 24 27 25 29 26 30 27 31 79 32 28 33 78 34 29 35
REMARK SMILES IDX 30 36 31 37 72 38 32 39 77 40 71 41 73 42 33 43 76 44 70 45
REMARK SMILES IDX 69 46 34 48 60 49 43 50 59 51 44 52 47 53 58 54 74 55 45 56
REMARK SMILES IDX 46 57 57 59 75 60 48 61 35 62 36 63 41 64 37 65 38 66 40 67
REMARK SMILES IDX 42 68 39 69 61 70 62 71 67 72 63 73 64 74 66 75 68 76 65 77
REMARK SMILES IDX 49 78 50 79 55 80 51 81 52 82 54 83 56 84 53 85
REMARK H PARENT 19 6 3 19 23 28 73 47 47 58
REMARK Flexibility Score: inf
ROOT
ATOM      1  C   UNL A   1      37.466  19.423  24.991  1.00  0.00     0.042 C 
ENDROOT
BRANCH   1   2
ATOM      2  C   UNL A   1      36.241  20.340  25.018  1.00  0.00     0.118 C 
BRANCH   2   3
ATOM      3  N   UNL A   1      35.025  19.573  25.221  1.00  0.00    -0.352 N 
ATOM      4  C   UNL A   1      33.699  19.840  24.984  1.00  0.00     0.251 C 
ATOM      5  O   UNL A   1      32.896  18.941  25.243  1.00  0.00    -0.269 OA
ATOM      6  H   UNL A   1      35.183  18.681  25.605  1.00  0.00     0.163 HD
BRANCH   4   7
ATOM      7  C   UNL A   1      33.192  21.115  24.400  1.00  0.00     0.040 A 
ATOM      8  C   UNL A   1      33.002  23.543  24.322  1.00  0.00    -0.024 A 
ATOM      9  C   UNL A   1      32.385  23.470  23.075  1.00  0.00     0.008 A 
ATOM     10  C   UNL A   1      33.314  22.361  25.009  1.00  0.00     0.022 A 
ATOM     11  C   UNL A   1      32.142  22.221  22.499  1.00  0.00     0.001 A 
ATOM     12  C   UNL A   1      32.568  21.056  23.145  1.00  0.00     0.014 A 
BRANCH   8  13
ATOM     13  C   UNL A   1      33.397  24.820  24.927  1.00  0.00     0.022 C 
ATOM     14  O   UNL A   1      30.529  24.195  25.925  1.00  0.00    -0.269 OA
ATOM     15  C   UNL A   1      31.157  25.215  26.114  1.00  0.00     0.256 C 
ATOM     16  N   UNL A   1      30.708  26.327  26.807  1.00  0.00    -0.321 N 
ATOM     17  C   UNL A   1      32.560  25.575  25.662  1.00  0.00     0.050 C 
ATOM     18  C   UNL A   1      31.664  27.335  26.829  1.00  0.00     0.049 A 
ATOM     19  H   UNL A   1      29.822  26.395  27.232  1.00  0.00     0.170 HD
ATOM     20  C   UNL A   1      32.820  26.935  26.149  1.00  0.00     0.011 A 
ATOM     21  C   UNL A   1      31.527  28.583  27.400  1.00  0.00     0.027 A 
ATOM     22  C   UNL A   1      33.880  27.810  26.003  1.00  0.00     0.011 A 
ATOM     23  C   UNL A   1      32.597  29.468  27.263  1.00  0.00     0.002 A 
ATOM     24  C   UNL A   1      33.761  29.086  26.567  1.00  0.00     0.001 A 
ENDBRANCH   8  13
ENDBRANCH   4   7
ENDBRANCH   2   3
ENDBRANCH   1   2
BRANCH   1  25
ATOM     25  C   UNL A   1      38.746  20.140  25.407  1.00  0.00     0.118 C 
BRANCH  25  26
ATOM     26  N   UNL A   1      39.816  19.197  25.710  1.00  0.00    -0.352 N 
ATOM     27  C   UNL A   1      41.113  19.418  26.091  1.00  0.00     0.251 C 
ATOM     28  H   UNL A   1      39.566  18.249  25.626  1.00  0.00     0.163 HD
ATOM     29  O   UNL A   1      41.927  18.502  26.036  1.00  0.00    -0.269 OA
BRANCH  27  30
ATOM     30  C   UNL A   1      41.539  20.750  26.568  1.00  0.00     0.039 A 
ATOM     31  C   UNL A   1      42.070  21.659  25.649  1.00  0.00     0.014 A 
ATOM     32  C   UNL A   1      41.462  21.089  27.921  1.00  0.00     0.014 A 
ATOM     33  C   UNL A   1      42.474  22.923  26.078  1.00  0.00     0.010 A 
ATOM     34  C   UNL A   1      41.781  22.378  28.334  1.00  0.00     0.010 A 
ATOM     35  C   UNL A   1      42.301  23.305  27.418  1.00  0.00    -0.014 A 
BRANCH  35  36
ATOM     36  C   UNL A   1      42.661  24.667  27.883  1.00  0.00     0.031 A 
ATOM     37  C   UNL A   1      44.098  25.025  28.142  1.00  0.00     0.074 A 
ATOM     38  C   UNL A   1      41.684  25.561  28.129  1.00  0.00     0.049 A 
ATOM     39  N   UNL A   1      44.603  26.140  28.605  1.00  0.00    -0.248 NA
ATOM     40  C   UNL A   1      45.099  23.980  27.873  1.00  0.00     0.031 C 
ATOM     41  C   UNL A   1      40.251  25.317  27.958  1.00  0.00     0.029 A 
ATOM     42  N   UNL A   1      41.749  26.854  28.584  1.00  0.00    -0.354 N 
ATOM     43  C   UNL A   1      45.972  25.927  28.692  1.00  0.00     0.074 A 
ATOM     44  C   UNL A   1      46.213  24.556  28.299  1.00  0.00     0.031 C 
ATOM     45  C   UNL A   1      39.575  26.433  28.270  1.00  0.00     0.029 A 
ATOM     46  C   UNL A   1      40.520  27.454  28.707  1.00  0.00     0.049 A 
ATOM     47  H   UNL A   1      42.595  27.307  28.800  1.00  0.00     0.167 HD
ATOM     48  C   UNL A   1      46.945  26.802  29.044  1.00  0.00     0.037 A 
ATOM     49  C   UNL A   1      40.192  28.689  29.132  1.00  0.00     0.037 A 
ATOM     50  C   UNL A   1      46.697  28.168  29.429  1.00  0.00     0.049 A 
ATOM     51  C   UNL A   1      41.286  29.632  29.548  1.00  0.00     0.074 A 
ATOM     52  C   UNL A   1      47.614  29.151  29.757  1.00  0.00     0.029 A 
ATOM     53  N   UNL A   1      45.438  28.739  29.545  1.00  0.00    -0.354 N 
ATOM     54  N   UNL A   1      42.583  29.441  29.562  1.00  0.00    -0.248 NA
ATOM     55  C   UNL A   1      40.869  30.965  30.003  1.00  0.00     0.031 C 
ATOM     56  C   UNL A   1      46.907  30.299  30.130  1.00  0.00     0.029 A 
ATOM     57  C   UNL A   1      45.552  30.053  29.970  1.00  0.00     0.049 A 
ATOM     58  H   UNL A   1      44.589  28.279  29.355  1.00  0.00     0.167 HD
ATOM     59  C   UNL A   1      43.140  30.637  29.995  1.00  0.00     0.074 A 
ATOM     60  C   UNL A   1      42.039  31.550  30.221  1.00  0.00     0.031 C 
ATOM     61  C   UNL A   1      44.445  30.952  30.187  1.00  0.00     0.037 A 
BRANCH  48  62
ATOM     62  C   UNL A   1      48.362  26.299  29.035  1.00  0.00     0.057 A 
ATOM     63  C   UNL A   1      48.952  25.719  30.168  1.00  0.00     0.134 A 
ATOM     64  C   UNL A   1      49.146  26.386  27.877  1.00  0.00     0.134 A 
ATOM     65  F   UNL A   1      48.263  25.613  31.314  1.00  0.00    -0.206 F 
ATOM     66  C   UNL A   1      50.279  25.284  30.161  1.00  0.00     0.040 A 
ATOM     67  C   UNL A   1      50.463  25.923  27.848  1.00  0.00     0.040 A 
ATOM     68  F   UNL A   1      48.646  26.922  26.753  1.00  0.00    -0.206 F 
ATOM     69  C   UNL A   1      51.037  25.381  28.997  1.00  0.00     0.006 A 
ENDBRANCH  48  62
BRANCH  49  70
ATOM     70  C   UNL A   1      38.769  29.111  29.154  1.00  0.00     0.057 A 
ATOM     71  C   UNL A   1      38.002  29.000  30.320  1.00  0.00     0.134 A 
ATOM     72  C   UNL A   1      38.141  29.638  28.019  1.00  0.00     0.134 A 
ATOM     73  F   UNL A   1      38.542  28.489  31.436  1.00  0.00    -0.206 F 
ATOM     74  C   UNL A   1      36.660  29.381  30.354  1.00  0.00     0.040 A 
ATOM     75  C   UNL A   1      36.807  30.049  28.046  1.00  0.00     0.040 A 
ATOM     76  F   UNL A   1      38.821  29.781  26.872  1.00  0.00    -0.206 F 
ATOM     77  C   UNL A   1      36.061  29.914  29.214  1.00  0.00     0.006 A 
ENDBRANCH  49  70
BRANCH  61  78
ATOM     78  C   UNL A   1      44.756  32.354  30.627  1.00  0.00     0.057 A 
ATOM     79  C   UNL A   1      44.897  32.697  31.977  1.00  0.00     0.134 A 
ATOM     80  C   UNL A   1      44.952  33.368  29.680  1.00  0.00     0.134 A 
ATOM     81  F   UNL A   1      44.709  31.778  32.937  1.00  0.00    -0.206 F 
ATOM     82  C   UNL A   1      45.195  34.003  32.371  1.00  0.00     0.040 A 
ATOM     83  C   UNL A   1      45.282  34.669  30.059  1.00  0.00     0.040 A 
ATOM     84  F   UNL A   1      44.841  33.106  28.368  1.00  0.00    -0.206 F 
ATOM     85  C   UNL A   1      45.397  34.992  31.409  1.00  0.00     0.006 A 
ENDBRANCH  61  78
ENDBRANCH  35  36
ENDBRANCH  27  30
ENDBRANCH  25  26
ENDBRANCH   1  25
TORSDOF 11
ENDMDL
MODEL 3
REMARK VINA RESULT:     -12.7      1.317      2.049
REMARK SMILES O=C1Nc2ccccc2/C1=C/c1cccc(C(=O)NCCCNC(=O)c2ccc(-c3c4nc(c(-c5c(F)cccc5F)c5ccc([nH]5)c(-c5c(F)cccc5F)c5nc(c(-c6c(F)cccc6F)c6ccc3[nH]6)C=C5)C=C4)cc2)c1
REMARK SMILES IDX 21 1 20 2 19 3 17 4 18 5 16 7 12 8 13 9 80 10 14 11 15 12
REMARK SMILES IDX 11 13 1 14 2 15 3 16 10 17 4 18 9 20 5 21 8 22 6 23 7 24
REMARK SMILES IDX 22 25 23 26 24 27 25 29 26 30 27 31 79 32 28 33 78 34 29 35
REMARK SMILES IDX 30 36 31 37 72 38 32 39 77 40 71 41 73 42 33 43 76 44 70 45
REMARK SMILES IDX 69 46 34 48 60 49 43 50 59 51 44 52 47 53 58 54 74 55 45 56
REMARK SMILES IDX 46 57 57 59 75 60 48 61 35 62 36 63 41 64 37 65 38 66 40 67
REMARK SMILES IDX 42 68 39 69 61 70 62 71 67 72 63 73 64 74 66 75 68 76 65 77
REMARK SMILES IDX 49 78 50 79 55 80 51 81 52 82 54 83 56 84 53 85
REMARK H PARENT 19 6 3 19 23 28 73 47 47 58
REMARK Flexibility Score: inf
ROOT
ATOM      1  C   UNL A   1      37.233  19.902  24.708  1.00  0.00     0.042 C 
ENDROOT
BRANCH   1   2
ATOM      2  C   UNL A   1      35.919  20.644  24.954  1.00  0.00     0.118 C 
BRANCH   2   3
ATOM      3  N   UNL A   1      34.878  19.727  25.384  1.00  0.00    -0.352 N 
ATOM      4  C   UNL A   1      33.512  19.727  25.243  1.00  0.00     0.251 C 
ATOM      5  O   UNL A   1      32.906  18.759  25.707  1.00  0.00    -0.269 OA
ATOM      6  H   UNL A   1      35.223  18.946  25.874  1.00  0.00     0.163 HD
BRANCH   4   7
ATOM      7  C   UNL A   1      32.743  20.791  24.535  1.00  0.00     0.040 A 
ATOM      8  C   UNL A   1      31.711  22.993  24.391  1.00  0.00    -0.024 A 
ATOM      9  C   UNL A   1      31.501  22.822  23.024  1.00  0.00     0.008 A 
ATOM     10  C   UNL A   1      32.246  21.939  25.145  1.00  0.00     0.022 A 
ATOM     11  C   UNL A   1      31.882  21.626  22.413  1.00  0.00     0.001 A 
ATOM     12  C   UNL A   1      32.524  20.630  23.158  1.00  0.00     0.014 A 
BRANCH   8  13
ATOM     13  C   UNL A   1      31.449  24.266  25.071  1.00  0.00     0.022 C 
ATOM     14  O   UNL A   1      34.220  24.525  23.705  1.00  0.00    -0.269 OA
ATOM     15  C   UNL A   1      33.703  25.325  24.456  1.00  0.00     0.256 C 
ATOM     16  N   UNL A   1      34.261  26.522  24.874  1.00  0.00    -0.321 N 
ATOM     17  C   UNL A   1      32.353  25.259  25.145  1.00  0.00     0.050 C 
ATOM     18  C   UNL A   1      33.419  27.200  25.748  1.00  0.00     0.049 A 
ATOM     19  H   UNL A   1      35.144  26.853  24.588  1.00  0.00     0.170 HD
ATOM     20  C   UNL A   1      32.235  26.481  25.950  1.00  0.00     0.011 A 
ATOM     21  C   UNL A   1      33.683  28.399  26.376  1.00  0.00     0.027 A 
ATOM     22  C   UNL A   1      31.278  26.951  26.829  1.00  0.00     0.011 A 
ATOM     23  C   UNL A   1      32.716  28.882  27.259  1.00  0.00     0.002 A 
ATOM     24  C   UNL A   1      31.527  28.162  27.487  1.00  0.00     0.001 A 
ENDBRANCH   8  13
ENDBRANCH   4   7
ENDBRANCH   2   3
ENDBRANCH   1   2
BRANCH   1  25
ATOM     25  C   UNL A   1      38.382  20.446  25.552  1.00  0.00     0.118 C 
BRANCH  25  26
ATOM     26  N   UNL A   1      39.443  19.459  25.716  1.00  0.00    -0.352 N 
ATOM     27  C   UNL A   1      40.766  19.621  26.032  1.00  0.00     0.251 C 
ATOM     28  H   UNL A   1      39.163  18.526  25.575  1.00  0.00     0.163 HD
ATOM     29  O   UNL A   1      41.551  18.694  25.857  1.00  0.00    -0.269 OA
BRANCH  27  30
ATOM     30  C   UNL A   1      41.255  20.902  26.582  1.00  0.00     0.039 A 
ATOM     31  C   UNL A   1      41.774  21.859  25.706  1.00  0.00     0.014 A 
ATOM     32  C   UNL A   1      41.247  21.145  27.958  1.00  0.00     0.014 A 
ATOM     33  C   UNL A   1      42.237  23.077  26.205  1.00  0.00     0.010 A 
ATOM     34  C   UNL A   1      41.626  22.391  28.445  1.00  0.00     0.010 A 
ATOM     35  C   UNL A   1      42.135  23.366  27.575  1.00  0.00    -0.014 A 
BRANCH  35  36
ATOM     36  C   UNL A   1      42.558  24.680  28.118  1.00  0.00     0.031 A 
ATOM     37  C   UNL A   1      41.546  25.767  28.348  1.00  0.00     0.074 A 
ATOM     38  C   UNL A   1      43.865  24.911  28.345  1.00  0.00     0.049 A 
ATOM     39  N   UNL A   1      41.730  26.996  28.759  1.00  0.00    -0.248 NA
ATOM     40  C   UNL A   1      40.143  25.439  28.048  1.00  0.00     0.031 C 
ATOM     41  C   UNL A   1      44.946  23.950  28.119  1.00  0.00     0.029 A 
ATOM     42  N   UNL A   1      44.508  26.030  28.811  1.00  0.00    -0.354 N 
ATOM     43  C   UNL A   1      40.474  27.587  28.756  1.00  0.00     0.074 A 
ATOM     44  C   UNL A   1      39.546  26.606  28.239  1.00  0.00     0.031 C 
ATOM     45  C   UNL A   1      46.112  24.508  28.478  1.00  0.00     0.029 A 
ATOM     46  C   UNL A   1      45.869  25.879  28.914  1.00  0.00     0.049 A 
ATOM     47  H   UNL A   1      44.038  26.862  29.048  1.00  0.00     0.167 HD
ATOM     48  C   UNL A   1      40.120  28.828  29.170  1.00  0.00     0.037 A 
ATOM     49  C   UNL A   1      46.815  26.751  29.309  1.00  0.00     0.037 A 
ATOM     50  C   UNL A   1      41.050  29.798  29.689  1.00  0.00     0.049 A 
ATOM     51  C   UNL A   1      46.404  28.132  29.733  1.00  0.00     0.074 A 
ATOM     52  C   UNL A   1      40.789  31.065  30.180  1.00  0.00     0.029 A 
ATOM     53  N   UNL A   1      42.422  29.609  29.775  1.00  0.00    -0.354 N 
ATOM     54  N   UNL A   1      45.204  28.658  29.790  1.00  0.00    -0.248 NA
ATOM     55  C   UNL A   1      47.478  29.041  30.153  1.00  0.00     0.031 C 
ATOM     56  C   UNL A   1      42.010  31.665  30.508  1.00  0.00     0.029 A 
ATOM     57  C   UNL A   1      43.026  30.748  30.283  1.00  0.00     0.049 A 
ATOM     58  H   UNL A   1      42.896  28.787  29.513  1.00  0.00     0.167 HD
ATOM     59  C   UNL A   1      45.374  29.945  30.281  1.00  0.00     0.074 A 
ATOM     60  C   UNL A   1      46.792  30.115  30.519  1.00  0.00     0.031 C 
ATOM     61  C   UNL A   1      44.440  30.900  30.517  1.00  0.00     0.037 A 
BRANCH  48  62
ATOM     62  C   UNL A   1      38.667  29.202  29.067  1.00  0.00     0.057 A 
ATOM     63  C   UNL A   1      37.801  29.128  30.168  1.00  0.00     0.134 A 
ATOM     64  C   UNL A   1      38.127  29.650  27.854  1.00  0.00     0.134 A 
ATOM     65  F   UNL A   1      38.248  28.697  31.357  1.00  0.00    -0.206 F 
ATOM     66  C   UNL A   1      36.446  29.446  30.056  1.00  0.00     0.040 A 
ATOM     67  C   UNL A   1      36.781  30.004  27.739  1.00  0.00     0.040 A 
ATOM     68  F   UNL A   1      38.897  29.754  26.761  1.00  0.00    -0.206 F 
ATOM     69  C   UNL A   1      35.933  29.891  28.840  1.00  0.00     0.006 A 
ENDBRANCH  48  62
BRANCH  49  70
ATOM     70  C   UNL A   1      48.239  26.330  29.351  1.00  0.00     0.057 A 
ATOM     71  C   UNL A   1      48.786  25.755  30.504  1.00  0.00     0.134 A 
ATOM     72  C   UNL A   1      49.084  26.485  28.245  1.00  0.00     0.134 A 
ATOM     73  F   UNL A   1      48.032  25.595  31.601  1.00  0.00    -0.206 F 
ATOM     74  C   UNL A   1      50.125  25.366  30.564  1.00  0.00     0.040 A 
ATOM     75  C   UNL A   1      50.418  26.074  28.282  1.00  0.00     0.040 A 
ATOM     76  F   UNL A   1      48.620  27.018  27.106  1.00  0.00    -0.206 F 
ATOM     77  C   UNL A   1      50.943  25.520  29.446  1.00  0.00     0.006 A 
ENDBRANCH  49  70
BRANCH  61  78
ATOM     78  C   UNL A   1      44.919  32.200  31.097  1.00  0.00     0.057 A 
ATOM     79  C   UNL A   1      45.036  32.401  32.478  1.00  0.00     0.134 A 
ATOM     80  C   UNL A   1      45.301  33.255  30.257  1.00  0.00     0.134 A 
ATOM     81  F   UNL A   1      44.674  31.438  33.340  1.00  0.00    -0.206 F 
ATOM     82  C   UNL A   1      45.491  33.612  33.004  1.00  0.00     0.040 A 
ATOM     83  C   UNL A   1      45.788  34.458  30.769  1.00  0.00     0.040 A 
ATOM     84  F   UNL A   1      45.223  33.127  28.923  1.00  0.00    -0.206 F 
ATOM     85  C   UNL A   1      45.876  34.642  32.147  1.00  0.00     0.006 A 
ENDBRANCH  61  78
ENDBRANCH  35  36
ENDBRANCH  27  30
ENDBRANCH  25  26
ENDBRANCH   1  25
TORSDOF 11
ENDMDL
