MODEL 1
REMARK VINA RESULT:     -10.4      0.000      0.000
REMARK SMILES CCCCCCNC(=O)Oc1cccc(-c2ccc([C@@H](C)C(=O)NCCCNC(=O)c3ccc(-c4c5nc(c(-c6c(F)cccc6F)c6ccc([nH]6)c(-c6c(F)cccc6F)c6nc(c(-c7c(F)cccc7F)c7ccc4[nH]7)C=C6)C=C5)cc3)cc2[N+](=O)[O-])c1
REMARK SMILES IDX 16 1 17 2 18 3 19 4 85 5 86 6 15 7 11 8 12 9 90 10 13 11
REMARK SMILES IDX 14 12 10 13 8 14 7 15 9 17 6 18 5 19 4 20 3 21 2 22 1 23
REMARK SMILES IDX 87 24 88 25 89 26 20 27 21 28 22 29 23 30 24 31 25 33 26 34
REMARK SMILES IDX 27 35 28 36 29 37 30 39 31 40 32 41 84 42 33 43 83 44 34 45
REMARK SMILES IDX 35 46 36 47 77 48 37 49 82 50 76 51 78 52 38 53 81 54 75 55
REMARK SMILES IDX 74 56 39 58 65 59 48 60 64 61 49 62 52 63 63 64 79 65 50 66
REMARK SMILES IDX 51 67 62 69 80 70 53 71 40 72 41 73 46 74 42 75 43 76 45 77
REMARK SMILES IDX 47 78 44 79 66 80 67 81 72 82 68 83 69 84 71 85 73 86 70 87
REMARK SMILES IDX 54 88 55 89 60 90 56 91 57 92 59 93 61 94 58 95
REMARK H PARENT 7 16 24 32 28 38 78 57 52 68
REMARK Flexibility Score: inf
ROOT
ATOM      1  C   UNL A   1      36.604  32.259  31.683  1.00  0.00     0.060 A 
ATOM      2  C   UNL A   1      36.188  30.917  31.752  1.00  0.00     0.016 A 
ATOM      3  C   UNL A   1      36.858  29.893  31.073  1.00  0.00     0.005 A 
ATOM      4  C   UNL A   1      37.920  30.168  30.213  1.00  0.00    -0.029 A 
ATOM      5  C   UNL A   1      38.390  31.489  30.167  1.00  0.00     0.090 A 
ATOM      6  C   UNL A   1      37.765  32.504  30.924  1.00  0.00     0.277 A 
ENDROOT
BRANCH   1   7
ATOM      7  C   UNL A   1      35.777  33.288  32.352  1.00  0.00    -0.008 A 
ATOM      8  C   UNL A   1      33.864  34.788  32.400  1.00  0.00     0.133 A 
ATOM      9  C   UNL A   1      34.171  35.194  33.694  1.00  0.00     0.047 A 
ATOM     10  C   UNL A   1      34.644  33.842  31.730  1.00  0.00     0.056 A 
ATOM     11  C   UNL A   1      35.276  34.643  34.333  1.00  0.00     0.004 A 
ATOM     12  C   UNL A   1      36.075  33.711  33.664  1.00  0.00     0.009 A 
BRANCH   8  13
ATOM     13  O   UNL A   1      32.828  35.481  31.751  1.00  0.00    -0.410 OA
BRANCH  13  14
ATOM     14  C   UNL A   1      33.007  36.812  31.412  1.00  0.00     0.412 C 
ATOM     15  N   UNL A   1      33.169  36.999  30.067  1.00  0.00    -0.321 N 
ATOM     16  H   UNL A   1      33.349  37.920  29.766  1.00  0.00     0.167 HD
ATOM     17  O   UNL A   1      33.032  37.756  32.194  1.00  0.00    -0.224 OA
BRANCH  15  18
ATOM     18  C   UNL A   1      33.102  35.981  29.037  1.00  0.00     0.119 C 
BRANCH  18  19
ATOM     19  C   UNL A   1      34.428  35.831  28.291  1.00  0.00     0.021 C 
BRANCH  19  20
ATOM     20  C   UNL A   1      34.761  34.399  27.851  1.00  0.00     0.002 C 
BRANCH  20  21
ATOM     21  C   UNL A   1      33.756  33.326  28.282  1.00  0.00    -0.000 C 
BRANCH  21  22
ATOM     22  C   UNL A   1      34.344  31.934  28.523  1.00  0.00    -0.003 C 
ATOM     23  C   UNL A   1      35.670  31.709  27.813  1.00  0.00     0.004 C 
ENDBRANCH  21  22
ENDBRANCH  20  21
ENDBRANCH  19  20
ENDBRANCH  18  19
ENDBRANCH  15  18
ENDBRANCH  13  14
ENDBRANCH   8  13
ENDBRANCH   1   7
BRANCH   6  24
ATOM     24  N   UNL A   1      38.424  33.808  30.944  1.00  0.00     0.063 N 
ATOM     25  O   UNL A   1      39.123  34.074  31.933  1.00  0.00    -0.258 OA
ATOM     26  O   UNL A   1      38.199  34.584  30.006  1.00  0.00    -0.258 OA
ENDBRANCH   6  24
BRANCH   4  27
ATOM     27  C   UNL A   1      38.551  29.105  29.326  1.00  0.00     0.105 C 
ATOM     28  C   UNL A   1      38.690  29.483  27.852  1.00  0.00     0.023 C 
BRANCH  27  29
ATOM     29  C   UNL A   1      39.797  28.446  29.943  1.00  0.00     0.227 C 
ATOM     30  O   UNL A   1      40.136  28.742  31.095  1.00  0.00    -0.274 OA
ATOM     31  N   UNL A   1      40.584  27.538  29.306  1.00  0.00    -0.356 N 
ATOM     32  H   UNL A   1      41.295  27.163  29.873  1.00  0.00     0.163 HD
BRANCH  31  33
ATOM     33  C   UNL A   1      40.579  27.015  27.954  1.00  0.00     0.117 C 
BRANCH  33  34
ATOM     34  C   UNL A   1      39.737  25.745  27.833  1.00  0.00     0.042 C 
BRANCH  34  35
ATOM     35  C   UNL A   1      39.794  25.092  26.459  1.00  0.00     0.118 C 
BRANCH  35  36
ATOM     36  N   UNL A   1      40.499  23.818  26.487  1.00  0.00    -0.352 N 
ATOM     37  C   UNL A   1      41.835  23.530  26.362  1.00  0.00     0.251 C 
ATOM     38  H   UNL A   1      39.920  23.032  26.619  1.00  0.00     0.163 HD
ATOM     39  O   UNL A   1      42.178  22.362  26.197  1.00  0.00    -0.269 OA
BRANCH  37  40
ATOM     40  C   UNL A   1      42.866  24.593  26.413  1.00  0.00     0.039 A 
ATOM     41  C   UNL A   1      43.210  25.251  25.225  1.00  0.00     0.014 A 
ATOM     42  C   UNL A   1      43.551  24.901  27.591  1.00  0.00     0.014 A 
ATOM     43  C   UNL A   1      44.200  26.238  25.230  1.00  0.00     0.010 A 
ATOM     44  C   UNL A   1      44.477  25.942  27.613  1.00  0.00     0.010 A 
ATOM     45  C   UNL A   1      44.827  26.609  26.429  1.00  0.00    -0.014 A 
BRANCH  45  46
ATOM     46  C   UNL A   1      45.878  27.658  26.461  1.00  0.00     0.031 A 
ATOM     47  C   UNL A   1      45.491  29.105  26.617  1.00  0.00     0.074 A 
ATOM     48  C   UNL A   1      47.170  27.322  26.291  1.00  0.00     0.049 A 
ATOM     49  N   UNL A   1      46.247  30.174  26.583  1.00  0.00    -0.248 NA
ATOM     50  C   UNL A   1      44.060  29.391  26.809  1.00  0.00     0.031 C 
ATOM     51  C   UNL A   1      47.672  25.961  26.088  1.00  0.00     0.029 A 
ATOM     52  N   UNL A   1      48.299  28.100  26.251  1.00  0.00    -0.354 N 
ATOM     53  C   UNL A   1      45.383  31.253  26.725  1.00  0.00     0.074 A 
ATOM     54  C   UNL A   1      44.043  30.715  26.797  1.00  0.00     0.031 C 
ATOM     55  C   UNL A   1      49.009  26.000  25.964  1.00  0.00     0.029 A 
ATOM     56  C   UNL A   1      49.454  27.387  26.042  1.00  0.00     0.049 A 
ATOM     57  H   UNL A   1      48.283  29.079  26.361  1.00  0.00     0.167 HD
ATOM     58  C   UNL A   1      45.681  32.571  26.811  1.00  0.00     0.037 A 
ATOM     59  C   UNL A   1      50.728  27.806  25.920  1.00  0.00     0.037 A 
ATOM     60  C   UNL A   1      47.017  33.103  26.775  1.00  0.00     0.049 A 
ATOM     61  C   UNL A   1      51.033  29.274  26.025  1.00  0.00     0.074 A 
ATOM     62  C   UNL A   1      47.427  34.417  26.914  1.00  0.00     0.029 A 
ATOM     63  N   UNL A   1      48.162  32.344  26.590  1.00  0.00    -0.354 N 
ATOM     64  N   UNL A   1      50.212  30.277  26.218  1.00  0.00    -0.248 NA
ATOM     65  C   UNL A   1      52.445  29.668  25.903  1.00  0.00     0.031 C 
ATOM     66  C   UNL A   1      48.819  34.458  26.777  1.00  0.00     0.029 A 
ATOM     67  C   UNL A   1      49.279  33.164  26.596  1.00  0.00     0.049 A 
ATOM     68  H   UNL A   1      48.180  31.366  26.472  1.00  0.00     0.167 HD
ATOM     69  C   UNL A   1      51.007  31.416  26.268  1.00  0.00     0.074 A 
ATOM     70  C   UNL A   1      52.377  30.977  26.098  1.00  0.00     0.031 C 
ATOM     71  C   UNL A   1      50.636  32.708  26.438  1.00  0.00     0.037 A 
BRANCH  58  72
ATOM     72  C   UNL A   1      44.536  33.531  26.961  1.00  0.00     0.057 A 
ATOM     73  C   UNL A   1      44.012  33.864  28.217  1.00  0.00     0.134 A 
ATOM     74  C   UNL A   1      43.968  34.150  25.840  1.00  0.00     0.134 A 
ATOM     75  F   UNL A   1      44.501  33.298  29.331  1.00  0.00    -0.206 F 
ATOM     76  C   UNL A   1      42.948  34.759  28.351  1.00  0.00     0.040 A 
ATOM     77  C   UNL A   1      42.922  35.066  25.963  1.00  0.00     0.040 A 
ATOM     78  F   UNL A   1      44.427  33.882  24.608  1.00  0.00    -0.206 F 
ATOM     79  C   UNL A   1      42.403  35.367  27.221  1.00  0.00     0.006 A 
ENDBRANCH  58  72
BRANCH  59  80
ATOM     80  C   UNL A   1      51.818  26.820  25.709  1.00  0.00     0.057 A 
ATOM     81  C   UNL A   1      52.459  26.215  26.796  1.00  0.00     0.134 A 
ATOM     82  C   UNL A   1      52.248  26.465  24.425  1.00  0.00     0.134 A 
ATOM     83  F   UNL A   1      52.104  26.530  28.050  1.00  0.00    -0.206 F 
ATOM     84  C   UNL A   1      53.504  25.306  26.615  1.00  0.00     0.040 A 
ATOM     85  C   UNL A   1      53.274  25.540  24.229  1.00  0.00     0.040 A 
ATOM     86  F   UNL A   1      51.669  27.005  23.343  1.00  0.00    -0.206 F 
ATOM     87  C   UNL A   1      53.910  24.963  25.327  1.00  0.00     0.006 A 
ENDBRANCH  59  80
BRANCH  71  88
ATOM     88  C   UNL A   1      51.728  33.735  26.490  1.00  0.00     0.057 A 
ATOM     89  C   UNL A   1      52.360  34.081  27.691  1.00  0.00     0.134 A 
ATOM     90  C   UNL A   1      52.177  34.355  25.317  1.00  0.00     0.134 A 
ATOM     91  F   UNL A   1      51.966  33.532  28.850  1.00  0.00    -0.206 F 
ATOM     92  C   UNL A   1      53.389  35.023  27.725  1.00  0.00     0.040 A 
ATOM     93  C   UNL A   1      53.221  35.280  25.337  1.00  0.00     0.040 A 
ATOM     94  F   UNL A   1      51.618  34.061  24.134  1.00  0.00    -0.206 F 
ATOM     95  C   UNL A   1      53.826  35.621  26.545  1.00  0.00     0.006 A 
ENDBRANCH  71  88
ENDBRANCH  45  46
ENDBRANCH  37  40
ENDBRANCH  35  36
ENDBRANCH  34  35
ENDBRANCH  33  34
ENDBRANCH  31  33
ENDBRANCH  27  29
ENDBRANCH   4  27
TORSDOF 20
ENDMDL
MODEL 2
REMARK VINA RESULT:     -10.4      0.339      6.005
REMARK SMILES CCCCCCNC(=O)Oc1cccc(-c2ccc([C@@H](C)C(=O)NCCCNC(=O)c3ccc(-c4c5nc(c(-c6c(F)cccc6F)c6ccc([nH]6)c(-c6c(F)cccc6F)c6nc(c(-c7c(F)cccc7F)c7ccc4[nH]7)C=C6)C=C5)cc3)cc2[N+](=O)[O-])c1
REMARK SMILES IDX 16 1 17 2 18 3 19 4 85 5 86 6 15 7 11 8 12 9 90 10 13 11
REMARK SMILES IDX 14 12 10 13 8 14 7 15 9 17 6 18 5 19 4 20 3 21 2 22 1 23
REMARK SMILES IDX 87 24 88 25 89 26 20 27 21 28 22 29 23 30 24 31 25 33 26 34
REMARK SMILES IDX 27 35 28 36 29 37 30 39 31 40 32 41 84 42 33 43 83 44 34 45
REMARK SMILES IDX 35 46 36 47 77 48 37 49 82 50 76 51 78 52 38 53 81 54 75 55
REMARK SMILES IDX 74 56 39 58 65 59 48 60 64 61 49 62 52 63 63 64 79 65 50 66
REMARK SMILES IDX 51 67 62 69 80 70 53 71 40 72 41 73 46 74 42 75 43 76 45 77
REMARK SMILES IDX 47 78 44 79 66 80 67 81 72 82 68 83 69 84 71 85 73 86 70 87
REMARK SMILES IDX 54 88 55 89 60 90 56 91 57 92 59 93 61 94 58 95
REMARK H PARENT 7 16 24 32 28 38 78 57 52 68
REMARK Flexibility Score: inf
ROOT
ATOM      1  C   UNL A   1      36.627  32.291  31.474  1.00  0.00     0.060 A 
ATOM      2  C   UNL A   1      36.317  30.930  31.652  1.00  0.00     0.016 A 
ATOM      3  C   UNL A   1      36.986  29.916  30.958  1.00  0.00     0.005 A 
ATOM      4  C   UNL A   1      37.935  30.212  29.979  1.00  0.00    -0.029 A 
ATOM      5  C   UNL A   1      38.302  31.557  29.820  1.00  0.00     0.090 A 
ATOM      6  C   UNL A   1      37.686  32.569  30.588  1.00  0.00     0.277 A 
ENDROOT
BRANCH   1   7
ATOM      7  C   UNL A   1      35.800  33.299  32.175  1.00  0.00    -0.008 A 
ATOM      8  C   UNL A   1      33.879  34.787  32.275  1.00  0.00     0.133 A 
ATOM      9  C   UNL A   1      34.195  35.163  33.576  1.00  0.00     0.047 A 
ATOM     10  C   UNL A   1      34.659  33.861  31.576  1.00  0.00     0.056 A 
ATOM     11  C   UNL A   1      35.309  34.603  34.192  1.00  0.00     0.004 A 
ATOM     12  C   UNL A   1      36.107  33.692  33.494  1.00  0.00     0.009 A 
BRANCH   8  13
ATOM     13  O   UNL A   1      32.834  35.489  31.652  1.00  0.00    -0.410 OA
BRANCH  13  14
ATOM     14  C   UNL A   1      33.012  36.823  31.322  1.00  0.00     0.412 C 
ATOM     15  N   UNL A   1      33.194  37.017  29.980  1.00  0.00    -0.321 N 
ATOM     16  H   UNL A   1      33.374  37.940  29.687  1.00  0.00     0.167 HD
ATOM     17  O   UNL A   1      33.020  37.763  32.108  1.00  0.00    -0.224 OA
BRANCH  15  18
ATOM     18  C   UNL A   1      33.148  36.003  28.945  1.00  0.00     0.119 C 
BRANCH  18  19
ATOM     19  C   UNL A   1      34.511  35.797  28.283  1.00  0.00     0.021 C 
BRANCH  19  20
ATOM     20  C   UNL A   1      34.845  34.340  27.937  1.00  0.00     0.002 C 
BRANCH  20  21
ATOM     21  C   UNL A   1      33.690  33.344  28.089  1.00  0.00    -0.000 C 
BRANCH  21  22
ATOM     22  C   UNL A   1      34.097  31.920  28.475  1.00  0.00    -0.003 C 
ATOM     23  C   UNL A   1      35.326  31.422  27.729  1.00  0.00     0.004 C 
ENDBRANCH  21  22
ENDBRANCH  20  21
ENDBRANCH  19  20
ENDBRANCH  18  19
ENDBRANCH  15  18
ENDBRANCH  13  14
ENDBRANCH   8  13
ENDBRANCH   1   7
BRANCH   6  24
ATOM     24  N   UNL A   1      38.249  33.913  30.476  1.00  0.00     0.063 N 
ATOM     25  O   UNL A   1      38.802  34.381  31.481  1.00  0.00    -0.258 OA
ATOM     26  O   UNL A   1      38.089  34.520  29.408  1.00  0.00    -0.258 OA
ENDBRANCH   6  24
BRANCH   4  27
ATOM     27  C   UNL A   1      38.548  29.146  29.084  1.00  0.00     0.105 C 
ATOM     28  C   UNL A   1      38.584  29.486  27.595  1.00  0.00     0.023 C 
BRANCH  27  29
ATOM     29  C   UNL A   1      39.851  28.547  29.641  1.00  0.00     0.227 C 
ATOM     30  O   UNL A   1      40.270  28.918  30.744  1.00  0.00    -0.274 OA
ATOM     31  N   UNL A   1      40.605  27.615  29.000  1.00  0.00    -0.356 N 
ATOM     32  H   UNL A   1      41.366  27.287  29.533  1.00  0.00     0.163 HD
BRANCH  31  33
ATOM     33  C   UNL A   1      40.508  27.010  27.686  1.00  0.00     0.117 C 
BRANCH  33  34
ATOM     34  C   UNL A   1      39.783  25.666  27.726  1.00  0.00     0.042 C 
BRANCH  34  35
ATOM     35  C   UNL A   1      39.861  24.880  26.423  1.00  0.00     0.118 C 
BRANCH  35  36
ATOM     36  N   UNL A   1      40.623  23.648  26.573  1.00  0.00    -0.352 N 
ATOM     37  C   UNL A   1      41.971  23.411  26.479  1.00  0.00     0.251 C 
ATOM     38  H   UNL A   1      40.079  22.852  26.776  1.00  0.00     0.163 HD
ATOM     39  O   UNL A   1      42.368  22.250  26.425  1.00  0.00    -0.269 OA
BRANCH  37  40
ATOM     40  C   UNL A   1      42.953  24.520  26.434  1.00  0.00     0.039 A 
ATOM     41  C   UNL A   1      43.531  24.955  27.633  1.00  0.00     0.014 A 
ATOM     42  C   UNL A   1      43.258  25.187  25.244  1.00  0.00     0.014 A 
ATOM     43  C   UNL A   1      44.438  26.019  27.632  1.00  0.00     0.010 A 
ATOM     44  C   UNL A   1      44.225  26.190  25.230  1.00  0.00     0.010 A 
ATOM     45  C   UNL A   1      44.810  26.632  26.426  1.00  0.00    -0.014 A 
BRANCH  45  46
ATOM     46  C   UNL A   1      45.776  27.760  26.398  1.00  0.00     0.031 A 
ATOM     47  C   UNL A   1      47.251  27.484  26.282  1.00  0.00     0.074 A 
ATOM     48  C   UNL A   1      45.337  29.025  26.535  1.00  0.00     0.049 A 
ATOM     49  N   UNL A   1      48.258  28.320  26.326  1.00  0.00    -0.248 NA
ATOM     50  C   UNL A   1      47.652  26.076  26.124  1.00  0.00     0.031 C 
ATOM     51  C   UNL A   1      43.937  29.423  26.696  1.00  0.00     0.029 A 
ATOM     52  N   UNL A   1      46.025  30.211  26.571  1.00  0.00    -0.354 N 
ATOM     53  C   UNL A   1      49.404  27.541  26.225  1.00  0.00     0.074 A 
ATOM     54  C   UNL A   1      48.973  26.161  26.167  1.00  0.00     0.031 C 
ATOM     55  C   UNL A   1      43.870  30.761  26.795  1.00  0.00     0.029 A 
ATOM     56  C   UNL A   1      45.220  31.311  26.741  1.00  0.00     0.049 A 
ATOM     57  H   UNL A   1      47.005  30.269  26.483  1.00  0.00     0.167 HD
ATOM     58  C   UNL A   1      50.697  27.938  26.163  1.00  0.00     0.037 A 
ATOM     59  C   UNL A   1      45.537  32.616  26.848  1.00  0.00     0.037 A 
ATOM     60  C   UNL A   1      51.123  29.312  26.186  1.00  0.00     0.049 A 
ATOM     61  C   UNL A   1      46.979  33.032  26.770  1.00  0.00     0.074 A 
ATOM     62  C   UNL A   1      52.405  29.820  26.069  1.00  0.00     0.029 A 
ATOM     63  N   UNL A   1      50.273  30.398  26.331  1.00  0.00    -0.354 N 
ATOM     64  N   UNL A   1      48.047  32.288  26.616  1.00  0.00    -0.248 NA
ATOM     65  C   UNL A   1      47.259  34.472  26.873  1.00  0.00     0.031 C 
ATOM     66  C   UNL A   1      52.334  31.214  26.179  1.00  0.00     0.029 A 
ATOM     67  C   UNL A   1      51.005  31.574  26.322  1.00  0.00     0.049 A 
ATOM     68  H   UNL A   1      49.295  30.342  26.427  1.00  0.00     0.167 HD
ATOM     69  C   UNL A   1      49.122  33.167  26.577  1.00  0.00     0.074 A 
ATOM     70  C   UNL A   1      48.575  34.502  26.709  1.00  0.00     0.031 C 
ATOM     71  C   UNL A   1      50.442  32.894  26.443  1.00  0.00     0.037 A 
BRANCH  58  72
ATOM     72  C   UNL A   1      51.745  26.868  26.058  1.00  0.00     0.057 A 
ATOM     73  C   UNL A   1      52.129  26.330  24.823  1.00  0.00     0.134 A 
ATOM     74  C   UNL A   1      52.399  26.390  27.201  1.00  0.00     0.134 A 
ATOM     75  F   UNL A   1      51.533  26.734  23.690  1.00  0.00    -0.206 F 
ATOM     76  C   UNL A   1      53.105  25.336  24.730  1.00  0.00     0.040 A 
ATOM     77  C   UNL A   1      53.395  25.417  27.119  1.00  0.00     0.040 A 
ATOM     78  F   UNL A   1      52.086  26.868  28.415  1.00  0.00    -0.206 F 
ATOM     79  C   UNL A   1      53.746  24.881  25.880  1.00  0.00     0.006 A 
ENDBRANCH  58  72
BRANCH  59  80
ATOM     80  C   UNL A   1      44.465  33.629  27.014  1.00  0.00     0.057 A 
ATOM     81  C   UNL A   1      43.901  34.269  25.904  1.00  0.00     0.134 A 
ATOM     82  C   UNL A   1      43.985  33.988  28.280  1.00  0.00     0.134 A 
ATOM     83  F   UNL A   1      44.334  33.980  24.668  1.00  0.00    -0.206 F 
ATOM     84  C   UNL A   1      42.912  35.244  26.046  1.00  0.00     0.040 A 
ATOM     85  C   UNL A   1      42.979  34.943  28.434  1.00  0.00     0.040 A 
ATOM     86  F   UNL A   1      44.480  33.407  29.382  1.00  0.00    -0.206 F 
ATOM     87  C   UNL A   1      42.444  35.579  27.315  1.00  0.00     0.006 A 
ENDBRANCH  59  80
BRANCH  71  88
ATOM     88  C   UNL A   1      51.383  34.062  26.394  1.00  0.00     0.057 A 
ATOM     89  C   UNL A   1      51.783  34.637  25.181  1.00  0.00     0.134 A 
ATOM     90  C   UNL A   1      51.861  34.640  27.576  1.00  0.00     0.134 A 
ATOM     91  F   UNL A   1      51.370  34.120  24.013  1.00  0.00    -0.206 F 
ATOM     92  C   UNL A   1      52.643  35.736  25.146  1.00  0.00     0.040 A 
ATOM     93  C   UNL A   1      52.702  35.753  27.554  1.00  0.00     0.040 A 
ATOM     94  F   UNL A   1      51.509  34.141  28.770  1.00  0.00    -0.206 F 
ATOM     95  C   UNL A   1      53.100  36.300  26.336  1.00  0.00     0.006 A 
ENDBRANCH  71  88
ENDBRANCH  45  46
ENDBRANCH  37  40
ENDBRANCH  35  36
ENDBRANCH  34  35
ENDBRANCH  33  34
ENDBRANCH  31  33
ENDBRANCH  27  29
ENDBRANCH   4  27
TORSDOF 20
ENDMDL
MODEL 3
REMARK VINA RESULT:      -9.8      3.231      8.592
REMARK SMILES CCCCCCNC(=O)Oc1cccc(-c2ccc([C@@H](C)C(=O)NCCCNC(=O)c3ccc(-c4c5nc(c(-c6c(F)cccc6F)c6ccc([nH]6)c(-c6c(F)cccc6F)c6nc(c(-c7c(F)cccc7F)c7ccc4[nH]7)C=C6)C=C5)cc3)cc2[N+](=O)[O-])c1
REMARK SMILES IDX 16 1 17 2 18 3 19 4 85 5 86 6 15 7 11 8 12 9 90 10 13 11
REMARK SMILES IDX 14 12 10 13 8 14 7 15 9 17 6 18 5 19 4 20 3 21 2 22 1 23
REMARK SMILES IDX 87 24 88 25 89 26 20 27 21 28 22 29 23 30 24 31 25 33 26 34
REMARK SMILES IDX 27 35 28 36 29 37 30 39 31 40 32 41 84 42 33 43 83 44 34 45
REMARK SMILES IDX 35 46 36 47 77 48 37 49 82 50 76 51 78 52 38 53 81 54 75 55
REMARK SMILES IDX 74 56 39 58 65 59 48 60 64 61 49 62 52 63 63 64 79 65 50 66
REMARK SMILES IDX 51 67 62 69 80 70 53 71 40 72 41 73 46 74 42 75 43 76 45 77
REMARK SMILES IDX 47 78 44 79 66 80 67 81 72 82 68 83 69 84 71 85 73 86 70 87
REMARK SMILES IDX 54 88 55 89 60 90 56 91 57 92 59 93 61 94 58 95
REMARK H PARENT 7 16 24 32 28 38 78 57 52 68
REMARK Flexibility Score: inf
ROOT
ATOM      1  C   UNL A   1      37.833  33.134  31.745  1.00  0.00     0.060 A 
ATOM      2  C   UNL A   1      37.696  33.236  30.349  1.00  0.00     0.016 A 
ATOM      3  C   UNL A   1      36.541  33.751  29.749  1.00  0.00     0.005 A 
ATOM      4  C   UNL A   1      35.425  34.103  30.507  1.00  0.00    -0.029 A 
ATOM      5  C   UNL A   1      35.554  34.063  31.904  1.00  0.00     0.090 A 
ATOM      6  C   UNL A   1      36.754  33.626  32.506  1.00  0.00     0.277 A 
ENDROOT
BRANCH   1   7
ATOM      7  C   UNL A   1      39.048  32.486  32.288  1.00  0.00    -0.008 A 
ATOM      8  C   UNL A   1      40.140  30.707  33.535  1.00  0.00     0.133 A 
ATOM      9  C   UNL A   1      41.396  31.225  33.241  1.00  0.00     0.047 A 
ATOM     10  C   UNL A   1      38.973  31.316  33.063  1.00  0.00     0.056 A 
ATOM     11  C   UNL A   1      41.491  32.371  32.459  1.00  0.00     0.004 A 
ATOM     12  C   UNL A   1      40.329  32.999  31.999  1.00  0.00     0.009 A 
BRANCH   8  13
ATOM     13  O   UNL A   1      40.096  29.638  34.446  1.00  0.00    -0.410 OA
BRANCH  13  14
ATOM     14  C   UNL A   1      40.533  29.833  35.746  1.00  0.00     0.412 C 
ATOM     15  N   UNL A   1      41.310  28.805  36.204  1.00  0.00    -0.321 N 
ATOM     16  H   UNL A   1      41.613  28.862  37.140  1.00  0.00     0.167 HD
ATOM     17  O   UNL A   1      40.274  30.800  36.453  1.00  0.00    -0.224 OA
BRANCH  15  18
ATOM     18  C   UNL A   1      41.736  27.641  35.453  1.00  0.00     0.119 C 
BRANCH  18  19
ATOM     19  C   UNL A   1      42.836  27.979  34.445  1.00  0.00     0.021 C 
BRANCH  19  20
ATOM     20  C   UNL A   1      43.386  26.778  33.666  1.00  0.00     0.002 C 
BRANCH  20  21
ATOM     21  C   UNL A   1      43.715  27.042  32.192  1.00  0.00    -0.000 C 
BRANCH  21  22
ATOM     22  C   UNL A   1      44.233  28.447  31.877  1.00  0.00    -0.003 C 
ATOM     23  C   UNL A   1      45.738  28.500  31.666  1.00  0.00     0.004 C 
ENDBRANCH  21  22
ENDBRANCH  20  21
ENDBRANCH  19  20
ENDBRANCH  18  19
ENDBRANCH  15  18
ENDBRANCH  13  14
ENDBRANCH   8  13
ENDBRANCH   1   7
BRANCH   6  24
ATOM     24  N   UNL A   1      36.855  33.778  33.956  1.00  0.00     0.063 N 
ATOM     25  O   UNL A   1      37.655  34.623  34.383  1.00  0.00    -0.258 OA
ATOM     26  O   UNL A   1      36.181  33.019  34.665  1.00  0.00    -0.258 OA
ENDBRANCH   6  24
BRANCH   4  27
ATOM     27  C   UNL A   1      34.097  34.494  29.877  1.00  0.00     0.105 C 
ATOM     28  C   UNL A   1      33.459  35.765  30.436  1.00  0.00     0.023 C 
BRANCH  27  29
ATOM     29  C   UNL A   1      34.087  34.388  28.343  1.00  0.00     0.227 C 
ATOM     30  O   UNL A   1      34.361  35.383  27.661  1.00  0.00    -0.274 OA
ATOM     31  N   UNL A   1      33.789  33.256  27.651  1.00  0.00    -0.356 N 
ATOM     32  H   UNL A   1      33.904  33.345  26.677  1.00  0.00     0.163 HD
BRANCH  31  33
ATOM     33  C   UNL A   1      33.337  31.943  28.068  1.00  0.00     0.117 C 
BRANCH  33  34
ATOM     34  C   UNL A   1      33.998  30.826  27.262  1.00  0.00     0.042 C 
BRANCH  34  35
ATOM     35  C   UNL A   1      35.302  30.317  27.860  1.00  0.00     0.118 C 
BRANCH  35  36
ATOM     36  N   UNL A   1      35.326  30.444  29.310  1.00  0.00    -0.352 N 
ATOM     37  C   UNL A   1      36.286  30.091  30.225  1.00  0.00     0.251 C 
ATOM     38  H   UNL A   1      34.518  30.852  29.700  1.00  0.00     0.163 HD
ATOM     39  O   UNL A   1      35.997  30.091  31.419  1.00  0.00    -0.269 OA
BRANCH  37  40
ATOM     40  C   UNL A   1      37.653  29.703  29.805  1.00  0.00     0.039 A 
ATOM     41  C   UNL A   1      38.437  28.948  30.687  1.00  0.00     0.014 A 
ATOM     42  C   UNL A   1      38.203  30.132  28.594  1.00  0.00     0.014 A 
ATOM     43  C   UNL A   1      39.742  28.590  30.337  1.00  0.00     0.010 A 
ATOM     44  C   UNL A   1      39.471  29.705  28.209  1.00  0.00     0.010 A 
ATOM     45  C   UNL A   1      40.264  28.946  29.084  1.00  0.00    -0.014 A 
BRANCH  45  46
ATOM     46  C   UNL A   1      41.646  28.573  28.687  1.00  0.00     0.031 A 
ATOM     47  C   UNL A   1      41.947  27.166  28.245  1.00  0.00     0.074 A 
ATOM     48  C   UNL A   1      42.639  29.477  28.778  1.00  0.00     0.049 A 
ATOM     49  N   UNL A   1      43.097  26.620  27.941  1.00  0.00    -0.248 NA
ATOM     50  C   UNL A   1      40.806  26.240  28.160  1.00  0.00     0.031 C 
ATOM     51  C   UNL A   1      42.486  30.861  29.230  1.00  0.00     0.029 A 
ATOM     52  N   UNL A   1      43.979  29.364  28.504  1.00  0.00    -0.354 N 
ATOM     53  C   UNL A   1      42.822  25.289  27.654  1.00  0.00     0.074 A 
ATOM     54  C   UNL A   1      41.405  25.096  27.866  1.00  0.00     0.031 C 
ATOM     55  C   UNL A   1      43.682  31.472  29.185  1.00  0.00     0.029 A 
ATOM     56  C   UNL A   1      44.688  30.517  28.735  1.00  0.00     0.049 A 
ATOM     57  H   UNL A   1      44.393  28.534  28.172  1.00  0.00     0.167 HD
ATOM     58  C   UNL A   1      43.668  24.320  27.230  1.00  0.00     0.037 A 
ATOM     59  C   UNL A   1      46.004  30.771  28.607  1.00  0.00     0.037 A 
ATOM     60  C   UNL A   1      45.071  24.522  26.986  1.00  0.00     0.049 A 
ATOM     61  C   UNL A   1      46.922  29.681  28.128  1.00  0.00     0.074 A 
ATOM     62  C   UNL A   1      46.001  23.620  26.498  1.00  0.00     0.029 A 
ATOM     63  N   UNL A   1      45.746  25.713  27.206  1.00  0.00    -0.354 N 
ATOM     64  N   UNL A   1      46.637  28.443  27.806  1.00  0.00    -0.248 NA
ATOM     65  C   UNL A   1      48.344  30.026  27.990  1.00  0.00     0.031 C 
ATOM     66  C   UNL A   1      47.247  24.256  26.458  1.00  0.00     0.029 A 
ATOM     67  C   UNL A   1      47.084  25.565  26.880  1.00  0.00     0.049 A 
ATOM     68  H   UNL A   1      45.336  26.541  27.545  1.00  0.00     0.167 HD
ATOM     69  C   UNL A   1      47.836  27.870  27.400  1.00  0.00     0.074 A 
ATOM     70  C   UNL A   1      48.849  28.900  27.505  1.00  0.00     0.031 C 
ATOM     71  C   UNL A   1      48.076  26.605  26.979  1.00  0.00     0.037 A 
BRANCH  58  72
ATOM     72  C   UNL A   1      43.093  22.953  26.997  1.00  0.00     0.057 A 
ATOM     73  C   UNL A   1      42.794  22.088  28.059  1.00  0.00     0.134 A 
ATOM     74  C   UNL A   1      42.809  22.505  25.701  1.00  0.00     0.134 A 
ATOM     75  F   UNL A   1      43.053  22.449  29.325  1.00  0.00    -0.206 F 
ATOM     76  C   UNL A   1      42.258  20.818  27.837  1.00  0.00     0.040 A 
ATOM     77  C   UNL A   1      42.249  21.249  25.468  1.00  0.00     0.040 A 
ATOM     78  F   UNL A   1      43.064  23.286  24.640  1.00  0.00    -0.206 F 
ATOM     79  C   UNL A   1      41.978  20.397  26.538  1.00  0.00     0.006 A 
ENDBRANCH  58  72
BRANCH  59  80
ATOM     80  C   UNL A   1      46.532  32.125  28.912  1.00  0.00     0.057 A 
ATOM     81  C   UNL A   1      46.944  32.462  30.206  1.00  0.00     0.134 A 
ATOM     82  C   UNL A   1      46.631  33.113  27.924  1.00  0.00     0.134 A 
ATOM     83  F   UNL A   1      46.854  31.563  31.197  1.00  0.00    -0.206 F 
ATOM     84  C   UNL A   1      47.417  33.739  30.514  1.00  0.00     0.040 A 
ATOM     85  C   UNL A   1      47.125  34.386  28.213  1.00  0.00     0.040 A 
ATOM     86  F   UNL A   1      46.259  32.851  26.664  1.00  0.00    -0.206 F 
ATOM     87  C   UNL A   1      47.513  34.704  29.514  1.00  0.00     0.006 A 
ENDBRANCH  59  80
BRANCH  71  88
ATOM     88  C   UNL A   1      49.479  26.274  26.563  1.00  0.00     0.057 A 
ATOM     89  C   UNL A   1      50.391  25.683  27.446  1.00  0.00     0.134 A 
ATOM     90  C   UNL A   1      49.907  26.516  25.251  1.00  0.00     0.134 A 
ATOM     91  F   UNL A   1      50.045  25.440  28.719  1.00  0.00    -0.206 F 
ATOM     92  C   UNL A   1      51.688  25.362  27.043  1.00  0.00     0.040 A 
ATOM     93  C   UNL A   1      51.193  26.177  24.832  1.00  0.00     0.040 A 
ATOM     94  F   UNL A   1      49.078  27.073  24.355  1.00  0.00    -0.206 F 
ATOM     95  C   UNL A   1      52.090  25.603  25.731  1.00  0.00     0.006 A 
ENDBRANCH  71  88
ENDBRANCH  45  46
ENDBRANCH  37  40
ENDBRANCH  35  36
ENDBRANCH  34  35
ENDBRANCH  33  34
ENDBRANCH  31  33
ENDBRANCH  27  29
ENDBRANCH   4  27
TORSDOF 20
ENDMDL
