MODEL 1
REMARK VINA RESULT:     -12.2      0.000      0.000
REMARK SMILES C[C@@H]1[C@@H](C(=O)NCCCNC(=O)c2ccc(-c3c4nc(c(-c5c(F)cccc5F)c5ccc([nH]5)c(-c5c(F)cccc5F)c5nc(c(-c6c(F)cccc6F)c6ccc3[nH]6)C=C5)C=C4)cc2)CCN1C(=O)N1CCC[C@H]2CCC[C@@H]21
REMARK SMILES IDX 8 1 7 2 6 3 4 4 5 5 3 7 1 8 2 9 69 10 67 11 68 12 70 13
REMARK SMILES IDX 71 14 72 15 73 16 80 17 74 18 76 19 79 20 75 21 77 22 78 23
REMARK SMILES IDX 9 24 10 25 11 26 12 28 13 29 14 30 66 31 15 32 65 33 16 34
REMARK SMILES IDX 17 35 18 36 59 37 19 38 64 39 58 40 60 41 20 42 63 43 57 44
REMARK SMILES IDX 56 45 21 47 47 48 30 49 46 50 31 51 34 52 45 53 61 54 32 55
REMARK SMILES IDX 33 56 44 58 62 59 35 60 22 61 23 62 28 63 24 64 25 65 27 66
REMARK SMILES IDX 29 67 26 68 48 69 49 70 54 71 50 72 51 73 53 74 55 75 52 76
REMARK SMILES IDX 36 77 37 78 42 79 38 80 39 81 41 82 43 83 40 84
REMARK H PARENT 6 6 10 27 60 46 34 57
REMARK Flexibility Score: inf
ROOT
ATOM      1  C   UNL A   1      37.786  19.760  24.990  1.00  0.00     0.042 C 
ENDROOT
BRANCH   1   2
ATOM      2  C   UNL A   1      36.721  20.804  24.720  1.00  0.00     0.117 C 
BRANCH   2   3
ATOM      3  N   UNL A   1      35.873  21.082  25.863  1.00  0.00    -0.356 N 
ATOM      4  C   UNL A   1      34.637  21.659  25.903  1.00  0.00     0.225 C 
ATOM      5  O   UNL A   1      34.098  21.765  27.004  1.00  0.00    -0.275 OA
ATOM      6  H   UNL A   1      36.242  20.818  26.737  1.00  0.00     0.163 HD
BRANCH   4   7
ATOM      7  C   UNL A   1      34.045  22.241  24.625  1.00  0.00     0.102 C 
ATOM      8  C   UNL A   1      33.944  24.427  23.437  1.00  0.00     0.032 C 
ATOM      9  C   UNL A   1      33.680  23.738  24.782  1.00  0.00     0.096 C 
ATOM     10  N   UNL A   1      32.250  23.720  25.164  1.00  0.00    -0.321 N 
ATOM     11  C   UNL A   1      32.712  21.628  24.182  1.00  0.00     0.037 C 
ATOM     12  C   UNL A   1      31.681  22.403  24.970  1.00  0.00     0.122 C 
BRANCH  10  13
ATOM     13  C   UNL A   1      31.593  24.538  26.071  1.00  0.00     0.320 C 
ATOM     14  O   UNL A   1      31.511  24.246  27.265  1.00  0.00    -0.248 OA
BRANCH  13  15
ATOM     15  N   UNL A   1      31.155  25.745  25.598  1.00  0.00    -0.321 N 
ATOM     16  C   UNL A   1      29.771  25.959  25.204  1.00  0.00     0.121 C 
ATOM     17  C   UNL A   1      31.859  26.980  25.883  1.00  0.00     0.090 C 
ATOM     18  C   UNL A   1      29.696  26.809  23.933  1.00  0.00     0.022 C 
ATOM     19  C   UNL A   1      31.943  27.750  24.563  1.00  0.00     0.012 C 
ATOM     20  C   UNL A   1      33.319  26.951  26.321  1.00  0.00     0.025 C 
ATOM     21  C   UNL A   1      30.545  28.089  24.046  1.00  0.00     0.007 C 
ATOM     22  C   UNL A   1      32.861  28.912  24.900  1.00  0.00     0.006 C 
ATOM     23  C   UNL A   1      33.864  28.323  25.902  1.00  0.00     0.002 C 
ENDBRANCH  13  15
ENDBRANCH  10  13
ENDBRANCH   4   7
ENDBRANCH   2   3
ENDBRANCH   1   2
BRANCH   1  24
ATOM     24  C   UNL A   1      39.002  20.270  25.746  1.00  0.00     0.118 C 
BRANCH  24  25
ATOM     25  N   UNL A   1      40.110  19.325  25.773  1.00  0.00    -0.352 N 
ATOM     26  C   UNL A   1      41.436  19.507  26.094  1.00  0.00     0.251 C 
ATOM     27  H   UNL A   1      39.871  18.404  25.520  1.00  0.00     0.163 HD
ATOM     28  O   UNL A   1      42.235  18.597  25.916  1.00  0.00    -0.269 OA
BRANCH  26  29
ATOM     29  C   UNL A   1      41.910  20.810  26.613  1.00  0.00     0.039 A 
ATOM     30  C   UNL A   1      42.369  21.771  25.709  1.00  0.00     0.014 A 
ATOM     31  C   UNL A   1      41.899  21.094  27.979  1.00  0.00     0.014 A 
ATOM     32  C   UNL A   1      42.722  23.044  26.167  1.00  0.00     0.010 A 
ATOM     33  C   UNL A   1      42.135  22.392  28.419  1.00  0.00     0.010 A 
ATOM     34  C   UNL A   1      42.555  23.382  27.520  1.00  0.00    -0.014 A 
BRANCH  34  35
ATOM     35  C   UNL A   1      42.819  24.757  28.017  1.00  0.00     0.031 A 
ATOM     36  C   UNL A   1      44.213  25.161  28.419  1.00  0.00     0.074 A 
ATOM     37  C   UNL A   1      41.796  25.620  28.180  1.00  0.00     0.049 A 
ATOM     38  N   UNL A   1      44.629  26.281  28.954  1.00  0.00    -0.248 NA
ATOM     39  C   UNL A   1      45.276  24.162  28.221  1.00  0.00     0.031 C 
ATOM     40  C   UNL A   1      40.390  25.337  27.879  1.00  0.00     0.029 A 
ATOM     41  N   UNL A   1      41.779  26.911  28.648  1.00  0.00    -0.354 N 
ATOM     42  C   UNL A   1      45.991  26.112  29.172  1.00  0.00     0.074 A 
ATOM     43  C   UNL A   1      46.320  24.763  28.772  1.00  0.00     0.031 C 
ATOM     44  C   UNL A   1      39.656  26.430  28.139  1.00  0.00     0.029 A 
ATOM     45  C   UNL A   1      40.526  27.474  28.668  1.00  0.00     0.049 A 
ATOM     46  H   UNL A   1      42.589  27.387  28.943  1.00  0.00     0.167 HD
ATOM     47  C   UNL A   1      46.893  27.010  29.633  1.00  0.00     0.037 A 
ATOM     48  C   UNL A   1      40.122  28.693  29.074  1.00  0.00     0.037 A 
ATOM     49  C   UNL A   1      46.569  28.362  30.006  1.00  0.00     0.049 A 
ATOM     50  C   UNL A   1      41.141  29.668  29.598  1.00  0.00     0.074 A 
ATOM     51  C   UNL A   1      47.421  29.366  30.432  1.00  0.00     0.029 A 
ATOM     52  N   UNL A   1      45.290  28.898  29.998  1.00  0.00    -0.354 N 
ATOM     53  N   UNL A   1      42.436  29.517  29.735  1.00  0.00    -0.248 NA
ATOM     54  C   UNL A   1      40.643  30.983  30.021  1.00  0.00     0.031 C 
ATOM     55  C   UNL A   1      46.651  30.495  30.731  1.00  0.00     0.029 A 
ATOM     56  C   UNL A   1      45.327  30.212  30.435  1.00  0.00     0.049 A 
ATOM     57  H   UNL A   1      44.478  28.417  29.723  1.00  0.00     0.167 HD
ATOM     58  C   UNL A   1      42.911  30.725  30.226  1.00  0.00     0.074 A 
ATOM     59  C   UNL A   1      41.766  31.604  30.350  1.00  0.00     0.031 C 
ATOM     60  C   UNL A   1      44.180  31.078  30.544  1.00  0.00     0.037 A 
BRANCH  47  61
ATOM     61  C   UNL A   1      48.321  26.558  29.755  1.00  0.00     0.057 A 
ATOM     62  C   UNL A   1      48.793  25.896  30.897  1.00  0.00     0.134 A 
ATOM     63  C   UNL A   1      49.227  26.759  28.706  1.00  0.00     0.134 A 
ATOM     64  F   UNL A   1      47.981  25.682  31.943  1.00  0.00    -0.206 F 
ATOM     65  C   UNL A   1      50.120  25.477  31.003  1.00  0.00     0.040 A 
ATOM     66  C   UNL A   1      50.549  26.318  28.789  1.00  0.00     0.040 A 
ATOM     67  F   UNL A   1      48.843  27.381  27.582  1.00  0.00    -0.206 F 
ATOM     68  C   UNL A   1      51.000  25.682  29.943  1.00  0.00     0.006 A 
ENDBRANCH  47  61
BRANCH  48  69
ATOM     69  C   UNL A   1      38.689  29.074  28.981  1.00  0.00     0.057 A 
ATOM     70  C   UNL A   1      38.144  29.541  27.778  1.00  0.00     0.134 A 
ATOM     71  C   UNL A   1      37.835  28.998  30.088  1.00  0.00     0.134 A 
ATOM     72  F   UNL A   1      38.915  29.654  26.687  1.00  0.00    -0.206 F 
ATOM     73  C   UNL A   1      36.809  29.940  27.685  1.00  0.00     0.040 A 
ATOM     74  C   UNL A   1      36.490  29.367  30.001  1.00  0.00     0.040 A 
ATOM     75  F   UNL A   1      38.291  28.552  31.266  1.00  0.00    -0.206 F 
ATOM     76  C   UNL A   1      35.977  29.849  28.799  1.00  0.00     0.006 A 
ENDBRANCH  48  69
BRANCH  60  77
ATOM     77  C   UNL A   1      44.407  32.485  31.017  1.00  0.00     0.057 A 
ATOM     78  C   UNL A   1      44.645  33.539  30.126  1.00  0.00     0.134 A 
ATOM     79  C   UNL A   1      44.345  32.794  32.382  1.00  0.00     0.134 A 
ATOM     80  F   UNL A   1      44.729  33.309  28.808  1.00  0.00    -0.206 F 
ATOM     81  C   UNL A   1      44.839  34.845  30.578  1.00  0.00     0.040 A 
ATOM     82  C   UNL A   1      44.507  34.101  32.844  1.00  0.00     0.040 A 
ATOM     83  F   UNL A   1      44.111  31.833  33.289  1.00  0.00    -0.206 F 
ATOM     84  C   UNL A   1      44.761  35.130  31.941  1.00  0.00     0.006 A 
ENDBRANCH  60  77
ENDBRANCH  34  35
ENDBRANCH  26  29
ENDBRANCH  24  25
ENDBRANCH   1  24
TORSDOF 12
ENDMDL
MODEL 2
REMARK VINA RESULT:     -12.1      0.408      6.149
REMARK SMILES C[C@@H]1[C@@H](C(=O)NCCCNC(=O)c2ccc(-c3c4nc(c(-c5c(F)cccc5F)c5ccc([nH]5)c(-c5c(F)cccc5F)c5nc(c(-c6c(F)cccc6F)c6ccc3[nH]6)C=C5)C=C4)cc2)CCN1C(=O)N1CCC[C@H]2CCC[C@@H]21
REMARK SMILES IDX 8 1 7 2 6 3 4 4 5 5 3 7 1 8 2 9 69 10 67 11 68 12 70 13
REMARK SMILES IDX 71 14 72 15 73 16 80 17 74 18 76 19 79 20 75 21 77 22 78 23
REMARK SMILES IDX 9 24 10 25 11 26 12 28 13 29 14 30 66 31 15 32 65 33 16 34
REMARK SMILES IDX 17 35 18 36 59 37 19 38 64 39 58 40 60 41 20 42 63 43 57 44
REMARK SMILES IDX 56 45 21 47 47 48 30 49 46 50 31 51 34 52 45 53 61 54 32 55
REMARK SMILES IDX 33 56 44 58 62 59 35 60 22 61 23 62 28 63 24 64 25 65 27 66
REMARK SMILES IDX 29 67 26 68 48 69 49 70 54 71 50 72 51 73 53 74 55 75 52 76
REMARK SMILES IDX 36 77 37 78 42 79 38 80 39 81 41 82 43 83 40 84
REMARK H PARENT 6 6 10 27 60 46 34 57
REMARK Flexibility Score: inf
ROOT
ATOM      1  C   UNL A   1      37.643  20.551  24.632  1.00  0.00     0.042 C 
ENDROOT
BRANCH   1   2
ATOM      2  C   UNL A   1      36.204  20.392  25.079  1.00  0.00     0.117 C 
BRANCH   2   3
ATOM      3  N   UNL A   1      35.822  21.291  26.151  1.00  0.00    -0.356 N 
ATOM      4  C   UNL A   1      34.938  22.331  26.134  1.00  0.00     0.225 C 
ATOM      5  O   UNL A   1      34.760  22.937  27.190  1.00  0.00    -0.275 OA
ATOM      6  H   UNL A   1      36.264  21.128  27.015  1.00  0.00     0.163 HD
BRANCH   4   7
ATOM      7  C   UNL A   1      34.318  22.760  24.810  1.00  0.00     0.102 C 
ATOM      8  C   UNL A   1      34.009  24.839  23.475  1.00  0.00     0.032 C 
ATOM      9  C   UNL A   1      33.788  24.214  24.859  1.00  0.00     0.096 C 
ATOM     10  N   UNL A   1      32.360  24.064  25.217  1.00  0.00    -0.321 N 
ATOM     11  C   UNL A   1      33.071  21.976  24.386  1.00  0.00     0.037 C 
ATOM     12  C   UNL A   1      31.943  22.683  25.102  1.00  0.00     0.122 C 
BRANCH  10  13
ATOM     13  C   UNL A   1      31.596  24.862  26.055  1.00  0.00     0.320 C 
ATOM     14  O   UNL A   1      31.445  24.591  27.247  1.00  0.00    -0.248 OA
BRANCH  13  15
ATOM     15  N   UNL A   1      31.127  26.033  25.523  1.00  0.00    -0.321 N 
ATOM     16  C   UNL A   1      29.773  26.153  25.006  1.00  0.00     0.121 C 
ATOM     17  C   UNL A   1      31.727  27.314  25.845  1.00  0.00     0.090 C 
ATOM     18  C   UNL A   1      29.758  26.979  23.717  1.00  0.00     0.022 C 
ATOM     19  C   UNL A   1      31.878  28.070  24.523  1.00  0.00     0.012 C 
ATOM     20  C   UNL A   1      33.141  27.383  26.409  1.00  0.00     0.025 C 
ATOM     21  C   UNL A   1      30.513  28.313  23.880  1.00  0.00     0.007 C 
ATOM     22  C   UNL A   1      32.689  29.291  24.916  1.00  0.00     0.006 C 
ATOM     23  C   UNL A   1      33.635  28.781  26.013  1.00  0.00     0.002 C 
ENDBRANCH  13  15
ENDBRANCH  10  13
ENDBRANCH   4   7
ENDBRANCH   2   3
ENDBRANCH   1   2
BRANCH   1  24
ATOM     24  C   UNL A   1      38.651  20.673  25.762  1.00  0.00     0.118 C 
BRANCH  24  25
ATOM     25  N   UNL A   1      39.692  19.654  25.728  1.00  0.00    -0.352 N 
ATOM     26  C   UNL A   1      41.033  19.731  26.031  1.00  0.00     0.251 C 
ATOM     27  H   UNL A   1      39.386  18.764  25.440  1.00  0.00     0.163 HD
ATOM     28  O   UNL A   1      41.764  18.777  25.798  1.00  0.00    -0.269 OA
BRANCH  26  29
ATOM     29  C   UNL A   1      41.604  20.974  26.597  1.00  0.00     0.039 A 
ATOM     30  C   UNL A   1      42.083  21.955  25.725  1.00  0.00     0.014 A 
ATOM     31  C   UNL A   1      41.663  21.184  27.975  1.00  0.00     0.014 A 
ATOM     32  C   UNL A   1      42.530  23.178  26.233  1.00  0.00     0.010 A 
ATOM     33  C   UNL A   1      41.993  22.440  28.471  1.00  0.00     0.010 A 
ATOM     34  C   UNL A   1      42.436  23.452  27.608  1.00  0.00    -0.014 A 
BRANCH  34  35
ATOM     35  C   UNL A   1      42.801  24.780  28.165  1.00  0.00     0.031 A 
ATOM     36  C   UNL A   1      41.743  25.832  28.368  1.00  0.00     0.074 A 
ATOM     37  C   UNL A   1      44.094  25.068  28.419  1.00  0.00     0.049 A 
ATOM     38  N   UNL A   1      41.875  27.074  28.760  1.00  0.00    -0.248 NA
ATOM     39  C   UNL A   1      40.357  25.446  28.060  1.00  0.00     0.031 C 
ATOM     40  C   UNL A   1      45.223  24.157  28.216  1.00  0.00     0.029 A 
ATOM     41  N   UNL A   1      44.678  26.216  28.894  1.00  0.00    -0.354 N 
ATOM     42  C   UNL A   1      40.597  27.618  28.727  1.00  0.00     0.074 A 
ATOM     43  C   UNL A   1      39.714  26.593  28.217  1.00  0.00     0.031 C 
ATOM     44  C   UNL A   1      46.356  24.769  28.596  1.00  0.00     0.029 A 
ATOM     45  C   UNL A   1      46.044  26.128  29.023  1.00  0.00     0.049 A 
ATOM     46  H   UNL A   1      44.167  27.026  29.121  1.00  0.00     0.167 HD
ATOM     47  C   UNL A   1      40.189  28.849  29.116  1.00  0.00     0.037 A 
ATOM     48  C   UNL A   1      46.944  27.043  29.431  1.00  0.00     0.037 A 
ATOM     49  C   UNL A   1      41.065  29.858  29.648  1.00  0.00     0.049 A 
ATOM     50  C   UNL A   1      46.468  28.409  29.843  1.00  0.00     0.074 A 
ATOM     51  C   UNL A   1      40.740  31.117  30.123  1.00  0.00     0.029 A 
ATOM     52  N   UNL A   1      42.439  29.725  29.775  1.00  0.00    -0.354 N 
ATOM     53  N   UNL A   1      45.247  28.886  29.870  1.00  0.00    -0.248 NA
ATOM     54  C   UNL A   1      47.495  29.362  30.285  1.00  0.00     0.031 C 
ATOM     55  C   UNL A   1      41.924  31.765  30.490  1.00  0.00     0.029 A 
ATOM     56  C   UNL A   1      42.980  30.888  30.298  1.00  0.00     0.049 A 
ATOM     57  H   UNL A   1      42.954  28.924  29.530  1.00  0.00     0.167 HD
ATOM     58  C   UNL A   1      45.354  30.180  30.362  1.00  0.00     0.074 A 
ATOM     59  C   UNL A   1      46.759  30.408  30.633  1.00  0.00     0.031 C 
ATOM     60  C   UNL A   1      44.379  31.097  30.572  1.00  0.00     0.037 A 
BRANCH  47  61
ATOM     61  C   UNL A   1      38.726  29.168  28.984  1.00  0.00     0.057 A 
ATOM     62  C   UNL A   1      37.850  29.085  30.076  1.00  0.00     0.134 A 
ATOM     63  C   UNL A   1      38.193  29.592  27.761  1.00  0.00     0.134 A 
ATOM     64  F   UNL A   1      38.293  28.673  31.274  1.00  0.00    -0.206 F 
ATOM     65  C   UNL A   1      36.493  29.383  29.948  1.00  0.00     0.040 A 
ATOM     66  C   UNL A   1      36.843  29.923  27.629  1.00  0.00     0.040 A 
ATOM     67  F   UNL A   1      38.975  29.699  26.677  1.00  0.00    -0.206 F 
ATOM     68  C   UNL A   1      35.988  29.811  28.721  1.00  0.00     0.006 A 
ENDBRANCH  47  61
BRANCH  48  69
ATOM     69  C   UNL A   1      48.387  26.693  29.495  1.00  0.00     0.057 A 
ATOM     70  C   UNL A   1      49.246  26.980  28.427  1.00  0.00     0.134 A 
ATOM     71  C   UNL A   1      48.938  26.052  30.611  1.00  0.00     0.134 A 
ATOM     72  F   UNL A   1      48.774  27.576  27.323  1.00  0.00    -0.206 F 
ATOM     73  C   UNL A   1      50.596  26.622  28.457  1.00  0.00     0.040 A 
ATOM     74  C   UNL A   1      50.292  25.714  30.665  1.00  0.00     0.040 A 
ATOM     75  F   UNL A   1      48.172  25.757  31.670  1.00  0.00    -0.206 F 
ATOM     76  C   UNL A   1      51.123  25.990  29.581  1.00  0.00     0.006 A 
ENDBRANCH  48  69
BRANCH  60  77
ATOM     77  C   UNL A   1      44.788  32.416  31.162  1.00  0.00     0.057 A 
ATOM     78  C   UNL A   1      45.126  33.514  30.363  1.00  0.00     0.134 A 
ATOM     79  C   UNL A   1      44.802  32.599  32.551  1.00  0.00     0.134 A 
ATOM     80  F   UNL A   1      45.144  33.404  29.026  1.00  0.00    -0.206 F 
ATOM     81  C   UNL A   1      45.489  34.740  30.923  1.00  0.00     0.040 A 
ATOM     82  C   UNL A   1      45.134  33.828  33.123  1.00  0.00     0.040 A 
ATOM     83  F   UNL A   1      44.480  31.590  33.375  1.00  0.00    -0.206 F 
ATOM     84  C   UNL A   1      45.485  34.901  32.309  1.00  0.00     0.006 A 
ENDBRANCH  60  77
ENDBRANCH  34  35
ENDBRANCH  26  29
ENDBRANCH  24  25
ENDBRANCH   1  24
TORSDOF 12
ENDMDL
MODEL 3
REMARK VINA RESULT:     -12.0      4.264      9.282
REMARK SMILES C[C@@H]1[C@@H](C(=O)NCCCNC(=O)c2ccc(-c3c4nc(c(-c5c(F)cccc5F)c5ccc([nH]5)c(-c5c(F)cccc5F)c5nc(c(-c6c(F)cccc6F)c6ccc3[nH]6)C=C5)C=C4)cc2)CCN1C(=O)N1CCC[C@H]2CCC[C@@H]21
REMARK SMILES IDX 8 1 7 2 6 3 4 4 5 5 3 7 1 8 2 9 69 10 67 11 68 12 70 13
REMARK SMILES IDX 71 14 72 15 73 16 80 17 74 18 76 19 79 20 75 21 77 22 78 23
REMARK SMILES IDX 9 24 10 25 11 26 12 28 13 29 14 30 66 31 15 32 65 33 16 34
REMARK SMILES IDX 17 35 18 36 59 37 19 38 64 39 58 40 60 41 20 42 63 43 57 44
REMARK SMILES IDX 56 45 21 47 47 48 30 49 46 50 31 51 34 52 45 53 61 54 32 55
REMARK SMILES IDX 33 56 44 58 62 59 35 60 22 61 23 62 28 63 24 64 25 65 27 66
REMARK SMILES IDX 29 67 26 68 48 69 49 70 54 71 50 72 51 73 53 74 55 75 52 76
REMARK SMILES IDX 36 77 37 78 42 79 38 80 39 81 41 82 43 83 40 84
REMARK H PARENT 6 6 10 27 60 46 34 57
REMARK Flexibility Score: inf
ROOT
ATOM      1  C   UNL A   1      31.386  31.862  26.482  1.00  0.00     0.042 C 
ENDROOT
BRANCH   1   2
ATOM      2  C   UNL A   1      31.484  30.382  26.170  1.00  0.00     0.117 C 
BRANCH   2   3
ATOM      3  N   UNL A   1      32.346  30.078  25.044  1.00  0.00    -0.356 N 
ATOM      4  C   UNL A   1      32.374  28.968  24.251  1.00  0.00     0.225 C 
ATOM      5  O   UNL A   1      33.188  28.953  23.328  1.00  0.00    -0.275 OA
ATOM      6  H   UNL A   1      33.006  30.773  24.818  1.00  0.00     0.163 HD
BRANCH   4   7
ATOM      7  C   UNL A   1      31.499  27.773  24.611  1.00  0.00     0.102 C 
ATOM      8  C   UNL A   1      31.673  25.644  25.891  1.00  0.00     0.032 C 
ATOM      9  C   UNL A   1      32.326  26.475  24.778  1.00  0.00     0.096 C 
ATOM     10  N   UNL A   1      32.259  25.833  23.447  1.00  0.00    -0.321 N 
ATOM     11  C   UNL A   1      30.474  27.368  23.547  1.00  0.00     0.037 C 
ATOM     12  C   UNL A   1      31.257  26.469  22.618  1.00  0.00     0.122 C 
BRANCH  10  13
ATOM     13  C   UNL A   1      33.257  25.144  22.773  1.00  0.00     0.320 C 
ATOM     14  O   UNL A   1      34.028  25.714  22.001  1.00  0.00    -0.248 OA
BRANCH  13  15
ATOM     15  N   UNL A   1      33.424  23.828  23.109  1.00  0.00    -0.321 N 
ATOM     16  C   UNL A   1      32.903  22.752  22.280  1.00  0.00     0.121 C 
ATOM     17  C   UNL A   1      34.481  23.394  24.001  1.00  0.00     0.090 C 
ATOM     18  C   UNL A   1      32.313  21.638  23.148  1.00  0.00     0.022 C 
ATOM     19  C   UNL A   1      33.845  22.412  24.988  1.00  0.00     0.012 C 
ATOM     20  C   UNL A   1      35.154  24.389  24.940  1.00  0.00     0.025 C 
ATOM     21  C   UNL A   1      33.289  21.192  24.254  1.00  0.00     0.007 C 
ATOM     22  C   UNL A   1      34.954  22.171  25.997  1.00  0.00     0.006 C 
ATOM     23  C   UNL A   1      35.678  23.521  26.093  1.00  0.00     0.002 C 
ENDBRANCH  13  15
ENDBRANCH  10  13
ENDBRANCH   4   7
ENDBRANCH   2   3
ENDBRANCH   1   2
BRANCH   1  24
ATOM     24  C   UNL A   1      32.658  32.483  27.034  1.00  0.00     0.118 C 
BRANCH  24  25
ATOM     25  N   UNL A   1      32.491  33.862  27.472  1.00  0.00    -0.352 N 
ATOM     26  C   UNL A   1      33.141  34.577  28.453  1.00  0.00     0.251 C 
ATOM     27  H   UNL A   1      31.798  34.366  26.987  1.00  0.00     0.163 HD
ATOM     28  O   UNL A   1      32.745  35.695  28.754  1.00  0.00    -0.269 OA
BRANCH  26  29
ATOM     29  C   UNL A   1      34.289  33.984  29.176  1.00  0.00     0.039 A 
ATOM     30  C   UNL A   1      34.041  33.097  30.226  1.00  0.00     0.014 A 
ATOM     31  C   UNL A   1      35.604  34.290  28.823  1.00  0.00     0.014 A 
ATOM     32  C   UNL A   1      35.108  32.447  30.853  1.00  0.00     0.010 A 
ATOM     33  C   UNL A   1      36.654  33.557  29.364  1.00  0.00     0.010 A 
ATOM     34  C   UNL A   1      36.421  32.630  30.389  1.00  0.00    -0.014 A 
BRANCH  34  35
ATOM     35  C   UNL A   1      37.563  31.872  30.963  1.00  0.00     0.031 A 
ATOM     36  C   UNL A   1      38.063  32.190  32.348  1.00  0.00     0.074 A 
ATOM     37  C   UNL A   1      38.200  30.949  30.214  1.00  0.00     0.049 A 
ATOM     38  N   UNL A   1      39.094  31.703  32.988  1.00  0.00    -0.248 NA
ATOM     39  C   UNL A   1      37.322  33.216  33.100  1.00  0.00     0.031 C 
ATOM     40  C   UNL A   1      37.851  30.583  28.839  1.00  0.00     0.029 A 
ATOM     41  N   UNL A   1      39.284  30.156  30.502  1.00  0.00    -0.354 N 
ATOM     42  C   UNL A   1      39.135  32.373  34.205  1.00  0.00     0.074 A 
ATOM     43  C   UNL A   1      38.065  33.345  34.188  1.00  0.00     0.031 C 
ATOM     44  C   UNL A   1      38.681  29.616  28.417  1.00  0.00     0.029 A 
ATOM     45  C   UNL A   1      39.650  29.327  29.469  1.00  0.00     0.049 A 
ATOM     46  H   UNL A   1      39.754  30.180  31.366  1.00  0.00     0.167 HD
ATOM     47  C   UNL A   1      39.967  32.176  35.254  1.00  0.00     0.037 A 
ATOM     48  C   UNL A   1      40.659  28.439  29.377  1.00  0.00     0.037 A 
ATOM     49  C   UNL A   1      41.014  31.189  35.280  1.00  0.00     0.049 A 
ATOM     50  C   UNL A   1      41.580  28.249  30.550  1.00  0.00     0.074 A 
ATOM     51  C   UNL A   1      41.875  30.873  36.317  1.00  0.00     0.029 A 
ATOM     52  N   UNL A   1      41.344  30.360  34.219  1.00  0.00    -0.354 N 
ATOM     53  N   UNL A   1      41.564  28.843  31.719  1.00  0.00    -0.248 NA
ATOM     54  C   UNL A   1      42.657  27.262  30.393  1.00  0.00     0.031 C 
ATOM     55  C   UNL A   1      42.759  29.888  35.866  1.00  0.00     0.029 A 
ATOM     56  C   UNL A   1      42.411  29.549  34.568  1.00  0.00     0.049 A 
ATOM     57  H   UNL A   1      40.888  30.349  33.347  1.00  0.00     0.167 HD
ATOM     58  C   UNL A   1      42.603  28.280  32.447  1.00  0.00     0.074 A 
ATOM     59  C   UNL A   1      43.221  27.287  31.592  1.00  0.00     0.031 C 
ATOM     60  C   UNL A   1      43.010  28.558  33.710  1.00  0.00     0.037 A 
BRANCH  47  61
ATOM     61  C   UNL A   1      39.772  33.043  36.466  1.00  0.00     0.057 A 
ATOM     62  C   UNL A   1      40.485  34.238  36.642  1.00  0.00     0.134 A 
ATOM     63  C   UNL A   1      38.840  32.697  37.452  1.00  0.00     0.134 A 
ATOM     64  F   UNL A   1      41.402  34.622  35.742  1.00  0.00    -0.206 F 
ATOM     65  C   UNL A   1      40.299  35.040  37.769  1.00  0.00     0.040 A 
ATOM     66  C   UNL A   1      38.624  33.507  38.568  1.00  0.00     0.040 A 
ATOM     67  F   UNL A   1      38.120  31.571  37.344  1.00  0.00    -0.206 F 
ATOM     68  C   UNL A   1      39.359  34.678  38.733  1.00  0.00     0.006 A 
ENDBRANCH  47  61
BRANCH  48  69
ATOM     69  C   UNL A   1      40.839  27.641  28.136  1.00  0.00     0.057 A 
ATOM     70  C   UNL A   1      41.618  28.121  27.076  1.00  0.00     0.134 A 
ATOM     71  C   UNL A   1      40.228  26.392  27.971  1.00  0.00     0.134 A 
ATOM     72  F   UNL A   1      42.215  29.319  27.167  1.00  0.00    -0.206 F 
ATOM     73  C   UNL A   1      41.765  27.401  25.889  1.00  0.00     0.040 A 
ATOM     74  C   UNL A   1      40.389  25.648  26.800  1.00  0.00     0.040 A 
ATOM     75  F   UNL A   1      39.475  25.871  28.950  1.00  0.00    -0.206 F 
ATOM     76  C   UNL A   1      41.152  26.158  25.751  1.00  0.00     0.006 A 
ENDBRANCH  48  69
BRANCH  60  77
ATOM     77  C   UNL A   1      44.149  27.750  34.261  1.00  0.00     0.057 A 
ATOM     78  C   UNL A   1      45.475  28.195  34.196  1.00  0.00     0.134 A 
ATOM     79  C   UNL A   1      43.908  26.528  34.903  1.00  0.00     0.134 A 
ATOM     80  F   UNL A   1      45.776  29.350  33.585  1.00  0.00    -0.206 F 
ATOM     81  C   UNL A   1      46.524  27.441  34.727  1.00  0.00     0.040 A 
ATOM     82  C   UNL A   1      44.944  25.780  35.464  1.00  0.00     0.040 A 
ATOM     83  F   UNL A   1      42.659  26.047  35.008  1.00  0.00    -0.206 F 
ATOM     84  C   UNL A   1      46.257  26.233  35.371  1.00  0.00     0.006 A 
ENDBRANCH  60  77
ENDBRANCH  34  35
ENDBRANCH  26  29
ENDBRANCH  24  25
ENDBRANCH   1  24
TORSDOF 12
ENDMDL
