MODEL 1
REMARK VINA RESULT:     -14.6      0.000      0.000
REMARK SMILES Cc1cc(/C=C2/C(=O)NC(=S)[NH+]=C2NCCCNC(=O)c2ccc(-c3c4nc(c(-c5c(F)cccc5F)c5ccc([nH]5)c(-c5c(F)cccc5F)c5nc(c(-c6c(F)cccc6F)c6ccc3[nH]6)C=C5)C=C4)cc2)c(C)n1-c1cccc(C(=O)[O-])c1
REMARK SMILES IDX 16 1 15 2 14 3 5 4 6 5 7 6 13 7 8 8 9 9 12 10 10 11 11 15
REMARK SMILES IDX 4 16 1 17 2 18 3 19 77 20 75 21 76 22 78 23 79 24 86 25
REMARK SMILES IDX 80 26 82 27 81 28 83 29 84 30 85 31 17 32 18 33 19 34 20 36
REMARK SMILES IDX 21 37 22 38 74 39 23 40 73 41 24 42 25 43 26 44 67 45 27 46
REMARK SMILES IDX 72 47 66 48 68 49 28 50 71 51 65 52 64 53 29 55 55 56 38 57
REMARK SMILES IDX 54 58 39 59 42 60 53 61 69 62 40 63 41 64 52 66 70 67 43 68
REMARK SMILES IDX 30 69 31 70 36 71 32 72 33 73 35 74 37 75 34 76 56 77 57 78
REMARK SMILES IDX 62 79 58 80 59 81 61 82 63 83 60 84 44 85 45 86 50 87 46 88
REMARK SMILES IDX 47 89 49 90 51 91 48 92
REMARK H PARENT 9 12 12 13 14 14 18 35 68 54 42 65
REMARK Flexibility Score: inf
ROOT
ATOM      1  C   UNL A   1      35.792  23.931  25.147  1.00  0.00     0.059 C 
ENDROOT
BRANCH   1   2
ATOM      2  C   UNL A   1      34.583  24.682  24.753  1.00  0.00     0.195 C 
BRANCH   2   3
ATOM      3  N   UNL A   1      33.967  25.151  25.937  1.00  0.00    -0.305 N 
ATOM      4  C   UNL A   1      31.262  24.842  24.314  1.00  0.00     0.032 C 
ATOM      5  C   UNL A   1      31.831  25.947  24.877  1.00  0.00     0.128 C 
ATOM      6  C   UNL A   1      31.359  27.290  24.407  1.00  0.00     0.319 C 
ATOM      7  C   UNL A   1      32.998  26.072  25.800  1.00  0.00     0.234 C 
ATOM      8  O   UNL A   1      30.632  27.450  23.431  1.00  0.00    -0.250 OA
ATOM      9  N   UNL A   1      31.869  28.364  25.093  1.00  0.00    -0.229 N 
ATOM     10  N   UNL A   1      33.342  27.150  26.437  1.00  0.00    -0.236 N 
ATOM     11  C   UNL A   1      32.762  28.332  26.128  1.00  0.00     0.295 C 
ATOM     12  H   UNL A   1      31.560  29.254  24.808  1.00  0.00     0.268 HD
ATOM     13  H   UNL A   1      34.026  27.108  27.145  1.00  0.00     0.268 HD
ATOM     14  H   UNL A   1      34.237  24.816  26.823  1.00  0.00     0.256 HD
ATOM     15  S   UNL A   1      33.218  29.769  26.858  1.00  0.00    -0.005 S 
BRANCH   4  16
ATOM     16  C   UNL A   1      31.605  23.420  24.274  1.00  0.00    -0.003 A 
ATOM     17  C   UNL A   1      32.175  20.194  22.479  1.00  0.00     0.065 C 
ATOM     18  C   UNL A   1      32.144  21.367  23.390  1.00  0.00     0.020 A 
ATOM     19  C   UNL A   1      31.852  22.692  23.070  1.00  0.00     0.031 A 
ATOM     20  N   UNL A   1      32.401  21.351  24.764  1.00  0.00    -0.318 N 
ATOM     21  C   UNL A   1      31.509  22.398  25.221  1.00  0.00     0.027 A 
ATOM     22  C   UNL A   1      30.463  22.314  26.291  1.00  0.00     0.065 C 
BRANCH  20  23
ATOM     23  C   UNL A   1      33.159  20.264  25.531  1.00  0.00     0.046 A 
ATOM     24  C   UNL A   1      34.850  20.393  25.053  1.00  0.00     0.026 A 
ATOM     25  C   UNL A   1      32.412  18.568  25.691  1.00  0.00     0.036 A 
ATOM     26  C   UNL A   1      35.819  18.996  24.606  1.00  0.00     0.003 A 
ATOM     27  C   UNL A   1      33.439  17.018  25.107  1.00  0.00    -0.001 A 
ATOM     28  C   UNL A   1      35.162  17.361  24.599  1.00  0.00     0.010 A 
BRANCH  27  29
ATOM     29  C   UNL A   1      33.492  15.531  25.228  1.00  0.00     0.072 C 
ATOM     30  O   UNL A   1      34.547  14.914  25.308  1.00  0.00    -0.545 OA
ATOM     31  O   UNL A   1      32.346  14.869  25.281  1.00  0.00    -0.545 OA
ENDBRANCH  27  29
ENDBRANCH  20  23
ENDBRANCH   4  16
ENDBRANCH   2   3
ENDBRANCH   1   2
BRANCH   1  32
ATOM     32  C   UNL A   1      36.894  23.351  24.090  1.00  0.00     0.119 C 
BRANCH  32  33
ATOM     33  N   UNL A   1      37.910  21.929  24.583  1.00  0.00    -0.352 N 
ATOM     34  C   UNL A   1      39.348  21.789  25.962  1.00  0.00     0.251 C 
ATOM     35  H   UNL A   1      37.723  21.095  24.093  1.00  0.00     0.163 HD
ATOM     36  O   UNL A   1      40.138  20.850  26.188  1.00  0.00    -0.269 OA
BRANCH  34  37
ATOM     37  C   UNL A   1      39.633  23.219  27.275  1.00  0.00     0.039 A 
ATOM     38  C   UNL A   1      38.768  24.293  27.425  1.00  0.00     0.014 A 
ATOM     39  C   UNL A   1      40.947  23.778  27.899  1.00  0.00     0.014 A 
ATOM     40  C   UNL A   1      39.257  25.694  27.949  1.00  0.00     0.010 A 
ATOM     41  C   UNL A   1      41.405  25.136  28.442  1.00  0.00     0.010 A 
ATOM     42  C   UNL A   1      40.586  26.230  28.446  1.00  0.00    -0.014 A 
BRANCH  42  43
ATOM     43  C   UNL A   1      40.905  27.800  29.197  1.00  0.00     0.031 A 
ATOM     44  C   UNL A   1      41.632  28.385  28.082  1.00  0.00     0.074 A 
ATOM     45  C   UNL A   1      41.026  28.725  30.324  1.00  0.00     0.049 A 
ATOM     46  N   UNL A   1      42.847  27.966  28.015  1.00  0.00    -0.248 NA
ATOM     47  C   UNL A   1      41.055  28.877  26.843  1.00  0.00     0.031 C 
ATOM     48  C   UNL A   1      40.907  28.499  31.795  1.00  0.00     0.029 A 
ATOM     49  N   UNL A   1      41.421  30.172  30.425  1.00  0.00    -0.354 N 
ATOM     50  C   UNL A   1      43.266  28.139  26.726  1.00  0.00     0.074 A 
ATOM     51  C   UNL A   1      42.107  28.698  26.028  1.00  0.00     0.031 C 
ATOM     52  C   UNL A   1      41.028  29.647  32.556  1.00  0.00     0.029 A 
ATOM     53  C   UNL A   1      41.301  30.853  31.753  1.00  0.00     0.049 A 
ATOM     54  H   UNL A   1      41.753  30.661  29.636  1.00  0.00     0.167 HD
ATOM     55  C   UNL A   1      44.598  28.364  26.662  1.00  0.00     0.037 A 
ATOM     56  C   UNL A   1      41.519  32.205  32.192  1.00  0.00     0.037 A 
ATOM     57  C   UNL A   1      44.800  29.753  26.990  1.00  0.00     0.049 A 
ATOM     58  C   UNL A   1      42.646  32.652  31.377  1.00  0.00     0.074 A 
ATOM     59  C   UNL A   1      44.054  30.867  26.640  1.00  0.00     0.029 A 
ATOM     60  N   UNL A   1      45.443  30.050  28.166  1.00  0.00    -0.354 N 
ATOM     61  N   UNL A   1      43.853  32.330  31.706  1.00  0.00    -0.248 NA
ATOM     62  C   UNL A   1      42.512  33.621  30.301  1.00  0.00     0.031 C 
ATOM     63  C   UNL A   1      43.865  31.550  27.851  1.00  0.00     0.029 A 
ATOM     64  C   UNL A   1      44.854  31.151  28.740  1.00  0.00     0.049 A 
ATOM     65  H   UNL A   1      46.206  29.552  28.540  1.00  0.00     0.167 HD
ATOM     66  C   UNL A   1      44.555  32.592  30.580  1.00  0.00     0.074 A 
ATOM     67  C   UNL A   1      43.775  33.598  29.868  1.00  0.00     0.031 C 
ATOM     68  C   UNL A   1      45.190  31.504  30.088  1.00  0.00     0.037 A 
BRANCH  55  69
ATOM     69  C   UNL A   1      45.319  27.175  27.308  1.00  0.00     0.057 A 
ATOM     70  C   UNL A   1      45.767  26.156  26.464  1.00  0.00     0.134 A 
ATOM     71  C   UNL A   1      45.339  26.880  28.696  1.00  0.00     0.134 A 
ATOM     72  F   UNL A   1      45.782  26.344  25.136  1.00  0.00    -0.206 F 
ATOM     73  C   UNL A   1      46.169  24.905  26.955  1.00  0.00     0.040 A 
ATOM     74  C   UNL A   1      45.679  25.615  29.191  1.00  0.00     0.040 A 
ATOM     75  F   UNL A   1      44.982  27.794  29.612  1.00  0.00    -0.206 F 
ATOM     76  C   UNL A   1      46.092  24.621  28.316  1.00  0.00     0.006 A 
ENDBRANCH  55  69
BRANCH  56  77
ATOM     77  C   UNL A   1      41.387  33.422  33.307  1.00  0.00     0.057 A 
ATOM     78  C   UNL A   1      40.307  34.409  33.285  1.00  0.00     0.134 A 
ATOM     79  C   UNL A   1      41.956  33.362  34.590  1.00  0.00     0.134 A 
ATOM     80  F   UNL A   1      39.652  34.733  32.160  1.00  0.00    -0.206 F 
ATOM     81  C   UNL A   1      39.776  35.106  34.406  1.00  0.00     0.040 A 
ATOM     82  C   UNL A   1      41.449  34.098  35.723  1.00  0.00     0.040 A 
ATOM     83  F   UNL A   1      42.985  32.545  34.827  1.00  0.00    -0.206 F 
ATOM     84  C   UNL A   1      40.333  34.928  35.651  1.00  0.00     0.006 A 
ENDBRANCH  56  77
BRANCH  68  85
ATOM     85  C   UNL A   1      46.043  30.701  31.050  1.00  0.00     0.057 A 
ATOM     86  C   UNL A   1      45.613  29.737  31.993  1.00  0.00     0.134 A 
ATOM     87  C   UNL A   1      47.410  31.005  31.084  1.00  0.00     0.134 A 
ATOM     88  F   UNL A   1      44.369  29.237  32.010  1.00  0.00    -0.206 F 
ATOM     89  C   UNL A   1      46.475  29.208  32.965  1.00  0.00     0.040 A 
ATOM     90  C   UNL A   1      48.289  30.436  32.007  1.00  0.00     0.040 A 
ATOM     91  F   UNL A   1      47.929  31.872  30.202  1.00  0.00    -0.206 F 
ATOM     92  C   UNL A   1      47.817  29.561  32.977  1.00  0.00     0.006 A 
ENDBRANCH  68  85
ENDBRANCH  42  43
ENDBRANCH  34  37
ENDBRANCH  32  33
ENDBRANCH   1  32
TORSDOF 12
ENDMDL
MODEL 2
REMARK VINA RESULT:     -14.3      1.811      2.210
REMARK SMILES Cc1cc(/C=C2/C(=O)NC(=S)[NH+]=C2NCCCNC(=O)c2ccc(-c3c4nc(c(-c5c(F)cccc5F)c5ccc([nH]5)c(-c5c(F)cccc5F)c5nc(c(-c6c(F)cccc6F)c6ccc3[nH]6)C=C5)C=C4)cc2)c(C)n1-c1cccc(C(=O)[O-])c1
REMARK SMILES IDX 16 1 15 2 14 3 5 4 6 5 7 6 13 7 8 8 9 9 12 10 10 11 11 15
REMARK SMILES IDX 4 16 1 17 2 18 3 19 77 20 75 21 76 22 78 23 79 24 86 25
REMARK SMILES IDX 80 26 82 27 81 28 83 29 84 30 85 31 17 32 18 33 19 34 20 36
REMARK SMILES IDX 21 37 22 38 74 39 23 40 73 41 24 42 25 43 26 44 67 45 27 46
REMARK SMILES IDX 72 47 66 48 68 49 28 50 71 51 65 52 64 53 29 55 55 56 38 57
REMARK SMILES IDX 54 58 39 59 42 60 53 61 69 62 40 63 41 64 52 66 70 67 43 68
REMARK SMILES IDX 30 69 31 70 36 71 32 72 33 73 35 74 37 75 34 76 56 77 57 78
REMARK SMILES IDX 62 79 58 80 59 81 61 82 63 83 60 84 44 85 45 86 50 87 46 88
REMARK SMILES IDX 47 89 49 90 51 91 48 92
REMARK H PARENT 9 12 12 13 14 14 18 35 68 54 42 65
REMARK Flexibility Score: inf
ROOT
ATOM      1  C   UNL A   1      36.157  23.137  25.139  1.00  0.00     0.059 C 
ENDROOT
BRANCH   1   2
ATOM      2  C   UNL A   1      35.076  24.019  24.657  1.00  0.00     0.195 C 
BRANCH   2   3
ATOM      3  N   UNL A   1      34.466  24.605  25.791  1.00  0.00    -0.305 N 
ATOM      4  C   UNL A   1      31.823  24.554  24.041  1.00  0.00     0.032 C 
ATOM      5  C   UNL A   1      32.494  25.605  24.595  1.00  0.00     0.128 C 
ATOM      6  C   UNL A   1      32.209  26.975  24.055  1.00  0.00     0.319 C 
ATOM      7  C   UNL A   1      33.623  25.629  25.572  1.00  0.00     0.234 C 
ATOM      8  O   UNL A   1      31.555  27.181  23.038  1.00  0.00    -0.250 OA
ATOM      9  N   UNL A   1      32.813  28.008  24.729  1.00  0.00    -0.229 N 
ATOM     10  N   UNL A   1      34.064  26.683  26.189  1.00  0.00    -0.236 N 
ATOM     11  C   UNL A   1      33.646  27.912  25.809  1.00  0.00     0.295 C 
ATOM     12  H   UNL A   1      32.626  28.916  24.398  1.00  0.00     0.268 HD
ATOM     13  H   UNL A   1      34.703  26.588  26.931  1.00  0.00     0.268 HD
ATOM     14  H   UNL A   1      34.652  24.277  26.700  1.00  0.00     0.256 HD
ATOM     15  S   UNL A   1      34.237  29.313  26.512  1.00  0.00    -0.005 S 
BRANCH   4  16
ATOM     16  C   UNL A   1      31.994  23.101  24.068  1.00  0.00    -0.003 A 
ATOM     17  C   UNL A   1      32.124  19.745  22.433  1.00  0.00     0.065 C 
ATOM     18  C   UNL A   1      32.259  20.957  23.281  1.00  0.00     0.020 A 
ATOM     19  C   UNL A   1      32.117  22.291  22.899  1.00  0.00     0.031 A 
ATOM     20  N   UNL A   1      32.552  20.978  24.647  1.00  0.00    -0.318 N 
ATOM     21  C   UNL A   1      31.805  22.146  25.070  1.00  0.00     0.027 A 
ATOM     22  C   UNL A   1      30.789  22.241  26.166  1.00  0.00     0.065 C 
BRANCH  20  23
ATOM     23  C   UNL A   1      33.199  19.848  25.453  1.00  0.00     0.046 A 
ATOM     24  C   UNL A   1      34.869  19.727  24.907  1.00  0.00     0.026 A 
ATOM     25  C   UNL A   1      32.249  18.275  25.745  1.00  0.00     0.036 A 
ATOM     26  C   UNL A   1      35.631  18.193  24.513  1.00  0.00     0.003 A 
ATOM     27  C   UNL A   1      33.043  16.574  25.222  1.00  0.00    -0.001 A 
ATOM     28  C   UNL A   1      34.772  16.660  24.631  1.00  0.00     0.010 A 
BRANCH  27  29
ATOM     29  C   UNL A   1      32.911  15.102  25.433  1.00  0.00     0.072 C 
ATOM     30  O   UNL A   1      33.870  14.342  25.393  1.00  0.00    -0.545 OA
ATOM     31  O   UNL A   1      31.709  14.617  25.705  1.00  0.00    -0.545 OA
ENDBRANCH  27  29
ENDBRANCH  20  23
ENDBRANCH   4  16
ENDBRANCH   2   3
ENDBRANCH   1   2
BRANCH   1  32
ATOM     32  C   UNL A   1      36.935  22.046  24.203  1.00  0.00     0.119 C 
BRANCH  32  33
ATOM     33  N   UNL A   1      38.164  20.955  24.975  1.00  0.00    -0.352 N 
ATOM     34  C   UNL A   1      39.802  21.403  26.028  1.00  0.00     0.251 C 
ATOM     35  H   UNL A   1      37.999  19.992  24.856  1.00  0.00     0.163 HD
ATOM     36  O   UNL A   1      40.716  20.651  26.425  1.00  0.00    -0.269 OA
BRANCH  34  37
ATOM     37  C   UNL A   1      40.123  23.227  26.674  1.00  0.00     0.039 A 
ATOM     38  C   UNL A   1      40.772  23.505  27.867  1.00  0.00     0.014 A 
ATOM     39  C   UNL A   1      39.330  24.546  26.428  1.00  0.00     0.014 A 
ATOM     40  C   UNL A   1      40.485  24.816  28.691  1.00  0.00     0.010 A 
ATOM     41  C   UNL A   1      39.085  25.836  27.219  1.00  0.00     0.010 A 
ATOM     42  C   UNL A   1      39.611  26.034  28.464  1.00  0.00    -0.014 A 
BRANCH  42  43
ATOM     43  C   UNL A   1      39.569  27.525  29.416  1.00  0.00     0.031 A 
ATOM     44  C   UNL A   1      40.627  28.222  28.701  1.00  0.00     0.074 A 
ATOM     45  C   UNL A   1      39.235  28.336  30.587  1.00  0.00     0.049 A 
ATOM     46  N   UNL A   1      41.799  27.819  29.045  1.00  0.00    -0.248 NA
ATOM     47  C   UNL A   1      40.519  28.829  27.385  1.00  0.00     0.031 C 
ATOM     48  C   UNL A   1      38.599  27.966  31.887  1.00  0.00     0.029 A 
ATOM     49  N   UNL A   1      39.505  29.769  30.953  1.00  0.00    -0.354 N 
ATOM     50  C   UNL A   1      42.650  28.120  28.019  1.00  0.00     0.074 A 
ATOM     51  C   UNL A   1      41.802  28.738  26.999  1.00  0.00     0.031 C 
ATOM     52  C   UNL A   1      38.387  29.035  32.738  1.00  0.00     0.029 A 
ATOM     53  C   UNL A   1      38.882  30.315  32.200  1.00  0.00     0.049 A 
ATOM     54  H   UNL A   1      40.079  30.334  30.387  1.00  0.00     0.167 HD
ATOM     55  C   UNL A   1      43.904  28.360  28.468  1.00  0.00     0.037 A 
ATOM     56  C   UNL A   1      38.869  31.620  32.807  1.00  0.00     0.037 A 
ATOM     57  C   UNL A   1      43.915  29.710  28.968  1.00  0.00     0.049 A 
ATOM     58  C   UNL A   1      40.195  32.151  32.504  1.00  0.00     0.074 A 
ATOM     59  C   UNL A   1      43.300  30.848  28.471  1.00  0.00     0.029 A 
ATOM     60  N   UNL A   1      44.073  29.894  30.320  1.00  0.00    -0.354 N 
ATOM     61  N   UNL A   1      41.213  31.806  33.222  1.00  0.00    -0.248 NA
ATOM     62  C   UNL A   1      40.421  33.221  31.544  1.00  0.00     0.031 C 
ATOM     63  C   UNL A   1      42.656  31.408  29.585  1.00  0.00     0.029 A 
ATOM     64  C   UNL A   1      43.271  30.930  30.734  1.00  0.00     0.049 A 
ATOM     65  H   UNL A   1      44.668  29.368  30.901  1.00  0.00     0.167 HD
ATOM     66  C   UNL A   1      42.264  32.182  32.458  1.00  0.00     0.074 A 
ATOM     67  C   UNL A   1      41.755  33.248  31.603  1.00  0.00     0.031 C 
ATOM     68  C   UNL A   1      43.080  31.152  32.137  1.00  0.00     0.037 A 
BRANCH  55  69
ATOM     69  C   UNL A   1      44.391  27.117  29.224  1.00  0.00     0.057 A 
ATOM     70  C   UNL A   1      45.146  26.183  28.512  1.00  0.00     0.134 A 
ATOM     71  C   UNL A   1      43.926  26.694  30.497  1.00  0.00     0.134 A 
ATOM     72  F   UNL A   1      45.626  26.494  27.299  1.00  0.00    -0.206 F 
ATOM     73  C   UNL A   1      45.391  24.892  29.004  1.00  0.00     0.040 A 
ATOM     74  C   UNL A   1      44.113  25.390  30.970  1.00  0.00     0.040 A 
ATOM     75  F   UNL A   1      43.233  27.518  31.299  1.00  0.00    -0.206 F 
ATOM     76  C   UNL A   1      44.846  24.482  30.218  1.00  0.00     0.006 A 
ENDBRANCH  55  69
BRANCH  56  77
ATOM     77  C   UNL A   1      38.290  32.721  33.901  1.00  0.00     0.057 A 
ATOM     78  C   UNL A   1      37.243  33.689  33.577  1.00  0.00     0.134 A 
ATOM     79  C   UNL A   1      38.367  32.544  35.292  1.00  0.00     0.134 A 
ATOM     80  F   UNL A   1      37.017  34.112  32.323  1.00  0.00    -0.206 F 
ATOM     81  C   UNL A   1      36.315  34.266  34.487  1.00  0.00     0.040 A 
ATOM     82  C   UNL A   1      37.455  33.159  36.226  1.00  0.00     0.040 A 
ATOM     83  F   UNL A   1      39.282  31.722  35.812  1.00  0.00    -0.206 F 
ATOM     84  C   UNL A   1      36.399  33.977  35.829  1.00  0.00     0.006 A 
ENDBRANCH  56  77
BRANCH  68  85
ATOM     85  C   UNL A   1      43.557  30.263  33.269  1.00  0.00     0.057 A 
ATOM     86  C   UNL A   1      42.858  29.206  33.896  1.00  0.00     0.134 A 
ATOM     87  C   UNL A   1      44.801  30.576  33.832  1.00  0.00     0.134 A 
ATOM     88  F   UNL A   1      41.719  28.694  33.407  1.00  0.00    -0.206 F 
ATOM     89  C   UNL A   1      43.328  28.589  35.065  1.00  0.00     0.040 A 
ATOM     90  C   UNL A   1      45.307  29.926  34.959  1.00  0.00     0.040 A 
ATOM     91  F   UNL A   1      45.567  31.533  33.286  1.00  0.00    -0.206 F 
ATOM     92  C   UNL A   1      44.555  28.952  35.602  1.00  0.00     0.006 A 
ENDBRANCH  68  85
ENDBRANCH  42  43
ENDBRANCH  34  37
ENDBRANCH  32  33
ENDBRANCH   1  32
TORSDOF 12
ENDMDL
MODEL 3
REMARK VINA RESULT:     -13.6      2.155      5.254
REMARK SMILES Cc1cc(/C=C2/C(=O)NC(=S)[NH+]=C2NCCCNC(=O)c2ccc(-c3c4nc(c(-c5c(F)cccc5F)c5ccc([nH]5)c(-c5c(F)cccc5F)c5nc(c(-c6c(F)cccc6F)c6ccc3[nH]6)C=C5)C=C4)cc2)c(C)n1-c1cccc(C(=O)[O-])c1
REMARK SMILES IDX 16 1 15 2 14 3 5 4 6 5 7 6 13 7 8 8 9 9 12 10 10 11 11 15
REMARK SMILES IDX 4 16 1 17 2 18 3 19 77 20 75 21 76 22 78 23 79 24 86 25
REMARK SMILES IDX 80 26 82 27 81 28 83 29 84 30 85 31 17 32 18 33 19 34 20 36
REMARK SMILES IDX 21 37 22 38 74 39 23 40 73 41 24 42 25 43 26 44 67 45 27 46
REMARK SMILES IDX 72 47 66 48 68 49 28 50 71 51 65 52 64 53 29 55 55 56 38 57
REMARK SMILES IDX 54 58 39 59 42 60 53 61 69 62 40 63 41 64 52 66 70 67 43 68
REMARK SMILES IDX 30 69 31 70 36 71 32 72 33 73 35 74 37 75 34 76 56 77 57 78
REMARK SMILES IDX 62 79 58 80 59 81 61 82 63 83 60 84 44 85 45 86 50 87 46 88
REMARK SMILES IDX 47 89 49 90 51 91 48 92
REMARK H PARENT 9 12 12 13 14 14 18 35 68 54 42 65
REMARK Flexibility Score: inf
ROOT
ATOM      1  C   UNL A   1      34.946  23.015  22.952  1.00  0.00     0.059 C 
ENDROOT
BRANCH   1   2
ATOM      2  C   UNL A   1      33.630  23.625  23.223  1.00  0.00     0.195 C 
BRANCH   2   3
ATOM      3  N   UNL A   1      32.698  22.574  23.393  1.00  0.00    -0.305 N 
ATOM      4  C   UNL A   1      32.708  23.439  26.443  1.00  0.00     0.032 C 
ATOM      5  C   UNL A   1      33.046  22.251  25.862  1.00  0.00     0.128 C 
ATOM      6  C   UNL A   1      33.880  21.297  26.663  1.00  0.00     0.319 C 
ATOM      7  C   UNL A   1      32.867  21.773  24.459  1.00  0.00     0.234 C 
ATOM      8  O   UNL A   1      34.419  21.592  27.725  1.00  0.00    -0.250 OA
ATOM      9  N   UNL A   1      34.085  20.068  26.084  1.00  0.00    -0.229 N 
ATOM     10  N   UNL A   1      33.045  20.553  24.051  1.00  0.00    -0.236 N 
ATOM     11  C   UNL A   1      33.631  19.646  24.865  1.00  0.00     0.295 C 
ATOM     12  H   UNL A   1      34.617  19.423  26.601  1.00  0.00     0.268 HD
ATOM     13  H   UNL A   1      32.753  20.288  23.148  1.00  0.00     0.268 HD
ATOM     14  H   UNL A   1      31.960  22.436  22.757  1.00  0.00     0.256 HD
ATOM     15  S   UNL A   1      33.958  18.080  24.370  1.00  0.00    -0.005 S 
BRANCH   4  16
ATOM     16  C   UNL A   1      32.177  24.708  25.945  1.00  0.00    -0.003 A 
ATOM     17  C   UNL A   1      32.061  28.441  25.838  1.00  0.00     0.065 C 
ATOM     18  C   UNL A   1      32.010  26.975  25.599  1.00  0.00     0.020 A 
ATOM     19  C   UNL A   1      32.769  25.980  26.215  1.00  0.00     0.031 A 
ATOM     20  N   UNL A   1      31.170  26.316  24.698  1.00  0.00    -0.318 N 
ATOM     21  C   UNL A   1      30.943  25.068  25.399  1.00  0.00     0.027 A 
ATOM     22  C   UNL A   1      29.631  24.435  25.751  1.00  0.00     0.065 C 
BRANCH  20  23
ATOM     23  C   UNL A   1      30.455  26.945  23.499  1.00  0.00     0.046 A 
ATOM     24  C   UNL A   1      31.699  27.693  22.501  1.00  0.00     0.026 A 
ATOM     25  C   UNL A   1      28.862  27.869  23.767  1.00  0.00     0.036 A 
ATOM     26  C   UNL A   1      31.545  29.320  21.854  1.00  0.00     0.003 A 
ATOM     27  C   UNL A   1      28.714  29.708  23.140  1.00  0.00    -0.001 A 
ATOM     28  C   UNL A   1      30.131  30.324  22.163  1.00  0.00     0.010 A 
BRANCH  27  29
ATOM     29  C   UNL A   1      27.706  30.768  22.839  1.00  0.00     0.072 C 
ATOM     30  O   UNL A   1      27.481  31.158  21.700  1.00  0.00    -0.545 OA
ATOM     31  O   UNL A   1      27.015  31.276  23.848  1.00  0.00    -0.545 OA
ENDBRANCH  27  29
ENDBRANCH  20  23
ENDBRANCH   4  16
ENDBRANCH   2   3
ENDBRANCH   1   2
BRANCH   1  32
ATOM     32  C   UNL A   1      36.289  23.303  23.837  1.00  0.00     0.119 C 
BRANCH  32  33
ATOM     33  N   UNL A   1      37.362  21.903  24.272  1.00  0.00    -0.352 N 
ATOM     34  C   UNL A   1      38.830  21.777  25.621  1.00  0.00     0.251 C 
ATOM     35  H   UNL A   1      37.194  21.077  23.763  1.00  0.00     0.163 HD
ATOM     36  O   UNL A   1      39.656  20.860  25.807  1.00  0.00    -0.269 OA
BRANCH  34  37
ATOM     37  C   UNL A   1      39.090  23.179  26.967  1.00  0.00     0.039 A 
ATOM     38  C   UNL A   1      38.277  24.299  27.062  1.00  0.00     0.014 A 
ATOM     39  C   UNL A   1      40.380  23.660  27.698  1.00  0.00     0.014 A 
ATOM     40  C   UNL A   1      38.800  25.667  27.638  1.00  0.00     0.010 A 
ATOM     41  C   UNL A   1      40.869  24.987  28.290  1.00  0.00     0.010 A 
ATOM     42  C   UNL A   1      40.114  26.125  28.242  1.00  0.00    -0.014 A 
BRANCH  42  43
ATOM     43  C   UNL A   1      40.459  27.670  29.032  1.00  0.00     0.031 A 
ATOM     44  C   UNL A   1      41.273  28.235  27.968  1.00  0.00     0.074 A 
ATOM     45  C   UNL A   1      40.558  28.574  30.178  1.00  0.00     0.049 A 
ATOM     46  N   UNL A   1      42.470  27.762  27.963  1.00  0.00    -0.248 NA
ATOM     47  C   UNL A   1      40.789  28.767  26.707  1.00  0.00     0.031 C 
ATOM     48  C   UNL A   1      40.347  28.336  31.637  1.00  0.00     0.029 A 
ATOM     49  N   UNL A   1      41.011  30.001  30.322  1.00  0.00    -0.354 N 
ATOM     50  C   UNL A   1      42.968  27.931  26.701  1.00  0.00     0.074 A 
ATOM     51  C   UNL A   1      41.877  28.551  25.949  1.00  0.00     0.031 C 
ATOM     52  C   UNL A   1      40.476  29.468  32.420  1.00  0.00     0.029 A 
ATOM     53  C   UNL A   1      40.847  30.669  31.651  1.00  0.00     0.049 A 
ATOM     54  H   UNL A   1      41.408  30.483  29.560  1.00  0.00     0.167 HD
ATOM     55  C   UNL A   1      44.311  28.097  26.716  1.00  0.00     0.037 A 
ATOM     56  C   UNL A   1      41.100  32.005  32.121  1.00  0.00     0.037 A 
ATOM     57  C   UNL A   1      44.556  29.471  27.074  1.00  0.00     0.049 A 
ATOM     58  C   UNL A   1      42.290  32.411  31.378  1.00  0.00     0.074 A 
ATOM     59  C   UNL A   1      43.880  30.622  26.701  1.00  0.00     0.029 A 
ATOM     60  N   UNL A   1      45.144  29.724  28.289  1.00  0.00    -0.354 N 
ATOM     61  N   UNL A   1      43.461  32.030  31.769  1.00  0.00    -0.248 NA
ATOM     62  C   UNL A   1      42.259  33.398  30.310  1.00  0.00     0.031 C 
ATOM     63  C   UNL A   1      43.655  31.298  27.909  1.00  0.00     0.029 A 
ATOM     64  C   UNL A   1      44.573  30.843  28.845  1.00  0.00     0.049 A 
ATOM     65  H   UNL A   1      45.862  29.188  28.698  1.00  0.00     0.167 HD
ATOM     66  C   UNL A   1      44.236  32.274  30.687  1.00  0.00     0.074 A 
ATOM     67  C   UNL A   1      43.543  33.323  29.948  1.00  0.00     0.031 C 
ATOM     68  C   UNL A   1      44.849  31.164  30.215  1.00  0.00     0.037 A 
BRANCH  55  69
ATOM     69  C   UNL A   1      44.941  26.868  27.383  1.00  0.00     0.057 A 
ATOM     70  C   UNL A   1      45.436  25.863  26.549  1.00  0.00     0.134 A 
ATOM     71  C   UNL A   1      44.830  26.530  28.757  1.00  0.00     0.134 A 
ATOM     72  F   UNL A   1      45.575  26.092  25.234  1.00  0.00    -0.206 F 
ATOM     73  C   UNL A   1      45.760  24.587  27.031  1.00  0.00     0.040 A 
ATOM     74  C   UNL A   1      45.092  25.242  29.238  1.00  0.00     0.040 A 
ATOM     75  F   UNL A   1      44.416  27.426  29.668  1.00  0.00    -0.206 F 
ATOM     76  C   UNL A   1      45.555  24.263  28.371  1.00  0.00     0.006 A 
ENDBRANCH  55  69
BRANCH  56  77
ATOM     77  C   UNL A   1      40.959  33.214  33.246  1.00  0.00     0.057 A 
ATOM     78  C   UNL A   1      39.963  34.280  33.149  1.00  0.00     0.134 A 
ATOM     79  C   UNL A   1      41.405  33.092  34.573  1.00  0.00     0.134 A 
ATOM     80  F   UNL A   1      39.438  34.668  31.977  1.00  0.00    -0.206 F 
ATOM     81  C   UNL A   1      39.387  34.999  34.232  1.00  0.00     0.040 A 
ATOM     82  C   UNL A   1      40.854  33.849  35.671  1.00  0.00     0.040 A 
ATOM     83  F   UNL A   1      42.345  32.196  34.882  1.00  0.00    -0.206 F 
ATOM     84  C   UNL A   1      39.815  34.763  35.517  1.00  0.00     0.006 A 
ENDBRANCH  56  77
BRANCH  68  85
ATOM     85  C   UNL A   1      45.609  30.312  31.211  1.00  0.00     0.057 A 
ATOM     86  C   UNL A   1      45.087  29.346  32.104  1.00  0.00     0.134 A 
ATOM     87  C   UNL A   1      46.981  30.565  31.338  1.00  0.00     0.134 A 
ATOM     88  F   UNL A   1      43.828  28.890  32.030  1.00  0.00    -0.206 F 
ATOM     89  C   UNL A   1      45.865  28.767  33.116  1.00  0.00     0.040 A 
ATOM     90  C   UNL A   1      47.779  29.947  32.303  1.00  0.00     0.040 A 
ATOM     91  F   UNL A   1      47.586  31.431  30.511  1.00  0.00    -0.206 F 
ATOM     92  C   UNL A   1      47.216  29.070  33.221  1.00  0.00     0.006 A 
ENDBRANCH  68  85
ENDBRANCH  42  43
ENDBRANCH  34  37
ENDBRANCH  32  33
ENDBRANCH   1  32
TORSDOF 12
ENDMDL
