MODEL 1
REMARK VINA RESULT:     -11.2      0.000      0.000
REMARK SMILES CN1CC[N@H+](CC(=O)NCCCNC(=O)c2ccc(-c3c4nc(c(-c5c(F)cccc5F)c5ccc([nH]5)c(-c5c(F)cccc5F)c5nc(c(-c6c(F)cccc6F)c6ccc3[nH]6)C=C5)C=C4)cc2)C(C)(C)C1=O
REMARK SMILES IDX 11 1 10 2 9 3 7 4 8 5 6 7 5 8 1 9 2 10 3 11 73 12 4 13 70 14
REMARK SMILES IDX 74 15 71 16 72 17 12 19 13 20 14 21 15 23 16 24 17 25 69 26
REMARK SMILES IDX 18 27 68 28 19 29 20 30 21 31 62 32 22 33 67 34 61 35 63 36
REMARK SMILES IDX 23 37 66 38 60 39 59 40 24 42 50 43 33 44 49 45 34 46 37 47
REMARK SMILES IDX 48 48 64 49 35 50 36 51 47 53 65 54 38 55 25 56 26 57 31 58
REMARK SMILES IDX 27 59 28 60 30 61 32 62 29 63 51 64 52 65 57 66 53 67 54 68
REMARK SMILES IDX 56 69 58 70 55 71 39 72 40 73 45 74 41 75 42 76 44 77 46 78
REMARK SMILES IDX 43 79
REMARK H PARENT 9 6 5 18 13 22 63 41 37 52
REMARK Flexibility Score: inf
ROOT
ATOM      1  C   UNL A   1      30.990  31.064  25.554  1.00  0.00     0.042 C 
ENDROOT
BRANCH   1   2
ATOM      2  C   UNL A   1      31.147  29.716  24.839  1.00  0.00     0.118 C 
BRANCH   2   3
ATOM      3  N   UNL A   1      32.464  29.477  24.265  1.00  0.00    -0.351 N 
ATOM      4  C   UNL A   1      33.313  28.413  24.266  1.00  0.00     0.275 C 
ATOM      5  O   UNL A   1      34.256  28.471  23.467  1.00  0.00    -0.269 OA
ATOM      6  H   UNL A   1      32.816  30.252  23.770  1.00  0.00     0.163 HD
BRANCH   4   7
ATOM      7  C   UNL A   1      33.127  27.181  25.159  1.00  0.00     0.364 C 
BRANCH   7   8
ATOM      8  N   UNL A   1      32.746  25.905  24.488  1.00  0.00    -0.314 N 
ATOM      9  C   UNL A   1      33.511  22.778  27.368  1.00  0.00     0.147 C 
ATOM     10  N   UNL A   1      33.190  23.715  26.309  1.00  0.00    -0.335 N 
ATOM     11  C   UNL A   1      34.278  24.097  25.411  1.00  0.00     0.180 C 
ATOM     12  C   UNL A   1      31.967  24.397  26.348  1.00  0.00     0.283 C 
ATOM     13  C   UNL A   1      33.881  25.005  24.239  1.00  0.00     0.285 C 
ATOM     14  C   UNL A   1      31.582  25.164  25.042  1.00  0.00     0.172 C 
ATOM     15  O   UNL A   1      31.190  24.270  27.282  1.00  0.00    -0.268 OA
ATOM     16  C   UNL A   1      31.085  24.028  24.103  1.00  0.00     0.090 C 
ATOM     17  C   UNL A   1      30.361  26.096  25.148  1.00  0.00     0.090 C 
ATOM     18  H   UNL A   1      32.409  26.256  23.592  1.00  0.00     0.349 HD
ENDBRANCH   7   8
ENDBRANCH   4   7
ENDBRANCH   2   3
ENDBRANCH   1   2
BRANCH   1  19
ATOM     19  C   UNL A   1      32.020  31.386  26.639  1.00  0.00     0.118 C 
BRANCH  19  20
ATOM     20  N   UNL A   1      32.049  32.806  26.932  1.00  0.00    -0.352 N 
ATOM     21  C   UNL A   1      32.882  33.498  27.774  1.00  0.00     0.251 C 
ATOM     22  H   UNL A   1      31.377  33.351  26.461  1.00  0.00     0.163 HD
ATOM     23  O   UNL A   1      32.547  34.625  28.141  1.00  0.00    -0.269 OA
BRANCH  21  24
ATOM     24  C   UNL A   1      34.179  32.943  28.246  1.00  0.00     0.039 A 
ATOM     25  C   UNL A   1      34.180  31.657  28.798  1.00  0.00     0.014 A 
ATOM     26  C   UNL A   1      35.356  33.701  28.284  1.00  0.00     0.014 A 
ATOM     27  C   UNL A   1      35.338  31.138  29.389  1.00  0.00     0.010 A 
ATOM     28  C   UNL A   1      36.529  33.162  28.836  1.00  0.00     0.010 A 
ATOM     29  C   UNL A   1      36.528  31.884  29.418  1.00  0.00    -0.014 A 
BRANCH  29  30
ATOM     30  C   UNL A   1      37.741  31.315  30.071  1.00  0.00     0.031 A 
ATOM     31  C   UNL A   1      38.084  31.641  31.502  1.00  0.00     0.074 A 
ATOM     32  C   UNL A   1      38.530  30.465  29.383  1.00  0.00     0.049 A 
ATOM     33  N   UNL A   1      39.045  31.159  32.255  1.00  0.00    -0.248 NA
ATOM     34  C   UNL A   1      37.249  32.647  32.174  1.00  0.00     0.031 C 
ATOM     35  C   UNL A   1      38.341  30.092  27.981  1.00  0.00     0.029 A 
ATOM     36  N   UNL A   1      39.638  29.751  29.770  1.00  0.00    -0.354 N 
ATOM     37  C   UNL A   1      38.928  31.799  33.484  1.00  0.00     0.074 A 
ATOM     38  C   UNL A   1      37.836  32.741  33.360  1.00  0.00     0.031 C 
ATOM     39  C   UNL A   1      39.275  29.193  27.637  1.00  0.00     0.029 A 
ATOM     40  C   UNL A   1      40.147  28.945  28.781  1.00  0.00     0.049 A 
ATOM     41  H   UNL A   1      40.031  29.813  30.671  1.00  0.00     0.167 HD
ATOM     42  C   UNL A   1      39.648  31.607  34.617  1.00  0.00     0.037 A 
ATOM     43  C   UNL A   1      41.193  28.096  28.793  1.00  0.00     0.037 A 
ATOM     44  C   UNL A   1      40.732  30.664  34.746  1.00  0.00     0.049 A 
ATOM     45  C   UNL A   1      41.982  27.906  30.059  1.00  0.00     0.074 A 
ATOM     46  C   UNL A   1      41.483  30.361  35.871  1.00  0.00     0.029 A 
ATOM     47  N   UNL A   1      41.227  29.879  33.716  1.00  0.00    -0.354 N 
ATOM     48  N   UNL A   1      41.806  28.459  31.234  1.00  0.00    -0.248 NA
ATOM     49  C   UNL A   1      43.108  26.964  30.002  1.00  0.00     0.031 C 
ATOM     50  C   UNL A   1      42.465  29.433  35.507  1.00  0.00     0.029 A 
ATOM     51  C   UNL A   1      42.291  29.115  34.171  1.00  0.00     0.049 A 
ATOM     52  H   UNL A   1      40.875  29.865  32.797  1.00  0.00     0.167 HD
ATOM     53  C   UNL A   1      42.784  27.919  32.060  1.00  0.00     0.074 A 
ATOM     54  C   UNL A   1      43.534  26.975  31.257  1.00  0.00     0.031 C 
ATOM     55  C   UNL A   1      43.039  28.184  33.364  1.00  0.00     0.037 A 
BRANCH  42  56
ATOM     56  C   UNL A   1      39.291  32.438  35.818  1.00  0.00     0.057 A 
ATOM     57  C   UNL A   1      38.410  31.973  36.804  1.00  0.00     0.134 A 
ATOM     58  C   UNL A   1      39.873  33.696  36.018  1.00  0.00     0.134 A 
ATOM     59  F   UNL A   1      37.814  30.778  36.674  1.00  0.00    -0.206 F 
ATOM     60  C   UNL A   1      38.099  32.741  37.929  1.00  0.00     0.040 A 
ATOM     61  C   UNL A   1      39.591  34.461  37.153  1.00  0.00     0.040 A 
ATOM     62  F   UNL A   1      40.736  34.199  35.123  1.00  0.00    -0.206 F 
ATOM     63  C   UNL A   1      38.695  33.987  38.108  1.00  0.00     0.006 A 
ENDBRANCH  42  56
BRANCH  43  64
ATOM     64  C   UNL A   1      41.546  27.339  27.563  1.00  0.00     0.057 A 
ATOM     65  C   UNL A   1      42.359  27.900  26.571  1.00  0.00     0.134 A 
ATOM     66  C   UNL A   1      41.071  26.039  27.347  1.00  0.00     0.134 A 
ATOM     67  F   UNL A   1      42.827  29.149  26.709  1.00  0.00    -0.206 F 
ATOM     68  C   UNL A   1      42.670  27.206  25.401  1.00  0.00     0.040 A 
ATOM     69  C   UNL A   1      41.397  25.322  26.195  1.00  0.00     0.040 A 
ATOM     70  F   UNL A   1      40.290  25.444  28.260  1.00  0.00    -0.206 F 
ATOM     71  C   UNL A   1      42.194  25.909  25.214  1.00  0.00     0.006 A 
ENDBRANCH  43  64
BRANCH  55  72
ATOM     72  C   UNL A   1      44.166  27.427  34.009  1.00  0.00     0.057 A 
ATOM     73  C   UNL A   1      43.968  26.177  34.612  1.00  0.00     0.134 A 
ATOM     74  C   UNL A   1      45.466  27.947  34.015  1.00  0.00     0.134 A 
ATOM     75  F   UNL A   1      42.745  25.627  34.652  1.00  0.00    -0.206 F 
ATOM     76  C   UNL A   1      45.017  25.487  35.225  1.00  0.00     0.040 A 
ATOM     77  C   UNL A   1      46.528  27.254  34.599  1.00  0.00     0.040 A 
ATOM     78  F   UNL A   1      45.729  29.134  33.449  1.00  0.00    -0.206 F 
ATOM     79  C   UNL A   1      46.303  26.024  35.215  1.00  0.00     0.006 A 
ENDBRANCH  55  72
ENDBRANCH  29  30
ENDBRANCH  21  24
ENDBRANCH  19  20
ENDBRANCH   1  19
TORSDOF 11
ENDMDL
MODEL 2
REMARK VINA RESULT:     -11.1      3.425      6.327
REMARK SMILES CN1CC[N@H+](CC(=O)NCCCNC(=O)c2ccc(-c3c4nc(c(-c5c(F)cccc5F)c5ccc([nH]5)c(-c5c(F)cccc5F)c5nc(c(-c6c(F)cccc6F)c6ccc3[nH]6)C=C5)C=C4)cc2)C(C)(C)C1=O
REMARK SMILES IDX 11 1 10 2 9 3 7 4 8 5 6 7 5 8 1 9 2 10 3 11 73 12 4 13 70 14
REMARK SMILES IDX 74 15 71 16 72 17 12 19 13 20 14 21 15 23 16 24 17 25 69 26
REMARK SMILES IDX 18 27 68 28 19 29 20 30 21 31 62 32 22 33 67 34 61 35 63 36
REMARK SMILES IDX 23 37 66 38 60 39 59 40 24 42 50 43 33 44 49 45 34 46 37 47
REMARK SMILES IDX 48 48 64 49 35 50 36 51 47 53 65 54 38 55 25 56 26 57 31 58
REMARK SMILES IDX 27 59 28 60 30 61 32 62 29 63 51 64 52 65 57 66 53 67 54 68
REMARK SMILES IDX 56 69 58 70 55 71 39 72 40 73 45 74 41 75 42 76 44 77 46 78
REMARK SMILES IDX 43 79
REMARK H PARENT 9 6 5 18 13 22 63 41 37 52
REMARK Flexibility Score: inf
ROOT
ATOM      1  C   UNL A   1      33.328  34.071  28.075  1.00  0.00     0.042 C 
ENDROOT
BRANCH   1   2
ATOM      2  C   UNL A   1      33.575  35.220  29.061  1.00  0.00     0.118 C 
BRANCH   2   3
ATOM      3  N   UNL A   1      32.879  35.095  30.334  1.00  0.00    -0.351 N 
ATOM      4  C   UNL A   1      33.275  35.165  31.635  1.00  0.00     0.275 C 
ATOM      5  O   UNL A   1      32.370  35.253  32.473  1.00  0.00    -0.269 OA
ATOM      6  H   UNL A   1      31.915  34.923  30.233  1.00  0.00     0.163 HD
BRANCH   4   7
ATOM      7  C   UNL A   1      34.743  35.175  32.075  1.00  0.00     0.364 C 
BRANCH   7   8
ATOM      8  N   UNL A   1      35.393  33.854  32.311  1.00  0.00    -0.314 N 
ATOM      9  C   UNL A   1      39.622  34.487  31.702  1.00  0.00     0.147 C 
ATOM     10  N   UNL A   1      38.240  34.128  31.954  1.00  0.00    -0.335 N 
ATOM     11  C   UNL A   1      37.433  33.751  30.795  1.00  0.00     0.180 C 
ATOM     12  C   UNL A   1      37.681  34.403  33.208  1.00  0.00     0.283 C 
ATOM     13  C   UNL A   1      36.008  33.273  31.109  1.00  0.00     0.285 C 
ATOM     14  C   UNL A   1      36.295  33.738  33.487  1.00  0.00     0.172 C 
ATOM     15  O   UNL A   1      38.307  34.993  34.075  1.00  0.00    -0.268 OA
ATOM     16  C   UNL A   1      36.673  32.265  33.817  1.00  0.00     0.090 C 
ATOM     17  C   UNL A   1      35.570  34.210  34.761  1.00  0.00     0.090 C 
ATOM     18  H   UNL A   1      34.584  33.288  32.566  1.00  0.00     0.349 HD
ENDBRANCH   7   8
ENDBRANCH   4   7
ENDBRANCH   2   3
ENDBRANCH   1   2
BRANCH   1  19
ATOM     19  C   UNL A   1      34.373  32.954  28.054  1.00  0.00     0.118 C 
BRANCH  19  20
ATOM     20  N   UNL A   1      33.776  31.682  27.693  1.00  0.00    -0.352 N 
ATOM     21  C   UNL A   1      34.368  30.450  27.582  1.00  0.00     0.251 C 
ATOM     22  H   UNL A   1      32.810  31.706  27.501  1.00  0.00     0.163 HD
ATOM     23  O   UNL A   1      33.781  29.568  26.953  1.00  0.00    -0.269 OA
BRANCH  21  24
ATOM     24  C   UNL A   1      35.682  30.137  28.205  1.00  0.00     0.039 A 
ATOM     25  C   UNL A   1      36.822  30.193  27.395  1.00  0.00     0.014 A 
ATOM     26  C   UNL A   1      35.802  29.663  29.517  1.00  0.00     0.014 A 
ATOM     27  C   UNL A   1      38.063  29.772  27.886  1.00  0.00     0.010 A 
ATOM     28  C   UNL A   1      37.056  29.284  30.023  1.00  0.00     0.010 A 
ATOM     29  C   UNL A   1      38.197  29.310  29.205  1.00  0.00    -0.014 A 
BRANCH  29  30
ATOM     30  C   UNL A   1      39.528  28.849  29.696  1.00  0.00     0.031 A 
ATOM     31  C   UNL A   1      40.163  29.459  30.919  1.00  0.00     0.074 A 
ATOM     32  C   UNL A   1      40.161  27.846  29.056  1.00  0.00     0.049 A 
ATOM     33  N   UNL A   1      41.267  29.113  31.539  1.00  0.00    -0.248 NA
ATOM     34  C   UNL A   1      39.480  30.613  31.519  1.00  0.00     0.031 C 
ATOM     35  C   UNL A   1      39.682  27.191  27.839  1.00  0.00     0.029 A 
ATOM     36  N   UNL A   1      41.333  27.191  29.347  1.00  0.00    -0.354 N 
ATOM     37  C   UNL A   1      41.408  30.003  32.598  1.00  0.00     0.074 A 
ATOM     38  C   UNL A   1      40.304  30.935  32.507  1.00  0.00     0.031 C 
ATOM     39  C   UNL A   1      40.532  26.206  27.507  1.00  0.00     0.029 A 
ATOM     40  C   UNL A   1      41.629  26.176  28.469  1.00  0.00     0.049 A 
ATOM     41  H   UNL A   1      41.908  27.428  30.110  1.00  0.00     0.167 HD
ATOM     42  C   UNL A   1      42.353  30.030  33.569  1.00  0.00     0.037 A 
ATOM     43  C   UNL A   1      42.663  25.312  28.443  1.00  0.00     0.037 A 
ATOM     44  C   UNL A   1      43.450  29.098  33.668  1.00  0.00     0.049 A 
ATOM     45  C   UNL A   1      43.704  25.367  29.526  1.00  0.00     0.074 A 
ATOM     46  C   UNL A   1      44.426  29.014  34.648  1.00  0.00     0.029 A 
ATOM     47  N   UNL A   1      43.723  28.095  32.750  1.00  0.00    -0.354 N 
ATOM     48  N   UNL A   1      43.777  26.162  30.565  1.00  0.00    -0.248 NA
ATOM     49  C   UNL A   1      44.803  24.394  29.438  1.00  0.00     0.031 C 
ATOM     50  C   UNL A   1      45.318  27.995  34.294  1.00  0.00     0.029 A 
ATOM     51  C   UNL A   1      44.867  27.408  33.124  1.00  0.00     0.049 A 
ATOM     52  H   UNL A   1      43.184  27.900  31.950  1.00  0.00     0.167 HD
ATOM     53  C   UNL A   1      44.913  25.774  31.263  1.00  0.00     0.074 A 
ATOM     54  C   UNL A   1      45.485  24.656  30.543  1.00  0.00     0.031 C 
ATOM     55  C   UNL A   1      45.436  26.301  32.398  1.00  0.00     0.037 A 
BRANCH  42  56
ATOM     56  C   UNL A   1      42.252  31.109  34.611  1.00  0.00     0.057 A 
ATOM     57  C   UNL A   1      41.504  30.936  35.784  1.00  0.00     0.134 A 
ATOM     58  C   UNL A   1      42.948  32.315  34.466  1.00  0.00     0.134 A 
ATOM     59  F   UNL A   1      40.809  29.806  35.987  1.00  0.00    -0.206 F 
ATOM     60  C   UNL A   1      41.430  31.933  36.760  1.00  0.00     0.040 A 
ATOM     61  C   UNL A   1      42.905  33.309  35.447  1.00  0.00     0.040 A 
ATOM     62  F   UNL A   1      43.695  32.544  33.376  1.00  0.00    -0.206 F 
ATOM     63  C   UNL A   1      42.137  33.122  36.594  1.00  0.00     0.006 A 
ENDBRANCH  42  56
BRANCH  43  64
ATOM     64  C   UNL A   1      42.754  24.299  27.358  1.00  0.00     0.057 A 
ATOM     65  C   UNL A   1      42.255  23.003  27.529  1.00  0.00     0.134 A 
ATOM     66  C   UNL A   1      43.351  24.603  26.128  1.00  0.00     0.134 A 
ATOM     67  F   UNL A   1      41.692  22.644  28.693  1.00  0.00    -0.206 F 
ATOM     68  C   UNL A   1      42.364  22.039  26.526  1.00  0.00     0.040 A 
ATOM     69  C   UNL A   1      43.441  23.658  25.105  1.00  0.00     0.040 A 
ATOM     70  F   UNL A   1      43.846  25.828  25.900  1.00  0.00    -0.206 F 
ATOM     71  C   UNL A   1      42.952  22.369  25.306  1.00  0.00     0.006 A 
ENDBRANCH  43  64
BRANCH  55  72
ATOM     72  C   UNL A   1      46.683  25.658  32.939  1.00  0.00     0.057 A 
ATOM     73  C   UNL A   1      47.961  26.067  32.535  1.00  0.00     0.134 A 
ATOM     74  C   UNL A   1      46.605  24.628  33.885  1.00  0.00     0.134 A 
ATOM     75  F   UNL A   1      48.108  27.040  31.623  1.00  0.00    -0.206 F 
ATOM     76  C   UNL A   1      49.115  25.453  33.029  1.00  0.00     0.040 A 
ATOM     77  C   UNL A   1      47.751  24.027  34.407  1.00  0.00     0.040 A 
ATOM     78  F   UNL A   1      45.414  24.193  34.323  1.00  0.00    -0.206 F 
ATOM     79  C   UNL A   1      49.011  24.434  33.972  1.00  0.00     0.006 A 
ENDBRANCH  55  72
ENDBRANCH  29  30
ENDBRANCH  21  24
ENDBRANCH  19  20
ENDBRANCH   1  19
TORSDOF 11
ENDMDL
MODEL 3
REMARK VINA RESULT:     -11.1      4.428      9.190
REMARK SMILES CN1CC[N@H+](CC(=O)NCCCNC(=O)c2ccc(-c3c4nc(c(-c5c(F)cccc5F)c5ccc([nH]5)c(-c5c(F)cccc5F)c5nc(c(-c6c(F)cccc6F)c6ccc3[nH]6)C=C5)C=C4)cc2)C(C)(C)C1=O
REMARK SMILES IDX 11 1 10 2 9 3 7 4 8 5 6 7 5 8 1 9 2 10 3 11 73 12 4 13 70 14
REMARK SMILES IDX 74 15 71 16 72 17 12 19 13 20 14 21 15 23 16 24 17 25 69 26
REMARK SMILES IDX 18 27 68 28 19 29 20 30 21 31 62 32 22 33 67 34 61 35 63 36
REMARK SMILES IDX 23 37 66 38 60 39 59 40 24 42 50 43 33 44 49 45 34 46 37 47
REMARK SMILES IDX 48 48 64 49 35 50 36 51 47 53 65 54 38 55 25 56 26 57 31 58
REMARK SMILES IDX 27 59 28 60 30 61 32 62 29 63 51 64 52 65 57 66 53 67 54 68
REMARK SMILES IDX 56 69 58 70 55 71 39 72 40 73 45 74 41 75 42 76 44 77 46 78
REMARK SMILES IDX 43 79
REMARK H PARENT 9 6 5 18 13 22 63 41 37 52
REMARK Flexibility Score: inf
ROOT
ATOM      1  C   UNL A   1      37.520  19.615  24.989  1.00  0.00     0.042 C 
ENDROOT
BRANCH   1   2
ATOM      2  C   UNL A   1      36.286  20.523  24.908  1.00  0.00     0.118 C 
BRANCH   2   3
ATOM      3  N   UNL A   1      35.039  19.901  25.332  1.00  0.00    -0.351 N 
ATOM      4  C   UNL A   1      33.730  20.106  25.018  1.00  0.00     0.275 C 
ATOM      5  O   UNL A   1      32.941  19.227  25.386  1.00  0.00    -0.269 OA
ATOM      6  H   UNL A   1      35.171  19.177  25.987  1.00  0.00     0.163 HD
BRANCH   4   7
ATOM      7  C   UNL A   1      33.228  21.317  24.225  1.00  0.00     0.364 C 
BRANCH   7   8
ATOM      8  N   UNL A   1      33.238  22.637  24.919  1.00  0.00    -0.314 N 
ATOM      9  C   UNL A   1      32.124  25.552  21.933  1.00  0.00     0.147 C 
ATOM     10  N   UNL A   1      32.492  24.692  23.041  1.00  0.00    -0.335 N 
ATOM     11  C   UNL A   1      33.911  24.376  23.189  1.00  0.00     0.180 C 
ATOM     12  C   UNL A   1      31.488  24.009  23.738  1.00  0.00     0.283 C 
ATOM     13  C   UNL A   1      34.279  23.553  24.431  1.00  0.00     0.285 C 
ATOM     14  C   UNL A   1      31.936  23.336  25.075  1.00  0.00     0.172 C 
ATOM     15  O   UNL A   1      30.317  24.069  23.399  1.00  0.00    -0.268 OA
ATOM     16  C   UNL A   1      32.007  24.535  26.064  1.00  0.00     0.090 C 
ATOM     17  C   UNL A   1      30.905  22.399  25.731  1.00  0.00     0.090 C 
ATOM     18  H   UNL A   1      33.478  22.350  25.867  1.00  0.00     0.349 HD
ENDBRANCH   7   8
ENDBRANCH   4   7
ENDBRANCH   2   3
ENDBRANCH   1   2
BRANCH   1  19
ATOM     19  C   UNL A   1      38.840  20.290  25.367  1.00  0.00     0.118 C 
BRANCH  19  20
ATOM     20  N   UNL A   1      39.864  19.309  25.671  1.00  0.00    -0.352 N 
ATOM     21  C   UNL A   1      41.173  19.510  26.029  1.00  0.00     0.251 C 
ATOM     22  H   UNL A   1      39.581  18.368  25.613  1.00  0.00     0.163 HD
ATOM     23  O   UNL A   1      41.964  18.570  25.925  1.00  0.00    -0.269 OA
BRANCH  21  24
ATOM     24  C   UNL A   1      41.667  20.812  26.552  1.00  0.00     0.039 A 
ATOM     25  C   UNL A   1      41.524  21.066  27.921  1.00  0.00     0.014 A 
ATOM     26  C   UNL A   1      42.137  21.832  25.715  1.00  0.00     0.014 A 
ATOM     27  C   UNL A   1      41.837  22.325  28.445  1.00  0.00     0.010 A 
ATOM     28  C   UNL A   1      42.494  23.080  26.250  1.00  0.00     0.010 A 
ATOM     29  C   UNL A   1      42.324  23.350  27.618  1.00  0.00    -0.014 A 
BRANCH  29  30
ATOM     30  C   UNL A   1      42.631  24.688  28.201  1.00  0.00     0.031 A 
ATOM     31  C   UNL A   1      44.041  25.077  28.562  1.00  0.00     0.074 A 
ATOM     32  C   UNL A   1      41.636  25.580  28.377  1.00  0.00     0.049 A 
ATOM     33  N   UNL A   1      44.499  26.231  28.987  1.00  0.00    -0.248 NA
ATOM     34  C   UNL A   1      45.071  24.035  28.444  1.00  0.00     0.031 C 
ATOM     35  C   UNL A   1      40.220  25.324  28.107  1.00  0.00     0.029 A 
ATOM     36  N   UNL A   1      41.662  26.884  28.808  1.00  0.00    -0.354 N 
ATOM     37  C   UNL A   1      45.864  26.054  29.184  1.00  0.00     0.074 A 
ATOM     38  C   UNL A   1      46.151  24.669  28.880  1.00  0.00     0.031 C 
ATOM     39  C   UNL A   1      39.520  26.445  28.345  1.00  0.00     0.029 A 
ATOM     40  C   UNL A   1      40.428  27.489  28.809  1.00  0.00     0.049 A 
ATOM     41  H   UNL A   1      42.487  27.342  29.092  1.00  0.00     0.167 HD
ATOM     42  C   UNL A   1      46.796  26.964  29.560  1.00  0.00     0.037 A 
ATOM     43  C   UNL A   1      40.066  28.744  29.139  1.00  0.00     0.037 A 
ATOM     44  C   UNL A   1      46.515  28.347  29.856  1.00  0.00     0.049 A 
ATOM     45  C   UNL A   1      41.117  29.733  29.562  1.00  0.00     0.074 A 
ATOM     46  C   UNL A   1      47.404  29.356  30.192  1.00  0.00     0.029 A 
ATOM     47  N   UNL A   1      45.250  28.916  29.861  1.00  0.00    -0.354 N 
ATOM     48  N   UNL A   1      42.413  29.570  29.664  1.00  0.00    -0.248 NA
ATOM     49  C   UNL A   1      40.654  31.085  29.906  1.00  0.00     0.031 C 
ATOM     50  C   UNL A   1      46.671  30.520  30.451  1.00  0.00     0.029 A 
ATOM     51  C   UNL A   1      45.331  30.252  30.223  1.00  0.00     0.049 A 
ATOM     52  H   UNL A   1      44.417  28.441  29.639  1.00  0.00     0.167 HD
ATOM     53  C   UNL A   1      42.922  30.800  30.062  1.00  0.00     0.074 A 
ATOM     54  C   UNL A   1      41.797  31.706  30.159  1.00  0.00     0.031 C 
ATOM     55  C   UNL A   1      44.206  31.146  30.326  1.00  0.00     0.037 A 
BRANCH  42  56
ATOM     56  C   UNL A   1      48.219  26.494  29.681  1.00  0.00     0.057 A 
ATOM     57  C   UNL A   1      48.708  25.910  30.857  1.00  0.00     0.134 A 
ATOM     58  C   UNL A   1      49.098  26.579  28.594  1.00  0.00     0.134 A 
ATOM     59  F   UNL A   1      47.922  25.800  31.939  1.00  0.00    -0.206 F 
ATOM     60  C   UNL A   1      50.025  25.456  30.957  1.00  0.00     0.040 A 
ATOM     61  C   UNL A   1      50.409  26.103  28.672  1.00  0.00     0.040 A 
ATOM     62  F   UNL A   1      48.695  27.113  27.431  1.00  0.00    -0.206 F 
ATOM     63  C   UNL A   1      50.878  25.547  29.859  1.00  0.00     0.006 A 
ENDBRANCH  42  56
BRANCH  43  64
ATOM     64  C   UNL A   1      38.638  29.147  29.062  1.00  0.00     0.057 A 
ATOM     65  C   UNL A   1      38.079  29.623  27.870  1.00  0.00     0.134 A 
ATOM     66  C   UNL A   1      37.800  29.075  30.182  1.00  0.00     0.134 A 
ATOM     67  F   UNL A   1      38.836  29.737  26.768  1.00  0.00    -0.206 F 
ATOM     68  C   UNL A   1      36.746  30.031  27.798  1.00  0.00     0.040 A 
ATOM     69  C   UNL A   1      36.458  29.452  30.118  1.00  0.00     0.040 A 
ATOM     70  F   UNL A   1      38.273  28.625  31.353  1.00  0.00    -0.206 F 
ATOM     71  C   UNL A   1      35.930  29.938  28.924  1.00  0.00     0.006 A 
ENDBRANCH  43  64
BRANCH  55  72
ATOM     72  C   UNL A   1      44.462  32.572  30.729  1.00  0.00     0.057 A 
ATOM     73  C   UNL A   1      44.706  33.575  29.781  1.00  0.00     0.134 A 
ATOM     74  C   UNL A   1      44.451  32.948  32.077  1.00  0.00     0.134 A 
ATOM     75  F   UNL A   1      44.743  33.281  28.473  1.00  0.00    -0.206 F 
ATOM     76  C   UNL A   1      44.961  34.895  30.163  1.00  0.00     0.040 A 
ATOM     77  C   UNL A   1      44.676  34.268  32.470  1.00  0.00     0.040 A 
ATOM     78  F   UNL A   1      44.216  32.040  33.037  1.00  0.00    -0.206 F 
ATOM     79  C   UNL A   1      44.941  35.244  31.512  1.00  0.00     0.006 A 
ENDBRANCH  55  72
ENDBRANCH  29  30
ENDBRANCH  21  24
ENDBRANCH  19  20
ENDBRANCH   1  19
TORSDOF 11
ENDMDL
