MODEL 1
REMARK VINA RESULT:     -12.7      0.000      0.000
REMARK SMILES COc1ccc(/C=C2\SC(=S)N(c3cc(C(=O)NCCCNC(=O)c4ccc(-c5c6nc(c(-c7c(F)cccc7F)c7ccc([nH]7)c(-c7c(F)cccc7F)c7nc(c(-c8c(F)cccc8F)c8ccc5[nH]8)C=C7)C=C6)cc4)ccc3C)C2=O)cc1
REMARK SMILES IDX 19 1 18 2 16 3 17 4 15 6 13 7 14 8 81 9 80 10 82 11 79 12
REMARK SMILES IDX 12 13 7 14 8 15 9 16 83 17 10 18 84 19 11 20 6 21 3 22 4 23
REMARK SMILES IDX 86 24 5 25 85 26 2 27 1 28 20 29 21 30 22 31 23 32 24 34
REMARK SMILES IDX 25 35 26 36 78 37 27 38 77 39 28 40 29 41 30 42 71 43 31 44
REMARK SMILES IDX 76 45 70 46 72 47 32 48 75 49 69 50 68 51 33 53 59 54 42 55
REMARK SMILES IDX 58 56 43 57 46 58 57 59 73 60 44 61 45 62 56 64 74 65 47 66
REMARK SMILES IDX 34 67 35 68 40 69 36 70 37 71 39 72 41 73 38 74 60 75 61 76
REMARK SMILES IDX 66 77 62 78 63 79 65 80 67 81 64 82 48 83 49 84 54 85 50 86
REMARK SMILES IDX 51 87 53 88 55 89 52 90
REMARK H PARENT 18 5 22 33 72 52 46 63
REMARK Flexibility Score: inf
ROOT
ATOM      1  C   UNL A   1      37.306  20.856  24.629  1.00  0.00     0.118 C 
ENDROOT
BRANCH   1   2
ATOM      2  N   UNL A   1      37.800  22.114  25.166  1.00  0.00    -0.352 N 
ATOM      3  C   UNL A   1      37.173  23.153  25.813  1.00  0.00     0.251 C 
ATOM      4  O   UNL A   1      37.847  24.130  26.133  1.00  0.00    -0.269 OA
ATOM      5  H   UNL A   1      38.768  22.247  25.044  1.00  0.00     0.163 HD
BRANCH   3   6
ATOM      6  C   UNL A   1      35.711  23.158  26.090  1.00  0.00     0.041 A 
ATOM      7  C   UNL A   1      33.473  23.797  25.369  1.00  0.00     0.054 A 
ATOM      8  C   UNL A   1      34.864  23.808  25.180  1.00  0.00     0.041 A 
ATOM      9  C   UNL A   1      32.926  22.980  26.379  1.00  0.00    -0.027 A 
ATOM     10  C   UNL A   1      33.779  22.431  27.341  1.00  0.00     0.006 A 
ATOM     11  C   UNL A   1      31.476  22.578  26.426  1.00  0.00     0.046 C 
ATOM     12  C   UNL A   1      35.157  22.597  27.239  1.00  0.00     0.014 A 
BRANCH   7  13
ATOM     13  N   UNL A   1      32.650  24.669  24.598  1.00  0.00    -0.261 N 
ATOM     14  C   UNL A   1      30.654  27.689  24.415  1.00  0.00     0.029 C 
ATOM     15  C   UNL A   1      31.298  26.546  24.136  1.00  0.00     0.081 C 
ATOM     16  S   UNL A   1      31.401  25.754  22.617  1.00  0.00    -0.054 SA
ATOM     17  C   UNL A   1      32.079  25.800  25.166  1.00  0.00     0.270 C 
ATOM     18  C   UNL A   1      32.292  24.394  23.280  1.00  0.00     0.152 C 
ATOM     19  O   UNL A   1      32.189  26.191  26.323  1.00  0.00    -0.268 OA
ATOM     20  S   UNL A   1      32.509  23.002  22.373  1.00  0.00    -0.051 S 
BRANCH  14  21
ATOM     21  C   UNL A   1      29.896  28.507  23.459  1.00  0.00    -0.024 A 
ATOM     22  C   UNL A   1      28.498  30.104  21.620  1.00  0.00     0.118 A 
ATOM     23  C   UNL A   1      29.892  30.121  21.650  1.00  0.00     0.047 A 
ATOM     24  C   UNL A   1      27.800  29.275  22.496  1.00  0.00     0.047 A 
ATOM     25  C   UNL A   1      30.590  29.337  22.573  1.00  0.00     0.012 A 
ATOM     26  C   UNL A   1      28.496  28.491  23.420  1.00  0.00     0.012 A 
BRANCH  22  27
ATOM     27  O   UNL A   1      27.914  30.895  20.668  1.00  0.00    -0.497 OA
ATOM     28  C   UNL A   1      28.029  32.294  20.910  1.00  0.00     0.278 C 
ENDBRANCH  22  27
ENDBRANCH  14  21
ENDBRANCH   7  13
ENDBRANCH   3   6
ENDBRANCH   1   2
BRANCH   1  29
ATOM     29  C   UNL A   1      38.172  19.654  24.966  1.00  0.00     0.042 C 
BRANCH  29  30
ATOM     30  C   UNL A   1      39.224  19.900  26.032  1.00  0.00     0.118 C 
BRANCH  30  31
ATOM     31  N   UNL A   1      40.472  19.196  25.776  1.00  0.00    -0.352 N 
ATOM     32  C   UNL A   1      41.780  19.611  25.821  1.00  0.00     0.251 C 
ATOM     33  H   UNL A   1      40.358  18.250  25.525  1.00  0.00     0.163 HD
ATOM     34  O   UNL A   1      42.654  18.869  25.377  1.00  0.00    -0.269 OA
BRANCH  32  35
ATOM     35  C   UNL A   1      42.158  20.933  26.370  1.00  0.00     0.039 A 
ATOM     36  C   UNL A   1      42.555  21.938  25.482  1.00  0.00     0.014 A 
ATOM     37  C   UNL A   1      42.177  21.188  27.742  1.00  0.00     0.014 A 
ATOM     38  C   UNL A   1      42.908  23.199  25.966  1.00  0.00     0.010 A 
ATOM     39  C   UNL A   1      42.409  22.479  28.215  1.00  0.00     0.010 A 
ATOM     40  C   UNL A   1      42.800  23.495  27.335  1.00  0.00    -0.014 A 
BRANCH  40  41
ATOM     41  C   UNL A   1      43.110  24.855  27.847  1.00  0.00     0.031 A 
ATOM     42  C   UNL A   1      44.537  25.296  28.049  1.00  0.00     0.074 A 
ATOM     43  C   UNL A   1      42.098  25.688  28.161  1.00  0.00     0.049 A 
ATOM     44  N   UNL A   1      44.993  26.454  28.455  1.00  0.00    -0.248 NA
ATOM     45  C   UNL A   1      45.590  24.300  27.791  1.00  0.00     0.031 C 
ATOM     46  C   UNL A   1      40.673  25.353  28.087  1.00  0.00     0.029 A 
ATOM     47  N   UNL A   1      42.110  26.989  28.596  1.00  0.00    -0.354 N 
ATOM     48  C   UNL A   1      46.375  26.320  28.511  1.00  0.00     0.074 A 
ATOM     49  C   UNL A   1      46.681  24.951  28.164  1.00  0.00     0.031 C 
ATOM     50  C   UNL A   1      39.950  26.435  28.417  1.00  0.00     0.029 A 
ATOM     51  C   UNL A   1      40.855  27.526  28.759  1.00  0.00     0.049 A 
ATOM     52  H   UNL A   1      42.938  27.490  28.775  1.00  0.00     0.167 HD
ATOM     53  C   UNL A   1      47.309  27.260  28.795  1.00  0.00     0.037 A 
ATOM     54  C   UNL A   1      40.477  28.762  29.134  1.00  0.00     0.037 A 
ATOM     55  C   UNL A   1      47.004  28.629  29.117  1.00  0.00     0.049 A 
ATOM     56  C   UNL A   1      41.534  29.794  29.414  1.00  0.00     0.074 A 
ATOM     57  C   UNL A   1      47.877  29.676  29.354  1.00  0.00     0.029 A 
ATOM     58  N   UNL A   1      45.721  29.141  29.253  1.00  0.00    -0.354 N 
ATOM     59  N   UNL A   1      42.838  29.676  29.372  1.00  0.00    -0.248 NA
ATOM     60  C   UNL A   1      41.061  31.135  29.779  1.00  0.00     0.031 C 
ATOM     61  C   UNL A   1      47.124  30.809  29.684  1.00  0.00     0.029 A 
ATOM     62  C   UNL A   1      45.781  30.483  29.594  1.00  0.00     0.049 A 
ATOM     63  H   UNL A   1      44.892  28.626  29.126  1.00  0.00     0.167 HD
ATOM     64  C   UNL A   1      43.343  30.933  29.681  1.00  0.00     0.074 A 
ATOM     65  C   UNL A   1      42.202  31.802  29.877  1.00  0.00     0.031 C 
ATOM     66  C   UNL A   1      44.634  31.332  29.796  1.00  0.00     0.037 A 
BRANCH  53  67
ATOM     67  C   UNL A   1      48.753  26.838  28.764  1.00  0.00     0.057 A 
ATOM     68  C   UNL A   1      49.399  26.320  29.895  1.00  0.00     0.134 A 
ATOM     69  C   UNL A   1      49.496  26.919  27.580  1.00  0.00     0.134 A 
ATOM     70  F   UNL A   1      48.751  26.227  31.066  1.00  0.00    -0.206 F 
ATOM     71  C   UNL A   1      50.737  25.921  29.856  1.00  0.00     0.040 A 
ATOM     72  C   UNL A   1      50.825  26.495  27.520  1.00  0.00     0.040 A 
ATOM     73  F   UNL A   1      48.940  27.400  26.458  1.00  0.00    -0.206 F 
ATOM     74  C   UNL A   1      51.451  26.000  28.663  1.00  0.00     0.006 A 
ENDBRANCH  53  67
BRANCH  54  75
ATOM     75  C   UNL A   1      39.034  29.103  29.231  1.00  0.00     0.057 A 
ATOM     76  C   UNL A   1      38.343  28.994  30.444  1.00  0.00     0.134 A 
ATOM     77  C   UNL A   1      38.308  29.531  28.113  1.00  0.00     0.134 A 
ATOM     78  F   UNL A   1      38.977  28.574  31.547  1.00  0.00    -0.206 F 
ATOM     79  C   UNL A   1      36.978  29.272  30.536  1.00  0.00     0.040 A 
ATOM     80  C   UNL A   1      36.950  29.841  28.197  1.00  0.00     0.040 A 
ATOM     81  F   UNL A   1      38.914  29.667  26.924  1.00  0.00    -0.206 F 
ATOM     82  C   UNL A   1      36.278  29.702  29.411  1.00  0.00     0.006 A 
ENDBRANCH  54  75
BRANCH  66  83
ATOM     83  C   UNL A   1      44.870  32.778  30.127  1.00  0.00     0.057 A 
ATOM     84  C   UNL A   1      45.002  33.226  31.448  1.00  0.00     0.134 A 
ATOM     85  C   UNL A   1      44.957  33.737  29.109  1.00  0.00     0.134 A 
ATOM     86  F   UNL A   1      44.917  32.363  32.471  1.00  0.00    -0.206 F 
ATOM     87  C   UNL A   1      45.166  34.579  31.748  1.00  0.00     0.040 A 
ATOM     88  C   UNL A   1      45.156  35.089  29.394  1.00  0.00     0.040 A 
ATOM     89  F   UNL A   1      44.853  33.378  27.822  1.00  0.00    -0.206 F 
ATOM     90  C   UNL A   1      45.247  35.515  30.718  1.00  0.00     0.006 A 
ENDBRANCH  66  83
ENDBRANCH  40  41
ENDBRANCH  32  35
ENDBRANCH  30  31
ENDBRANCH  29  30
ENDBRANCH   1  29
TORSDOF 13
ENDMDL
MODEL 2
REMARK VINA RESULT:     -12.7      0.568      5.972
REMARK SMILES COc1ccc(/C=C2\SC(=S)N(c3cc(C(=O)NCCCNC(=O)c4ccc(-c5c6nc(c(-c7c(F)cccc7F)c7ccc([nH]7)c(-c7c(F)cccc7F)c7nc(c(-c8c(F)cccc8F)c8ccc5[nH]8)C=C7)C=C6)cc4)ccc3C)C2=O)cc1
REMARK SMILES IDX 19 1 18 2 16 3 17 4 15 6 13 7 14 8 81 9 80 10 82 11 79 12
REMARK SMILES IDX 12 13 7 14 8 15 9 16 83 17 10 18 84 19 11 20 6 21 3 22 4 23
REMARK SMILES IDX 86 24 5 25 85 26 2 27 1 28 20 29 21 30 22 31 23 32 24 34
REMARK SMILES IDX 25 35 26 36 78 37 27 38 77 39 28 40 29 41 30 42 71 43 31 44
REMARK SMILES IDX 76 45 70 46 72 47 32 48 75 49 69 50 68 51 33 53 59 54 42 55
REMARK SMILES IDX 58 56 43 57 46 58 57 59 73 60 44 61 45 62 56 64 74 65 47 66
REMARK SMILES IDX 34 67 35 68 40 69 36 70 37 71 39 72 41 73 38 74 60 75 61 76
REMARK SMILES IDX 66 77 62 78 63 79 65 80 67 81 64 82 48 83 49 84 54 85 50 86
REMARK SMILES IDX 51 87 53 88 55 89 52 90
REMARK H PARENT 18 5 22 33 72 52 46 63
REMARK Flexibility Score: inf
ROOT
ATOM      1  C   UNL A   1      37.467  21.014  24.438  1.00  0.00     0.118 C 
ENDROOT
BRANCH   1   2
ATOM      2  N   UNL A   1      37.849  22.214  25.166  1.00  0.00    -0.352 N 
ATOM      3  C   UNL A   1      37.114  23.147  25.859  1.00  0.00     0.251 C 
ATOM      4  O   UNL A   1      37.709  24.100  26.360  1.00  0.00    -0.269 OA
ATOM      5  H   UNL A   1      38.817  22.391  25.163  1.00  0.00     0.163 HD
BRANCH   3   6
ATOM      6  C   UNL A   1      35.633  23.073  25.978  1.00  0.00     0.041 A 
ATOM      7  C   UNL A   1      33.453  23.714  25.096  1.00  0.00     0.054 A 
ATOM      8  C   UNL A   1      34.855  23.792  25.059  1.00  0.00     0.041 A 
ATOM      9  C   UNL A   1      32.844  22.772  25.949  1.00  0.00    -0.027 A 
ATOM     10  C   UNL A   1      33.618  22.148  26.931  1.00  0.00     0.006 A 
ATOM     11  C   UNL A   1      31.416  22.319  25.798  1.00  0.00     0.046 C 
ATOM     12  C   UNL A   1      34.991  22.369  26.994  1.00  0.00     0.014 A 
BRANCH   7  13
ATOM     13  N   UNL A   1      32.675  24.639  24.341  1.00  0.00    -0.261 N 
ATOM     14  C   UNL A   1      30.497  27.535  24.284  1.00  0.00     0.029 C 
ATOM     15  C   UNL A   1      31.257  26.483  23.949  1.00  0.00     0.081 C 
ATOM     16  S   UNL A   1      31.620  25.924  22.368  1.00  0.00    -0.054 SA
ATOM     17  C   UNL A   1      31.950  25.643  24.969  1.00  0.00     0.270 C 
ATOM     18  C   UNL A   1      32.517  24.536  22.961  1.00  0.00     0.152 C 
ATOM     19  O   UNL A   1      31.876  25.870  26.172  1.00  0.00    -0.268 OA
ATOM     20  S   UNL A   1      32.957  23.303  21.915  1.00  0.00    -0.051 S 
BRANCH  14  21
ATOM     21  C   UNL A   1      29.811  28.437  23.350  1.00  0.00    -0.024 A 
ATOM     22  C   UNL A   1      28.447  30.128  21.569  1.00  0.00     0.118 A 
ATOM     23  C   UNL A   1      27.740  29.242  22.381  1.00  0.00     0.047 A 
ATOM     24  C   UNL A   1      29.837  30.184  21.658  1.00  0.00     0.047 A 
ATOM     25  C   UNL A   1      28.417  28.391  23.258  1.00  0.00     0.012 A 
ATOM     26  C   UNL A   1      30.516  29.332  22.535  1.00  0.00     0.012 A 
BRANCH  22  27
ATOM     27  O   UNL A   1      27.689  30.928  20.759  1.00  0.00    -0.497 OA
ATOM     28  C   UNL A   1      28.033  32.310  20.803  1.00  0.00     0.278 C 
ENDBRANCH  22  27
ENDBRANCH  14  21
ENDBRANCH   7  13
ENDBRANCH   3   6
ENDBRANCH   1   2
BRANCH   1  29
ATOM     29  C   UNL A   1      38.211  19.762  24.871  1.00  0.00     0.042 C 
BRANCH  29  30
ATOM     30  C   UNL A   1      39.160  19.951  26.040  1.00  0.00     0.118 C 
BRANCH  30  31
ATOM     31  N   UNL A   1      40.378  19.163  25.920  1.00  0.00    -0.352 N 
ATOM     32  C   UNL A   1      41.702  19.503  26.054  1.00  0.00     0.251 C 
ATOM     33  H   UNL A   1      40.226  18.215  25.704  1.00  0.00     0.163 HD
ATOM     34  O   UNL A   1      42.560  18.689  25.718  1.00  0.00    -0.269 OA
BRANCH  32  35
ATOM     35  C   UNL A   1      42.117  20.827  26.571  1.00  0.00     0.039 A 
ATOM     36  C   UNL A   1      42.542  21.799  25.660  1.00  0.00     0.014 A 
ATOM     37  C   UNL A   1      42.142  21.115  27.937  1.00  0.00     0.014 A 
ATOM     38  C   UNL A   1      42.929  23.061  26.113  1.00  0.00     0.010 A 
ATOM     39  C   UNL A   1      42.411  22.409  28.378  1.00  0.00     0.010 A 
ATOM     40  C   UNL A   1      42.830  23.392  27.474  1.00  0.00    -0.014 A 
BRANCH  40  41
ATOM     41  C   UNL A   1      43.178  24.755  27.954  1.00  0.00     0.031 A 
ATOM     42  C   UNL A   1      42.103  25.779  28.211  1.00  0.00     0.074 A 
ATOM     43  C   UNL A   1      44.474  25.081  28.130  1.00  0.00     0.049 A 
ATOM     44  N   UNL A   1      42.219  27.003  28.662  1.00  0.00    -0.248 NA
ATOM     45  C   UNL A   1      40.718  25.392  27.894  1.00  0.00     0.031 C 
ATOM     46  C   UNL A   1      45.613  24.208  27.839  1.00  0.00     0.029 A 
ATOM     47  N   UNL A   1      45.052  26.232  28.603  1.00  0.00    -0.354 N 
ATOM     48  C   UNL A   1      40.933  27.529  28.671  1.00  0.00     0.074 A 
ATOM     49  C   UNL A   1      40.060  26.520  28.118  1.00  0.00     0.031 C 
ATOM     50  C   UNL A   1      46.748  24.835  28.186  1.00  0.00     0.029 A 
ATOM     51  C   UNL A   1      46.422  26.165  28.688  1.00  0.00     0.049 A 
ATOM     52  H   UNL A   1      44.534  27.030  28.857  1.00  0.00     0.167 HD
ATOM     53  C   UNL A   1      40.511  28.734  29.126  1.00  0.00     0.037 A 
ATOM     54  C   UNL A   1      47.314  27.070  29.130  1.00  0.00     0.037 A 
ATOM     55  C   UNL A   1      41.379  29.729  29.699  1.00  0.00     0.049 A 
ATOM     56  C   UNL A   1      46.817  28.387  29.658  1.00  0.00     0.074 A 
ATOM     57  C   UNL A   1      41.044  30.952  30.253  1.00  0.00     0.029 A 
ATOM     58  N   UNL A   1      42.759  29.616  29.787  1.00  0.00    -0.354 N 
ATOM     59  N   UNL A   1      45.588  28.833  29.745  1.00  0.00    -0.248 NA
ATOM     60  C   UNL A   1      47.833  29.318  30.163  1.00  0.00     0.031 C 
ATOM     61  C   UNL A   1      42.225  31.602  30.628  1.00  0.00     0.029 A 
ATOM     62  C   UNL A   1      43.292  30.758  30.363  1.00  0.00     0.049 A 
ATOM     63  H   UNL A   1      43.283  28.839  29.483  1.00  0.00     0.167 HD
ATOM     64  C   UNL A   1      45.679  30.086  30.337  1.00  0.00     0.074 A 
ATOM     65  C   UNL A   1      47.082  30.313  30.614  1.00  0.00     0.031 C 
ATOM     66  C   UNL A   1      44.693  30.972  30.622  1.00  0.00     0.037 A 
BRANCH  53  67
ATOM     67  C   UNL A   1      39.041  29.038  29.029  1.00  0.00     0.057 A 
ATOM     68  C   UNL A   1      38.183  28.915  30.131  1.00  0.00     0.134 A 
ATOM     69  C   UNL A   1      38.483  29.494  27.829  1.00  0.00     0.134 A 
ATOM     70  F   UNL A   1      38.648  28.471  31.308  1.00  0.00    -0.206 F 
ATOM     71  C   UNL A   1      36.822  29.209  30.036  1.00  0.00     0.040 A 
ATOM     72  C   UNL A   1      37.129  29.821  27.728  1.00  0.00     0.040 A 
ATOM     73  F   UNL A   1      39.246  29.641  26.735  1.00  0.00    -0.206 F 
ATOM     74  C   UNL A   1      36.293  29.672  28.833  1.00  0.00     0.006 A 
ENDBRANCH  53  67
BRANCH  54  75
ATOM     75  C   UNL A   1      48.765  26.750  29.125  1.00  0.00     0.057 A 
ATOM     76  C   UNL A   1      49.362  26.073  30.196  1.00  0.00     0.134 A 
ATOM     77  C   UNL A   1      49.593  27.124  28.059  1.00  0.00     0.134 A 
ATOM     78  F   UNL A   1      48.628  25.703  31.254  1.00  0.00    -0.206 F 
ATOM     79  C   UNL A   1      50.732  25.805  30.220  1.00  0.00     0.040 A 
ATOM     80  C   UNL A   1      50.957  26.835  28.057  1.00  0.00     0.040 A 
ATOM     81  F   UNL A   1      49.080  27.765  26.998  1.00  0.00    -0.206 F 
ATOM     82  C   UNL A   1      51.533  26.182  29.145  1.00  0.00     0.006 A 
ENDBRANCH  54  75
BRANCH  66  83
ATOM     83  C   UNL A   1      45.105  32.254  31.289  1.00  0.00     0.057 A 
ATOM     84  C   UNL A   1      45.157  32.382  32.683  1.00  0.00     0.134 A 
ATOM     85  C   UNL A   1      45.449  33.377  30.525  1.00  0.00     0.134 A 
ATOM     86  F   UNL A   1      44.830  31.349  33.474  1.00  0.00    -0.206 F 
ATOM     87  C   UNL A   1      45.489  33.593  33.294  1.00  0.00     0.040 A 
ATOM     88  C   UNL A   1      45.817  34.583  31.123  1.00  0.00     0.040 A 
ATOM     89  F   UNL A   1      45.435  33.321  29.185  1.00  0.00    -0.206 F 
ATOM     90  C   UNL A   1      45.823  34.697  32.512  1.00  0.00     0.006 A 
ENDBRANCH  66  83
ENDBRANCH  40  41
ENDBRANCH  32  35
ENDBRANCH  30  31
ENDBRANCH  29  30
ENDBRANCH   1  29
TORSDOF 13
ENDMDL
MODEL 3
REMARK VINA RESULT:     -12.6      4.765      9.948
REMARK SMILES COc1ccc(/C=C2\SC(=S)N(c3cc(C(=O)NCCCNC(=O)c4ccc(-c5c6nc(c(-c7c(F)cccc7F)c7ccc([nH]7)c(-c7c(F)cccc7F)c7nc(c(-c8c(F)cccc8F)c8ccc5[nH]8)C=C7)C=C6)cc4)ccc3C)C2=O)cc1
REMARK SMILES IDX 19 1 18 2 16 3 17 4 15 6 13 7 14 8 81 9 80 10 82 11 79 12
REMARK SMILES IDX 12 13 7 14 8 15 9 16 83 17 10 18 84 19 11 20 6 21 3 22 4 23
REMARK SMILES IDX 86 24 5 25 85 26 2 27 1 28 20 29 21 30 22 31 23 32 24 34
REMARK SMILES IDX 25 35 26 36 78 37 27 38 77 39 28 40 29 41 30 42 71 43 31 44
REMARK SMILES IDX 76 45 70 46 72 47 32 48 75 49 69 50 68 51 33 53 59 54 42 55
REMARK SMILES IDX 58 56 43 57 46 58 57 59 73 60 44 61 45 62 56 64 74 65 47 66
REMARK SMILES IDX 34 67 35 68 40 69 36 70 37 71 39 72 41 73 38 74 60 75 61 76
REMARK SMILES IDX 66 77 62 78 63 79 65 80 67 81 64 82 48 83 49 84 54 85 50 86
REMARK SMILES IDX 51 87 53 88 55 89 52 90
REMARK H PARENT 18 5 22 33 72 52 46 63
REMARK Flexibility Score: inf
ROOT
ATOM      1  C   UNL A   1      31.726  30.546  26.855  1.00  0.00     0.118 C 
ENDROOT
BRANCH   1   2
ATOM      2  N   UNL A   1      33.115  30.183  27.092  1.00  0.00    -0.352 N 
ATOM      3  C   UNL A   1      33.973  29.331  26.435  1.00  0.00     0.251 C 
ATOM      4  O   UNL A   1      35.108  29.189  26.886  1.00  0.00    -0.269 OA
ATOM      5  H   UNL A   1      33.517  30.632  27.869  1.00  0.00     0.163 HD
BRANCH   3   6
ATOM      6  C   UNL A   1      33.563  28.545  25.241  1.00  0.00     0.041 A 
ATOM      7  C   UNL A   1      32.629  26.478  24.348  1.00  0.00     0.054 A 
ATOM      8  C   UNL A   1      33.077  27.244  25.437  1.00  0.00     0.041 A 
ATOM      9  C   UNL A   1      32.506  27.093  23.085  1.00  0.00    -0.027 A 
ATOM     10  C   UNL A   1      33.093  28.345  22.882  1.00  0.00     0.006 A 
ATOM     11  C   UNL A   1      31.684  26.520  21.961  1.00  0.00     0.046 C 
ATOM     12  C   UNL A   1      33.693  29.023  23.939  1.00  0.00     0.014 A 
BRANCH   7  13
ATOM     13  N   UNL A   1      32.388  25.084  24.517  1.00  0.00    -0.261 N 
ATOM     14  C   UNL A   1      33.421  21.665  23.904  1.00  0.00     0.029 C 
ATOM     15  C   UNL A   1      32.772  22.766  24.309  1.00  0.00     0.081 C 
ATOM     16  S   UNL A   1      31.378  22.844  25.306  1.00  0.00    -0.054 SA
ATOM     17  C   UNL A   1      33.234  24.139  23.952  1.00  0.00     0.270 C 
ATOM     18  C   UNL A   1      31.257  24.590  25.163  1.00  0.00     0.152 C 
ATOM     19  O   UNL A   1      34.238  24.344  23.278  1.00  0.00    -0.268 OA
ATOM     20  S   UNL A   1      29.877  25.388  25.680  1.00  0.00    -0.051 S 
BRANCH  14  21
ATOM     21  C   UNL A   1      33.062  20.280  24.238  1.00  0.00    -0.024 A 
ATOM     22  C   UNL A   1      32.407  17.638  24.930  1.00  0.00     0.118 A 
ATOM     23  C   UNL A   1      32.908  18.515  25.892  1.00  0.00     0.047 A 
ATOM     24  C   UNL A   1      32.214  18.085  23.624  1.00  0.00     0.047 A 
ATOM     25  C   UNL A   1      33.247  19.826  25.547  1.00  0.00     0.012 A 
ATOM     26  C   UNL A   1      32.554  19.396  23.277  1.00  0.00     0.012 A 
BRANCH  22  27
ATOM     27  O   UNL A   1      32.091  16.383  25.375  1.00  0.00    -0.497 OA
ATOM     28  C   UNL A   1      33.175  15.459  25.357  1.00  0.00     0.278 C 
ENDBRANCH  22  27
ENDBRANCH  14  21
ENDBRANCH   7  13
ENDBRANCH   3   6
ENDBRANCH   1   2
BRANCH   1  29
ATOM     29  C   UNL A   1      31.460  32.040  26.896  1.00  0.00     0.042 C 
BRANCH  29  30
ATOM     30  C   UNL A   1      32.701  32.913  26.929  1.00  0.00     0.118 C 
BRANCH  30  31
ATOM     31  N   UNL A   1      32.505  34.156  27.661  1.00  0.00    -0.352 N 
ATOM     32  C   UNL A   1      33.132  34.672  28.769  1.00  0.00     0.251 C 
ATOM     33  H   UNL A   1      31.795  34.733  27.295  1.00  0.00     0.163 HD
ATOM     34  O   UNL A   1      32.654  35.666  29.311  1.00  0.00    -0.269 OA
BRANCH  32  35
ATOM     35  C   UNL A   1      34.350  34.048  29.334  1.00  0.00     0.039 A 
ATOM     36  C   UNL A   1      34.203  33.014  30.265  1.00  0.00     0.014 A 
ATOM     37  C   UNL A   1      35.632  34.492  29.005  1.00  0.00     0.014 A 
ATOM     38  C   UNL A   1      35.331  32.398  30.809  1.00  0.00     0.010 A 
ATOM     39  C   UNL A   1      36.753  33.798  29.452  1.00  0.00     0.010 A 
ATOM     40  C   UNL A   1      36.618  32.757  30.378  1.00  0.00    -0.014 A 
BRANCH  40  41
ATOM     41  C   UNL A   1      37.820  32.058  30.905  1.00  0.00     0.031 A 
ATOM     42  C   UNL A   1      38.362  32.381  32.273  1.00  0.00     0.074 A 
ATOM     43  C   UNL A   1      38.444  31.147  30.132  1.00  0.00     0.049 A 
ATOM     44  N   UNL A   1      39.377  31.850  32.906  1.00  0.00    -0.248 NA
ATOM     45  C   UNL A   1      37.697  33.462  33.019  1.00  0.00     0.031 C 
ATOM     46  C   UNL A   1      38.069  30.803  28.758  1.00  0.00     0.029 A 
ATOM     47  N   UNL A   1      39.522  30.339  30.392  1.00  0.00    -0.354 N 
ATOM     48  C   UNL A   1      39.477  32.536  34.110  1.00  0.00     0.074 A 
ATOM     49  C   UNL A   1      38.465  33.567  34.094  1.00  0.00     0.031 C 
ATOM     50  C   UNL A   1      38.870  29.821  28.316  1.00  0.00     0.029 A 
ATOM     51  C   UNL A   1      39.837  29.492  29.357  1.00  0.00     0.049 A 
ATOM     52  H   UNL A   1      40.023  30.364  31.240  1.00  0.00     0.167 HD
ATOM     53  C   UNL A   1      40.316  32.309  35.150  1.00  0.00     0.037 A 
ATOM     54  C   UNL A   1      40.792  28.549  29.261  1.00  0.00     0.037 A 
ATOM     55  C   UNL A   1      41.308  31.266  35.174  1.00  0.00     0.049 A 
ATOM     56  C   UNL A   1      41.690  28.298  30.440  1.00  0.00     0.074 A 
ATOM     57  C   UNL A   1      42.159  30.909  36.204  1.00  0.00     0.029 A 
ATOM     58  N   UNL A   1      41.583  30.414  34.114  1.00  0.00    -0.354 N 
ATOM     59  N   UNL A   1      41.710  28.893  31.607  1.00  0.00    -0.248 NA
ATOM     60  C   UNL A   1      42.687  27.230  30.292  1.00  0.00     0.031 C 
ATOM     61  C   UNL A   1      42.987  29.875  35.749  1.00  0.00     0.029 A 
ATOM     62  C   UNL A   1      42.609  29.549  34.457  1.00  0.00     0.049 A 
ATOM     63  H   UNL A   1      41.118  30.425  33.246  1.00  0.00     0.167 HD
ATOM     64  C   UNL A   1      42.704  28.258  32.341  1.00  0.00     0.074 A 
ATOM     65  C   UNL A   1      43.240  27.212  31.495  1.00  0.00     0.031 C 
ATOM     66  C   UNL A   1      43.138  28.519  33.599  1.00  0.00     0.037 A 
BRANCH  53  67
ATOM     67  C   UNL A   1      40.191  33.205  36.352  1.00  0.00     0.057 A 
ATOM     68  C   UNL A   1      40.972  34.359  36.501  1.00  0.00     0.134 A 
ATOM     69  C   UNL A   1      39.255  32.928  37.356  1.00  0.00     0.134 A 
ATOM     70  F   UNL A   1      41.898  34.677  35.585  1.00  0.00    -0.206 F 
ATOM     71  C   UNL A   1      40.844  35.191  37.616  1.00  0.00     0.040 A 
ATOM     72  C   UNL A   1      39.096  33.769  38.460  1.00  0.00     0.040 A 
ATOM     73  F   UNL A   1      38.470  31.843  37.276  1.00  0.00    -0.206 F 
ATOM     74  C   UNL A   1      39.897  34.901  38.595  1.00  0.00     0.006 A 
ENDBRANCH  53  67
BRANCH  54  75
ATOM     75  C   UNL A   1      40.927  27.748  28.016  1.00  0.00     0.057 A 
ATOM     76  C   UNL A   1      40.286  26.511  27.876  1.00  0.00     0.134 A 
ATOM     77  C   UNL A   1      41.710  28.192  26.944  1.00  0.00     0.134 A 
ATOM     78  F   UNL A   1      39.535  26.023  28.874  1.00  0.00    -0.206 F 
ATOM     79  C   UNL A   1      40.440  25.733  26.728  1.00  0.00     0.040 A 
ATOM     80  C   UNL A   1      41.848  27.438  25.778  1.00  0.00     0.040 A 
ATOM     81  F   UNL A   1      42.341  29.374  27.010  1.00  0.00    -0.206 F 
ATOM     82  C   UNL A   1      41.219  26.199  25.671  1.00  0.00     0.006 A 
ENDBRANCH  54  75
BRANCH  66  83
ATOM     83  C   UNL A   1      44.229  27.636  34.136  1.00  0.00     0.057 A 
ATOM     84  C   UNL A   1      43.953  26.439  34.808  1.00  0.00     0.134 A 
ATOM     85  C   UNL A   1      45.575  27.995  33.984  1.00  0.00     0.134 A 
ATOM     86  F   UNL A   1      42.685  26.042  34.998  1.00  0.00    -0.206 F 
ATOM     87  C   UNL A   1      44.971  25.653  35.350  1.00  0.00     0.040 A 
ATOM     88  C   UNL A   1      46.605  27.200  34.491  1.00  0.00     0.040 A 
ATOM     89  F   UNL A   1      45.913  29.121  33.340  1.00  0.00    -0.206 F 
ATOM     90  C   UNL A   1      46.303  26.033  35.189  1.00  0.00     0.006 A 
ENDBRANCH  66  83
ENDBRANCH  40  41
ENDBRANCH  32  35
ENDBRANCH  30  31
ENDBRANCH  29  30
ENDBRANCH   1  29
TORSDOF 13
ENDMDL
