MODEL 1
REMARK VINA RESULT:      -9.4      0.000      0.000
REMARK SMILES COc1cc(/C=N/NC(=O)c2cccnc2)ccc1OCC(=O)NCCCNC(=O)c1ccc(-c2c3nc(c(-c4c(F)cccc4F)c4ccc([nH]4)c(-c4c(F)cccc4F)c4nc(c(-c5c(F)cccc5F)c5ccc2[nH]5)C=C4)C=C3)cc1
REMARK SMILES IDX 22 1 23 2 24 3 21 5 20 6 19 7 3 8 4 9 5 10 18 11 17 12 2 13
REMARK SMILES IDX 1 14 6 15 7 16 8 17 9 18 10 20 11 21 12 22 16 23 13 24 15 25
REMARK SMILES IDX 14 26 25 27 26 28 27 29 28 30 29 31 30 33 31 34 32 35 84 36
REMARK SMILES IDX 33 37 83 38 34 39 35 40 36 41 77 42 37 43 82 44 76 45 78 46
REMARK SMILES IDX 38 47 81 48 75 49 74 50 39 52 65 53 48 54 64 55 49 56 52 57
REMARK SMILES IDX 63 58 79 59 50 60 51 61 62 63 80 64 53 65 40 66 41 67 46 68
REMARK SMILES IDX 42 69 43 70 45 71 47 72 44 73 66 74 67 75 72 76 68 77 69 78
REMARK SMILES IDX 71 79 73 80 70 81 54 82 55 83 60 84 56 85 57 86 59 87 61 88
REMARK SMILES IDX 58 89
REMARK H PARENT 24 4 8 19 28 32 78 51 52 62
REMARK Flexibility Score: inf
ROOT
ATOM      1  C   UNL A   1      35.057  34.696  32.966  1.00  0.00     0.257 C 
ATOM      2  O   UNL A   1      35.198  35.768  33.556  1.00  0.00    -0.271 OA
ATOM      3  N   UNL A   1      34.908  34.737  31.609  1.00  0.00    -0.353 N 
ATOM      4  H   UNL A   1      34.735  35.626  31.224  1.00  0.00     0.163 HD
ENDROOT
BRANCH   1   5
ATOM      5  C   UNL A   1      35.113  33.344  33.690  1.00  0.00     0.329 C 
BRANCH   5   6
ATOM      6  O   UNL A   1      36.130  33.171  34.664  1.00  0.00    -0.480 OA
BRANCH   6   7
ATOM      7  C   UNL A   1      37.132  32.264  34.454  1.00  0.00     0.161 A 
ATOM      8  C   UNL A   1      38.306  32.073  35.195  1.00  0.00     0.161 A 
ATOM      9  C   UNL A   1      39.242  31.110  34.789  1.00  0.00     0.060 A 
ATOM     10  C   UNL A   1      38.987  30.312  33.670  1.00  0.00    -0.002 A 
ATOM     11  C   UNL A   1      36.910  31.471  33.317  1.00  0.00     0.051 A 
ATOM     12  C   UNL A   1      37.816  30.483  32.934  1.00  0.00     0.014 A 
BRANCH   8  13
ATOM     13  O   UNL A   1      38.609  32.914  36.231  1.00  0.00    -0.493 OA
ATOM     14  C   UNL A   1      39.869  32.628  36.840  1.00  0.00     0.278 C 
ENDBRANCH   8  13
BRANCH  10  15
ATOM     15  C   UNL A   1      39.979  29.341  33.174  1.00  0.00     0.141 C 
ATOM     16  N   UNL A   1      41.144  29.229  33.729  1.00  0.00    -0.180 NA
BRANCH  16  17
ATOM     17  N   UNL A   1      42.071  28.427  33.122  1.00  0.00    -0.243 N 
ATOM     18  C   UNL A   1      42.726  27.304  33.602  1.00  0.00     0.272 C 
ATOM     19  H   UNL A   1      42.308  28.687  32.203  1.00  0.00     0.194 HD
ATOM     20  O   UNL A   1      43.574  26.736  32.915  1.00  0.00    -0.267 OA
BRANCH  18  21
ATOM     21  C   UNL A   1      42.430  26.762  34.940  1.00  0.00     0.059 A 
ATOM     22  C   UNL A   1      41.598  25.662  35.156  1.00  0.00     0.017 A 
ATOM     23  C   UNL A   1      42.988  27.392  36.043  1.00  0.00     0.124 A 
ATOM     24  C   UNL A   1      41.300  25.285  36.464  1.00  0.00     0.021 A 
ATOM     25  N   UNL A   1      42.709  27.048  37.324  1.00  0.00    -0.264 NA
ATOM     26  C   UNL A   1      41.867  26.005  37.504  1.00  0.00     0.111 A 
ENDBRANCH  18  21
ENDBRANCH  16  17
ENDBRANCH  10  15
ENDBRANCH   6   7
ENDBRANCH   5   6
ENDBRANCH   1   5
BRANCH   3  27
ATOM     27  C   UNL A   1      34.971  33.643  30.661  1.00  0.00     0.117 C 
BRANCH  27  28
ATOM     28  C   UNL A   1      34.570  34.049  29.249  1.00  0.00     0.042 C 
BRANCH  28  29
ATOM     29  C   UNL A   1      35.086  33.134  28.142  1.00  0.00     0.118 C 
BRANCH  29  30
ATOM     30  N   UNL A   1      34.257  31.957  27.938  1.00  0.00    -0.352 N 
ATOM     31  C   UNL A   1      34.578  30.625  27.861  1.00  0.00     0.251 C 
ATOM     32  H   UNL A   1      33.296  32.149  27.838  1.00  0.00     0.163 HD
ATOM     33  O   UNL A   1      33.720  29.822  27.509  1.00  0.00    -0.269 OA
BRANCH  31  34
ATOM     34  C   UNL A   1      35.944  30.146  28.170  1.00  0.00     0.039 A 
ATOM     35  C   UNL A   1      36.909  30.191  27.159  1.00  0.00     0.014 A 
ATOM     36  C   UNL A   1      36.275  29.615  29.419  1.00  0.00     0.014 A 
ATOM     37  C   UNL A   1      38.213  29.762  27.421  1.00  0.00     0.010 A 
ATOM     38  C   UNL A   1      37.596  29.277  29.706  1.00  0.00     0.010 A 
ATOM     39  C   UNL A   1      38.578  29.336  28.709  1.00  0.00    -0.014 A 
BRANCH  39  40
ATOM     40  C   UNL A   1      39.983  28.954  29.010  1.00  0.00     0.031 A 
ATOM     41  C   UNL A   1      40.889  29.889  29.765  1.00  0.00     0.074 A 
ATOM     42  C   UNL A   1      40.455  27.769  28.571  1.00  0.00     0.049 A 
ATOM     43  N   UNL A   1      42.135  29.713  30.133  1.00  0.00    -0.248 NA
ATOM     44  C   UNL A   1      40.337  31.202  30.132  1.00  0.00     0.031 C 
ATOM     45  C   UNL A   1      39.698  26.803  27.771  1.00  0.00     0.029 A 
ATOM     46  N   UNL A   1      41.679  27.175  28.740  1.00  0.00    -0.354 N 
ATOM     47  C   UNL A   1      42.514  30.892  30.764  1.00  0.00     0.074 A 
ATOM     48  C   UNL A   1      41.390  31.799  30.672  1.00  0.00     0.031 C 
ATOM     49  C   UNL A   1      40.461  25.720  27.555  1.00  0.00     0.029 A 
ATOM     50  C   UNL A   1      41.767  25.926  28.170  1.00  0.00     0.049 A 
ATOM     51  H   UNL A   1      42.424  27.601  29.221  1.00  0.00     0.167 HD
ATOM     52  C   UNL A   1      43.680  31.184  31.388  1.00  0.00     0.037 A 
ATOM     53  C   UNL A   1      42.784  25.044  28.154  1.00  0.00     0.037 A 
ATOM     54  C   UNL A   1      44.790  30.273  31.496  1.00  0.00     0.049 A 
ATOM     55  C   UNL A   1      44.062  25.384  28.868  1.00  0.00     0.074 A 
ATOM     56  C   UNL A   1      45.993  30.452  32.156  1.00  0.00     0.029 A 
ATOM     57  N   UNL A   1      44.834  29.010  30.923  1.00  0.00    -0.354 N 
ATOM     58  N   UNL A   1      44.375  26.471  29.532  1.00  0.00    -0.248 NA
ATOM     59  C   UNL A   1      45.122  24.368  28.844  1.00  0.00     0.031 C 
ATOM     60  C   UNL A   1      46.783  29.317  31.943  1.00  0.00     0.029 A 
ATOM     61  C   UNL A   1      46.049  28.406  31.200  1.00  0.00     0.049 A 
ATOM     62  H   UNL A   1      44.108  28.603  30.398  1.00  0.00     0.167 HD
ATOM     63  C   UNL A   1      45.652  26.256  30.034  1.00  0.00     0.074 A 
ATOM     64  C   UNL A   1      46.048  24.928  29.610  1.00  0.00     0.031 C 
ATOM     65  C   UNL A   1      46.427  27.081  30.778  1.00  0.00     0.037 A 
BRANCH  52  66
ATOM     66  C   UNL A   1      43.811  32.546  32.011  1.00  0.00     0.057 A 
ATOM     67  C   UNL A   1      43.495  32.777  33.357  1.00  0.00     0.134 A 
ATOM     68  C   UNL A   1      44.291  33.632  31.268  1.00  0.00     0.134 A 
ATOM     69  F   UNL A   1      43.020  31.784  34.125  1.00  0.00    -0.206 F 
ATOM     70  C   UNL A   1      43.622  34.043  33.932  1.00  0.00     0.040 A 
ATOM     71  C   UNL A   1      44.450  34.896  31.840  1.00  0.00     0.040 A 
ATOM     72  F   UNL A   1      44.620  33.482  29.976  1.00  0.00    -0.206 F 
ATOM     73  C   UNL A   1      44.108  35.106  33.174  1.00  0.00     0.006 A 
ENDBRANCH  52  66
BRANCH  53  74
ATOM     74  C   UNL A   1      42.620  23.734  27.473  1.00  0.00     0.057 A 
ATOM     75  C   UNL A   1      42.818  23.606  26.093  1.00  0.00     0.134 A 
ATOM     76  C   UNL A   1      42.255  22.582  28.180  1.00  0.00     0.134 A 
ATOM     77  F   UNL A   1      43.154  24.676  25.357  1.00  0.00    -0.206 F 
ATOM     78  C   UNL A   1      42.636  22.387  25.437  1.00  0.00     0.040 A 
ATOM     79  C   UNL A   1      42.097  21.351  27.542  1.00  0.00     0.040 A 
ATOM     80  F   UNL A   1      42.064  22.634  29.507  1.00  0.00    -0.206 F 
ATOM     81  C   UNL A   1      42.279  21.254  26.164  1.00  0.00     0.006 A 
ENDBRANCH  53  74
BRANCH  65  82
ATOM     82  C   UNL A   1      47.761  26.553  31.222  1.00  0.00     0.057 A 
ATOM     83  C   UNL A   1      47.921  25.847  32.421  1.00  0.00     0.134 A 
ATOM     84  C   UNL A   1      48.900  26.742  30.428  1.00  0.00     0.134 A 
ATOM     85  F   UNL A   1      46.874  25.641  33.235  1.00  0.00    -0.206 F 
ATOM     86  C   UNL A   1      49.171  25.378  32.831  1.00  0.00     0.040 A 
ATOM     87  C   UNL A   1      50.148  26.251  30.811  1.00  0.00     0.040 A 
ATOM     88  F   UNL A   1      48.815  27.400  29.261  1.00  0.00    -0.206 F 
ATOM     89  C   UNL A   1      50.288  25.576  32.021  1.00  0.00     0.006 A 
ENDBRANCH  65  82
ENDBRANCH  39  40
ENDBRANCH  31  34
ENDBRANCH  29  30
ENDBRANCH  28  29
ENDBRANCH  27  28
ENDBRANCH   3  27
TORSDOF 16
ENDMDL
MODEL 2
REMARK VINA RESULT:      -9.4      3.894     10.454
REMARK SMILES COc1cc(/C=N/NC(=O)c2cccnc2)ccc1OCC(=O)NCCCNC(=O)c1ccc(-c2c3nc(c(-c4c(F)cccc4F)c4ccc([nH]4)c(-c4c(F)cccc4F)c4nc(c(-c5c(F)cccc5F)c5ccc2[nH]5)C=C4)C=C3)cc1
REMARK SMILES IDX 22 1 23 2 24 3 21 5 20 6 19 7 3 8 4 9 5 10 18 11 17 12 2 13
REMARK SMILES IDX 1 14 6 15 7 16 8 17 9 18 10 20 11 21 12 22 16 23 13 24 15 25
REMARK SMILES IDX 14 26 25 27 26 28 27 29 28 30 29 31 30 33 31 34 32 35 84 36
REMARK SMILES IDX 33 37 83 38 34 39 35 40 36 41 77 42 37 43 82 44 76 45 78 46
REMARK SMILES IDX 38 47 81 48 75 49 74 50 39 52 65 53 48 54 64 55 49 56 52 57
REMARK SMILES IDX 63 58 79 59 50 60 51 61 62 63 80 64 53 65 40 66 41 67 46 68
REMARK SMILES IDX 42 69 43 70 45 71 47 72 44 73 66 74 67 75 72 76 68 77 69 78
REMARK SMILES IDX 71 79 73 80 70 81 54 82 55 83 60 84 56 85 57 86 59 87 61 88
REMARK SMILES IDX 58 89
REMARK H PARENT 24 4 8 19 28 32 78 51 52 62
REMARK Flexibility Score: inf
ROOT
ATOM      1  C   UNL A   1      43.169  23.723  35.377  1.00  0.00     0.257 C 
ATOM      2  O   UNL A   1      42.086  24.136  35.796  1.00  0.00    -0.271 OA
ATOM      3  N   UNL A   1      44.099  23.340  36.301  1.00  0.00    -0.353 N 
ATOM      4  H   UNL A   1      43.909  23.599  37.231  1.00  0.00     0.163 HD
ENDROOT
BRANCH   1   5
ATOM      5  C   UNL A   1      43.466  23.565  33.880  1.00  0.00     0.329 C 
BRANCH   5   6
ATOM      6  O   UNL A   1      44.323  24.525  33.283  1.00  0.00    -0.480 OA
BRANCH   6   7
ATOM      7  C   UNL A   1      44.602  24.458  31.946  1.00  0.00     0.161 A 
ATOM      8  C   UNL A   1      45.476  25.255  31.195  1.00  0.00     0.161 A 
ATOM      9  C   UNL A   1      45.591  25.056  29.810  1.00  0.00     0.060 A 
ATOM     10  C   UNL A   1      44.867  24.037  29.185  1.00  0.00    -0.002 A 
ATOM     11  C   UNL A   1      43.862  23.460  31.292  1.00  0.00     0.051 A 
ATOM     12  C   UNL A   1      44.006  23.229  29.925  1.00  0.00     0.014 A 
BRANCH   8  13
ATOM     13  O   UNL A   1      46.112  26.316  31.780  1.00  0.00    -0.493 OA
ATOM     14  C   UNL A   1      47.438  26.009  32.216  1.00  0.00     0.278 C 
ENDBRANCH   8  13
BRANCH  10  15
ATOM     15  C   UNL A   1      44.910  23.847  27.724  1.00  0.00     0.141 C 
ATOM     16  N   UNL A   1      43.969  24.300  26.959  1.00  0.00    -0.180 NA
BRANCH  16  17
ATOM     17  N   UNL A   1      43.990  23.950  25.638  1.00  0.00    -0.243 N 
ATOM     18  C   UNL A   1      43.385  22.884  24.990  1.00  0.00     0.272 C 
ATOM     19  H   UNL A   1      44.514  24.547  25.057  1.00  0.00     0.194 HD
ATOM     20  O   UNL A   1      43.562  22.705  23.785  1.00  0.00    -0.267 OA
BRANCH  18  21
ATOM     21  C   UNL A   1      42.520  21.939  25.719  1.00  0.00     0.059 A 
ATOM     22  C   UNL A   1      41.312  22.306  26.314  1.00  0.00     0.017 A 
ATOM     23  C   UNL A   1      42.942  20.622  25.841  1.00  0.00     0.124 A 
ATOM     24  C   UNL A   1      40.614  21.362  27.065  1.00  0.00     0.021 A 
ATOM     25  N   UNL A   1      42.284  19.689  26.571  1.00  0.00    -0.264 NA
ATOM     26  C   UNL A   1      41.138  20.083  27.171  1.00  0.00     0.111 A 
ENDBRANCH  18  21
ENDBRANCH  16  17
ENDBRANCH  10  15
ENDBRANCH   6   7
ENDBRANCH   5   6
ENDBRANCH   1   5
BRANCH   3  27
ATOM     27  C   UNL A   1      45.329  22.604  36.091  1.00  0.00     0.117 C 
BRANCH  27  28
ATOM     28  C   UNL A   1      46.567  23.354  36.566  1.00  0.00     0.042 C 
BRANCH  28  29
ATOM     29  C   UNL A   1      46.964  24.553  35.711  1.00  0.00     0.118 C 
BRANCH  29  30
ATOM     30  N   UNL A   1      47.547  25.640  36.483  1.00  0.00    -0.352 N 
ATOM     31  C   UNL A   1      47.275  26.984  36.503  1.00  0.00     0.251 C 
ATOM     32  H   UNL A   1      48.263  25.361  37.100  1.00  0.00     0.163 HD
ATOM     33  O   UNL A   1      48.024  27.737  37.119  1.00  0.00    -0.269 OA
BRANCH  31  34
ATOM     34  C   UNL A   1      46.113  27.543  35.777  1.00  0.00     0.039 A 
ATOM     35  C   UNL A   1      44.840  27.051  36.082  1.00  0.00     0.014 A 
ATOM     36  C   UNL A   1      46.260  28.507  34.777  1.00  0.00     0.014 A 
ATOM     37  C   UNL A   1      43.718  27.568  35.428  1.00  0.00     0.010 A 
ATOM     38  C   UNL A   1      45.135  29.087  34.195  1.00  0.00     0.010 A 
ATOM     39  C   UNL A   1      43.852  28.618  34.505  1.00  0.00    -0.014 A 
BRANCH  39  40
ATOM     40  C   UNL A   1      42.652  29.223  33.868  1.00  0.00     0.031 A 
ATOM     41  C   UNL A   1      41.880  30.313  34.561  1.00  0.00     0.074 A 
ATOM     42  C   UNL A   1      42.238  28.763  32.670  1.00  0.00     0.049 A 
ATOM     43  N   UNL A   1      40.824  30.969  34.147  1.00  0.00    -0.248 NA
ATOM     44  C   UNL A   1      42.333  30.701  35.906  1.00  0.00     0.031 C 
ATOM     45  C   UNL A   1      42.859  27.666  31.925  1.00  0.00     0.029 A 
ATOM     46  N   UNL A   1      41.201  29.164  31.866  1.00  0.00    -0.354 N 
ATOM     47  C   UNL A   1      40.485  31.834  35.179  1.00  0.00     0.074 A 
ATOM     48  C   UNL A   1      41.406  31.577  36.264  1.00  0.00     0.031 C 
ATOM     49  C   UNL A   1      42.217  27.510  30.756  1.00  0.00     0.029 A 
ATOM     50  C   UNL A   1      41.123  28.470  30.682  1.00  0.00     0.049 A 
ATOM     51  H   UNL A   1      40.572  29.880  32.114  1.00  0.00     0.167 HD
ATOM     52  C   UNL A   1      39.514  32.778  35.211  1.00  0.00     0.037 A 
ATOM     53  C   UNL A   1      40.269  28.600  29.649  1.00  0.00     0.037 A 
ATOM     54  C   UNL A   1      38.611  33.047  34.122  1.00  0.00     0.049 A 
ATOM     55  C   UNL A   1      39.211  29.667  29.701  1.00  0.00     0.074 A 
ATOM     56  C   UNL A   1      37.630  34.019  34.034  1.00  0.00     0.029 A 
ATOM     57  N   UNL A   1      38.575  32.336  32.931  1.00  0.00    -0.354 N 
ATOM     58  N   UNL A   1      38.957  30.534  30.651  1.00  0.00    -0.248 NA
ATOM     59  C   UNL A   1      38.332  29.782  28.530  1.00  0.00     0.031 C 
ATOM     60  C   UNL A   1      36.970  33.867  32.809  1.00  0.00     0.029 A 
ATOM     61  C   UNL A   1      37.579  32.837  32.109  1.00  0.00     0.049 A 
ATOM     62  H   UNL A   1      39.171  31.587  32.703  1.00  0.00     0.167 HD
ATOM     63  C   UNL A   1      37.913  31.320  30.179  1.00  0.00     0.074 A 
ATOM     64  C   UNL A   1      37.594  30.835  28.851  1.00  0.00     0.031 C 
ATOM     65  C   UNL A   1      37.277  32.350  30.788  1.00  0.00     0.037 A 
BRANCH  52  66
ATOM     66  C   UNL A   1      39.384  33.598  36.465  1.00  0.00     0.057 A 
ATOM     67  C   UNL A   1      40.010  34.844  36.602  1.00  0.00     0.134 A 
ATOM     68  C   UNL A   1      38.597  33.152  37.535  1.00  0.00     0.134 A 
ATOM     69  F   UNL A   1      40.787  35.327  35.621  1.00  0.00    -0.206 F 
ATOM     70  C   UNL A   1      39.883  35.602  37.768  1.00  0.00     0.040 A 
ATOM     71  C   UNL A   1      38.438  33.915  38.693  1.00  0.00     0.040 A 
ATOM     72  F   UNL A   1      37.963  31.971  37.469  1.00  0.00    -0.206 F 
ATOM     73  C   UNL A   1      39.089  35.141  38.815  1.00  0.00     0.006 A 
ENDBRANCH  52  66
BRANCH  53  74
ATOM     74  C   UNL A   1      40.407  27.725  28.457  1.00  0.00     0.057 A 
ATOM     75  C   UNL A   1      39.776  26.476  28.399  1.00  0.00     0.134 A 
ATOM     76  C   UNL A   1      41.176  28.109  27.352  1.00  0.00     0.134 A 
ATOM     77  F   UNL A   1      39.038  26.045  29.433  1.00  0.00    -0.206 F 
ATOM     78  C   UNL A   1      39.924  25.631  27.298  1.00  0.00     0.040 A 
ATOM     79  C   UNL A   1      41.310  27.286  26.232  1.00  0.00     0.040 A 
ATOM     80  F   UNL A   1      41.796  29.298  27.338  1.00  0.00    -0.206 F 
ATOM     81  C   UNL A   1      40.690  26.039  26.208  1.00  0.00     0.006 A 
ENDBRANCH  53  74
BRANCH  65  82
ATOM     82  C   UNL A   1      36.205  33.052  30.005  1.00  0.00     0.057 A 
ATOM     83  C   UNL A   1      34.842  32.839  30.249  1.00  0.00     0.134 A 
ATOM     84  C   UNL A   1      36.544  33.968  29.000  1.00  0.00     0.134 A 
ATOM     85  F   UNL A   1      34.449  31.966  31.190  1.00  0.00    -0.206 F 
ATOM     86  C   UNL A   1      33.857  33.485  29.501  1.00  0.00     0.040 A 
ATOM     87  C   UNL A   1      35.568  34.643  28.266  1.00  0.00     0.040 A 
ATOM     88  F   UNL A   1      37.831  34.228  28.721  1.00  0.00    -0.206 F 
ATOM     89  C   UNL A   1      34.220  34.395  28.509  1.00  0.00     0.006 A 
ENDBRANCH  65  82
ENDBRANCH  39  40
ENDBRANCH  31  34
ENDBRANCH  29  30
ENDBRANCH  28  29
ENDBRANCH  27  28
ENDBRANCH   3  27
TORSDOF 16
ENDMDL
MODEL 3
REMARK VINA RESULT:      -9.3      4.554     10.892
REMARK SMILES COc1cc(/C=N/NC(=O)c2cccnc2)ccc1OCC(=O)NCCCNC(=O)c1ccc(-c2c3nc(c(-c4c(F)cccc4F)c4ccc([nH]4)c(-c4c(F)cccc4F)c4nc(c(-c5c(F)cccc5F)c5ccc2[nH]5)C=C4)C=C3)cc1
REMARK SMILES IDX 22 1 23 2 24 3 21 5 20 6 19 7 3 8 4 9 5 10 18 11 17 12 2 13
REMARK SMILES IDX 1 14 6 15 7 16 8 17 9 18 10 20 11 21 12 22 16 23 13 24 15 25
REMARK SMILES IDX 14 26 25 27 26 28 27 29 28 30 29 31 30 33 31 34 32 35 84 36
REMARK SMILES IDX 33 37 83 38 34 39 35 40 36 41 77 42 37 43 82 44 76 45 78 46
REMARK SMILES IDX 38 47 81 48 75 49 74 50 39 52 65 53 48 54 64 55 49 56 52 57
REMARK SMILES IDX 63 58 79 59 50 60 51 61 62 63 80 64 53 65 40 66 41 67 46 68
REMARK SMILES IDX 42 69 43 70 45 71 47 72 44 73 66 74 67 75 72 76 68 77 69 78
REMARK SMILES IDX 71 79 73 80 70 81 54 82 55 83 60 84 56 85 57 86 59 87 61 88
REMARK SMILES IDX 58 89
REMARK H PARENT 24 4 8 19 28 32 78 51 52 62
REMARK Flexibility Score: inf
ROOT
ATOM      1  C   UNL A   1      35.481  22.396  26.043  1.00  0.00     0.257 C 
ATOM      2  O   UNL A   1      35.773  23.582  26.199  1.00  0.00    -0.271 OA
ATOM      3  N   UNL A   1      36.231  21.672  25.161  1.00  0.00    -0.353 N 
ATOM      4  H   UNL A   1      36.825  22.194  24.575  1.00  0.00     0.163 HD
ENDROOT
BRANCH   1   5
ATOM      5  C   UNL A   1      34.370  21.708  26.849  1.00  0.00     0.329 C 
BRANCH   5   6
ATOM      6  O   UNL A   1      33.159  21.421  26.169  1.00  0.00    -0.480 OA
BRANCH   6   7
ATOM      7  C   UNL A   1      32.386  22.440  25.685  1.00  0.00     0.161 A 
ATOM      8  C   UNL A   1      32.154  22.802  24.352  1.00  0.00     0.161 A 
ATOM      9  C   UNL A   1      31.357  23.920  24.057  1.00  0.00     0.060 A 
ATOM     10  C   UNL A   1      30.762  24.648  25.092  1.00  0.00    -0.002 A 
ATOM     11  C   UNL A   1      31.802  23.204  26.708  1.00  0.00     0.051 A 
ATOM     12  C   UNL A   1      30.974  24.288  26.420  1.00  0.00     0.014 A 
BRANCH   8  13
ATOM     13  O   UNL A   1      32.810  22.157  23.340  1.00  0.00    -0.493 OA
ATOM     14  C   UNL A   1      33.824  22.953  22.725  1.00  0.00     0.278 C 
ENDBRANCH   8  13
BRANCH  10  15
ATOM     15  C   UNL A   1      29.978  25.868  24.822  1.00  0.00     0.141 C 
ATOM     16  N   UNL A   1      29.589  26.164  23.623  1.00  0.00    -0.180 NA
BRANCH  16  17
ATOM     17  N   UNL A   1      29.008  27.386  23.419  1.00  0.00    -0.243 N 
ATOM     18  C   UNL A   1      29.575  28.650  23.414  1.00  0.00     0.272 C 
ATOM     19  H   UNL A   1      28.039  27.363  23.249  1.00  0.00     0.194 HD
ATOM     20  O   UNL A   1      28.873  29.648  23.258  1.00  0.00    -0.267 OA
BRANCH  18  21
ATOM     21  C   UNL A   1      31.026  28.837  23.596  1.00  0.00     0.059 A 
ATOM     22  C   UNL A   1      31.969  28.530  22.614  1.00  0.00     0.017 A 
ATOM     23  C   UNL A   1      31.479  29.320  24.816  1.00  0.00     0.124 A 
ATOM     24  C   UNL A   1      33.325  28.648  22.916  1.00  0.00     0.021 A 
ATOM     25  N   UNL A   1      32.791  29.438  25.135  1.00  0.00    -0.264 NA
ATOM     26  C   UNL A   1      33.683  29.093  24.179  1.00  0.00     0.111 A 
ENDBRANCH  18  21
ENDBRANCH  16  17
ENDBRANCH  10  15
ENDBRANCH   6   7
ENDBRANCH   5   6
ENDBRANCH   1   5
BRANCH   3  27
ATOM     27  C   UNL A   1      36.266  20.236  24.972  1.00  0.00     0.117 C 
BRANCH  27  28
ATOM     28  C   UNL A   1      37.666  19.701  24.696  1.00  0.00     0.042 C 
BRANCH  28  29
ATOM     29  C   UNL A   1      38.742  20.171  25.669  1.00  0.00     0.118 C 
BRANCH  29  30
ATOM     30  N   UNL A   1      39.895  19.286  25.721  1.00  0.00    -0.352 N 
ATOM     31  C   UNL A   1      41.206  19.526  26.042  1.00  0.00     0.251 C 
ATOM     32  H   UNL A   1      39.699  18.350  25.485  1.00  0.00     0.163 HD
ATOM     33  O   UNL A   1      42.041  18.647  25.848  1.00  0.00    -0.269 OA
BRANCH  31  34
ATOM     34  C   UNL A   1      41.636  20.830  26.595  1.00  0.00     0.039 A 
ATOM     35  C   UNL A   1      42.167  21.781  25.718  1.00  0.00     0.014 A 
ATOM     36  C   UNL A   1      41.564  21.112  27.961  1.00  0.00     0.014 A 
ATOM     37  C   UNL A   1      42.567  23.029  26.203  1.00  0.00     0.010 A 
ATOM     38  C   UNL A   1      41.875  22.389  28.428  1.00  0.00     0.010 A 
ATOM     39  C   UNL A   1      42.389  23.358  27.557  1.00  0.00    -0.014 A 
BRANCH  39  40
ATOM     40  C   UNL A   1      42.741  24.713  28.059  1.00  0.00     0.031 A 
ATOM     41  C   UNL A   1      44.178  25.101  28.285  1.00  0.00     0.074 A 
ATOM     42  C   UNL A   1      41.756  25.588  28.345  1.00  0.00     0.049 A 
ATOM     43  N   UNL A   1      44.670  26.243  28.698  1.00  0.00    -0.248 NA
ATOM     44  C   UNL A   1      45.195  24.066  28.041  1.00  0.00     0.031 C 
ATOM     45  C   UNL A   1      40.322  25.312  28.234  1.00  0.00     0.029 A 
ATOM     46  N   UNL A   1      41.811  26.888  28.781  1.00  0.00    -0.354 N 
ATOM     47  C   UNL A   1      46.045  26.060  28.771  1.00  0.00     0.074 A 
ATOM     48  C   UNL A   1      46.305  24.680  28.423  1.00  0.00     0.031 C 
ATOM     49  C   UNL A   1      39.636  26.421  28.552  1.00  0.00     0.029 A 
ATOM     50  C   UNL A   1      40.575  27.474  28.920  1.00  0.00     0.049 A 
ATOM     51  H   UNL A   1      42.654  27.356  28.977  1.00  0.00     0.167 HD
ATOM     52  C   UNL A   1      47.007  26.965  29.072  1.00  0.00     0.037 A 
ATOM     53  C   UNL A   1      40.238  28.723  29.293  1.00  0.00     0.037 A 
ATOM     54  C   UNL A   1      46.748  28.343  29.399  1.00  0.00     0.049 A 
ATOM     55  C   UNL A   1      41.325  29.713  29.606  1.00  0.00     0.074 A 
ATOM     56  C   UNL A   1      47.656  29.352  29.664  1.00  0.00     0.029 A 
ATOM     57  N   UNL A   1      45.484  28.904  29.510  1.00  0.00    -0.354 N 
ATOM     58  N   UNL A   1      42.626  29.547  29.589  1.00  0.00    -0.248 NA
ATOM     59  C   UNL A   1      40.896  31.069  29.973  1.00  0.00     0.031 C 
ATOM     60  C   UNL A   1      46.942  30.513  29.982  1.00  0.00     0.029 A 
ATOM     61  C   UNL A   1      45.588  30.241  29.856  1.00  0.00     0.049 A 
ATOM     62  H   UNL A   1      44.638  28.423  29.364  1.00  0.00     0.167 HD
ATOM     63  C   UNL A   1      43.171  30.784  29.909  1.00  0.00     0.074 A 
ATOM     64  C   UNL A   1      42.058  31.693  30.098  1.00  0.00     0.031 C 
ATOM     65  C   UNL A   1      44.473  31.136  30.034  1.00  0.00     0.037 A 
BRANCH  52  66
ATOM     66  C   UNL A   1      48.434  26.491  29.054  1.00  0.00     0.057 A 
ATOM     67  C   UNL A   1      49.048  25.948  30.192  1.00  0.00     0.134 A 
ATOM     68  C   UNL A   1      49.194  26.546  27.879  1.00  0.00     0.134 A 
ATOM     69  F   UNL A   1      48.382  25.875  31.354  1.00  0.00    -0.206 F 
ATOM     70  C   UNL A   1      50.372  25.506  30.169  1.00  0.00     0.040 A 
ATOM     71  C   UNL A   1      50.509  26.080  27.835  1.00  0.00     0.040 A 
ATOM     72  F   UNL A   1      48.668  27.047  26.751  1.00  0.00    -0.206 F 
ATOM     73  C   UNL A   1      51.105  25.565  28.985  1.00  0.00     0.006 A 
ENDBRANCH  52  66
BRANCH  53  74
ATOM     74  C   UNL A   1      38.808  29.121  29.349  1.00  0.00     0.057 A 
ATOM     75  C   UNL A   1      38.154  29.629  28.220  1.00  0.00     0.134 A 
ATOM     76  C   UNL A   1      38.064  29.014  30.530  1.00  0.00     0.134 A 
ATOM     77  F   UNL A   1      38.817  29.771  27.063  1.00  0.00    -0.206 F 
ATOM     78  C   UNL A   1      36.820  30.037  28.270  1.00  0.00     0.040 A 
ATOM     79  C   UNL A   1      36.722  29.391  30.586  1.00  0.00     0.040 A 
ATOM     80  F   UNL A   1      38.629  28.523  31.644  1.00  0.00    -0.206 F 
ATOM     81  C   UNL A   1      36.099  29.913  29.455  1.00  0.00     0.006 A 
ENDBRANCH  53  74
BRANCH  65  82
ATOM     82  C   UNL A   1      44.767  32.575  30.345  1.00  0.00     0.057 A 
ATOM     83  C   UNL A   1      44.907  33.542  29.341  1.00  0.00     0.134 A 
ATOM     84  C   UNL A   1      44.896  33.003  31.674  1.00  0.00     0.134 A 
ATOM     85  F   UNL A   1      44.807  33.198  28.048  1.00  0.00    -0.206 F 
ATOM     86  C   UNL A   1      45.199  34.873  29.644  1.00  0.00     0.040 A 
ATOM     87  C   UNL A   1      45.157  34.336  31.990  1.00  0.00     0.040 A 
ATOM     88  F   UNL A   1      44.763  32.132  32.686  1.00  0.00    -0.206 F 
ATOM     89  C   UNL A   1      45.319  35.274  30.974  1.00  0.00     0.006 A 
ENDBRANCH  65  82
ENDBRANCH  39  40
ENDBRANCH  31  34
ENDBRANCH  29  30
ENDBRANCH  28  29
ENDBRANCH  27  28
ENDBRANCH   3  27
TORSDOF 16
ENDMDL
