MODEL 1
REMARK VINA RESULT:     -13.4      0.000      0.000
REMARK SMILES CC(C)[C@H](NC(=O)N1c2ccccc2[NH+]=C(NCCCNC(=O)c2ccc(-c3c4nc(c(-c5c(F)cccc5F)c5ccc([nH]5)c(-c5c(F)cccc5F)c5nc(c(-c6c(F)cccc6F)c6ccc3[nH]6)C=C5)C=C4)cc2)[C@@H]1C(C)C)C(=O)N1CCC(C(=O)[O-])CC1
REMARK SMILES IDX 18 1 17 2 8 3 9 4 78 5 10 6 14 7 16 8 11 9 13 10 15 11 12 12
REMARK SMILES IDX 6 15 5 16 7 18 4 19 2 20 1 21 3 22 82 23 83 24 84 25 85 26
REMARK SMILES IDX 92 27 86 28 91 29 87 30 88 31 89 32 90 33 79 34 80 35 81 36
REMARK SMILES IDX 19 37 20 38 21 39 22 40 23 42 24 43 25 44 77 45 26 46 76 47
REMARK SMILES IDX 27 48 28 49 29 50 70 51 30 52 75 53 69 54 71 55 31 56 74 57
REMARK SMILES IDX 68 58 67 59 32 61 58 62 41 63 57 64 42 65 45 66 56 67 72 68
REMARK SMILES IDX 43 69 44 70 55 72 73 73 46 74 33 75 34 76 39 77 35 78 36 79
REMARK SMILES IDX 38 80 40 81 37 82 59 83 60 84 65 85 61 86 62 87 64 88 66 89
REMARK SMILES IDX 63 90 47 91 48 92 53 93 49 94 50 95 52 96 54 97 51 98
REMARK H PARENT 15 13 17 14 5 17 21 41 71 60 45 71
REMARK Flexibility Score: inf
ROOT
ATOM      1  C   UNL A   1      33.084  31.482  27.702  1.00  0.00     0.235 C 
ENDROOT
BRANCH   1   2
ATOM      2  N   UNL A   1      32.321  31.679  26.496  1.00  0.00    -0.276 N 
ATOM      3  N   UNL A   1      31.445  29.125  24.114  1.00  0.00    -0.275 N 
ATOM      4  C   UNL A   1      30.206  29.652  23.613  1.00  0.00     0.093 A 
ATOM      5  C   UNL A   1      31.536  29.292  25.598  1.00  0.00     0.208 C 
ATOM      6  C   UNL A   1      29.505  29.072  22.551  1.00  0.00     0.031 A 
ATOM      7  C   UNL A   1      29.782  30.881  24.162  1.00  0.00     0.148 A 
ATOM      8  C   UNL A   1      31.477  30.866  25.769  1.00  0.00     0.271 C 
ATOM      9  C   UNL A   1      28.405  29.735  22.005  1.00  0.00     0.002 A 
ATOM     10  C   UNL A   1      28.701  31.547  23.583  1.00  0.00     0.054 A 
ATOM     11  N   UNL A   1      30.567  31.560  25.117  1.00  0.00    -0.241 N 
ATOM     12  C   UNL A   1      28.019  30.980  22.504  1.00  0.00     0.005 A 
ATOM     13  H   UNL A   1      30.440  32.520  25.290  1.00  0.00     0.312 HD
ATOM     14  H   UNL A   1      32.423  32.579  26.112  1.00  0.00     0.304 HD
BRANCH   3  15
ATOM     15  C   UNL A   1      32.154  28.243  23.364  1.00  0.00     0.323 C 
ATOM     16  N   UNL A   1      31.766  26.939  23.313  1.00  0.00    -0.326 N 
ATOM     17  H   UNL A   1      31.919  26.554  22.421  1.00  0.00     0.166 HD
ATOM     18  O   UNL A   1      33.105  28.571  22.654  1.00  0.00    -0.248 OA
BRANCH  16  19
ATOM     19  C   UNL A   1      31.176  25.944  24.241  1.00  0.00     0.175 C 
BRANCH  19  20
ATOM     20  C   UNL A   1      29.859  26.255  25.010  1.00  0.00     0.015 C 
ATOM     21  C   UNL A   1      28.550  26.344  24.220  1.00  0.00     0.010 C 
ATOM     22  C   UNL A   1      29.657  25.223  26.131  1.00  0.00     0.010 C 
ENDBRANCH  19  20
BRANCH  19  23
ATOM     23  C   UNL A   1      31.134  24.484  23.710  1.00  0.00     0.245 C 
ATOM     24  O   UNL A   1      30.233  24.163  22.926  1.00  0.00    -0.272 OA
ATOM     25  N   UNL A   1      32.261  23.688  23.850  1.00  0.00    -0.341 N 
ATOM     26  C   UNL A   1      32.666  22.865  22.715  1.00  0.00     0.120 C 
ATOM     27  C   UNL A   1      33.052  23.518  25.061  1.00  0.00     0.120 C 
ATOM     28  C   UNL A   1      32.625  21.391  23.060  1.00  0.00     0.031 C 
ATOM     29  C   UNL A   1      33.041  22.044  25.480  1.00  0.00     0.031 C 
ATOM     30  C   UNL A   1      33.443  21.118  24.325  1.00  0.00     0.038 C 
BRANCH  30  31
ATOM     31  C   UNL A   1      33.310  19.667  24.715  1.00  0.00     0.045 C 
ATOM     32  O   UNL A   1      34.190  18.832  24.648  1.00  0.00    -0.550 OA
ATOM     33  O   UNL A   1      32.085  19.339  25.164  1.00  0.00    -0.550 OA
ENDBRANCH  30  31
ENDBRANCH  19  23
ENDBRANCH  16  19
ENDBRANCH   3  15
BRANCH   5  34
ATOM     34  C   UNL A   1      32.627  28.577  26.444  1.00  0.00     0.018 C 
ATOM     35  C   UNL A   1      31.918  27.847  27.618  1.00  0.00     0.010 C 
ATOM     36  C   UNL A   1      33.519  27.511  25.813  1.00  0.00     0.010 C 
ENDBRANCH   5  34
ENDBRANCH   1   2
BRANCH   1  37
ATOM     37  C   UNL A   1      34.423  32.196  27.635  1.00  0.00     0.067 C 
BRANCH  37  38
ATOM     38  C   UNL A   1      35.581  31.345  28.121  1.00  0.00     0.120 C 
BRANCH  38  39
ATOM     39  N   UNL A   1      35.514  31.074  29.555  1.00  0.00    -0.352 N 
ATOM     40  C   UNL A   1      36.313  30.313  30.376  1.00  0.00     0.251 C 
ATOM     41  H   UNL A   1      34.764  31.514  30.017  1.00  0.00     0.163 HD
ATOM     42  O   UNL A   1      35.933  30.048  31.513  1.00  0.00    -0.269 OA
BRANCH  40  43
ATOM     43  C   UNL A   1      37.611  29.795  29.895  1.00  0.00     0.039 A 
ATOM     44  C   UNL A   1      37.926  29.886  28.536  1.00  0.00     0.014 A 
ATOM     45  C   UNL A   1      38.514  29.203  30.776  1.00  0.00     0.014 A 
ATOM     46  C   UNL A   1      39.179  29.462  28.084  1.00  0.00     0.010 A 
ATOM     47  C   UNL A   1      39.802  28.908  30.352  1.00  0.00     0.010 A 
ATOM     48  C   UNL A   1      40.147  29.018  28.999  1.00  0.00    -0.014 A 
BRANCH  48  49
ATOM     49  C   UNL A   1      41.517  28.640  28.571  1.00  0.00     0.031 A 
ATOM     50  C   UNL A   1      41.812  27.223  28.155  1.00  0.00     0.074 A 
ATOM     51  C   UNL A   1      42.513  29.546  28.640  1.00  0.00     0.049 A 
ATOM     52  N   UNL A   1      42.958  26.670  27.850  1.00  0.00    -0.248 NA
ATOM     53  C   UNL A   1      40.672  26.292  28.114  1.00  0.00     0.031 C 
ATOM     54  C   UNL A   1      42.368  30.934  29.088  1.00  0.00     0.029 A 
ATOM     55  N   UNL A   1      43.848  29.432  28.347  1.00  0.00    -0.354 N 
ATOM     56  C   UNL A   1      42.678  25.330  27.611  1.00  0.00     0.074 A 
ATOM     57  C   UNL A   1      41.270  25.136  27.870  1.00  0.00     0.031 C 
ATOM     58  C   UNL A   1      43.559  31.549  29.009  1.00  0.00     0.029 A 
ATOM     59  C   UNL A   1      44.560  30.590  28.554  1.00  0.00     0.049 A 
ATOM     60  H   UNL A   1      44.259  28.599  28.019  1.00  0.00     0.167 HD
ATOM     61  C   UNL A   1      43.513  24.355  27.182  1.00  0.00     0.037 A 
ATOM     62  C   UNL A   1      45.873  30.845  28.403  1.00  0.00     0.037 A 
ATOM     63  C   UNL A   1      44.905  24.562  26.888  1.00  0.00     0.049 A 
ATOM     64  C   UNL A   1      46.780  29.745  27.923  1.00  0.00     0.074 A 
ATOM     65  C   UNL A   1      45.822  23.660  26.379  1.00  0.00     0.029 A 
ATOM     66  N   UNL A   1      45.583  25.757  27.083  1.00  0.00    -0.354 N 
ATOM     67  N   UNL A   1      46.485  28.503  27.622  1.00  0.00    -0.248 NA
ATOM     68  C   UNL A   1      48.199  30.083  27.757  1.00  0.00     0.031 C 
ATOM     69  C   UNL A   1      47.067  24.294  26.315  1.00  0.00     0.029 A 
ATOM     70  C   UNL A   1      46.912  25.608  26.727  1.00  0.00     0.049 A 
ATOM     71  H   UNL A   1      45.178  26.588  27.422  1.00  0.00     0.167 HD
ATOM     72  C   UNL A   1      47.674  27.921  27.200  1.00  0.00     0.074 A 
ATOM     73  C   UNL A   1      48.690  28.951  27.270  1.00  0.00     0.031 C 
ATOM     74  C   UNL A   1      47.906  26.650  26.792  1.00  0.00     0.037 A 
BRANCH  61  75
ATOM     75  C   UNL A   1      42.940  22.977  27.000  1.00  0.00     0.057 A 
ATOM     76  C   UNL A   1      42.683  22.441  25.730  1.00  0.00     0.134 A 
ATOM     77  C   UNL A   1      42.670  22.164  28.107  1.00  0.00     0.134 A 
ATOM     78  F   UNL A   1      42.905  23.171  24.626  1.00  0.00    -0.206 F 
ATOM     79  C   UNL A   1      42.151  21.161  25.571  1.00  0.00     0.040 A 
ATOM     80  C   UNL A   1      42.169  20.869  27.959  1.00  0.00     0.040 A 
ATOM     81  F   UNL A   1      42.897  22.609  29.353  1.00  0.00    -0.206 F 
ATOM     82  C   UNL A   1      41.900  20.367  26.688  1.00  0.00     0.006 A 
ENDBRANCH  61  75
BRANCH  62  83
ATOM     83  C   UNL A   1      46.410  32.201  28.689  1.00  0.00     0.057 A 
ATOM     84  C   UNL A   1      46.894  32.535  29.959  1.00  0.00     0.134 A 
ATOM     85  C   UNL A   1      46.436  33.200  27.709  1.00  0.00     0.134 A 
ATOM     86  F   UNL A   1      46.880  31.627  30.946  1.00  0.00    -0.206 F 
ATOM     87  C   UNL A   1      47.359  33.818  30.253  1.00  0.00     0.040 A 
ATOM     88  C   UNL A   1      46.926  34.479  27.980  1.00  0.00     0.040 A 
ATOM     89  F   UNL A   1      45.998  32.943  26.468  1.00  0.00    -0.206 F 
ATOM     90  C   UNL A   1      47.379  34.794  29.259  1.00  0.00     0.006 A 
ENDBRANCH  62  83
BRANCH  74  91
ATOM     91  C   UNL A   1      49.300  26.313  26.348  1.00  0.00     0.057 A 
ATOM     92  C   UNL A   1      49.779  26.656  25.077  1.00  0.00     0.134 A 
ATOM     93  C   UNL A   1      50.187  25.671  27.222  1.00  0.00     0.134 A 
ATOM     94  F   UNL A   1      48.977  27.262  24.189  1.00  0.00    -0.206 F 
ATOM     95  C   UNL A   1      51.083  26.351  24.683  1.00  0.00     0.040 A 
ATOM     96  C   UNL A   1      51.502  25.388  26.851  1.00  0.00     0.040 A 
ATOM     97  F   UNL A   1      49.796  25.322  28.457  1.00  0.00    -0.206 F 
ATOM     98  C   UNL A   1      51.950  25.722  25.575  1.00  0.00     0.006 A 
ENDBRANCH  74  91
ENDBRANCH  48  49
ENDBRANCH  40  43
ENDBRANCH  38  39
ENDBRANCH  37  38
ENDBRANCH   1  37
TORSDOF 15
ENDMDL
MODEL 2
REMARK VINA RESULT:     -13.2      2.779      9.007
REMARK SMILES CC(C)[C@H](NC(=O)N1c2ccccc2[NH+]=C(NCCCNC(=O)c2ccc(-c3c4nc(c(-c5c(F)cccc5F)c5ccc([nH]5)c(-c5c(F)cccc5F)c5nc(c(-c6c(F)cccc6F)c6ccc3[nH]6)C=C5)C=C4)cc2)[C@@H]1C(C)C)C(=O)N1CCC(C(=O)[O-])CC1
REMARK SMILES IDX 18 1 17 2 8 3 9 4 78 5 10 6 14 7 16 8 11 9 13 10 15 11 12 12
REMARK SMILES IDX 6 15 5 16 7 18 4 19 2 20 1 21 3 22 82 23 83 24 84 25 85 26
REMARK SMILES IDX 92 27 86 28 91 29 87 30 88 31 89 32 90 33 79 34 80 35 81 36
REMARK SMILES IDX 19 37 20 38 21 39 22 40 23 42 24 43 25 44 77 45 26 46 76 47
REMARK SMILES IDX 27 48 28 49 29 50 70 51 30 52 75 53 69 54 71 55 31 56 74 57
REMARK SMILES IDX 68 58 67 59 32 61 58 62 41 63 57 64 42 65 45 66 56 67 72 68
REMARK SMILES IDX 43 69 44 70 55 72 73 73 46 74 33 75 34 76 39 77 35 78 36 79
REMARK SMILES IDX 38 80 40 81 37 82 59 83 60 84 65 85 61 86 62 87 64 88 66 89
REMARK SMILES IDX 63 90 47 91 48 92 53 93 49 94 50 95 52 96 54 97 51 98
REMARK H PARENT 15 13 17 14 5 17 21 41 71 60 45 71
REMARK Flexibility Score: inf
ROOT
ATOM      1  C   UNL A   1      39.073  21.403  25.389  1.00  0.00     0.235 C 
ENDROOT
BRANCH   1   2
ATOM      2  N   UNL A   1      38.055  20.396  25.552  1.00  0.00    -0.276 N 
ATOM      3  N   UNL A   1      34.501  20.942  25.373  1.00  0.00    -0.275 N 
ATOM      4  C   UNL A   1      34.067  19.659  24.891  1.00  0.00     0.093 A 
ATOM      5  C   UNL A   1      35.742  21.386  24.665  1.00  0.00     0.208 C 
ATOM      6  C   UNL A   1      32.719  19.311  24.762  1.00  0.00     0.031 A 
ATOM      7  C   UNL A   1      35.077  18.699  24.671  1.00  0.00     0.148 A 
ATOM      8  C   UNL A   1      36.779  20.252  25.050  1.00  0.00     0.271 C 
ATOM      9  C   UNL A   1      32.372  17.994  24.455  1.00  0.00     0.002 A 
ATOM     10  C   UNL A   1      34.712  17.380  24.399  1.00  0.00     0.054 A 
ATOM     11  N   UNL A   1      36.428  18.987  24.957  1.00  0.00    -0.241 N 
ATOM     12  C   UNL A   1      33.365  17.026  24.298  1.00  0.00     0.005 A 
ATOM     13  H   UNL A   1      37.086  18.266  25.084  1.00  0.00     0.312 HD
ATOM     14  H   UNL A   1      38.327  19.659  26.145  1.00  0.00     0.304 HD
BRANCH   3  15
ATOM     15  C   UNL A   1      33.629  21.742  26.036  1.00  0.00     0.323 C 
ATOM     16  N   UNL A   1      32.711  22.463  25.336  1.00  0.00    -0.326 N 
ATOM     17  H   UNL A   1      31.857  22.526  25.822  1.00  0.00     0.166 HD
ATOM     18  O   UNL A   1      33.569  21.804  27.264  1.00  0.00    -0.248 OA
BRANCH  16  19
ATOM     19  C   UNL A   1      32.651  23.177  24.038  1.00  0.00     0.175 C 
BRANCH  19  20
ATOM     20  C   UNL A   1      33.008  22.448  22.710  1.00  0.00     0.015 C 
ATOM     21  C   UNL A   1      32.027  21.412  22.154  1.00  0.00     0.010 C 
ATOM     22  C   UNL A   1      33.267  23.484  21.604  1.00  0.00     0.010 C 
ENDBRANCH  19  20
BRANCH  19  23
ATOM     23  C   UNL A   1      31.390  24.060  23.823  1.00  0.00     0.245 C 
ATOM     24  O   UNL A   1      30.306  23.503  23.610  1.00  0.00    -0.272 OA
ATOM     25  N   UNL A   1      31.433  25.394  24.199  1.00  0.00    -0.341 N 
ATOM     26  C   UNL A   1      30.282  25.947  24.905  1.00  0.00     0.120 C 
ATOM     27  C   UNL A   1      32.491  26.345  23.883  1.00  0.00     0.120 C 
ATOM     28  C   UNL A   1      29.639  27.070  24.119  1.00  0.00     0.031 C 
ATOM     29  C   UNL A   1      31.912  27.507  23.068  1.00  0.00     0.031 C 
ATOM     30  C   UNL A   1      30.685  28.126  23.749  1.00  0.00     0.038 C 
BRANCH  30  31
ATOM     31  C   UNL A   1      30.054  29.186  22.879  1.00  0.00     0.045 C 
ATOM     32  O   UNL A   1      29.940  29.134  21.670  1.00  0.00    -0.550 OA
ATOM     33  O   UNL A   1      29.605  30.252  23.567  1.00  0.00    -0.550 OA
ENDBRANCH  30  31
ENDBRANCH  19  23
ENDBRANCH  16  19
ENDBRANCH   3  15
BRANCH   5  34
ATOM     34  C   UNL A   1      36.282  22.840  24.779  1.00  0.00     0.018 C 
ATOM     35  C   UNL A   1      36.608  23.341  23.345  1.00  0.00     0.010 C 
ATOM     36  C   UNL A   1      35.412  23.941  25.380  1.00  0.00     0.010 C 
ENDBRANCH   5  34
ENDBRANCH   1   2
BRANCH   1  37
ATOM     37  C   UNL A   1      40.044  21.407  26.558  1.00  0.00     0.067 C 
BRANCH  37  38
ATOM     38  C   UNL A   1      40.502  20.018  26.960  1.00  0.00     0.120 C 
BRANCH  38  39
ATOM     39  N   UNL A   1      41.650  19.558  26.181  1.00  0.00    -0.352 N 
ATOM     40  C   UNL A   1      42.748  20.229  25.696  1.00  0.00     0.251 C 
ATOM     41  H   UNL A   1      41.635  18.597  25.964  1.00  0.00     0.163 HD
ATOM     42  O   UNL A   1      43.475  19.681  24.873  1.00  0.00    -0.269 OA
BRANCH  40  43
ATOM     43  C   UNL A   1      43.047  21.606  26.141  1.00  0.00     0.039 A 
ATOM     44  C   UNL A   1      43.039  22.646  25.207  1.00  0.00     0.014 A 
ATOM     45  C   UNL A   1      43.355  21.875  27.474  1.00  0.00     0.014 A 
ATOM     46  C   UNL A   1      43.252  23.961  25.632  1.00  0.00     0.010 A 
ATOM     47  C   UNL A   1      43.433  23.188  27.914  1.00  0.00     0.010 A 
ATOM     48  C   UNL A   1      43.399  24.248  26.998  1.00  0.00    -0.014 A 
BRANCH  48  49
ATOM     49  C   UNL A   1      43.542  25.638  27.498  1.00  0.00     0.031 A 
ATOM     50  C   UNL A   1      44.913  26.225  27.709  1.00  0.00     0.074 A 
ATOM     51  C   UNL A   1      42.445  26.340  27.846  1.00  0.00     0.049 A 
ATOM     52  N   UNL A   1      45.251  27.375  28.235  1.00  0.00    -0.248 NA
ATOM     53  C   UNL A   1      46.061  25.390  27.314  1.00  0.00     0.031 C 
ATOM     54  C   UNL A   1      41.064  25.860  27.749  1.00  0.00     0.029 A 
ATOM     55  N   UNL A   1      42.319  27.604  28.363  1.00  0.00    -0.354 N 
ATOM     56  C   UNL A   1      46.640  27.386  28.255  1.00  0.00     0.074 A 
ATOM     57  C   UNL A   1      47.084  26.105  27.755  1.00  0.00     0.031 C 
ATOM     58  C   UNL A   1      40.231  26.827  28.162  1.00  0.00     0.029 A 
ATOM     59  C   UNL A   1      41.016  27.977  28.599  1.00  0.00     0.049 A 
ATOM     60  H   UNL A   1      43.088  28.190  28.548  1.00  0.00     0.167 HD
ATOM     61  C   UNL A   1      47.473  28.386  28.628  1.00  0.00     0.037 A 
ATOM     62  C   UNL A   1      40.515  29.113  29.117  1.00  0.00     0.037 A 
ATOM     63  C   UNL A   1      47.025  29.673  29.088  1.00  0.00     0.049 A 
ATOM     64  C   UNL A   1      41.460  30.210  29.522  1.00  0.00     0.074 A 
ATOM     65  C   UNL A   1      47.784  30.781  29.421  1.00  0.00     0.029 A 
ATOM     66  N   UNL A   1      45.697  30.022  29.285  1.00  0.00    -0.354 N 
ATOM     67  N   UNL A   1      42.770  30.238  29.458  1.00  0.00    -0.248 NA
ATOM     68  C   UNL A   1      40.859  31.436  30.063  1.00  0.00     0.031 C 
ATOM     69  C   UNL A   1      46.918  31.783  29.869  1.00  0.00     0.029 A 
ATOM     70  C   UNL A   1      45.617  31.320  29.759  1.00  0.00     0.049 A 
ATOM     71  H   UNL A   1      44.927  29.434  29.113  1.00  0.00     0.167 HD
ATOM     72  C   UNL A   1      43.147  31.493  29.921  1.00  0.00     0.074 A 
ATOM     73  C   UNL A   1      41.926  32.201  30.246  1.00  0.00     0.031 C 
ATOM     74  C   UNL A   1      44.391  32.013  30.065  1.00  0.00     0.037 A 
BRANCH  61  75
ATOM     75  C   UNL A   1      48.951  28.129  28.546  1.00  0.00     0.057 A 
ATOM     76  C   UNL A   1      49.675  27.608  29.628  1.00  0.00     0.134 A 
ATOM     77  C   UNL A   1      49.655  28.375  27.361  1.00  0.00     0.134 A 
ATOM     78  F   UNL A   1      49.067  27.361  30.799  1.00  0.00    -0.206 F 
ATOM     79  C   UNL A   1      51.048  27.372  29.544  1.00  0.00     0.040 A 
ATOM     80  C   UNL A   1      51.022  28.111  27.254  1.00  0.00     0.040 A 
ATOM     81  F   UNL A   1      49.025  28.868  26.284  1.00  0.00    -0.206 F 
ATOM     82  C   UNL A   1      51.724  27.616  28.350  1.00  0.00     0.006 A 
ENDBRANCH  61  75
BRANCH  62  83
ATOM     83  C   UNL A   1      39.046  29.283  29.267  1.00  0.00     0.057 A 
ATOM     84  C   UNL A   1      38.422  29.122  30.511  1.00  0.00     0.134 A 
ATOM     85  C   UNL A   1      38.228  29.591  28.174  1.00  0.00     0.134 A 
ATOM     86  F   UNL A   1      39.148  28.810  31.594  1.00  0.00    -0.206 F 
ATOM     87  C   UNL A   1      37.038  29.234  30.657  1.00  0.00     0.040 A 
ATOM     88  C   UNL A   1      36.847  29.736  28.311  1.00  0.00     0.040 A 
ATOM     89  F   UNL A   1      38.763  29.769  26.958  1.00  0.00    -0.206 F 
ATOM     90  C   UNL A   1      36.247  29.546  29.554  1.00  0.00     0.006 A 
ENDBRANCH  62  83
BRANCH  74  91
ATOM     91  C   UNL A   1      44.492  33.428  30.554  1.00  0.00     0.057 A 
ATOM     92  C   UNL A   1      44.450  34.522  29.679  1.00  0.00     0.134 A 
ATOM     93  C   UNL A   1      44.593  33.700  31.925  1.00  0.00     0.134 A 
ATOM     94  F   UNL A   1      44.365  34.330  28.354  1.00  0.00    -0.206 F 
ATOM     95  C   UNL A   1      44.529  35.834  30.149  1.00  0.00     0.040 A 
ATOM     96  C   UNL A   1      44.642  35.008  32.408  1.00  0.00     0.040 A 
ATOM     97  F   UNL A   1      44.630  32.699  32.817  1.00  0.00    -0.206 F 
ATOM     98  C   UNL A   1      44.618  36.078  31.519  1.00  0.00     0.006 A 
ENDBRANCH  74  91
ENDBRANCH  48  49
ENDBRANCH  40  43
ENDBRANCH  38  39
ENDBRANCH  37  38
ENDBRANCH   1  37
TORSDOF 15
ENDMDL
MODEL 3
REMARK VINA RESULT:     -13.1      5.088     10.671
REMARK SMILES CC(C)[C@H](NC(=O)N1c2ccccc2[NH+]=C(NCCCNC(=O)c2ccc(-c3c4nc(c(-c5c(F)cccc5F)c5ccc([nH]5)c(-c5c(F)cccc5F)c5nc(c(-c6c(F)cccc6F)c6ccc3[nH]6)C=C5)C=C4)cc2)[C@@H]1C(C)C)C(=O)N1CCC(C(=O)[O-])CC1
REMARK SMILES IDX 18 1 17 2 8 3 9 4 78 5 10 6 14 7 16 8 11 9 13 10 15 11 12 12
REMARK SMILES IDX 6 15 5 16 7 18 4 19 2 20 1 21 3 22 82 23 83 24 84 25 85 26
REMARK SMILES IDX 92 27 86 28 91 29 87 30 88 31 89 32 90 33 79 34 80 35 81 36
REMARK SMILES IDX 19 37 20 38 21 39 22 40 23 42 24 43 25 44 77 45 26 46 76 47
REMARK SMILES IDX 27 48 28 49 29 50 70 51 30 52 75 53 69 54 71 55 31 56 74 57
REMARK SMILES IDX 68 58 67 59 32 61 58 62 41 63 57 64 42 65 45 66 56 67 72 68
REMARK SMILES IDX 43 69 44 70 55 72 73 73 46 74 33 75 34 76 39 77 35 78 36 79
REMARK SMILES IDX 38 80 40 81 37 82 59 83 60 84 65 85 61 86 62 87 64 88 66 89
REMARK SMILES IDX 63 90 47 91 48 92 53 93 49 94 50 95 52 96 54 97 51 98
REMARK H PARENT 15 13 17 14 5 17 21 41 71 60 45 71
REMARK Flexibility Score: inf
ROOT
ATOM      1  C   UNL A   1      39.057  21.909  25.661  1.00  0.00     0.235 C 
ENDROOT
BRANCH   1   2
ATOM      2  N   UNL A   1      38.116  20.819  25.717  1.00  0.00    -0.276 N 
ATOM      3  N   UNL A   1      34.531  21.132  25.829  1.00  0.00    -0.275 N 
ATOM      4  C   UNL A   1      34.145  19.913  25.173  1.00  0.00     0.093 A 
ATOM      5  C   UNL A   1      35.692  21.769  25.134  1.00  0.00     0.208 C 
ATOM      6  C   UNL A   1      32.815  19.494  25.065  1.00  0.00     0.031 A 
ATOM      7  C   UNL A   1      35.194  19.074  24.744  1.00  0.00     0.148 A 
ATOM      8  C   UNL A   1      36.820  20.666  25.271  1.00  0.00     0.271 C 
ATOM      9  C   UNL A   1      32.529  18.221  24.571  1.00  0.00     0.002 A 
ATOM     10  C   UNL A   1      34.894  17.791  24.284  1.00  0.00     0.054 A 
ATOM     11  N   UNL A   1      36.542  19.409  24.996  1.00  0.00    -0.241 N 
ATOM     12  C   UNL A   1      33.567  17.363  24.204  1.00  0.00     0.005 A 
ATOM     13  H   UNL A   1      37.249  18.726  24.967  1.00  0.00     0.312 HD
ATOM     14  H   UNL A   1      38.471  20.020  26.168  1.00  0.00     0.304 HD
BRANCH   3  15
ATOM     15  C   UNL A   1      33.658  21.754  26.662  1.00  0.00     0.323 C 
ATOM     16  N   UNL A   1      32.601  22.435  26.141  1.00  0.00    -0.326 N 
ATOM     17  H   UNL A   1      31.803  22.349  26.710  1.00  0.00     0.166 HD
ATOM     18  O   UNL A   1      33.724  21.680  27.889  1.00  0.00    -0.248 OA
BRANCH  16  19
ATOM     19  C   UNL A   1      32.329  23.271  24.946  1.00  0.00     0.175 C 
BRANCH  19  20
ATOM     20  C   UNL A   1      31.817  22.628  23.624  1.00  0.00     0.015 C 
ATOM     21  C   UNL A   1      30.602  23.248  22.928  1.00  0.00     0.010 C 
ATOM     22  C   UNL A   1      32.961  22.570  22.599  1.00  0.00     0.010 C 
ENDBRANCH  19  20
BRANCH  19  23
ATOM     23  C   UNL A   1      31.549  24.586  25.219  1.00  0.00     0.245 C 
ATOM     24  O   UNL A   1      30.727  24.608  26.144  1.00  0.00    -0.272 OA
ATOM     25  N   UNL A   1      32.014  25.769  24.664  1.00  0.00    -0.341 N 
ATOM     26  C   UNL A   1      32.030  26.963  25.504  1.00  0.00     0.120 C 
ATOM     27  C   UNL A   1      32.418  25.972  23.280  1.00  0.00     0.120 C 
ATOM     28  C   UNL A   1      31.133  28.045  24.941  1.00  0.00     0.031 C 
ATOM     29  C   UNL A   1      31.536  27.049  22.638  1.00  0.00     0.031 C 
ATOM     30  C   UNL A   1      31.496  28.330  23.481  1.00  0.00     0.038 C 
BRANCH  30  31
ATOM     31  C   UNL A   1      30.530  29.335  22.902  1.00  0.00     0.045 C 
ATOM     32  O   UNL A   1      30.296  29.492  21.720  1.00  0.00    -0.550 OA
ATOM     33  O   UNL A   1      29.914  30.089  23.831  1.00  0.00    -0.550 OA
ENDBRANCH  30  31
ENDBRANCH  19  23
ENDBRANCH  16  19
ENDBRANCH   3  15
BRANCH   5  34
ATOM     34  C   UNL A   1      36.148  23.222  25.449  1.00  0.00     0.018 C 
ATOM     35  C   UNL A   1      35.643  24.140  24.303  1.00  0.00     0.010 C 
ATOM     36  C   UNL A   1      35.685  23.916  26.728  1.00  0.00     0.010 C 
ENDBRANCH   5  34
ENDBRANCH   1   2
BRANCH   1  37
ATOM     37  C   UNL A   1      39.349  22.463  27.045  1.00  0.00     0.067 C 
BRANCH  37  38
ATOM     38  C   UNL A   1      40.761  22.999  27.189  1.00  0.00     0.120 C 
BRANCH  38  39
ATOM     39  N   UNL A   1      41.131  23.906  26.105  1.00  0.00    -0.352 N 
ATOM     40  C   UNL A   1      41.185  25.278  26.045  1.00  0.00     0.251 C 
ATOM     41  H   UNL A   1      41.387  23.454  25.268  1.00  0.00     0.163 HD
ATOM     42  O   UNL A   1      41.308  25.831  24.955  1.00  0.00    -0.269 OA
BRANCH  40  43
ATOM     43  C   UNL A   1      41.077  26.091  27.274  1.00  0.00     0.039 A 
ATOM     44  C   UNL A   1      42.077  27.023  27.572  1.00  0.00     0.014 A 
ATOM     45  C   UNL A   1      40.003  25.927  28.147  1.00  0.00     0.014 A 
ATOM     46  C   UNL A   1      41.947  27.844  28.695  1.00  0.00     0.010 A 
ATOM     47  C   UNL A   1      39.808  26.830  29.182  1.00  0.00     0.010 A 
ATOM     48  C   UNL A   1      40.785  27.789  29.481  1.00  0.00    -0.014 A 
BRANCH  48  49
ATOM     49  C   UNL A   1      40.570  28.703  30.631  1.00  0.00     0.031 A 
ATOM     50  C   UNL A   1      39.505  29.765  30.559  1.00  0.00     0.074 A 
ATOM     51  C   UNL A   1      41.388  28.635  31.701  1.00  0.00     0.049 A 
ATOM     52  N   UNL A   1      39.232  30.724  31.408  1.00  0.00    -0.248 NA
ATOM     53  C   UNL A   1      38.660  29.779  29.353  1.00  0.00     0.031 C 
ATOM     54  C   UNL A   1      42.498  27.692  31.863  1.00  0.00     0.029 A 
ATOM     55  N   UNL A   1      41.420  29.383  32.850  1.00  0.00    -0.354 N 
ATOM     56  C   UNL A   1      38.208  31.462  30.826  1.00  0.00     0.074 A 
ATOM     57  C   UNL A   1      37.955  30.886  29.525  1.00  0.00     0.031 C 
ATOM     58  C   UNL A   1      43.080  27.898  33.054  1.00  0.00     0.029 A 
ATOM     59  C   UNL A   1      42.420  29.016  33.720  1.00  0.00     0.049 A 
ATOM     60  H   UNL A   1      40.788  30.114  33.036  1.00  0.00     0.167 HD
ATOM     61  C   UNL A   1      37.519  32.506  31.342  1.00  0.00     0.037 A 
ATOM     62  C   UNL A   1      42.770  29.531  34.913  1.00  0.00     0.037 A 
ATOM     63  C   UNL A   1      37.750  33.050  32.653  1.00  0.00     0.049 A 
ATOM     64  C   UNL A   1      41.988  30.690  35.466  1.00  0.00     0.074 A 
ATOM     65  C   UNL A   1      37.060  34.059  33.300  1.00  0.00     0.029 A 
ATOM     66  N   UNL A   1      38.753  32.631  33.515  1.00  0.00    -0.354 N 
ATOM     67  N   UNL A   1      40.968  31.326  34.939  1.00  0.00    -0.248 NA
ATOM     68  C   UNL A   1      42.400  31.200  36.780  1.00  0.00     0.031 C 
ATOM     69  C   UNL A   1      37.678  34.287  34.534  1.00  0.00     0.029 A 
ATOM     70  C   UNL A   1      38.715  33.380  34.679  1.00  0.00     0.049 A 
ATOM     71  H   UNL A   1      39.395  31.909  33.327  1.00  0.00     0.167 HD
ATOM     72  C   UNL A   1      40.597  32.287  35.871  1.00  0.00     0.074 A 
ATOM     73  C   UNL A   1      41.492  32.140  37.001  1.00  0.00     0.031 C 
ATOM     74  C   UNL A   1      39.607  33.210  35.799  1.00  0.00     0.037 A 
BRANCH  61  75
ATOM     75  C   UNL A   1      36.447  33.123  30.488  1.00  0.00     0.057 A 
ATOM     76  C   UNL A   1      36.750  33.968  29.411  1.00  0.00     0.134 A 
ATOM     77  C   UNL A   1      35.096  32.845  30.726  1.00  0.00     0.134 A 
ATOM     78  F   UNL A   1      38.024  34.289  29.134  1.00  0.00    -0.206 F 
ATOM     79  C   UNL A   1      35.748  34.537  28.623  1.00  0.00     0.040 A 
ATOM     80  C   UNL A   1      34.086  33.382  29.925  1.00  0.00     0.040 A 
ATOM     81  F   UNL A   1      34.733  32.041  31.737  1.00  0.00    -0.206 F 
ATOM     82  C   UNL A   1      34.411  34.237  28.875  1.00  0.00     0.006 A 
ENDBRANCH  61  75
BRANCH  62  83
ATOM     83  C   UNL A   1      43.903  28.945  35.677  1.00  0.00     0.057 A 
ATOM     84  C   UNL A   1      45.209  29.421  35.514  1.00  0.00     0.134 A 
ATOM     85  C   UNL A   1      43.712  27.887  36.574  1.00  0.00     0.134 A 
ATOM     86  F   UNL A   1      45.460  30.422  34.657  1.00  0.00    -0.206 F 
ATOM     87  C   UNL A   1      46.288  28.850  36.192  1.00  0.00     0.040 A 
ATOM     88  C   UNL A   1      44.776  27.326  37.281  1.00  0.00     0.040 A 
ATOM     89  F   UNL A   1      42.485  27.392  36.785  1.00  0.00    -0.206 F 
ATOM     90  C   UNL A   1      46.072  27.801  37.083  1.00  0.00     0.006 A 
ENDBRANCH  62  83
BRANCH  74  91
ATOM     91  C   UNL A   1      39.408  34.101  36.990  1.00  0.00     0.057 A 
ATOM     92  C   UNL A   1      38.747  33.664  38.145  1.00  0.00     0.134 A 
ATOM     93  C   UNL A   1      39.925  35.404  36.995  1.00  0.00     0.134 A 
ATOM     94  F   UNL A   1      38.220  32.431  38.200  1.00  0.00    -0.206 F 
ATOM     95  C   UNL A   1      38.583  34.498  39.251  1.00  0.00     0.040 A 
ATOM     96  C   UNL A   1      39.794  36.237  38.106  1.00  0.00     0.040 A 
ATOM     97  F   UNL A   1      40.577  35.883  35.925  1.00  0.00    -0.206 F 
ATOM     98  C   UNL A   1      39.116  35.786  39.236  1.00  0.00     0.006 A 
ENDBRANCH  74  91
ENDBRANCH  48  49
ENDBRANCH  40  43
ENDBRANCH  38  39
ENDBRANCH  37  38
ENDBRANCH   1  37
TORSDOF 15
ENDMDL
