MODEL 1
REMARK VINA RESULT:     -11.4      0.000      0.000
REMARK SMILES O=C(NCCCNC(=O)[C@@H](CO)N1C(=O)c2c(Cl)c(Cl)c(Cl)c(Cl)c2C1=O)c1ccc(-c2c3nc(c(-c4c(F)cccc4F)c4ccc([nH]4)c(-c4c(F)cccc4F)c4nc(c(-c5c(F)cccc5F)c5ccc2[nH]5)C=C4)C=C3)cc1
REMARK SMILES IDX 5 1 4 2 3 3 1 4 2 5 28 7 29 8 81 9 30 10 80 11 31 12 32 13
REMARK SMILES IDX 33 14 74 15 34 16 79 17 73 18 75 19 35 20 78 21 72 22 71 23
REMARK SMILES IDX 36 25 62 26 45 27 61 28 46 29 49 30 60 31 76 32 47 33 48 34
REMARK SMILES IDX 59 36 77 37 50 38 37 39 38 40 43 41 39 42 40 43 42 44 44 45
REMARK SMILES IDX 41 46 63 47 64 48 69 49 65 50 66 51 68 52 70 53 67 54 51 55
REMARK SMILES IDX 52 56 57 57 53 58 54 59 56 60 58 61 55 62 6 63 7 64 8 65
REMARK SMILES IDX 9 67 10 68 11 69 12 70 13 72 14 73 26 74 15 75 16 76 25 77
REMARK SMILES IDX 27 78 17 79 23 80 18 81 19 82 21 83 24 84 20 85 22 86
REMARK H PARENT 3 6 75 24 49 35 7 66 12 71
REMARK Flexibility Score: inf
ROOT
ATOM      1  C   UNL A   1      33.667  28.538  25.570  1.00  0.00     0.042 C 
ENDROOT
BRANCH   1   2
ATOM      2  C   UNL A   1      33.995  28.588  27.054  1.00  0.00     0.118 C 
BRANCH   2   3
ATOM      3  N   UNL A   1      33.851  29.926  27.609  1.00  0.00    -0.352 N 
ATOM      4  O   UNL A   1      34.374  31.667  28.949  1.00  0.00    -0.269 OA
ATOM      5  C   UNL A   1      34.730  30.635  28.390  1.00  0.00     0.251 C 
ATOM      6  H   UNL A   1      33.006  30.385  27.396  1.00  0.00     0.163 HD
BRANCH   5   7
ATOM      7  C   UNL A   1      36.110  30.137  28.560  1.00  0.00     0.039 A 
ATOM      8  C   UNL A   1      37.042  30.288  27.530  1.00  0.00     0.014 A 
ATOM      9  C   UNL A   1      36.482  29.537  29.765  1.00  0.00     0.014 A 
ATOM     10  C   UNL A   1      38.303  29.723  27.651  1.00  0.00     0.010 A 
ATOM     11  C   UNL A   1      37.786  29.062  29.927  1.00  0.00     0.010 A 
ATOM     12  C   UNL A   1      38.701  29.146  28.866  1.00  0.00    -0.014 A 
BRANCH  12  13
ATOM     13  C   UNL A   1      40.125  28.785  29.048  1.00  0.00     0.031 A 
ATOM     14  C   UNL A   1      41.114  29.747  29.634  1.00  0.00     0.074 A 
ATOM     15  C   UNL A   1      40.507  27.549  28.667  1.00  0.00     0.049 A 
ATOM     16  N   UNL A   1      42.397  29.580  29.830  1.00  0.00    -0.248 NA
ATOM     17  C   UNL A   1      40.610  31.066  30.044  1.00  0.00     0.031 C 
ATOM     18  C   UNL A   1      39.623  26.545  28.063  1.00  0.00     0.029 A 
ATOM     19  N   UNL A   1      41.721  26.920  28.734  1.00  0.00    -0.354 N 
ATOM     20  C   UNL A   1      42.860  30.776  30.361  1.00  0.00     0.074 A 
ATOM     21  C   UNL A   1      41.722  31.666  30.452  1.00  0.00     0.031 C 
ATOM     22  C   UNL A   1      40.315  25.418  27.849  1.00  0.00     0.029 A 
ATOM     23  C   UNL A   1      41.702  25.642  28.231  1.00  0.00     0.049 A 
ATOM     24  H   UNL A   1      42.529  27.341  29.108  1.00  0.00     0.167 HD
ATOM     25  C   UNL A   1      44.122  31.092  30.734  1.00  0.00     0.037 A 
ATOM     26  C   UNL A   1      42.699  24.757  28.056  1.00  0.00     0.037 A 
ATOM     27  C   UNL A   1      45.238  30.183  30.664  1.00  0.00     0.049 A 
ATOM     28  C   UNL A   1      44.086  25.149  28.462  1.00  0.00     0.074 A 
ATOM     29  C   UNL A   1      46.538  30.379  31.096  1.00  0.00     0.029 A 
ATOM     30  N   UNL A   1      45.187  28.909  30.117  1.00  0.00    -0.354 N 
ATOM     31  N   UNL A   1      44.497  26.264  29.016  1.00  0.00    -0.248 NA
ATOM     32  C   UNL A   1      45.150  24.171  28.205  1.00  0.00     0.031 C 
ATOM     33  C   UNL A   1      47.285  29.244  30.769  1.00  0.00     0.029 A 
ATOM     34  C   UNL A   1      46.442  28.325  30.166  1.00  0.00     0.049 A 
ATOM     35  H   UNL A   1      44.380  28.483  29.750  1.00  0.00     0.167 HD
ATOM     36  C   UNL A   1      45.867  26.125  29.169  1.00  0.00     0.074 A 
ATOM     37  C   UNL A   1      46.212  24.805  28.682  1.00  0.00     0.031 C 
ATOM     38  C   UNL A   1      46.763  27.016  29.659  1.00  0.00     0.037 A 
BRANCH  25  39
ATOM     39  C   UNL A   1      44.386  32.479  31.237  1.00  0.00     0.057 A 
ATOM     40  C   UNL A   1      44.654  33.544  30.369  1.00  0.00     0.134 A 
ATOM     41  C   UNL A   1      44.275  32.769  32.604  1.00  0.00     0.134 A 
ATOM     42  F   UNL A   1      44.781  33.331  29.051  1.00  0.00    -0.206 F 
ATOM     43  C   UNL A   1      44.804  34.849  30.843  1.00  0.00     0.040 A 
ATOM     44  C   UNL A   1      44.406  34.072  33.087  1.00  0.00     0.040 A 
ATOM     45  F   UNL A   1      44.014  31.794  33.487  1.00  0.00    -0.206 F 
ATOM     46  C   UNL A   1      44.671  35.117  32.204  1.00  0.00     0.006 A 
ENDBRANCH  25  39
BRANCH  26  47
ATOM     47  C   UNL A   1      42.420  23.444  27.425  1.00  0.00     0.057 A 
ATOM     48  C   UNL A   1      42.537  23.261  26.045  1.00  0.00     0.134 A 
ATOM     49  C   UNL A   1      42.039  22.338  28.196  1.00  0.00     0.134 A 
ATOM     50  F   UNL A   1      42.884  24.288  25.255  1.00  0.00    -0.206 F 
ATOM     51  C   UNL A   1      42.272  22.027  25.449  1.00  0.00     0.040 A 
ATOM     52  C   UNL A   1      41.798  21.092  27.617  1.00  0.00     0.040 A 
ATOM     53  F   UNL A   1      41.917  22.448  29.527  1.00  0.00    -0.206 F 
ATOM     54  C   UNL A   1      41.908  20.936  26.238  1.00  0.00     0.006 A 
ENDBRANCH  26  47
BRANCH  38  55
ATOM     55  C   UNL A   1      48.196  26.584  29.676  1.00  0.00     0.057 A 
ATOM     56  C   UNL A   1      49.043  26.827  28.588  1.00  0.00     0.134 A 
ATOM     57  C   UNL A   1      48.738  25.939  30.794  1.00  0.00     0.134 A 
ATOM     58  F   UNL A   1      48.573  27.424  27.482  1.00  0.00    -0.206 F 
ATOM     59  C   UNL A   1      50.378  26.424  28.603  1.00  0.00     0.040 A 
ATOM     60  C   UNL A   1      50.078  25.553  30.829  1.00  0.00     0.040 A 
ATOM     61  F   UNL A   1      47.978  25.682  31.869  1.00  0.00    -0.206 F 
ATOM     62  C   UNL A   1      50.900  25.791  29.730  1.00  0.00     0.006 A 
ENDBRANCH  38  55
ENDBRANCH  12  13
ENDBRANCH   5   7
ENDBRANCH   2   3
ENDBRANCH   1   2
BRANCH   1  63
ATOM     63  C   UNL A   1      32.179  28.399  25.304  1.00  0.00     0.117 C 
BRANCH  63  64
ATOM     64  N   UNL A   1      31.914  27.438  24.247  1.00  0.00    -0.354 N 
ATOM     65  C   UNL A   1      31.713  26.095  24.292  1.00  0.00     0.245 C 
ATOM     66  H   UNL A   1      31.874  27.827  23.344  1.00  0.00     0.163 HD
ATOM     67  O   UNL A   1      31.562  25.530  23.201  1.00  0.00    -0.273 OA
BRANCH  65  68
ATOM     68  C   UNL A   1      31.880  25.250  25.565  1.00  0.00     0.208 C 
BRANCH  68  69
ATOM     69  C   UNL A   1      30.451  24.922  26.062  1.00  0.00     0.191 C 
BRANCH  69  70
ATOM     70  O   UNL A   1      29.440  25.593  25.303  1.00  0.00    -0.394 OA
ATOM     71  H   UNL A   1      29.817  26.388  24.895  1.00  0.00     0.210 HD
ENDBRANCH  69  70
ENDBRANCH  68  69
BRANCH  68  72
ATOM     72  N   UNL A   1      32.762  24.077  25.509  1.00  0.00    -0.259 N 
ATOM     73  C   UNL A   1      32.440  22.880  24.945  1.00  0.00     0.264 C 
ATOM     74  C   UNL A   1      34.127  24.203  25.558  1.00  0.00     0.264 C 
ATOM     75  O   UNL A   1      31.419  22.548  24.376  1.00  0.00    -0.268 OA
ATOM     76  C   UNL A   1      33.631  22.035  25.014  1.00  0.00     0.075 A 
ATOM     77  C   UNL A   1      34.693  22.873  25.303  1.00  0.00     0.075 A 
ATOM     78  O   UNL A   1      34.779  25.216  25.680  1.00  0.00    -0.268 OA
ATOM     79  C   UNL A   1      33.794  20.677  24.813  1.00  0.00     0.074 A 
ATOM     80  C   UNL A   1      35.998  22.414  25.296  1.00  0.00     0.074 A 
ATOM     81  Cl  UNL A   1      32.418  19.654  24.612  1.00  0.00    -0.082 Cl
ATOM     82  C   UNL A   1      35.104  20.170  24.836  1.00  0.00     0.080 A 
ATOM     83  C   UNL A   1      36.207  21.042  25.047  1.00  0.00     0.080 A 
ATOM     84  Cl  UNL A   1      37.311  23.501  25.564  1.00  0.00    -0.082 Cl
ATOM     85  Cl  UNL A   1      35.371  18.464  24.609  1.00  0.00    -0.081 Cl
ATOM     86  Cl  UNL A   1      37.831  20.414  24.999  1.00  0.00    -0.081 Cl
ENDBRANCH  68  72
ENDBRANCH  65  68
ENDBRANCH  63  64
ENDBRANCH   1  63
TORSDOF 13
ENDMDL
MODEL 2
REMARK VINA RESULT:     -11.3      0.362      1.630
REMARK SMILES O=C(NCCCNC(=O)[C@@H](CO)N1C(=O)c2c(Cl)c(Cl)c(Cl)c(Cl)c2C1=O)c1ccc(-c2c3nc(c(-c4c(F)cccc4F)c4ccc([nH]4)c(-c4c(F)cccc4F)c4nc(c(-c5c(F)cccc5F)c5ccc2[nH]5)C=C4)C=C3)cc1
REMARK SMILES IDX 5 1 4 2 3 3 1 4 2 5 28 7 29 8 81 9 30 10 80 11 31 12 32 13
REMARK SMILES IDX 33 14 74 15 34 16 79 17 73 18 75 19 35 20 78 21 72 22 71 23
REMARK SMILES IDX 36 25 62 26 45 27 61 28 46 29 49 30 60 31 76 32 47 33 48 34
REMARK SMILES IDX 59 36 77 37 50 38 37 39 38 40 43 41 39 42 40 43 42 44 44 45
REMARK SMILES IDX 41 46 63 47 64 48 69 49 65 50 66 51 68 52 70 53 67 54 51 55
REMARK SMILES IDX 52 56 57 57 53 58 54 59 56 60 58 61 55 62 6 63 7 64 8 65
REMARK SMILES IDX 9 67 10 68 11 69 12 70 13 72 14 73 26 74 15 75 16 76 25 77
REMARK SMILES IDX 27 78 17 79 23 80 18 81 19 82 21 83 24 84 20 85 22 86
REMARK H PARENT 3 6 75 24 49 35 7 66 12 71
REMARK Flexibility Score: inf
ROOT
ATOM      1  C   UNL A   1      33.650  28.848  25.663  1.00  0.00     0.042 C 
ENDROOT
BRANCH   1   2
ATOM      2  C   UNL A   1      34.060  28.803  27.126  1.00  0.00     0.118 C 
BRANCH   2   3
ATOM      3  N   UNL A   1      33.930  30.098  27.778  1.00  0.00    -0.352 N 
ATOM      4  O   UNL A   1      34.486  31.740  29.225  1.00  0.00    -0.269 OA
ATOM      5  C   UNL A   1      34.828  30.750  28.586  1.00  0.00     0.251 C 
ATOM      6  H   UNL A   1      33.080  30.571  27.618  1.00  0.00     0.163 HD
BRANCH   5   7
ATOM      7  C   UNL A   1      36.211  30.243  28.689  1.00  0.00     0.039 A 
ATOM      8  C   UNL A   1      37.080  30.352  27.600  1.00  0.00     0.014 A 
ATOM      9  C   UNL A   1      36.650  29.676  29.887  1.00  0.00     0.014 A 
ATOM     10  C   UNL A   1      38.341  29.777  27.662  1.00  0.00     0.010 A 
ATOM     11  C   UNL A   1      37.957  29.191  29.984  1.00  0.00     0.010 A 
ATOM     12  C   UNL A   1      38.806  29.233  28.868  1.00  0.00    -0.014 A 
BRANCH  12  13
ATOM     13  C   UNL A   1      40.235  28.861  28.975  1.00  0.00     0.031 A 
ATOM     14  C   UNL A   1      41.266  29.827  29.476  1.00  0.00     0.074 A 
ATOM     15  C   UNL A   1      40.583  27.612  28.605  1.00  0.00     0.049 A 
ATOM     16  N   UNL A   1      42.557  29.652  29.601  1.00  0.00    -0.248 NA
ATOM     17  C   UNL A   1      40.798  31.162  29.881  1.00  0.00     0.031 C 
ATOM     18  C   UNL A   1      39.656  26.603  28.080  1.00  0.00     0.029 A 
ATOM     19  N   UNL A   1      41.793  26.973  28.617  1.00  0.00    -0.354 N 
ATOM     20  C   UNL A   1      43.061  30.856  30.072  1.00  0.00     0.074 A 
ATOM     21  C   UNL A   1      41.939  31.761  30.207  1.00  0.00     0.031 C 
ATOM     22  C   UNL A   1      40.324  25.464  27.856  1.00  0.00     0.029 A 
ATOM     23  C   UNL A   1      41.733  25.683  28.149  1.00  0.00     0.049 A 
ATOM     24  H   UNL A   1      42.626  27.395  28.930  1.00  0.00     0.167 HD
ATOM     25  C   UNL A   1      44.346  31.168  30.362  1.00  0.00     0.037 A 
ATOM     26  C   UNL A   1      42.710  24.783  27.939  1.00  0.00     0.037 A 
ATOM     27  C   UNL A   1      45.447  30.246  30.250  1.00  0.00     0.049 A 
ATOM     28  C   UNL A   1      44.122  25.170  28.252  1.00  0.00     0.074 A 
ATOM     29  C   UNL A   1      46.772  30.441  30.599  1.00  0.00     0.029 A 
ATOM     30  N   UNL A   1      45.353  28.959  29.740  1.00  0.00    -0.354 N 
ATOM     31  N   UNL A   1      44.575  26.295  28.751  1.00  0.00    -0.248 NA
ATOM     32  C   UNL A   1      45.160  24.176  27.958  1.00  0.00     0.031 C 
ATOM     33  C   UNL A   1      47.489  29.290  30.258  1.00  0.00     0.029 A 
ATOM     34  C   UNL A   1      46.604  28.364  29.730  1.00  0.00     0.049 A 
ATOM     35  H   UNL A   1      44.521  28.533  29.432  1.00  0.00     0.167 HD
ATOM     36  C   UNL A   1      45.951  26.146  28.827  1.00  0.00     0.074 A 
ATOM     37  C   UNL A   1      46.254  24.810  28.354  1.00  0.00     0.031 C 
ATOM     38  C   UNL A   1      46.881  27.039  29.239  1.00  0.00     0.037 A 
BRANCH  25  39
ATOM     39  C   UNL A   1      44.651  32.565  30.812  1.00  0.00     0.057 A 
ATOM     40  C   UNL A   1      44.677  32.919  32.166  1.00  0.00     0.134 A 
ATOM     41  C   UNL A   1      45.019  33.545  29.880  1.00  0.00     0.134 A 
ATOM     42  F   UNL A   1      44.328  32.029  33.108  1.00  0.00    -0.206 F 
ATOM     43  C   UNL A   1      45.056  34.198  32.578  1.00  0.00     0.040 A 
ATOM     44  C   UNL A   1      45.415  34.822  30.281  1.00  0.00     0.040 A 
ATOM     45  F   UNL A   1      45.021  33.269  28.568  1.00  0.00    -0.206 F 
ATOM     46  C   UNL A   1      45.435  35.151  31.635  1.00  0.00     0.006 A 
ENDBRANCH  25  39
BRANCH  26  47
ATOM     47  C   UNL A   1      42.382  23.458  27.360  1.00  0.00     0.057 A 
ATOM     48  C   UNL A   1      41.973  22.392  28.166  1.00  0.00     0.134 A 
ATOM     49  C   UNL A   1      42.459  23.232  25.979  1.00  0.00     0.134 A 
ATOM     50  F   UNL A   1      41.895  22.544  29.497  1.00  0.00    -0.206 F 
ATOM     51  C   UNL A   1      41.667  21.144  27.623  1.00  0.00     0.040 A 
ATOM     52  C   UNL A   1      42.129  21.998  25.420  1.00  0.00     0.040 A 
ATOM     53  F   UNL A   1      42.836  24.218  25.151  1.00  0.00    -0.206 F 
ATOM     54  C   UNL A   1      41.738  20.947  26.245  1.00  0.00     0.006 A 
ENDBRANCH  26  47
BRANCH  38  55
ATOM     55  C   UNL A   1      48.309  26.593  29.183  1.00  0.00     0.057 A 
ATOM     56  C   UNL A   1      48.900  25.907  30.251  1.00  0.00     0.134 A 
ATOM     57  C   UNL A   1      49.093  26.834  28.048  1.00  0.00     0.134 A 
ATOM     58  F   UNL A   1      48.204  25.666  31.372  1.00  0.00    -0.206 F 
ATOM     59  C   UNL A   1      50.231  25.492  30.200  1.00  0.00     0.040 A 
ATOM     60  C   UNL A   1      50.417  26.403  27.977  1.00  0.00     0.040 A 
ATOM     61  F   UNL A   1      48.581  27.483  26.992  1.00  0.00    -0.206 F 
ATOM     62  C   UNL A   1      50.991  25.735  29.057  1.00  0.00     0.006 A 
ENDBRANCH  38  55
ENDBRANCH  12  13
ENDBRANCH   5   7
ENDBRANCH   2   3
ENDBRANCH   1   2
BRANCH   1  63
ATOM     63  C   UNL A   1      32.208  28.423  25.445  1.00  0.00     0.117 C 
BRANCH  63  64
ATOM     64  N   UNL A   1      32.085  27.516  24.317  1.00  0.00    -0.354 N 
ATOM     65  C   UNL A   1      31.909  26.169  24.271  1.00  0.00     0.245 C 
ATOM     66  H   UNL A   1      32.138  27.951  23.436  1.00  0.00     0.163 HD
ATOM     67  O   UNL A   1      31.893  25.660  23.141  1.00  0.00    -0.273 OA
BRANCH  65  68
ATOM     68  C   UNL A   1      31.950  25.260  25.509  1.00  0.00     0.208 C 
BRANCH  68  69
ATOM     69  C   UNL A   1      30.477  24.946  25.870  1.00  0.00     0.191 C 
BRANCH  69  70
ATOM     70  O   UNL A   1      29.575  25.258  24.804  1.00  0.00    -0.394 OA
ATOM     71  H   UNL A   1      30.077  25.405  23.988  1.00  0.00     0.210 HD
ENDBRANCH  69  70
ENDBRANCH  68  69
BRANCH  68  72
ATOM     72  N   UNL A   1      32.807  24.068  25.467  1.00  0.00    -0.259 N 
ATOM     73  C   UNL A   1      32.461  22.871  24.919  1.00  0.00     0.264 C 
ATOM     74  C   UNL A   1      34.175  24.167  25.514  1.00  0.00     0.264 C 
ATOM     75  O   UNL A   1      31.432  22.553  24.354  1.00  0.00    -0.268 OA
ATOM     76  C   UNL A   1      33.634  22.003  24.998  1.00  0.00     0.075 A 
ATOM     77  C   UNL A   1      34.714  22.822  25.276  1.00  0.00     0.075 A 
ATOM     78  O   UNL A   1      34.847  25.167  25.623  1.00  0.00    -0.268 OA
ATOM     79  C   UNL A   1      33.768  20.639  24.814  1.00  0.00     0.074 A 
ATOM     80  C   UNL A   1      36.009  22.336  25.274  1.00  0.00     0.074 A 
ATOM     81  Cl  UNL A   1      32.371  19.643  24.626  1.00  0.00    -0.082 Cl
ATOM     82  C   UNL A   1      35.068  20.105  24.843  1.00  0.00     0.080 A 
ATOM     83  C   UNL A   1      36.189  20.957  25.043  1.00  0.00     0.080 A 
ATOM     84  Cl  UNL A   1      37.344  23.399  25.528  1.00  0.00    -0.082 Cl
ATOM     85  Cl  UNL A   1      35.299  18.392  24.637  1.00  0.00    -0.081 Cl
ATOM     86  Cl  UNL A   1      37.800  20.295  25.001  1.00  0.00    -0.081 Cl
ENDBRANCH  68  72
ENDBRANCH  65  68
ENDBRANCH  63  64
ENDBRANCH   1  63
TORSDOF 13
ENDMDL
MODEL 3
REMARK VINA RESULT:     -11.2      3.522      8.333
REMARK SMILES O=C(NCCCNC(=O)[C@@H](CO)N1C(=O)c2c(Cl)c(Cl)c(Cl)c(Cl)c2C1=O)c1ccc(-c2c3nc(c(-c4c(F)cccc4F)c4ccc([nH]4)c(-c4c(F)cccc4F)c4nc(c(-c5c(F)cccc5F)c5ccc2[nH]5)C=C4)C=C3)cc1
REMARK SMILES IDX 5 1 4 2 3 3 1 4 2 5 28 7 29 8 81 9 30 10 80 11 31 12 32 13
REMARK SMILES IDX 33 14 74 15 34 16 79 17 73 18 75 19 35 20 78 21 72 22 71 23
REMARK SMILES IDX 36 25 62 26 45 27 61 28 46 29 49 30 60 31 76 32 47 33 48 34
REMARK SMILES IDX 59 36 77 37 50 38 37 39 38 40 43 41 39 42 40 43 42 44 44 45
REMARK SMILES IDX 41 46 63 47 64 48 69 49 65 50 66 51 68 52 70 53 67 54 51 55
REMARK SMILES IDX 52 56 57 57 53 58 54 59 56 60 58 61 55 62 6 63 7 64 8 65
REMARK SMILES IDX 9 67 10 68 11 69 12 70 13 72 14 73 26 74 15 75 16 76 25 77
REMARK SMILES IDX 27 78 17 79 23 80 18 81 19 82 21 83 24 84 20 85 22 86
REMARK H PARENT 3 6 75 24 49 35 7 66 12 71
REMARK Flexibility Score: inf
ROOT
ATOM      1  C   UNL A   1      35.807  23.355  26.061  1.00  0.00     0.042 C 
ENDROOT
BRANCH   1   2
ATOM      2  C   UNL A   1      37.094  23.744  25.352  1.00  0.00     0.118 C 
BRANCH   2   3
ATOM      3  N   UNL A   1      38.167  22.788  25.589  1.00  0.00    -0.352 N 
ATOM      4  O   UNL A   1      40.264  22.135  26.114  1.00  0.00    -0.269 OA
ATOM      5  C   UNL A   1      39.391  22.994  26.176  1.00  0.00     0.251 C 
ATOM      6  H   UNL A   1      37.991  21.868  25.285  1.00  0.00     0.163 HD
BRANCH   5   7
ATOM      7  C   UNL A   1      39.653  24.267  26.878  1.00  0.00     0.039 A 
ATOM      8  C   UNL A   1      39.209  24.449  28.190  1.00  0.00     0.014 A 
ATOM      9  C   UNL A   1      40.366  25.277  26.229  1.00  0.00     0.014 A 
ATOM     10  C   UNL A   1      39.359  25.682  28.805  1.00  0.00     0.010 A 
ATOM     11  C   UNL A   1      40.610  26.484  26.889  1.00  0.00     0.010 A 
ATOM     12  C   UNL A   1      40.101  26.694  28.179  1.00  0.00    -0.014 A 
BRANCH  12  13
ATOM     13  C   UNL A   1      40.460  27.900  28.961  1.00  0.00     0.031 A 
ATOM     14  C   UNL A   1      41.787  28.029  29.645  1.00  0.00     0.074 A 
ATOM     15  C   UNL A   1      39.546  28.888  29.036  1.00  0.00     0.049 A 
ATOM     16  N   UNL A   1      42.232  29.013  30.385  1.00  0.00    -0.248 NA
ATOM     17  C   UNL A   1      42.735  26.915  29.493  1.00  0.00     0.031 C 
ATOM     18  C   UNL A   1      38.213  28.847  28.424  1.00  0.00     0.029 A 
ATOM     19  N   UNL A   1      39.591  30.113  29.644  1.00  0.00    -0.354 N 
ATOM     20  C   UNL A   1      43.497  28.630  30.808  1.00  0.00     0.074 A 
ATOM     21  C   UNL A   1      43.751  27.319  30.249  1.00  0.00     0.031 C 
ATOM     22  C   UNL A   1      37.584  30.007  28.656  1.00  0.00     0.029 A 
ATOM     23  C   UNL A   1      38.436  30.840  29.493  1.00  0.00     0.049 A 
ATOM     24  H   UNL A   1      40.375  30.442  30.141  1.00  0.00     0.167 HD
ATOM     25  C   UNL A   1      44.359  29.317  31.593  1.00  0.00     0.037 A 
ATOM     26  C   UNL A   1      38.080  32.032  30.004  1.00  0.00     0.037 A 
ATOM     27  C   UNL A   1      44.102  30.634  32.117  1.00  0.00     0.049 A 
ATOM     28  C   UNL A   1      39.052  32.754  30.885  1.00  0.00     0.074 A 
ATOM     29  C   UNL A   1      44.946  31.449  32.852  1.00  0.00     0.029 A 
ATOM     30  N   UNL A   1      42.908  31.324  31.971  1.00  0.00    -0.354 N 
ATOM     31  N   UNL A   1      40.268  32.404  31.229  1.00  0.00    -0.248 NA
ATOM     32  C   UNL A   1      38.602  34.026  31.462  1.00  0.00     0.031 C 
ATOM     33  C   UNL A   1      44.248  32.611  33.191  1.00  0.00     0.029 A 
ATOM     34  C   UNL A   1      42.981  32.538  32.635  1.00  0.00     0.049 A 
ATOM     35  H   UNL A   1      42.126  31.001  31.470  1.00  0.00     0.167 HD
ATOM     36  C   UNL A   1      40.726  33.408  32.067  1.00  0.00     0.074 A 
ATOM     37  C   UNL A   1      39.671  34.397  32.152  1.00  0.00     0.031 C 
ATOM     38  C   UNL A   1      41.910  33.497  32.718  1.00  0.00     0.037 A 
BRANCH  25  39
ATOM     39  C   UNL A   1      45.659  28.665  31.957  1.00  0.00     0.057 A 
ATOM     40  C   UNL A   1      45.788  27.849  33.087  1.00  0.00     0.134 A 
ATOM     41  C   UNL A   1      46.770  28.779  31.111  1.00  0.00     0.134 A 
ATOM     42  F   UNL A   1      44.765  27.705  33.942  1.00  0.00    -0.206 F 
ATOM     43  C   UNL A   1      46.978  27.172  33.364  1.00  0.00     0.040 A 
ATOM     44  C   UNL A   1      47.958  28.094  31.368  1.00  0.00     0.040 A 
ATOM     45  F   UNL A   1      46.709  29.541  30.008  1.00  0.00    -0.206 F 
ATOM     46  C   UNL A   1      48.063  27.285  32.498  1.00  0.00     0.006 A 
ENDBRANCH  25  39
BRANCH  26  47
ATOM     47  C   UNL A   1      36.729  32.579  29.733  1.00  0.00     0.057 A 
ATOM     48  C   UNL A   1      36.467  33.336  28.587  1.00  0.00     0.134 A 
ATOM     49  C   UNL A   1      35.663  32.345  30.612  1.00  0.00     0.134 A 
ATOM     50  F   UNL A   1      37.451  33.604  27.716  1.00  0.00    -0.206 F 
ATOM     51  C   UNL A   1      35.196  33.853  28.331  1.00  0.00     0.040 A 
ATOM     52  C   UNL A   1      34.383  32.833  30.355  1.00  0.00     0.040 A 
ATOM     53  F   UNL A   1      35.849  31.619  31.724  1.00  0.00    -0.206 F 
ATOM     54  C   UNL A   1      34.148  33.596  29.214  1.00  0.00     0.006 A 
ENDBRANCH  26  47
BRANCH  38  55
ATOM     55  C   UNL A   1      42.110  34.703  33.582  1.00  0.00     0.057 A 
ATOM     56  C   UNL A   1      41.683  34.723  34.915  1.00  0.00     0.134 A 
ATOM     57  C   UNL A   1      42.750  35.845  33.085  1.00  0.00     0.134 A 
ATOM     58  F   UNL A   1      41.047  33.665  35.441  1.00  0.00    -0.206 F 
ATOM     59  C   UNL A   1      41.869  35.847  35.720  1.00  0.00     0.040 A 
ATOM     60  C   UNL A   1      42.961  36.965  33.888  1.00  0.00     0.040 A 
ATOM     61  F   UNL A   1      43.184  35.885  31.816  1.00  0.00    -0.206 F 
ATOM     62  C   UNL A   1      42.515  36.970  35.208  1.00  0.00     0.006 A 
ENDBRANCH  38  55
ENDBRANCH  12  13
ENDBRANCH   5   7
ENDBRANCH   2   3
ENDBRANCH   1   2
BRANCH   1  63
ATOM     63  C   UNL A   1      34.899  22.499  25.197  1.00  0.00     0.117 C 
BRANCH  63  64
ATOM     64  N   UNL A   1      33.501  22.846  25.386  1.00  0.00    -0.354 N 
ATOM     65  C   UNL A   1      32.749  23.841  24.847  1.00  0.00     0.245 C 
ATOM     66  H   UNL A   1      33.016  22.260  26.011  1.00  0.00     0.163 HD
ATOM     67  O   UNL A   1      31.579  23.918  25.247  1.00  0.00    -0.273 OA
BRANCH  65  68
ATOM     68  C   UNL A   1      33.322  24.963  23.967  1.00  0.00     0.208 C 
BRANCH  68  69
ATOM     69  C   UNL A   1      33.241  24.459  22.506  1.00  0.00     0.191 C 
BRANCH  69  70
ATOM     70  O   UNL A   1      32.224  23.469  22.325  1.00  0.00    -0.394 OA
ATOM     71  H   UNL A   1      32.260  23.131  21.416  1.00  0.00     0.210 HD
ENDBRANCH  69  70
ENDBRANCH  68  69
BRANCH  68  72
ATOM     72  N   UNL A   1      32.795  26.323  24.146  1.00  0.00    -0.259 N 
ATOM     73  C   UNL A   1      31.597  26.768  23.676  1.00  0.00     0.264 C 
ATOM     74  C   UNL A   1      33.194  27.115  25.192  1.00  0.00     0.264 C 
ATOM     75  O   UNL A   1      30.740  26.164  23.060  1.00  0.00    -0.268 OA
ATOM     76  C   UNL A   1      31.422  28.135  24.162  1.00  0.00     0.075 A 
ATOM     77  C   UNL A   1      32.353  28.318  25.169  1.00  0.00     0.075 A 
ATOM     78  O   UNL A   1      34.006  26.861  26.054  1.00  0.00    -0.268 OA
ATOM     79  C   UNL A   1      30.522  29.120  23.799  1.00  0.00     0.074 A 
ATOM     80  C   UNL A   1      32.361  29.463  25.946  1.00  0.00     0.074 A 
ATOM     81  Cl  UNL A   1      29.489  28.896  22.434  1.00  0.00    -0.082 Cl
ATOM     82  C   UNL A   1      30.529  30.312  24.544  1.00  0.00     0.080 A 
ATOM     83  C   UNL A   1      31.426  30.470  25.635  1.00  0.00     0.080 A 
ATOM     84  Cl  UNL A   1      33.471  29.624  27.257  1.00  0.00    -0.082 Cl
ATOM     85  Cl  UNL A   1      29.432  31.596  24.121  1.00  0.00    -0.081 Cl
ATOM     86  Cl  UNL A   1      31.372  31.921  26.598  1.00  0.00    -0.081 Cl
ENDBRANCH  68  72
ENDBRANCH  65  68
ENDBRANCH  63  64
ENDBRANCH   1  63
TORSDOF 13
ENDMDL
