MODEL 1
REMARK VINA RESULT:     -10.5      0.000      0.000
REMARK SMILES O=C(/C=C/c1ccccc1Oc1cccc(Cl)c1)NCCCNC(=O)c1ccc(-c2c3nc(c(-c4c(F)cccc4F)c4ccc([nH]4)c(-c4c(F)cccc4F)c4nc(c(-c5c(F)cccc5F)c5ccc2[nH]5)C=C4)C=C3)cc1
REMARK SMILES IDX 20 1 19 2 1 3 2 4 3 6 4 7 5 8 6 9 10 10 7 11 9 12 8 13 11 14
REMARK SMILES IDX 12 15 13 16 18 17 14 18 16 19 15 20 17 21 21 22 22 23 23 24
REMARK SMILES IDX 24 25 25 27 26 28 27 29 79 30 28 31 78 32 29 33 30 34 31 35
REMARK SMILES IDX 72 36 32 37 77 38 71 39 73 40 33 41 76 42 70 43 69 44 34 46
REMARK SMILES IDX 60 47 43 48 59 49 44 50 47 51 58 52 74 53 45 54 46 55 57 57
REMARK SMILES IDX 75 58 48 59 35 60 36 61 41 62 37 63 38 64 40 65 42 66 39 67
REMARK SMILES IDX 61 68 62 69 67 70 63 71 64 72 66 73 68 74 65 75 49 76 50 77
REMARK SMILES IDX 55 78 51 79 52 80 54 81 56 82 53 83
REMARK H PARENT 19 5 23 26 73 45 47 56
REMARK Flexibility Score: inf
ROOT
ATOM      1  C   UNL A   1      45.613  19.025  25.121  1.00  0.00     0.118 C 
ENDROOT
BRANCH   1   2
ATOM      2  N   UNL A   1      45.734  20.422  25.481  1.00  0.00    -0.352 N 
ATOM      3  O   UNL A   1      44.851  21.273  23.543  1.00  0.00    -0.270 OA
ATOM      4  C   UNL A   1      45.304  21.439  24.665  1.00  0.00     0.244 C 
ATOM      5  H   UNL A   1      46.142  20.652  26.347  1.00  0.00     0.163 HD
BRANCH   4   6
ATOM      6  C   UNL A   1      45.344  22.806  25.255  1.00  0.00     0.072 C 
ATOM      7  C   UNL A   1      44.993  23.930  24.614  1.00  0.00     0.017 C 
BRANCH   7   8
ATOM      8  C   UNL A   1      45.118  25.271  25.198  1.00  0.00     0.017 A 
ATOM      9  C   UNL A   1      43.911  25.997  25.256  1.00  0.00     0.012 A 
ATOM     10  C   UNL A   1      46.307  25.894  25.627  1.00  0.00     0.134 A 
ATOM     11  C   UNL A   1      43.873  27.313  25.722  1.00  0.00     0.001 A 
ATOM     12  C   UNL A   1      46.245  27.220  26.097  1.00  0.00     0.048 A 
ATOM     13  C   UNL A   1      45.044  27.927  26.140  1.00  0.00     0.004 A 
BRANCH  10  14
ATOM     14  O   UNL A   1      47.602  25.417  25.680  1.00  0.00    -0.457 OA
BRANCH  14  15
ATOM     15  C   UNL A   1      48.596  25.934  24.899  1.00  0.00     0.128 A 
ATOM     16  C   UNL A   1      49.857  26.105  25.473  1.00  0.00     0.047 A 
ATOM     17  C   UNL A   1      48.331  26.403  23.613  1.00  0.00     0.067 A 
ATOM     18  C   UNL A   1      50.888  26.679  24.729  1.00  0.00     0.005 A 
ATOM     19  C   UNL A   1      49.368  26.967  22.873  1.00  0.00     0.044 A 
ATOM     20  C   UNL A   1      50.645  27.102  23.421  1.00  0.00     0.021 A 
ATOM     21  Cl  UNL A   1      49.082  27.464  21.251  1.00  0.00    -0.084 Cl
ENDBRANCH  14  15
ENDBRANCH  10  14
ENDBRANCH   7   8
ENDBRANCH   4   6
ENDBRANCH   1   2
BRANCH   1  22
ATOM     22  C   UNL A   1      44.179  18.542  24.945  1.00  0.00     0.042 C 
BRANCH  22  23
ATOM     23  C   UNL A   1      43.301  18.680  26.182  1.00  0.00     0.118 C 
BRANCH  23  24
ATOM     24  N   UNL A   1      41.874  18.674  25.890  1.00  0.00    -0.352 N 
ATOM     25  C   UNL A   1      40.924  19.641  26.109  1.00  0.00     0.251 C 
ATOM     26  H   UNL A   1      41.540  17.849  25.471  1.00  0.00     0.163 HD
ATOM     27  O   UNL A   1      39.745  19.393  25.868  1.00  0.00    -0.269 OA
BRANCH  25  28
ATOM     28  C   UNL A   1      41.293  20.969  26.657  1.00  0.00     0.039 A 
ATOM     29  C   UNL A   1      41.315  21.131  28.046  1.00  0.00     0.014 A 
ATOM     30  C   UNL A   1      41.575  22.059  25.830  1.00  0.00     0.014 A 
ATOM     31  C   UNL A   1      41.666  22.365  28.603  1.00  0.00     0.010 A 
ATOM     32  C   UNL A   1      41.995  23.268  26.384  1.00  0.00     0.010 A 
ATOM     33  C   UNL A   1      42.032  23.439  27.776  1.00  0.00    -0.014 A 
BRANCH  33  34
ATOM     34  C   UNL A   1      42.419  24.751  28.355  1.00  0.00     0.031 A 
ATOM     35  C   UNL A   1      41.392  25.837  28.525  1.00  0.00     0.074 A 
ATOM     36  C   UNL A   1      43.702  24.985  28.692  1.00  0.00     0.049 A 
ATOM     37  N   UNL A   1      41.540  27.054  28.985  1.00  0.00    -0.248 NA
ATOM     38  C   UNL A   1      40.019  25.521  28.099  1.00  0.00     0.031 C 
ATOM     39  C   UNL A   1      44.807  24.039  28.530  1.00  0.00     0.029 A 
ATOM     40  N   UNL A   1      44.294  26.096  29.239  1.00  0.00    -0.354 N 
ATOM     41  C   UNL A   1      40.291  27.653  28.884  1.00  0.00     0.074 A 
ATOM     42  C   UNL A   1      39.406  26.683  28.277  1.00  0.00     0.031 C 
ATOM     43  C   UNL A   1      45.937  24.601  28.991  1.00  0.00     0.029 A 
ATOM     44  C   UNL A   1      45.642  25.951  29.459  1.00  0.00     0.049 A 
ATOM     45  H   UNL A   1      43.798  26.920  29.452  1.00  0.00     0.167 HD
ATOM     46  C   UNL A   1      39.906  28.889  29.282  1.00  0.00     0.037 A 
ATOM     47  C   UNL A   1      46.538  26.809  29.986  1.00  0.00     0.037 A 
ATOM     48  C   UNL A   1      40.774  29.843  29.920  1.00  0.00     0.049 A 
ATOM     49  C   UNL A   1      46.078  28.160  30.457  1.00  0.00     0.074 A 
ATOM     50  C   UNL A   1      40.465  31.101  30.406  1.00  0.00     0.029 A 
ATOM     51  N   UNL A   1      42.123  29.639  30.166  1.00  0.00    -0.354 N 
ATOM     52  N   UNL A   1      44.880  28.688  30.412  1.00  0.00    -0.248 NA
ATOM     53  C   UNL A   1      47.096  29.029  31.066  1.00  0.00     0.031 C 
ATOM     54  C   UNL A   1      41.633  31.669  30.926  1.00  0.00     0.029 A 
ATOM     55  C   UNL A   1      42.661  30.751  30.794  1.00  0.00     0.049 A 
ATOM     56  H   UNL A   1      42.624  28.825  29.930  1.00  0.00     0.167 HD
ATOM     57  C   UNL A   1      44.990  29.934  31.015  1.00  0.00     0.074 A 
ATOM     58  C   UNL A   1      46.372  30.080  31.424  1.00  0.00     0.031 C 
ATOM     59  C   UNL A   1      44.033  30.872  31.213  1.00  0.00     0.037 A 
BRANCH  46  60
ATOM     60  C   UNL A   1      38.475  29.272  29.047  1.00  0.00     0.057 A 
ATOM     61  C   UNL A   1      37.530  29.258  30.081  1.00  0.00     0.134 A 
ATOM     62  C   UNL A   1      38.041  29.681  27.780  1.00  0.00     0.134 A 
ATOM     63  F   UNL A   1      37.879  28.864  31.316  1.00  0.00    -0.206 F 
ATOM     64  C   UNL A   1      36.198  29.610  29.857  1.00  0.00     0.040 A 
ATOM     65  C   UNL A   1      36.717  30.058  27.549  1.00  0.00     0.040 A 
ATOM     66  F   UNL A   1      38.897  29.722  26.747  1.00  0.00    -0.206 F 
ATOM     67  C   UNL A   1      35.790  30.017  28.589  1.00  0.00     0.006 A 
ENDBRANCH  46  60
BRANCH  47  68
ATOM     68  C   UNL A   1      47.954  26.397  30.142  1.00  0.00     0.057 A 
ATOM     69  C   UNL A   1      48.905  26.708  29.164  1.00  0.00     0.134 A 
ATOM     70  C   UNL A   1      48.388  25.678  31.261  1.00  0.00     0.134 A 
ATOM     71  F   UNL A   1      48.543  27.380  28.060  1.00  0.00    -0.206 F 
ATOM     72  C   UNL A   1      50.235  26.304  29.283  1.00  0.00     0.040 A 
ATOM     73  C   UNL A   1      49.719  25.285  31.404  1.00  0.00     0.040 A 
ATOM     74  F   UNL A   1      47.524  25.355  32.235  1.00  0.00    -0.206 F 
ATOM     75  C   UNL A   1      50.646  25.592  30.409  1.00  0.00     0.006 A 
ENDBRANCH  47  68
BRANCH  59  76
ATOM     76  C   UNL A   1      44.435  32.118  31.945  1.00  0.00     0.057 A 
ATOM     77  C   UNL A   1      44.881  33.261  31.272  1.00  0.00     0.134 A 
ATOM     78  C   UNL A   1      44.346  32.180  33.342  1.00  0.00     0.134 A 
ATOM     79  F   UNL A   1      45.000  33.260  29.936  1.00  0.00    -0.206 F 
ATOM     80  C   UNL A   1      45.245  34.417  31.963  1.00  0.00     0.040 A 
ATOM     81  C   UNL A   1      44.685  33.337  34.042  1.00  0.00     0.040 A 
ATOM     82  F   UNL A   1      43.918  31.121  34.045  1.00  0.00    -0.206 F 
ATOM     83  C   UNL A   1      45.143  34.459  33.353  1.00  0.00     0.006 A 
ENDBRANCH  59  76
ENDBRANCH  33  34
ENDBRANCH  25  28
ENDBRANCH  23  24
ENDBRANCH  22  23
ENDBRANCH   1  22
TORSDOF 13
ENDMDL
MODEL 2
REMARK VINA RESULT:     -10.4      6.031     12.240
REMARK SMILES O=C(/C=C/c1ccccc1Oc1cccc(Cl)c1)NCCCNC(=O)c1ccc(-c2c3nc(c(-c4c(F)cccc4F)c4ccc([nH]4)c(-c4c(F)cccc4F)c4nc(c(-c5c(F)cccc5F)c5ccc2[nH]5)C=C4)C=C3)cc1
REMARK SMILES IDX 20 1 19 2 1 3 2 4 3 6 4 7 5 8 6 9 10 10 7 11 9 12 8 13 11 14
REMARK SMILES IDX 12 15 13 16 18 17 14 18 16 19 15 20 17 21 21 22 22 23 23 24
REMARK SMILES IDX 24 25 25 27 26 28 27 29 79 30 28 31 78 32 29 33 30 34 31 35
REMARK SMILES IDX 72 36 32 37 77 38 71 39 73 40 33 41 76 42 70 43 69 44 34 46
REMARK SMILES IDX 60 47 43 48 59 49 44 50 47 51 58 52 74 53 45 54 46 55 57 57
REMARK SMILES IDX 75 58 48 59 35 60 36 61 41 62 37 63 38 64 40 65 42 66 39 67
REMARK SMILES IDX 61 68 62 69 67 70 63 71 64 72 66 73 68 74 65 75 49 76 50 77
REMARK SMILES IDX 55 78 51 79 52 80 54 81 56 82 53 83
REMARK H PARENT 19 5 23 26 73 45 47 56
REMARK Flexibility Score: inf
ROOT
ATOM      1  C   UNL A   1      32.752  35.826  31.712  1.00  0.00     0.118 C 
ENDROOT
BRANCH   1   2
ATOM      2  N   UNL A   1      34.004  35.166  32.017  1.00  0.00    -0.352 N 
ATOM      3  O   UNL A   1      34.429  36.292  33.969  1.00  0.00    -0.270 OA
ATOM      4  C   UNL A   1      34.727  35.433  33.153  1.00  0.00     0.244 C 
ATOM      5  H   UNL A   1      34.351  34.498  31.382  1.00  0.00     0.163 HD
BRANCH   4   6
ATOM      6  C   UNL A   1      35.899  34.548  33.400  1.00  0.00     0.072 C 
ATOM      7  C   UNL A   1      35.829  33.292  33.860  1.00  0.00     0.017 C 
BRANCH   7   8
ATOM      8  C   UNL A   1      37.008  32.472  34.168  1.00  0.00     0.017 A 
ATOM      9  C   UNL A   1      37.090  31.270  33.436  1.00  0.00     0.012 A 
ATOM     10  C   UNL A   1      37.990  32.743  35.141  1.00  0.00     0.134 A 
ATOM     11  C   UNL A   1      38.115  30.349  33.660  1.00  0.00     0.001 A 
ATOM     12  C   UNL A   1      39.017  31.801  35.348  1.00  0.00     0.048 A 
ATOM     13  C   UNL A   1      39.079  30.614  34.621  1.00  0.00     0.004 A 
BRANCH  10  14
ATOM     14  O   UNL A   1      38.146  33.828  35.981  1.00  0.00    -0.457 OA
BRANCH  14  15
ATOM     15  C   UNL A   1      38.043  33.714  37.338  1.00  0.00     0.128 A 
ATOM     16  C   UNL A   1      39.011  34.343  38.124  1.00  0.00     0.047 A 
ATOM     17  C   UNL A   1      37.084  32.886  37.920  1.00  0.00     0.067 A 
ATOM     18  C   UNL A   1      38.975  34.208  39.512  1.00  0.00     0.005 A 
ATOM     19  C   UNL A   1      37.050  32.764  39.307  1.00  0.00     0.044 A 
ATOM     20  C   UNL A   1      37.985  33.424  40.106  1.00  0.00     0.021 A 
ATOM     21  Cl  UNL A   1      35.815  31.822  40.048  1.00  0.00    -0.084 Cl
ENDBRANCH  14  15
ENDBRANCH  10  14
ENDBRANCH   7   8
ENDBRANCH   4   6
ENDBRANCH   1   2
BRANCH   1  22
ATOM     22  C   UNL A   1      32.866  36.954  30.695  1.00  0.00     0.042 C 
BRANCH  22  23
ATOM     23  C   UNL A   1      33.518  36.561  29.374  1.00  0.00     0.118 C 
BRANCH  23  24
ATOM     24  N   UNL A   1      32.780  35.544  28.638  1.00  0.00    -0.352 N 
ATOM     25  C   UNL A   1      33.144  34.266  28.292  1.00  0.00     0.251 C 
ATOM     26  H   UNL A   1      31.882  35.815  28.343  1.00  0.00     0.163 HD
ATOM     27  O   UNL A   1      32.398  33.598  27.582  1.00  0.00    -0.269 OA
BRANCH  25  28
ATOM     28  C   UNL A   1      34.435  33.688  28.739  1.00  0.00     0.039 A 
ATOM     29  C   UNL A   1      35.592  34.015  28.024  1.00  0.00     0.014 A 
ATOM     30  C   UNL A   1      34.517  32.804  29.818  1.00  0.00     0.014 A 
ATOM     31  C   UNL A   1      36.830  33.498  28.419  1.00  0.00     0.010 A 
ATOM     32  C   UNL A   1      35.760  32.346  30.255  1.00  0.00     0.010 A 
ATOM     33  C   UNL A   1      36.928  32.677  29.553  1.00  0.00    -0.014 A 
BRANCH  33  34
ATOM     34  C   UNL A   1      38.239  32.132  29.990  1.00  0.00     0.031 A 
ATOM     35  C   UNL A   1      38.717  30.802  29.473  1.00  0.00     0.074 A 
ATOM     36  C   UNL A   1      38.986  32.810  30.882  1.00  0.00     0.049 A 
ATOM     37  N   UNL A   1      39.815  30.148  29.757  1.00  0.00    -0.248 NA
ATOM     38  C   UNL A   1      37.830  30.101  28.531  1.00  0.00     0.031 C 
ATOM     39  C   UNL A   1      38.617  34.084  31.502  1.00  0.00     0.029 A 
ATOM     40  N   UNL A   1      40.212  32.519  31.427  1.00  0.00    -0.354 N 
ATOM     41  C   UNL A   1      39.742  28.956  29.048  1.00  0.00     0.074 A 
ATOM     42  C   UNL A   1      38.470  28.954  28.357  1.00  0.00     0.031 C 
ATOM     43  C   UNL A   1      39.607  34.476  32.321  1.00  0.00     0.029 A 
ATOM     44  C   UNL A   1      40.667  33.473  32.303  1.00  0.00     0.049 A 
ATOM     45  H   UNL A   1      40.717  31.702  31.209  1.00  0.00     0.167 HD
ATOM     46  C   UNL A   1      40.658  27.963  28.958  1.00  0.00     0.037 A 
ATOM     47  C   UNL A   1      41.814  33.536  33.007  1.00  0.00     0.037 A 
ATOM     48  C   UNL A   1      41.938  27.978  29.614  1.00  0.00     0.049 A 
ATOM     49  C   UNL A   1      42.832  32.441  32.860  1.00  0.00     0.074 A 
ATOM     50  C   UNL A   1      42.956  27.041  29.543  1.00  0.00     0.029 A 
ATOM     51  N   UNL A   1      42.380  28.985  30.457  1.00  0.00    -0.354 N 
ATOM     52  N   UNL A   1      42.775  31.350  32.136  1.00  0.00    -0.248 NA
ATOM     53  C   UNL A   1      44.083  32.594  33.618  1.00  0.00     0.031 C 
ATOM     54  C   UNL A   1      44.005  27.473  30.363  1.00  0.00     0.029 A 
ATOM     55  C   UNL A   1      43.654  28.692  30.916  1.00  0.00     0.049 A 
ATOM     56  H   UNL A   1      41.864  29.790  30.694  1.00  0.00     0.167 HD
ATOM     57  C   UNL A   1      43.990  30.704  32.323  1.00  0.00     0.074 A 
ATOM     58  C   UNL A   1      44.768  31.530  33.223  1.00  0.00     0.031 C 
ATOM     59  C   UNL A   1      44.422  29.533  31.796  1.00  0.00     0.037 A 
BRANCH  46  60
ATOM     60  C   UNL A   1      40.306  26.779  28.107  1.00  0.00     0.057 A 
ATOM     61  C   UNL A   1      40.827  26.620  26.815  1.00  0.00     0.134 A 
ATOM     62  C   UNL A   1      39.457  25.775  28.589  1.00  0.00     0.134 A 
ATOM     63  F   UNL A   1      41.636  27.553  26.290  1.00  0.00    -0.206 F 
ATOM     64  C   UNL A   1      40.493  25.520  26.024  1.00  0.00     0.040 A 
ATOM     65  C   UNL A   1      39.136  24.658  27.816  1.00  0.00     0.040 A 
ATOM     66  F   UNL A   1      38.929  25.862  29.819  1.00  0.00    -0.206 F 
ATOM     67  C   UNL A   1      39.649  24.532  26.527  1.00  0.00     0.006 A 
ENDBRANCH  46  60
BRANCH  47  68
ATOM     68  C   UNL A   1      42.085  34.705  33.879  1.00  0.00     0.057 A 
ATOM     69  C   UNL A   1      42.628  35.883  33.353  1.00  0.00     0.134 A 
ATOM     70  C   UNL A   1      41.820  34.671  35.252  1.00  0.00     0.134 A 
ATOM     71  F   UNL A   1      42.919  35.968  32.046  1.00  0.00    -0.206 F 
ATOM     72  C   UNL A   1      42.914  36.982  34.165  1.00  0.00     0.040 A 
ATOM     73  C   UNL A   1      42.083  35.769  36.072  1.00  0.00     0.040 A 
ATOM     74  F   UNL A   1      41.295  33.572  35.813  1.00  0.00    -0.206 F 
ATOM     75  C   UNL A   1      42.639  36.926  35.530  1.00  0.00     0.006 A 
ENDBRANCH  47  68
BRANCH  59  76
ATOM     76  C   UNL A   1      45.816  29.100  32.140  1.00  0.00     0.057 A 
ATOM     77  C   UNL A   1      46.922  29.483  31.371  1.00  0.00     0.134 A 
ATOM     78  C   UNL A   1      46.055  28.313  33.274  1.00  0.00     0.134 A 
ATOM     79  F   UNL A   1      46.756  30.227  30.267  1.00  0.00    -0.206 F 
ATOM     80  C   UNL A   1      48.215  29.081  31.705  1.00  0.00     0.040 A 
ATOM     81  C   UNL A   1      47.346  27.923  33.630  1.00  0.00     0.040 A 
ATOM     82  F   UNL A   1      45.039  27.919  34.056  1.00  0.00    -0.206 F 
ATOM     83  C   UNL A   1      48.430  28.302  32.842  1.00  0.00     0.006 A 
ENDBRANCH  59  76
ENDBRANCH  33  34
ENDBRANCH  25  28
ENDBRANCH  23  24
ENDBRANCH  22  23
ENDBRANCH   1  22
TORSDOF 13
ENDMDL
MODEL 3
REMARK VINA RESULT:     -10.4      0.438      6.275
REMARK SMILES O=C(/C=C/c1ccccc1Oc1cccc(Cl)c1)NCCCNC(=O)c1ccc(-c2c3nc(c(-c4c(F)cccc4F)c4ccc([nH]4)c(-c4c(F)cccc4F)c4nc(c(-c5c(F)cccc5F)c5ccc2[nH]5)C=C4)C=C3)cc1
REMARK SMILES IDX 20 1 19 2 1 3 2 4 3 6 4 7 5 8 6 9 10 10 7 11 9 12 8 13 11 14
REMARK SMILES IDX 12 15 13 16 18 17 14 18 16 19 15 20 17 21 21 22 22 23 23 24
REMARK SMILES IDX 24 25 25 27 26 28 27 29 79 30 28 31 78 32 29 33 30 34 31 35
REMARK SMILES IDX 72 36 32 37 77 38 71 39 73 40 33 41 76 42 70 43 69 44 34 46
REMARK SMILES IDX 60 47 43 48 59 49 44 50 47 51 58 52 74 53 45 54 46 55 57 57
REMARK SMILES IDX 75 58 48 59 35 60 36 61 41 62 37 63 38 64 40 65 42 66 39 67
REMARK SMILES IDX 61 68 62 69 67 70 63 71 64 72 66 73 68 74 65 75 49 76 50 77
REMARK SMILES IDX 55 78 51 79 52 80 54 81 56 82 53 83
REMARK H PARENT 19 5 23 26 73 45 47 56
REMARK Flexibility Score: inf
ROOT
ATOM      1  C   UNL A   1      45.917  19.205  25.021  1.00  0.00     0.118 C 
ENDROOT
BRANCH   1   2
ATOM      2  N   UNL A   1      46.032  20.603  25.379  1.00  0.00    -0.352 N 
ATOM      3  O   UNL A   1      44.912  21.436  23.559  1.00  0.00    -0.270 OA
ATOM      4  C   UNL A   1      45.482  21.611  24.626  1.00  0.00     0.244 C 
ATOM      5  H   UNL A   1      46.527  20.841  26.197  1.00  0.00     0.163 HD
BRANCH   4   6
ATOM      6  C   UNL A   1      45.544  22.974  25.221  1.00  0.00     0.072 C 
ATOM      7  C   UNL A   1      45.101  24.092  24.628  1.00  0.00     0.017 C 
BRANCH   7   8
ATOM      8  C   UNL A   1      45.248  25.432  25.208  1.00  0.00     0.017 A 
ATOM      9  C   UNL A   1      44.039  26.146  25.342  1.00  0.00     0.012 A 
ATOM     10  C   UNL A   1      46.454  26.066  25.567  1.00  0.00     0.134 A 
ATOM     11  C   UNL A   1      44.016  27.460  25.815  1.00  0.00     0.001 A 
ATOM     12  C   UNL A   1      46.407  27.390  26.045  1.00  0.00     0.048 A 
ATOM     13  C   UNL A   1      45.204  28.084  26.163  1.00  0.00     0.004 A 
BRANCH  10  14
ATOM     14  O   UNL A   1      47.754  25.603  25.539  1.00  0.00    -0.457 OA
BRANCH  14  15
ATOM     15  C   UNL A   1      48.679  26.093  24.661  1.00  0.00     0.128 A 
ATOM     16  C   UNL A   1      49.941  26.427  25.159  1.00  0.00     0.047 A 
ATOM     17  C   UNL A   1      48.337  26.379  23.341  1.00  0.00     0.067 A 
ATOM     18  C   UNL A   1      50.898  26.981  24.309  1.00  0.00     0.005 A 
ATOM     19  C   UNL A   1      49.302  26.924  22.497  1.00  0.00     0.044 A 
ATOM     20  C   UNL A   1      50.581  27.221  22.971  1.00  0.00     0.021 A 
ATOM     21  Cl  UNL A   1      48.926  27.196  20.840  1.00  0.00    -0.084 Cl
ENDBRANCH  14  15
ENDBRANCH  10  14
ENDBRANCH   7   8
ENDBRANCH   4   6
ENDBRANCH   1   2
BRANCH   1  22
ATOM     22  C   UNL A   1      44.486  18.723  24.820  1.00  0.00     0.042 C 
BRANCH  22  23
ATOM     23  C   UNL A   1      43.634  18.704  26.083  1.00  0.00     0.118 C 
BRANCH  23  24
ATOM     24  N   UNL A   1      42.203  18.644  25.822  1.00  0.00    -0.352 N 
ATOM     25  C   UNL A   1      41.216  19.561  26.092  1.00  0.00     0.251 C 
ATOM     26  H   UNL A   1      41.894  17.819  25.384  1.00  0.00     0.163 HD
ATOM     27  O   UNL A   1      40.044  19.270  25.869  1.00  0.00    -0.269 OA
BRANCH  25  28
ATOM     28  C   UNL A   1      41.540  20.887  26.674  1.00  0.00     0.039 A 
ATOM     29  C   UNL A   1      41.847  21.937  25.803  1.00  0.00     0.014 A 
ATOM     30  C   UNL A   1      41.585  21.099  28.055  1.00  0.00     0.014 A 
ATOM     31  C   UNL A   1      42.150  23.204  26.311  1.00  0.00     0.010 A 
ATOM     32  C   UNL A   1      41.815  22.378  28.559  1.00  0.00     0.010 A 
ATOM     33  C   UNL A   1      42.113  23.442  27.694  1.00  0.00    -0.014 A 
BRANCH  33  34
ATOM     34  C   UNL A   1      42.420  24.786  28.246  1.00  0.00     0.031 A 
ATOM     35  C   UNL A   1      43.820  25.125  28.683  1.00  0.00     0.074 A 
ATOM     36  C   UNL A   1      41.435  25.694  28.393  1.00  0.00     0.049 A 
ATOM     37  N   UNL A   1      44.278  26.232  29.213  1.00  0.00    -0.248 NA
ATOM     38  C   UNL A   1      44.834  24.071  28.527  1.00  0.00     0.031 C 
ATOM     39  C   UNL A   1      40.027  25.477  28.058  1.00  0.00     0.029 A 
ATOM     40  N   UNL A   1      41.470  26.982  28.867  1.00  0.00    -0.354 N 
ATOM     41  C   UNL A   1      45.623  26.000  29.471  1.00  0.00     0.074 A 
ATOM     42  C   UNL A   1      45.897  24.633  29.085  1.00  0.00     0.031 C 
ATOM     43  C   UNL A   1      39.338  26.602  28.314  1.00  0.00     0.029 A 
ATOM     44  C   UNL A   1      40.248  27.608  28.851  1.00  0.00     0.049 A 
ATOM     45  H   UNL A   1      42.294  27.415  29.189  1.00  0.00     0.167 HD
ATOM     46  C   UNL A   1      46.553  26.853  29.963  1.00  0.00     0.037 A 
ATOM     47  C   UNL A   1      39.903  28.857  29.219  1.00  0.00     0.037 A 
ATOM     48  C   UNL A   1      46.293  28.223  30.314  1.00  0.00     0.049 A 
ATOM     49  C   UNL A   1      40.961  29.798  29.725  1.00  0.00     0.074 A 
ATOM     50  C   UNL A   1      47.181  29.181  30.772  1.00  0.00     0.029 A 
ATOM     51  N   UNL A   1      45.050  28.833  30.239  1.00  0.00    -0.354 N 
ATOM     52  N   UNL A   1      42.241  29.583  29.904  1.00  0.00    -0.248 NA
ATOM     53  C   UNL A   1      40.526  31.161  30.065  1.00  0.00     0.031 C 
ATOM     54  C   UNL A   1      46.470  30.365  30.996  1.00  0.00     0.029 A 
ATOM     55  C   UNL A   1      45.148  30.154  30.646  1.00  0.00     0.049 A 
ATOM     56  H   UNL A   1      44.222  28.393  29.941  1.00  0.00     0.167 HD
ATOM     57  C   UNL A   1      42.771  30.789  30.345  1.00  0.00     0.074 A 
ATOM     58  C   UNL A   1      41.674  31.733  30.398  1.00  0.00     0.031 C 
ATOM     59  C   UNL A   1      44.051  31.086  30.674  1.00  0.00     0.037 A 
BRANCH  46  60
ATOM     60  C   UNL A   1      47.946  26.323  30.138  1.00  0.00     0.057 A 
ATOM     61  C   UNL A   1      48.331  25.637  31.298  1.00  0.00     0.134 A 
ATOM     62  C   UNL A   1      48.905  26.480  29.130  1.00  0.00     0.134 A 
ATOM     63  F   UNL A   1      47.463  25.465  32.306  1.00  0.00    -0.206 F 
ATOM     64  C   UNL A   1      49.630  25.151  31.460  1.00  0.00     0.040 A 
ATOM     65  C   UNL A   1      50.199  25.976  29.271  1.00  0.00     0.040 A 
ATOM     66  F   UNL A   1      48.600  27.122  27.992  1.00  0.00    -0.206 F 
ATOM     67  C   UNL A   1      50.566  25.316  30.442  1.00  0.00     0.006 A 
ENDBRANCH  46  60
BRANCH  47  68
ATOM     68  C   UNL A   1      38.497  29.310  29.078  1.00  0.00     0.057 A 
ATOM     69  C   UNL A   1      37.634  29.326  30.179  1.00  0.00     0.134 A 
ATOM     70  C   UNL A   1      37.982  29.724  27.845  1.00  0.00     0.134 A 
ATOM     71  F   UNL A   1      38.067  28.921  31.383  1.00  0.00    -0.206 F 
ATOM     72  C   UNL A   1      36.301  29.722  30.057  1.00  0.00     0.040 A 
ATOM     73  C   UNL A   1      36.657  30.142  27.713  1.00  0.00     0.040 A 
ATOM     74  F   UNL A   1      38.762  29.735  26.755  1.00  0.00    -0.206 F 
ATOM     75  C   UNL A   1      35.811  30.134  28.820  1.00  0.00     0.006 A 
ENDBRANCH  47  68
BRANCH  59  76
ATOM     76  C   UNL A   1      44.344  32.502  31.075  1.00  0.00     0.057 A 
ATOM     77  C   UNL A   1      44.656  33.488  30.132  1.00  0.00     0.134 A 
ATOM     78  C   UNL A   1      44.284  32.885  32.421  1.00  0.00     0.134 A 
ATOM     79  F   UNL A   1      44.742  33.180  28.829  1.00  0.00    -0.206 F 
ATOM     80  C   UNL A   1      44.920  34.804  30.516  1.00  0.00     0.040 A 
ATOM     81  C   UNL A   1      44.523  34.202  32.814  1.00  0.00     0.040 A 
ATOM     82  F   UNL A   1      43.982  31.989  33.372  1.00  0.00    -0.206 F 
ATOM     83  C   UNL A   1      44.848  35.165  31.860  1.00  0.00     0.006 A 
ENDBRANCH  59  76
ENDBRANCH  33  34
ENDBRANCH  25  28
ENDBRANCH  23  24
ENDBRANCH  22  23
ENDBRANCH   1  22
TORSDOF 13
ENDMDL
