MODEL 1
REMARK VINA RESULT:     -12.4      0.000      0.000
REMARK SMILES COc1ccc2c(CC(=O)NCCCNC(=O)c3ccc(-c4c5nc(c(-c6c(F)cccc6F)c6ccc([nH]6)c(-c6c(F)cccc6F)c6nc(c(-c7c(F)cccc7F)c7ccc4[nH]7)C=C6)C=C5)cc3)c(C(=O)c3cc(C)ccn3)[nH]c2c1
REMARK SMILES IDX 12 1 11 2 9 3 10 4 8 6 7 7 3 8 4 9 84 10 5 11 83 12 6 13
REMARK SMILES IDX 82 14 72 15 2 17 1 18 73 19 74 20 75 21 76 22 81 23 77 24
REMARK SMILES IDX 80 25 78 26 79 27 13 28 14 29 15 30 16 31 17 33 18 34 19 35
REMARK SMILES IDX 71 36 20 37 70 38 21 39 22 40 23 41 64 42 24 43 69 44 63 45
REMARK SMILES IDX 65 46 25 47 68 48 62 49 61 50 26 52 52 53 35 54 51 55 36 56
REMARK SMILES IDX 39 57 50 58 66 59 37 60 38 61 49 63 67 64 40 65 27 66 28 67
REMARK SMILES IDX 33 68 29 69 30 70 32 71 34 72 31 73 53 74 54 75 59 76 55 77
REMARK SMILES IDX 56 78 58 79 60 80 57 81 41 82 42 83 47 84 43 85 44 86 46 87
REMARK SMILES IDX 48 88 45 89
REMARK H PARENT 11 5 82 16 15 32 65 51 39 62
REMARK Flexibility Score: inf
ROOT
ATOM      1  C   UNL A   1      33.732  27.171  24.883  1.00  0.00     0.117 C 
ENDROOT
BRANCH   1   2
ATOM      2  N   UNL A   1      33.891  26.059  25.796  1.00  0.00    -0.356 N 
ATOM      3  C   UNL A   1      34.381  24.804  25.572  1.00  0.00     0.224 C 
ATOM      4  O   UNL A   1      34.606  24.113  26.570  1.00  0.00    -0.275 OA
ATOM      5  H   UNL A   1      33.601  26.234  26.720  1.00  0.00     0.163 HD
BRANCH   3   6
ATOM      6  C   UNL A   1      34.757  24.333  24.172  1.00  0.00     0.138 C 
BRANCH   6   7
ATOM      7  C   UNL A   1      33.767  23.403  23.518  1.00  0.00    -0.002 A 
ATOM      8  C   UNL A   1      32.686  19.363  24.080  1.00  0.00     0.120 A 
ATOM      9  C   UNL A   1      33.654  19.847  24.957  1.00  0.00     0.047 A 
ATOM     10  C   UNL A   1      32.165  20.180  23.073  1.00  0.00     0.073 A 
ATOM     11  C   UNL A   1      34.090  21.177  24.870  1.00  0.00     0.014 A 
ATOM     12  C   UNL A   1      32.601  21.511  23.014  1.00  0.00     0.050 A 
ATOM     13  C   UNL A   1      33.551  22.032  23.885  1.00  0.00     0.004 A 
ATOM     14  N   UNL A   1      32.235  22.524  22.164  1.00  0.00    -0.351 N 
ATOM     15  C   UNL A   1      32.845  23.711  22.515  1.00  0.00     0.093 A 
ATOM     16  H   UNL A   1      31.618  22.418  21.403  1.00  0.00     0.167 HD
BRANCH   8  17
ATOM     17  O   UNL A   1      32.208  18.079  24.097  1.00  0.00    -0.497 OA
ATOM     18  C   UNL A   1      32.566  17.328  25.254  1.00  0.00     0.278 C 
ENDBRANCH   8  17
BRANCH  15  19
ATOM     19  C   UNL A   1      32.554  25.011  21.916  1.00  0.00     0.227 C 
ATOM     20  O   UNL A   1      33.202  25.484  20.984  1.00  0.00    -0.285 OA
BRANCH  19  21
ATOM     21  C   UNL A   1      31.471  25.850  22.493  1.00  0.00     0.113 A 
ATOM     22  C   UNL A   1      31.334  27.176  22.091  1.00  0.00     0.036 A 
ATOM     23  N   UNL A   1      30.651  25.239  23.384  1.00  0.00    -0.253 NA
ATOM     24  C   UNL A   1      30.289  27.928  22.634  1.00  0.00    -0.047 A 
ATOM     25  C   UNL A   1      29.629  25.976  23.863  1.00  0.00     0.112 A 
ATOM     26  C   UNL A   1      30.076  29.361  22.248  1.00  0.00     0.044 C 
ATOM     27  C   UNL A   1      29.413  27.304  23.527  1.00  0.00     0.023 A 
ENDBRANCH  19  21
ENDBRANCH  15  19
ENDBRANCH   6   7
ENDBRANCH   3   6
ENDBRANCH   1   2
BRANCH   1  28
ATOM     28  C   UNL A   1      34.013  28.522  25.531  1.00  0.00     0.042 C 
BRANCH  28  29
ATOM     29  C   UNL A   1      33.853  28.545  27.050  1.00  0.00     0.118 C 
BRANCH  29  30
ATOM     30  N   UNL A   1      33.781  29.894  27.593  1.00  0.00    -0.352 N 
ATOM     31  C   UNL A   1      34.694  30.614  28.323  1.00  0.00     0.251 C 
ATOM     32  H   UNL A   1      32.940  30.368  27.406  1.00  0.00     0.163 HD
ATOM     33  O   UNL A   1      34.355  31.687  28.816  1.00  0.00    -0.269 OA
BRANCH  31  34
ATOM     34  C   UNL A   1      36.072  30.118  28.541  1.00  0.00     0.039 A 
ATOM     35  C   UNL A   1      36.980  30.183  27.477  1.00  0.00     0.014 A 
ATOM     36  C   UNL A   1      36.462  29.534  29.750  1.00  0.00     0.014 A 
ATOM     37  C   UNL A   1      38.290  29.723  27.643  1.00  0.00     0.010 A 
ATOM     38  C   UNL A   1      37.784  29.127  29.933  1.00  0.00     0.010 A 
ATOM     39  C   UNL A   1      38.711  29.218  28.883  1.00  0.00    -0.014 A 
BRANCH  39  40
ATOM     40  C   UNL A   1      40.115  28.787  29.103  1.00  0.00     0.031 A 
ATOM     41  C   UNL A   1      41.117  29.737  29.696  1.00  0.00     0.074 A 
ATOM     42  C   UNL A   1      40.507  27.563  28.700  1.00  0.00     0.049 A 
ATOM     43  N   UNL A   1      42.407  29.582  29.860  1.00  0.00    -0.248 NA
ATOM     44  C   UNL A   1      40.608  31.043  30.144  1.00  0.00     0.031 C 
ATOM     45  C   UNL A   1      39.643  26.558  28.076  1.00  0.00     0.029 A 
ATOM     46  N   UNL A   1      41.740  26.961  28.736  1.00  0.00    -0.354 N 
ATOM     47  C   UNL A   1      42.868  30.776  30.400  1.00  0.00     0.074 A 
ATOM     48  C   UNL A   1      41.725  31.656  30.517  1.00  0.00     0.031 C 
ATOM     49  C   UNL A   1      40.371  25.465  27.795  1.00  0.00     0.029 A 
ATOM     50  C   UNL A   1      41.757  25.704  28.186  1.00  0.00     0.049 A 
ATOM     51  H   UNL A   1      42.539  27.392  29.120  1.00  0.00     0.167 HD
ATOM     52  C   UNL A   1      44.127  31.105  30.773  1.00  0.00     0.037 A 
ATOM     53  C   UNL A   1      42.777  24.842  28.004  1.00  0.00     0.037 A 
ATOM     54  C   UNL A   1      45.256  30.217  30.705  1.00  0.00     0.049 A 
ATOM     55  C   UNL A   1      44.159  25.226  28.452  1.00  0.00     0.074 A 
ATOM     56  C   UNL A   1      46.554  30.438  31.133  1.00  0.00     0.029 A 
ATOM     57  N   UNL A   1      45.222  28.936  30.178  1.00  0.00    -0.354 N 
ATOM     58  N   UNL A   1      44.566  26.338  29.011  1.00  0.00    -0.248 NA
ATOM     59  C   UNL A   1      45.223  24.232  28.244  1.00  0.00     0.031 C 
ATOM     60  C   UNL A   1      47.313  29.300  30.841  1.00  0.00     0.029 A 
ATOM     61  C   UNL A   1      46.479  28.360  30.259  1.00  0.00     0.049 A 
ATOM     62  H   UNL A   1      44.423  28.500  29.803  1.00  0.00     0.167 HD
ATOM     63  C   UNL A   1      45.924  26.169  29.248  1.00  0.00     0.074 A 
ATOM     64  C   UNL A   1      46.271  24.844  28.777  1.00  0.00     0.031 C 
ATOM     65  C   UNL A   1      46.804  27.035  29.804  1.00  0.00     0.037 A 
BRANCH  52  66
ATOM     66  C   UNL A   1      44.357  32.489  31.300  1.00  0.00     0.057 A 
ATOM     67  C   UNL A   1      44.270  32.780  32.667  1.00  0.00     0.134 A 
ATOM     68  C   UNL A   1      44.733  33.526  30.437  1.00  0.00     0.134 A 
ATOM     69  F   UNL A   1      43.907  31.831  33.542  1.00  0.00    -0.206 F 
ATOM     70  C   UNL A   1      44.537  34.060  33.157  1.00  0.00     0.040 A 
ATOM     71  C   UNL A   1      45.020  34.805  30.918  1.00  0.00     0.040 A 
ATOM     72  F   UNL A   1      44.840  33.310  29.118  1.00  0.00    -0.206 F 
ATOM     73  C   UNL A   1      44.921  35.075  32.281  1.00  0.00     0.006 A 
ENDBRANCH  52  66
BRANCH  53  74
ATOM     74  C   UNL A   1      42.533  23.523  27.374  1.00  0.00     0.057 A 
ATOM     75  C   UNL A   1      42.160  22.416  28.144  1.00  0.00     0.134 A 
ATOM     76  C   UNL A   1      42.689  23.331  25.996  1.00  0.00     0.134 A 
ATOM     77  F   UNL A   1      42.017  22.536  29.472  1.00  0.00    -0.206 F 
ATOM     78  C   UNL A   1      41.972  21.157  27.571  1.00  0.00     0.040 A 
ATOM     79  C   UNL A   1      42.482  22.082  25.406  1.00  0.00     0.040 A 
ATOM     80  F   UNL A   1      43.041  24.354  25.204  1.00  0.00    -0.206 F 
ATOM     81  C   UNL A   1      42.130  20.990  26.198  1.00  0.00     0.006 A 
ENDBRANCH  53  74
BRANCH  65  82
ATOM     82  C   UNL A   1      48.216  26.563  29.970  1.00  0.00     0.057 A 
ATOM     83  C   UNL A   1      49.194  26.812  28.999  1.00  0.00     0.134 A 
ATOM     84  C   UNL A   1      48.609  25.887  31.131  1.00  0.00     0.134 A 
ATOM     85  F   UNL A   1      48.875  27.443  27.859  1.00  0.00    -0.206 F 
ATOM     86  C   UNL A   1      50.513  26.391  29.172  1.00  0.00     0.040 A 
ATOM     87  C   UNL A   1      49.928  25.478  31.324  1.00  0.00     0.040 A 
ATOM     88  F   UNL A   1      47.719  25.623  32.099  1.00  0.00    -0.206 F 
ATOM     89  C   UNL A   1      50.884  25.727  30.340  1.00  0.00     0.006 A 
ENDBRANCH  65  82
ENDBRANCH  39  40
ENDBRANCH  31  34
ENDBRANCH  29  30
ENDBRANCH  28  29
ENDBRANCH   1  28
TORSDOF 14
ENDMDL
MODEL 2
REMARK VINA RESULT:     -12.2      2.581      7.571
REMARK SMILES COc1ccc2c(CC(=O)NCCCNC(=O)c3ccc(-c4c5nc(c(-c6c(F)cccc6F)c6ccc([nH]6)c(-c6c(F)cccc6F)c6nc(c(-c7c(F)cccc7F)c7ccc4[nH]7)C=C6)C=C5)cc3)c(C(=O)c3cc(C)ccn3)[nH]c2c1
REMARK SMILES IDX 12 1 11 2 9 3 10 4 8 6 7 7 3 8 4 9 84 10 5 11 83 12 6 13
REMARK SMILES IDX 82 14 72 15 2 17 1 18 73 19 74 20 75 21 76 22 81 23 77 24
REMARK SMILES IDX 80 25 78 26 79 27 13 28 14 29 15 30 16 31 17 33 18 34 19 35
REMARK SMILES IDX 71 36 20 37 70 38 21 39 22 40 23 41 64 42 24 43 69 44 63 45
REMARK SMILES IDX 65 46 25 47 68 48 62 49 61 50 26 52 52 53 35 54 51 55 36 56
REMARK SMILES IDX 39 57 50 58 66 59 37 60 38 61 49 63 67 64 40 65 27 66 28 67
REMARK SMILES IDX 33 68 29 69 30 70 32 71 34 72 31 73 53 74 54 75 59 76 55 77
REMARK SMILES IDX 56 78 58 79 60 80 57 81 41 82 42 83 47 84 43 85 44 86 46 87
REMARK SMILES IDX 48 88 45 89
REMARK H PARENT 11 5 82 16 15 32 65 51 39 62
REMARK Flexibility Score: inf
ROOT
ATOM      1  C   UNL A   1      36.335  20.492  24.965  1.00  0.00     0.117 C 
ENDROOT
BRANCH   1   2
ATOM      2  N   UNL A   1      36.706  21.875  25.178  1.00  0.00    -0.356 N 
ATOM      3  C   UNL A   1      36.136  23.019  24.699  1.00  0.00     0.224 C 
ATOM      4  O   UNL A   1      36.520  24.079  25.203  1.00  0.00    -0.275 OA
ATOM      5  H   UNL A   1      37.491  22.010  25.756  1.00  0.00     0.163 HD
BRANCH   3   6
ATOM      6  C   UNL A   1      34.991  22.980  23.695  1.00  0.00     0.138 C 
BRANCH   6   7
ATOM      7  C   UNL A   1      33.618  23.199  24.276  1.00  0.00    -0.002 A 
ATOM      8  C   UNL A   1      31.809  26.290  26.509  1.00  0.00     0.120 A 
ATOM      9  C   UNL A   1      33.131  26.521  26.135  1.00  0.00     0.047 A 
ATOM     10  C   UNL A   1      31.176  25.088  26.180  1.00  0.00     0.073 A 
ATOM     11  C   UNL A   1      33.835  25.567  25.387  1.00  0.00     0.014 A 
ATOM     12  C   UNL A   1      31.891  24.155  25.417  1.00  0.00     0.050 A 
ATOM     13  C   UNL A   1      33.205  24.361  25.012  1.00  0.00     0.004 A 
ATOM     14  N   UNL A   1      31.508  22.929  24.933  1.00  0.00    -0.351 N 
ATOM     15  C   UNL A   1      32.497  22.375  24.146  1.00  0.00     0.093 A 
ATOM     16  H   UNL A   1      30.642  22.501  25.122  1.00  0.00     0.167 HD
BRANCH   8  17
ATOM     17  O   UNL A   1      31.053  27.168  27.240  1.00  0.00    -0.497 OA
ATOM     18  C   UNL A   1      31.597  28.481  27.336  1.00  0.00     0.278 C 
ENDBRANCH   8  17
BRANCH  15  19
ATOM     19  C   UNL A   1      32.353  21.155  23.356  1.00  0.00     0.227 C 
ATOM     20  O   UNL A   1      31.946  21.146  22.197  1.00  0.00    -0.285 OA
BRANCH  19  21
ATOM     21  C   UNL A   1      32.642  19.842  23.991  1.00  0.00     0.113 A 
ATOM     22  C   UNL A   1      33.217  18.821  23.239  1.00  0.00     0.036 A 
ATOM     23  N   UNL A   1      32.337  19.734  25.309  1.00  0.00    -0.253 NA
ATOM     24  C   UNL A   1      33.498  17.608  23.874  1.00  0.00    -0.047 A 
ATOM     25  C   UNL A   1      32.654  18.567  25.905  1.00  0.00     0.112 A 
ATOM     26  C   UNL A   1      34.118  16.464  23.131  1.00  0.00     0.044 C 
ATOM     27  C   UNL A   1      33.222  17.491  25.239  1.00  0.00     0.023 A 
ENDBRANCH  19  21
ENDBRANCH  15  19
ENDBRANCH   6   7
ENDBRANCH   3   6
ENDBRANCH   1   2
BRANCH   1  28
ATOM     28  C   UNL A   1      37.528  19.542  24.984  1.00  0.00     0.042 C 
BRANCH  28  29
ATOM     29  C   UNL A   1      38.797  20.127  25.600  1.00  0.00     0.118 C 
BRANCH  29  30
ATOM     30  N   UNL A   1      39.867  19.150  25.730  1.00  0.00    -0.352 N 
ATOM     31  C   UNL A   1      41.194  19.311  26.042  1.00  0.00     0.251 C 
ATOM     32  H   UNL A   1      39.595  18.218  25.567  1.00  0.00     0.163 HD
ATOM     33  O   UNL A   1      41.957  18.354  25.938  1.00  0.00    -0.269 OA
BRANCH  31  34
ATOM     34  C   UNL A   1      41.729  20.620  26.485  1.00  0.00     0.039 A 
ATOM     35  C   UNL A   1      42.102  21.551  25.509  1.00  0.00     0.014 A 
ATOM     36  C   UNL A   1      41.925  20.916  27.837  1.00  0.00     0.014 A 
ATOM     37  C   UNL A   1      42.612  22.797  25.887  1.00  0.00     0.010 A 
ATOM     38  C   UNL A   1      42.380  22.179  28.215  1.00  0.00     0.010 A 
ATOM     39  C   UNL A   1      42.728  23.132  27.245  1.00  0.00    -0.014 A 
BRANCH  39  40
ATOM     40  C   UNL A   1      43.202  24.473  27.670  1.00  0.00     0.031 A 
ATOM     41  C   UNL A   1      42.217  25.534  28.078  1.00  0.00     0.074 A 
ATOM     42  C   UNL A   1      44.517  24.763  27.619  1.00  0.00     0.049 A 
ATOM     43  N   UNL A   1      42.432  26.792  28.371  1.00  0.00    -0.248 NA
ATOM     44  C   UNL A   1      40.802  25.134  28.144  1.00  0.00     0.031 C 
ATOM     45  C   UNL A   1      45.574  23.836  27.205  1.00  0.00     0.029 A 
ATOM     46  N   UNL A   1      45.189  25.927  27.896  1.00  0.00    -0.354 N 
ATOM     47  C   UNL A   1      41.181  27.341  28.626  1.00  0.00     0.074 A 
ATOM     48  C   UNL A   1      40.210  26.286  28.432  1.00  0.00     0.031 C 
ATOM     49  C   UNL A   1      46.758  24.466  27.263  1.00  0.00     0.029 A 
ATOM     50  C   UNL A   1      46.543  25.848  27.684  1.00  0.00     0.049 A 
ATOM     51  H   UNL A   1      44.741  26.744  28.219  1.00  0.00     0.167 HD
ATOM     52  C   UNL A   1      40.872  28.605  28.997  1.00  0.00     0.037 A 
ATOM     53  C   UNL A   1      47.503  26.785  27.801  1.00  0.00     0.037 A 
ATOM     54  C   UNL A   1      41.838  29.644  29.238  1.00  0.00     0.049 A 
ATOM     55  C   UNL A   1      47.133  28.173  28.239  1.00  0.00     0.074 A 
ATOM     56  C   UNL A   1      41.622  30.933  29.693  1.00  0.00     0.029 A 
ATOM     57  N   UNL A   1      43.205  29.509  29.050  1.00  0.00    -0.354 N 
ATOM     58  N   UNL A   1      45.952  28.660  28.529  1.00  0.00    -0.248 NA
ATOM     59  C   UNL A   1      48.231  29.143  28.368  1.00  0.00     0.031 C 
ATOM     60  C   UNL A   1      42.856  31.589  29.754  1.00  0.00     0.029 A 
ATOM     61  C   UNL A   1      43.842  30.698  29.366  1.00  0.00     0.049 A 
ATOM     62  H   UNL A   1      43.655  28.691  28.739  1.00  0.00     0.167 HD
ATOM     63  C   UNL A   1      46.166  29.980  28.901  1.00  0.00     0.074 A 
ATOM     64  C   UNL A   1      47.591  30.218  28.806  1.00  0.00     0.031 C 
ATOM     65  C   UNL A   1      45.262  30.913  29.285  1.00  0.00     0.037 A 
BRANCH  52  66
ATOM     66  C   UNL A   1      39.423  28.945  29.174  1.00  0.00     0.057 A 
ATOM     67  C   UNL A   1      38.631  29.369  28.100  1.00  0.00     0.134 A 
ATOM     68  C   UNL A   1      38.800  28.783  30.418  1.00  0.00     0.134 A 
ATOM     69  F   UNL A   1      39.171  29.550  26.886  1.00  0.00    -0.206 F 
ATOM     70  C   UNL A   1      37.269  29.634  28.261  1.00  0.00     0.040 A 
ATOM     71  C   UNL A   1      37.436  29.026  30.586  1.00  0.00     0.040 A 
ATOM     72  F   UNL A   1      39.504  28.374  31.484  1.00  0.00    -0.206 F 
ATOM     73  C   UNL A   1      36.667  29.455  29.505  1.00  0.00     0.006 A 
ENDBRANCH  52  66
BRANCH  53  74
ATOM     74  C   UNL A   1      48.916  26.444  27.506  1.00  0.00     0.057 A 
ATOM     75  C   UNL A   1      49.452  26.641  26.229  1.00  0.00     0.134 A 
ATOM     76  C   UNL A   1      49.753  25.893  28.483  1.00  0.00     0.134 A 
ATOM     77  F   UNL A   1      48.689  27.146  25.248  1.00  0.00    -0.206 F 
ATOM     78  C   UNL A   1      50.766  26.283  25.926  1.00  0.00     0.040 A 
ATOM     79  C   UNL A   1      51.076  25.550  28.199  1.00  0.00     0.040 A 
ATOM     80  F   UNL A   1      49.298  25.683  29.727  1.00  0.00    -0.206 F 
ATOM     81  C   UNL A   1      51.583  25.739  26.914  1.00  0.00     0.006 A 
ENDBRANCH  53  74
BRANCH  65  82
ATOM     82  C   UNL A   1      45.790  32.261  29.669  1.00  0.00     0.057 A 
ATOM     83  C   UNL A   1      46.202  32.545  30.976  1.00  0.00     0.134 A 
ATOM     84  C   UNL A   1      45.924  33.272  28.709  1.00  0.00     0.134 A 
ATOM     85  F   UNL A   1      46.086  31.620  31.942  1.00  0.00    -0.206 F 
ATOM     86  C   UNL A   1      46.716  33.796  31.320  1.00  0.00     0.040 A 
ATOM     87  C   UNL A   1      46.454  34.520  29.037  1.00  0.00     0.040 A 
ATOM     88  F   UNL A   1      45.551  33.059  27.440  1.00  0.00    -0.206 F 
ATOM     89  C   UNL A   1      46.848  34.786  30.347  1.00  0.00     0.006 A 
ENDBRANCH  65  82
ENDBRANCH  39  40
ENDBRANCH  31  34
ENDBRANCH  29  30
ENDBRANCH  28  29
ENDBRANCH   1  28
TORSDOF 14
ENDMDL
MODEL 3
REMARK VINA RESULT:     -12.2      2.386      7.444
REMARK SMILES COc1ccc2c(CC(=O)NCCCNC(=O)c3ccc(-c4c5nc(c(-c6c(F)cccc6F)c6ccc([nH]6)c(-c6c(F)cccc6F)c6nc(c(-c7c(F)cccc7F)c7ccc4[nH]7)C=C6)C=C5)cc3)c(C(=O)c3cc(C)ccn3)[nH]c2c1
REMARK SMILES IDX 12 1 11 2 9 3 10 4 8 6 7 7 3 8 4 9 84 10 5 11 83 12 6 13
REMARK SMILES IDX 82 14 72 15 2 17 1 18 73 19 74 20 75 21 76 22 81 23 77 24
REMARK SMILES IDX 80 25 78 26 79 27 13 28 14 29 15 30 16 31 17 33 18 34 19 35
REMARK SMILES IDX 71 36 20 37 70 38 21 39 22 40 23 41 64 42 24 43 69 44 63 45
REMARK SMILES IDX 65 46 25 47 68 48 62 49 61 50 26 52 52 53 35 54 51 55 36 56
REMARK SMILES IDX 39 57 50 58 66 59 37 60 38 61 49 63 67 64 40 65 27 66 28 67
REMARK SMILES IDX 33 68 29 69 30 70 32 71 34 72 31 73 53 74 54 75 59 76 55 77
REMARK SMILES IDX 56 78 58 79 60 80 57 81 41 82 42 83 47 84 43 85 44 86 46 87
REMARK SMILES IDX 48 88 45 89
REMARK H PARENT 11 5 82 16 15 32 65 51 39 62
REMARK Flexibility Score: inf
ROOT
ATOM      1  C   UNL A   1      36.296  20.512  24.863  1.00  0.00     0.117 C 
ENDROOT
BRANCH   1   2
ATOM      2  N   UNL A   1      36.645  21.887  25.151  1.00  0.00    -0.356 N 
ATOM      3  C   UNL A   1      36.064  23.046  24.723  1.00  0.00     0.224 C 
ATOM      4  O   UNL A   1      36.426  24.084  25.285  1.00  0.00    -0.275 OA
ATOM      5  H   UNL A   1      37.420  22.004  25.745  1.00  0.00     0.163 HD
BRANCH   3   6
ATOM      6  C   UNL A   1      34.932  23.042  23.703  1.00  0.00     0.138 C 
BRANCH   6   7
ATOM      7  C   UNL A   1      33.553  23.258  24.271  1.00  0.00    -0.002 A 
ATOM      8  C   UNL A   1      31.719  26.344  26.490  1.00  0.00     0.120 A 
ATOM      9  C   UNL A   1      33.044  26.577  26.130  1.00  0.00     0.047 A 
ATOM     10  C   UNL A   1      31.091  25.141  26.154  1.00  0.00     0.073 A 
ATOM     11  C   UNL A   1      33.756  25.625  25.387  1.00  0.00     0.014 A 
ATOM     12  C   UNL A   1      31.814  24.210  25.396  1.00  0.00     0.050 A 
ATOM     13  C   UNL A   1      33.132  24.419  25.004  1.00  0.00     0.004 A 
ATOM     14  N   UNL A   1      31.438  22.985  24.907  1.00  0.00    -0.351 N 
ATOM     15  C   UNL A   1      32.435  22.433  24.129  1.00  0.00     0.093 A 
ATOM     16  H   UNL A   1      30.570  22.555  25.088  1.00  0.00     0.167 HD
BRANCH   8  17
ATOM     17  O   UNL A   1      30.954  27.219  27.216  1.00  0.00    -0.497 OA
ATOM     18  C   UNL A   1      31.550  28.498  27.419  1.00  0.00     0.278 C 
ENDBRANCH   8  17
BRANCH  15  19
ATOM     19  C   UNL A   1      32.301  21.214  23.336  1.00  0.00     0.227 C 
ATOM     20  O   UNL A   1      31.874  21.202  22.184  1.00  0.00    -0.285 OA
BRANCH  19  21
ATOM     21  C   UNL A   1      32.625  19.903  23.960  1.00  0.00     0.113 A 
ATOM     22  C   UNL A   1      33.199  18.894  23.192  1.00  0.00     0.036 A 
ATOM     23  N   UNL A   1      32.352  19.787  25.284  1.00  0.00    -0.253 NA
ATOM     24  C   UNL A   1      33.514  17.685  23.816  1.00  0.00    -0.047 A 
ATOM     25  C   UNL A   1      32.701  18.624  25.869  1.00  0.00     0.112 A 
ATOM     26  C   UNL A   1      34.135  16.552  23.055  1.00  0.00     0.044 C 
ATOM     27  C   UNL A   1      33.271  17.559  25.187  1.00  0.00     0.023 A 
ENDBRANCH  19  21
ENDBRANCH  15  19
ENDBRANCH   6   7
ENDBRANCH   3   6
ENDBRANCH   1   2
BRANCH   1  28
ATOM     28  C   UNL A   1      37.481  19.558  24.976  1.00  0.00     0.042 C 
BRANCH  28  29
ATOM     29  C   UNL A   1      38.730  20.167  25.609  1.00  0.00     0.118 C 
BRANCH  29  30
ATOM     30  N   UNL A   1      39.837  19.227  25.697  1.00  0.00    -0.352 N 
ATOM     31  C   UNL A   1      41.152  19.422  26.042  1.00  0.00     0.251 C 
ATOM     32  H   UNL A   1      39.606  18.298  25.473  1.00  0.00     0.163 HD
ATOM     33  O   UNL A   1      41.954  18.504  25.893  1.00  0.00    -0.269 OA
BRANCH  31  34
ATOM     34  C   UNL A   1      41.626  20.721  26.573  1.00  0.00     0.039 A 
ATOM     35  C   UNL A   1      42.049  21.698  25.664  1.00  0.00     0.014 A 
ATOM     36  C   UNL A   1      41.719  20.965  27.946  1.00  0.00     0.014 A 
ATOM     37  C   UNL A   1      42.504  22.936  26.126  1.00  0.00     0.010 A 
ATOM     38  C   UNL A   1      42.120  22.220  28.405  1.00  0.00     0.010 A 
ATOM     39  C   UNL A   1      42.515  23.218  27.501  1.00  0.00    -0.014 A 
BRANCH  39  40
ATOM     40  C   UNL A   1      42.930  24.550  28.011  1.00  0.00     0.031 A 
ATOM     41  C   UNL A   1      41.899  25.601  28.316  1.00  0.00     0.074 A 
ATOM     42  C   UNL A   1      44.240  24.839  28.131  1.00  0.00     0.049 A 
ATOM     43  N   UNL A   1      42.073  26.853  28.661  1.00  0.00    -0.248 NA
ATOM     44  C   UNL A   1      40.488  25.201  28.195  1.00  0.00     0.031 C 
ATOM     45  C   UNL A   1      45.342  23.921  27.833  1.00  0.00     0.029 A 
ATOM     46  N   UNL A   1      44.869  25.997  28.516  1.00  0.00    -0.354 N 
ATOM     47  C   UNL A   1      40.799  27.396  28.769  1.00  0.00     0.074 A 
ATOM     48  C   UNL A   1      39.862  26.346  28.432  1.00  0.00     0.031 C 
ATOM     49  C   UNL A   1      46.509  24.549  28.051  1.00  0.00     0.029 A 
ATOM     50  C   UNL A   1      46.239  25.921  28.472  1.00  0.00     0.049 A 
ATOM     51  H   UNL A   1      44.383  26.807  28.797  1.00  0.00     0.167 HD
ATOM     52  C   UNL A   1      40.443  28.653  29.126  1.00  0.00     0.037 A 
ATOM     53  C   UNL A   1      47.175  26.855  28.728  1.00  0.00     0.037 A 
ATOM     54  C   UNL A   1      41.369  29.685  29.509  1.00  0.00     0.049 A 
ATOM     55  C   UNL A   1      46.750  28.234  29.147  1.00  0.00     0.074 A 
ATOM     56  C   UNL A   1      41.095  30.964  29.961  1.00  0.00     0.029 A 
ATOM     57  N   UNL A   1      42.749  29.554  29.490  1.00  0.00    -0.354 N 
ATOM     58  N   UNL A   1      45.541  28.715  29.298  1.00  0.00    -0.248 NA
ATOM     59  C   UNL A   1      47.821  29.200  29.434  1.00  0.00     0.031 C 
ATOM     60  C   UNL A   1      42.310  31.618  30.190  1.00  0.00     0.029 A 
ATOM     61  C   UNL A   1      43.339  30.735  29.909  1.00  0.00     0.049 A 
ATOM     62  H   UNL A   1      43.236  28.742  29.220  1.00  0.00     0.167 HD
ATOM     63  C   UNL A   1      45.704  30.026  29.723  1.00  0.00     0.074 A 
ATOM     64  C   UNL A   1      47.130  30.266  29.812  1.00  0.00     0.031 C 
ATOM     65  C   UNL A   1      44.758  30.951  30.011  1.00  0.00     0.037 A 
BRANCH  52  66
ATOM     66  C   UNL A   1      38.983  28.989  29.128  1.00  0.00     0.057 A 
ATOM     67  C   UNL A   1      38.207  28.890  30.290  1.00  0.00     0.134 A 
ATOM     68  C   UNL A   1      38.362  29.477  27.971  1.00  0.00     0.134 A 
ATOM     69  F   UNL A   1      38.742  28.422  31.427  1.00  0.00    -0.206 F 
ATOM     70  C   UNL A   1      36.859  29.255  30.297  1.00  0.00     0.040 A 
ATOM     71  C   UNL A   1      37.021  29.862  27.971  1.00  0.00     0.040 A 
ATOM     72  F   UNL A   1      39.053  29.600  26.828  1.00  0.00    -0.206 F 
ATOM     73  C   UNL A   1      36.265  29.749  29.137  1.00  0.00     0.006 A 
ENDBRANCH  52  66
BRANCH  53  74
ATOM     74  C   UNL A   1      48.615  26.520  28.606  1.00  0.00     0.057 A 
ATOM     75  C   UNL A   1      49.334  26.029  29.701  1.00  0.00     0.134 A 
ATOM     76  C   UNL A   1      49.308  26.703  27.404  1.00  0.00     0.134 A 
ATOM     77  F   UNL A   1      48.726  25.854  30.883  1.00  0.00    -0.206 F 
ATOM     78  C   UNL A   1      50.699  25.752  29.612  1.00  0.00     0.040 A 
ATOM     79  C   UNL A   1      50.668  26.410  27.295  1.00  0.00     0.040 A 
ATOM     80  F   UNL A   1      48.672  27.167  26.318  1.00  0.00    -0.206 F 
ATOM     81  C   UNL A   1      51.369  25.940  28.406  1.00  0.00     0.006 A 
ENDBRANCH  53  74
BRANCH  65  82
ATOM     82  C   UNL A   1      45.231  32.290  30.487  1.00  0.00     0.057 A 
ATOM     83  C   UNL A   1      45.429  33.357  29.603  1.00  0.00     0.134 A 
ATOM     84  C   UNL A   1      45.452  32.523  31.850  1.00  0.00     0.134 A 
ATOM     85  F   UNL A   1      45.246  33.191  28.284  1.00  0.00    -0.206 F 
ATOM     86  C   UNL A   1      45.846  34.608  30.058  1.00  0.00     0.040 A 
ATOM     87  C   UNL A   1      45.851  33.775  32.318  1.00  0.00     0.040 A 
ATOM     88  F   UNL A   1      45.275  31.541  32.746  1.00  0.00    -0.206 F 
ATOM     89  C   UNL A   1      46.053  34.822  31.420  1.00  0.00     0.006 A 
ENDBRANCH  65  82
ENDBRANCH  39  40
ENDBRANCH  31  34
ENDBRANCH  29  30
ENDBRANCH  28  29
ENDBRANCH   1  28
TORSDOF 14
ENDMDL
