MODEL 1
REMARK VINA RESULT:     -11.4      0.000      0.000
REMARK SMILES O=C(NCCCNC(=O)c1ccc(CSc2ccc(Cl)cn2)nc1)c1ccc(-c2c3nc(c(-c4c(F)cccc4F)c4ccc([nH]4)c(-c4c(F)cccc4F)c4nc(c(-c5c(F)cccc5F)c5ccc2[nH]5)C=C4)C=C3)cc1
REMARK SMILES IDX 5 1 4 2 3 3 1 4 2 5 25 7 26 8 78 9 27 10 77 11 28 12 29 13
REMARK SMILES IDX 30 14 71 15 31 16 76 17 70 18 72 19 32 20 75 21 69 22 68 23
REMARK SMILES IDX 33 25 59 26 42 27 58 28 43 29 46 30 57 31 73 32 44 33 45 34
REMARK SMILES IDX 56 36 74 37 47 38 34 39 35 40 40 41 36 42 37 43 39 44 41 45
REMARK SMILES IDX 38 46 60 47 61 48 66 49 62 50 63 51 65 52 67 53 64 54 48 55
REMARK SMILES IDX 49 56 54 57 50 58 51 59 53 60 55 61 52 62 6 63 7 64 8 65
REMARK SMILES IDX 9 67 10 68 11 69 24 70 12 71 23 72 13 73 14 74 15 75 16 76
REMARK SMILES IDX 17 77 22 78 18 79 21 80 19 81 20 82
REMARK H PARENT 3 6 72 24 46 35 7 66
REMARK Flexibility Score: inf
ROOT
ATOM      1  C   UNL A   1      31.008  31.203  26.100  1.00  0.00     0.042 C 
ENDROOT
BRANCH   1   2
ATOM      2  C   UNL A   1      32.313  31.775  26.632  1.00  0.00     0.118 C 
BRANCH   2   3
ATOM      3  N   UNL A   1      32.187  33.161  27.070  1.00  0.00    -0.352 N 
ATOM      4  O   UNL A   1      32.527  34.986  28.345  1.00  0.00    -0.269 OA
ATOM      5  C   UNL A   1      32.915  33.877  27.991  1.00  0.00     0.251 C 
ATOM      6  H   UNL A   1      31.462  33.666  26.636  1.00  0.00     0.163 HD
BRANCH   5   7
ATOM      7  C   UNL A   1      34.153  33.310  28.568  1.00  0.00     0.039 A 
ATOM      8  C   UNL A   1      34.150  32.038  29.136  1.00  0.00     0.014 A 
ATOM      9  C   UNL A   1      35.340  34.050  28.526  1.00  0.00     0.014 A 
ATOM     10  C   UNL A   1      35.263  31.590  29.831  1.00  0.00     0.010 A 
ATOM     11  C   UNL A   1      36.503  33.538  29.116  1.00  0.00     0.010 A 
ATOM     12  C   UNL A   1      36.464  32.319  29.806  1.00  0.00    -0.014 A 
BRANCH  12  13
ATOM     13  C   UNL A   1      37.662  31.715  30.446  1.00  0.00     0.031 A 
ATOM     14  C   UNL A   1      38.005  31.974  31.885  1.00  0.00     0.074 A 
ATOM     15  C   UNL A   1      38.397  30.850  29.718  1.00  0.00     0.049 A 
ATOM     16  N   UNL A   1      38.960  31.444  32.608  1.00  0.00    -0.248 NA
ATOM     17  C   UNL A   1      37.184  32.956  32.610  1.00  0.00     0.031 C 
ATOM     18  C   UNL A   1      38.173  30.542  28.302  1.00  0.00     0.029 A 
ATOM     19  N   UNL A   1      39.444  30.039  30.070  1.00  0.00    -0.354 N 
ATOM     20  C   UNL A   1      38.862  32.030  33.863  1.00  0.00     0.074 A 
ATOM     21  C   UNL A   1      37.775  32.982  33.798  1.00  0.00     0.031 C 
ATOM     22  C   UNL A   1      39.000  29.557  27.929  1.00  0.00     0.029 A 
ATOM     23  C   UNL A   1      39.863  29.216  29.053  1.00  0.00     0.049 A 
ATOM     24  H   UNL A   1      39.856  30.047  30.964  1.00  0.00     0.167 HD
ATOM     25  C   UNL A   1      39.607  31.786  34.970  1.00  0.00     0.037 A 
ATOM     26  C   UNL A   1      40.839  28.292  29.020  1.00  0.00     0.037 A 
ATOM     27  C   UNL A   1      40.684  30.830  35.030  1.00  0.00     0.049 A 
ATOM     28  C   UNL A   1      41.642  28.046  30.261  1.00  0.00     0.074 A 
ATOM     29  C   UNL A   1      41.493  30.509  36.107  1.00  0.00     0.029 A 
ATOM     30  N   UNL A   1      41.101  30.038  33.970  1.00  0.00    -0.354 N 
ATOM     31  N   UNL A   1      41.524  28.598  31.443  1.00  0.00    -0.248 NA
ATOM     32  C   UNL A   1      42.716  27.050  30.163  1.00  0.00     0.031 C 
ATOM     33  C   UNL A   1      42.422  29.549  35.688  1.00  0.00     0.029 A 
ATOM     34  C   UNL A   1      42.163  29.239  34.364  1.00  0.00     0.049 A 
ATOM     35  H   UNL A   1      40.701  30.043  33.070  1.00  0.00     0.167 HD
ATOM     36  C   UNL A   1      42.508  28.019  32.231  1.00  0.00     0.074 A 
ATOM     37  C   UNL A   1      43.186  27.044  31.402  1.00  0.00     0.031 C 
ATOM     38  C   UNL A   1      42.832  28.282  33.520  1.00  0.00     0.037 A 
BRANCH  25  39
ATOM     39  C   UNL A   1      39.289  32.569  36.211  1.00  0.00     0.057 A 
ATOM     40  C   UNL A   1      39.851  33.829  36.453  1.00  0.00     0.134 A 
ATOM     41  C   UNL A   1      38.360  32.088  37.143  1.00  0.00     0.134 A 
ATOM     42  F   UNL A   1      40.756  34.342  35.606  1.00  0.00    -0.206 F 
ATOM     43  C   UNL A   1      39.508  34.578  37.580  1.00  0.00     0.040 A 
ATOM     44  C   UNL A   1      37.993  32.837  38.263  1.00  0.00     0.040 A 
ATOM     45  F   UNL A   1      37.778  30.892  36.970  1.00  0.00    -0.206 F 
ATOM     46  C   UNL A   1      38.570  34.085  38.485  1.00  0.00     0.006 A 
ENDBRANCH  25  39
BRANCH  26  47
ATOM     47  C   UNL A   1      41.117  27.554  27.763  1.00  0.00     0.057 A 
ATOM     48  C   UNL A   1      41.978  28.069  26.789  1.00  0.00     0.134 A 
ATOM     49  C   UNL A   1      40.527  26.309  27.510  1.00  0.00     0.134 A 
ATOM     50  F   UNL A   1      42.562  29.263  26.967  1.00  0.00    -0.206 F 
ATOM     51  C   UNL A   1      42.228  27.383  25.600  1.00  0.00     0.040 A 
ATOM     52  C   UNL A   1      40.791  25.597  26.340  1.00  0.00     0.040 A 
ATOM     53  F   UNL A   1      39.699  25.756  28.409  1.00  0.00    -0.206 F 
ATOM     54  C   UNL A   1      41.638  26.140  25.376  1.00  0.00     0.006 A 
ENDBRANCH  26  47
BRANCH  38  55
ATOM     55  C   UNL A   1      43.966  27.491  34.100  1.00  0.00     0.057 A 
ATOM     56  C   UNL A   1      45.285  27.962  34.065  1.00  0.00     0.134 A 
ATOM     57  C   UNL A   1      43.738  26.243  34.693  1.00  0.00     0.134 A 
ATOM     58  F   UNL A   1      45.569  29.143  33.495  1.00  0.00    -0.206 F 
ATOM     59  C   UNL A   1      46.343  27.204  34.568  1.00  0.00     0.040 A 
ATOM     60  C   UNL A   1      44.785  25.488  35.224  1.00  0.00     0.040 A 
ATOM     61  F   UNL A   1      42.497  25.738  34.765  1.00  0.00    -0.206 F 
ATOM     62  C   UNL A   1      46.093  25.965  35.153  1.00  0.00     0.006 A 
ENDBRANCH  38  55
ENDBRANCH  12  13
ENDBRANCH   5   7
ENDBRANCH   2   3
ENDBRANCH   1   2
BRANCH   1  63
ATOM     63  C   UNL A   1      31.204  30.223  24.953  1.00  0.00     0.118 C 
BRANCH  63  64
ATOM     64  N   UNL A   1      30.313  30.508  23.837  1.00  0.00    -0.352 N 
ATOM     65  C   UNL A   1      29.846  29.667  22.857  1.00  0.00     0.252 C 
ATOM     66  H   UNL A   1      29.999  31.439  23.776  1.00  0.00     0.163 HD
ATOM     67  O   UNL A   1      29.321  30.129  21.848  1.00  0.00    -0.269 OA
BRANCH  65  68
ATOM     68  C   UNL A   1      29.981  28.214  23.013  1.00  0.00     0.058 A 
ATOM     69  C   UNL A   1      29.036  27.460  23.702  1.00  0.00     0.017 A 
ATOM     70  C   UNL A   1      31.063  27.562  22.447  1.00  0.00     0.125 A 
ATOM     71  C   UNL A   1      29.253  26.098  23.876  1.00  0.00     0.025 A 
ATOM     72  N   UNL A   1      31.294  26.234  22.602  1.00  0.00    -0.260 NA
ATOM     73  C   UNL A   1      30.389  25.514  23.312  1.00  0.00     0.051 A 
BRANCH  73  74
ATOM     74  C   UNL A   1      30.652  24.040  23.504  1.00  0.00     0.132 C 
BRANCH  74  75
ATOM     75  S   UNL A   1      31.254  23.572  25.158  1.00  0.00    -0.100 SA
BRANCH  75  76
ATOM     76  C   UNL A   1      32.108  25.044  25.668  1.00  0.00     0.096 A 
ATOM     77  C   UNL A   1      33.424  25.310  25.298  1.00  0.00     0.037 A 
ATOM     78  N   UNL A   1      31.407  25.871  26.476  1.00  0.00    -0.248 NA
ATOM     79  C   UNL A   1      34.029  26.487  25.743  1.00  0.00     0.025 A 
ATOM     80  C   UNL A   1      32.019  27.000  26.905  1.00  0.00     0.132 A 
ATOM     81  C   UNL A   1      33.314  27.349  26.564  1.00  0.00     0.059 A 
ATOM     82  Cl  UNL A   1      34.024  28.797  27.144  1.00  0.00    -0.083 Cl
ENDBRANCH  75  76
ENDBRANCH  74  75
ENDBRANCH  73  74
ENDBRANCH  65  68
ENDBRANCH  63  64
ENDBRANCH   1  63
TORSDOF 13
ENDMDL
MODEL 2
REMARK VINA RESULT:     -11.4      1.684      2.530
REMARK SMILES O=C(NCCCNC(=O)c1ccc(CSc2ccc(Cl)cn2)nc1)c1ccc(-c2c3nc(c(-c4c(F)cccc4F)c4ccc([nH]4)c(-c4c(F)cccc4F)c4nc(c(-c5c(F)cccc5F)c5ccc2[nH]5)C=C4)C=C3)cc1
REMARK SMILES IDX 5 1 4 2 3 3 1 4 2 5 25 7 26 8 78 9 27 10 77 11 28 12 29 13
REMARK SMILES IDX 30 14 71 15 31 16 76 17 70 18 72 19 32 20 75 21 69 22 68 23
REMARK SMILES IDX 33 25 59 26 42 27 58 28 43 29 46 30 57 31 73 32 44 33 45 34
REMARK SMILES IDX 56 36 74 37 47 38 34 39 35 40 40 41 36 42 37 43 39 44 41 45
REMARK SMILES IDX 38 46 60 47 61 48 66 49 62 50 63 51 65 52 67 53 64 54 48 55
REMARK SMILES IDX 49 56 54 57 50 58 51 59 53 60 55 61 52 62 6 63 7 64 8 65
REMARK SMILES IDX 9 67 10 68 11 69 24 70 12 71 23 72 13 73 14 74 15 75 16 76
REMARK SMILES IDX 17 77 22 78 18 79 21 80 19 81 20 82
REMARK H PARENT 3 6 72 24 46 35 7 66
REMARK Flexibility Score: inf
ROOT
ATOM      1  C   UNL A   1      31.445  31.900  26.914  1.00  0.00     0.042 C 
ENDROOT
BRANCH   1   2
ATOM      2  C   UNL A   1      32.622  32.862  26.863  1.00  0.00     0.118 C 
BRANCH   2   3
ATOM      3  N   UNL A   1      32.386  34.087  27.620  1.00  0.00    -0.352 N 
ATOM      4  O   UNL A   1      32.534  35.544  29.331  1.00  0.00    -0.269 OA
ATOM      5  C   UNL A   1      33.011  34.578  28.742  1.00  0.00     0.251 C 
ATOM      6  H   UNL A   1      31.659  34.653  27.272  1.00  0.00     0.163 HD
BRANCH   5   7
ATOM      7  C   UNL A   1      34.242  33.938  29.253  1.00  0.00     0.039 A 
ATOM      8  C   UNL A   1      34.167  32.812  30.070  1.00  0.00     0.014 A 
ATOM      9  C   UNL A   1      35.492  34.455  28.895  1.00  0.00     0.014 A 
ATOM     10  C   UNL A   1      35.311  32.330  30.686  1.00  0.00     0.010 A 
ATOM     11  C   UNL A   1      36.659  33.883  29.416  1.00  0.00     0.010 A 
ATOM     12  C   UNL A   1      36.576  32.837  30.345  1.00  0.00    -0.014 A 
BRANCH  12  13
ATOM     13  C   UNL A   1      37.775  32.179  30.929  1.00  0.00     0.031 A 
ATOM     14  C   UNL A   1      38.211  32.442  32.342  1.00  0.00     0.074 A 
ATOM     15  C   UNL A   1      38.420  31.264  30.178  1.00  0.00     0.049 A 
ATOM     16  N   UNL A   1      39.176  31.871  33.021  1.00  0.00    -0.248 NA
ATOM     17  C   UNL A   1      37.487  33.478  33.093  1.00  0.00     0.031 C 
ATOM     18  C   UNL A   1      38.100  30.946  28.782  1.00  0.00     0.029 A 
ATOM     19  N   UNL A   1      39.440  30.403  30.487  1.00  0.00    -0.354 N 
ATOM     20  C   UNL A   1      39.181  32.482  34.268  1.00  0.00     0.074 A 
ATOM     21  C   UNL A   1      38.144  33.490  34.246  1.00  0.00     0.031 C 
ATOM     22  C   UNL A   1      38.851  29.912  28.383  1.00  0.00     0.029 A 
ATOM     23  C   UNL A   1      39.756  29.542  29.463  1.00  0.00     0.049 A 
ATOM     24  H   UNL A   1      39.902  30.402  31.356  1.00  0.00     0.167 HD
ATOM     25  C   UNL A   1      39.973  32.215  35.336  1.00  0.00     0.037 A 
ATOM     26  C   UNL A   1      40.678  28.566  29.393  1.00  0.00     0.037 A 
ATOM     27  C   UNL A   1      40.999  31.203  35.354  1.00  0.00     0.049 A 
ATOM     28  C   UNL A   1      41.536  28.296  30.592  1.00  0.00     0.074 A 
ATOM     29  C   UNL A   1      41.850  30.855  36.390  1.00  0.00     0.029 A 
ATOM     30  N   UNL A   1      41.312  30.373  34.287  1.00  0.00    -0.354 N 
ATOM     31  N   UNL A   1      41.515  28.873  31.769  1.00  0.00    -0.248 NA
ATOM     32  C   UNL A   1      42.548  27.242  30.454  1.00  0.00     0.031 C 
ATOM     33  C   UNL A   1      42.701  29.840  35.938  1.00  0.00     0.029 A 
ATOM     34  C   UNL A   1      42.351  29.524  34.636  1.00  0.00     0.049 A 
ATOM     35  H   UNL A   1      40.863  30.386  33.411  1.00  0.00     0.167 HD
ATOM     36  C   UNL A   1      42.509  28.254  32.511  1.00  0.00     0.074 A 
ATOM     37  C   UNL A   1      43.086  27.229  31.664  1.00  0.00     0.031 C 
ATOM     38  C   UNL A   1      42.919  28.519  33.775  1.00  0.00     0.037 A 
BRANCH  25  39
ATOM     39  C   UNL A   1      39.768  33.034  36.578  1.00  0.00     0.057 A 
ATOM     40  C   UNL A   1      40.488  34.212  36.812  1.00  0.00     0.134 A 
ATOM     41  C   UNL A   1      38.793  32.677  37.519  1.00  0.00     0.134 A 
ATOM     42  F   UNL A   1      41.445  34.604  35.957  1.00  0.00    -0.206 F 
ATOM     43  C   UNL A   1      40.253  35.000  37.941  1.00  0.00     0.040 A 
ATOM     44  C   UNL A   1      38.534  33.468  38.640  1.00  0.00     0.040 A 
ATOM     45  F   UNL A   1      38.061  31.564  37.352  1.00  0.00    -0.206 F 
ATOM     46  C   UNL A   1      39.267  34.632  38.854  1.00  0.00     0.006 A 
ENDBRANCH  25  39
BRANCH  26  47
ATOM     47  C   UNL A   1      40.845  27.794  28.137  1.00  0.00     0.057 A 
ATOM     48  C   UNL A   1      41.644  28.266  27.091  1.00  0.00     0.134 A 
ATOM     49  C   UNL A   1      40.207  26.560  27.957  1.00  0.00     0.134 A 
ATOM     50  F   UNL A   1      42.269  29.448  27.198  1.00  0.00    -0.206 F 
ATOM     51  C   UNL A   1      41.790  27.548  25.903  1.00  0.00     0.040 A 
ATOM     52  C   UNL A   1      40.368  25.817  26.787  1.00  0.00     0.040 A 
ATOM     53  F   UNL A   1      39.435  26.048  28.926  1.00  0.00    -0.206 F 
ATOM     54  C   UNL A   1      41.155  26.316  25.751  1.00  0.00     0.006 A 
ENDBRANCH  26  47
BRANCH  38  55
ATOM     55  C   UNL A   1      44.040  27.676  34.306  1.00  0.00     0.057 A 
ATOM     56  C   UNL A   1      45.377  28.083  34.205  1.00  0.00     0.134 A 
ATOM     57  C   UNL A   1      43.781  26.444  34.917  1.00  0.00     0.134 A 
ATOM     58  F   UNL A   1      45.690  29.246  33.614  1.00  0.00    -0.206 F 
ATOM     59  C   UNL A   1      46.420  27.277  34.663  1.00  0.00     0.040 A 
ATOM     60  C   UNL A   1      44.815  25.641  35.403  1.00  0.00     0.040 A 
ATOM     61  F   UNL A   1      42.522  25.999  35.051  1.00  0.00    -0.206 F 
ATOM     62  C   UNL A   1      46.139  26.053  35.267  1.00  0.00     0.006 A 
ENDBRANCH  38  55
ENDBRANCH  12  13
ENDBRANCH   5   7
ENDBRANCH   2   3
ENDBRANCH   1   2
BRANCH   1  63
ATOM     63  C   UNL A   1      31.864  30.445  27.065  1.00  0.00     0.118 C 
BRANCH  63  64
ATOM     64  N   UNL A   1      33.236  30.320  27.535  1.00  0.00    -0.352 N 
ATOM     65  C   UNL A   1      34.175  29.362  27.242  1.00  0.00     0.252 C 
ATOM     66  H   UNL A   1      33.536  31.027  28.152  1.00  0.00     0.163 HD
ATOM     67  O   UNL A   1      35.189  29.262  27.928  1.00  0.00    -0.269 OA
BRANCH  65  68
ATOM     68  C   UNL A   1      33.963  28.450  26.112  1.00  0.00     0.058 A 
ATOM     69  C   UNL A   1      33.689  27.098  26.302  1.00  0.00     0.017 A 
ATOM     70  C   UNL A   1      34.012  28.938  24.818  1.00  0.00     0.125 A 
ATOM     71  C   UNL A   1      33.565  26.269  25.193  1.00  0.00     0.025 A 
ATOM     72  N   UNL A   1      33.892  28.150  23.720  1.00  0.00    -0.260 NA
ATOM     73  C   UNL A   1      33.668  26.825  23.917  1.00  0.00     0.051 A 
BRANCH  73  74
ATOM     74  C   UNL A   1      33.554  25.940  22.699  1.00  0.00     0.132 C 
BRANCH  74  75
ATOM     75  S   UNL A   1      31.969  25.061  22.529  1.00  0.00    -0.100 SA
BRANCH  75  76
ATOM     76  C   UNL A   1      30.794  26.369  22.783  1.00  0.00     0.096 A 
ATOM     77  C   UNL A   1      29.738  26.259  23.683  1.00  0.00     0.037 A 
ATOM     78  N   UNL A   1      30.971  27.465  22.012  1.00  0.00    -0.248 NA
ATOM     79  C   UNL A   1      28.852  27.330  23.824  1.00  0.00     0.025 A 
ATOM     80  C   UNL A   1      30.093  28.485  22.156  1.00  0.00     0.132 A 
ATOM     81  C   UNL A   1      29.031  28.465  23.044  1.00  0.00     0.059 A 
ATOM     82  Cl  UNL A   1      27.959  29.796  23.175  1.00  0.00    -0.083 Cl
ENDBRANCH  75  76
ENDBRANCH  74  75
ENDBRANCH  73  74
ENDBRANCH  65  68
ENDBRANCH  63  64
ENDBRANCH   1  63
TORSDOF 13
ENDMDL
MODEL 3
REMARK VINA RESULT:     -11.4      2.077      2.789
REMARK SMILES O=C(NCCCNC(=O)c1ccc(CSc2ccc(Cl)cn2)nc1)c1ccc(-c2c3nc(c(-c4c(F)cccc4F)c4ccc([nH]4)c(-c4c(F)cccc4F)c4nc(c(-c5c(F)cccc5F)c5ccc2[nH]5)C=C4)C=C3)cc1
REMARK SMILES IDX 5 1 4 2 3 3 1 4 2 5 25 7 26 8 78 9 27 10 77 11 28 12 29 13
REMARK SMILES IDX 30 14 71 15 31 16 76 17 70 18 72 19 32 20 75 21 69 22 68 23
REMARK SMILES IDX 33 25 59 26 42 27 58 28 43 29 46 30 57 31 73 32 44 33 45 34
REMARK SMILES IDX 56 36 74 37 47 38 34 39 35 40 40 41 36 42 37 43 39 44 41 45
REMARK SMILES IDX 38 46 60 47 61 48 66 49 62 50 63 51 65 52 67 53 64 54 48 55
REMARK SMILES IDX 49 56 54 57 50 58 51 59 53 60 55 61 52 62 6 63 7 64 8 65
REMARK SMILES IDX 9 67 10 68 11 69 24 70 12 71 23 72 13 73 14 74 15 75 16 76
REMARK SMILES IDX 17 77 22 78 18 79 21 80 19 81 20 82
REMARK H PARENT 3 6 72 24 46 35 7 66
REMARK Flexibility Score: inf
ROOT
ATOM      1  C   UNL A   1      31.348  32.181  26.523  1.00  0.00     0.042 C 
ENDROOT
BRANCH   1   2
ATOM      2  C   UNL A   1      32.610  32.812  27.091  1.00  0.00     0.118 C 
BRANCH   2   3
ATOM      3  N   UNL A   1      32.385  34.154  27.619  1.00  0.00    -0.352 N 
ATOM      4  O   UNL A   1      32.537  35.885  29.050  1.00  0.00    -0.269 OA
ATOM      5  C   UNL A   1      33.005  34.825  28.646  1.00  0.00     0.251 C 
ATOM      6  H   UNL A   1      31.671  34.660  27.168  1.00  0.00     0.163 HD
BRANCH   5   7
ATOM      7  C   UNL A   1      34.220  34.267  29.278  1.00  0.00     0.039 A 
ATOM      8  C   UNL A   1      35.479  34.531  28.743  1.00  0.00     0.014 A 
ATOM      9  C   UNL A   1      34.105  33.485  30.432  1.00  0.00     0.014 A 
ATOM     10  C   UNL A   1      36.590  33.861  29.233  1.00  0.00     0.010 A 
ATOM     11  C   UNL A   1      35.247  32.913  31.005  1.00  0.00     0.010 A 
ATOM     12  C   UNL A   1      36.496  33.068  30.388  1.00  0.00    -0.014 A 
BRANCH  12  13
ATOM     13  C   UNL A   1      37.749  32.495  30.947  1.00  0.00     0.031 A 
ATOM     14  C   UNL A   1      38.343  32.997  32.233  1.00  0.00     0.074 A 
ATOM     15  C   UNL A   1      38.301  31.443  30.310  1.00  0.00     0.049 A 
ATOM     16  N   UNL A   1      39.375  32.534  32.894  1.00  0.00    -0.248 NA
ATOM     17  C   UNL A   1      37.712  34.170  32.857  1.00  0.00     0.031 C 
ATOM     18  C   UNL A   1      37.825  30.888  29.038  1.00  0.00     0.029 A 
ATOM     19  N   UNL A   1      39.345  30.627  30.656  1.00  0.00    -0.354 N 
ATOM     20  C   UNL A   1      39.523  33.359  34.001  1.00  0.00     0.074 A 
ATOM     21  C   UNL A   1      38.495  34.373  33.909  1.00  0.00     0.031 C 
ATOM     22  C   UNL A   1      38.522  29.780  28.754  1.00  0.00     0.029 A 
ATOM     23  C   UNL A   1      39.540  29.588  29.778  1.00  0.00     0.049 A 
ATOM     24  H   UNL A   1      39.902  30.771  31.455  1.00  0.00     0.167 HD
ATOM     25  C   UNL A   1      40.428  33.269  35.007  1.00  0.00     0.037 A 
ATOM     26  C   UNL A   1      40.443  28.591  29.787  1.00  0.00     0.037 A 
ATOM     27  C   UNL A   1      41.444  32.250  35.097  1.00  0.00     0.049 A 
ATOM     28  C   UNL A   1      41.429  28.520  30.914  1.00  0.00     0.074 A 
ATOM     29  C   UNL A   1      42.404  32.074  36.079  1.00  0.00     0.029 A 
ATOM     30  N   UNL A   1      41.631  31.235  34.171  1.00  0.00    -0.354 N 
ATOM     31  N   UNL A   1      41.543  29.300  31.961  1.00  0.00    -0.248 NA
ATOM     32  C   UNL A   1      42.413  27.433  30.860  1.00  0.00     0.031 C 
ATOM     33  C   UNL A   1      43.193  30.972  35.730  1.00  0.00     0.029 A 
ATOM     34  C   UNL A   1      42.698  30.436  34.554  1.00  0.00     0.049 A 
ATOM     35  H   UNL A   1      41.087  31.100  33.362  1.00  0.00     0.167 HD
ATOM     36  C   UNL A   1      42.610  28.800  32.691  1.00  0.00     0.074 A 
ATOM     37  C   UNL A   1      43.083  27.625  31.987  1.00  0.00     0.031 C 
ATOM     38  C   UNL A   1      43.161  29.278  33.833  1.00  0.00     0.037 A 
BRANCH  25  39
ATOM     39  C   UNL A   1      40.368  34.303  36.094  1.00  0.00     0.057 A 
ATOM     40  C   UNL A   1      41.121  35.482  36.033  1.00  0.00     0.134 A 
ATOM     41  C   UNL A   1      39.497  34.150  37.181  1.00  0.00     0.134 A 
ATOM     42  F   UNL A   1      41.983  35.686  35.025  1.00  0.00    -0.206 F 
ATOM     43  C   UNL A   1      41.019  36.466  37.018  1.00  0.00     0.040 A 
ATOM     44  C   UNL A   1      39.369  35.137  38.161  1.00  0.00     0.040 A 
ATOM     45  F   UNL A   1      38.740  33.048  37.297  1.00  0.00    -0.206 F 
ATOM     46  C   UNL A   1      40.134  36.298  38.082  1.00  0.00     0.006 A 
ENDBRANCH  25  39
BRANCH  26  47
ATOM     47  C   UNL A   1      40.464  27.602  28.682  1.00  0.00     0.057 A 
ATOM     48  C   UNL A   1      39.683  26.443  28.724  1.00  0.00     0.134 A 
ATOM     49  C   UNL A   1      41.268  27.797  27.552  1.00  0.00     0.134 A 
ATOM     50  F   UNL A   1      38.903  26.192  29.786  1.00  0.00    -0.206 F 
ATOM     51  C   UNL A   1      39.713  25.504  27.692  1.00  0.00     0.040 A 
ATOM     52  C   UNL A   1      41.286  26.883  26.498  1.00  0.00     0.040 A 
ATOM     53  F   UNL A   1      42.033  28.894  27.446  1.00  0.00    -0.206 F 
ATOM     54  C   UNL A   1      40.512  25.726  26.572  1.00  0.00     0.006 A 
ENDBRANCH  26  47
BRANCH  38  55
ATOM     55  C   UNL A   1      44.330  28.516  34.383  1.00  0.00     0.057 A 
ATOM     56  C   UNL A   1      45.647  28.840  34.034  1.00  0.00     0.134 A 
ATOM     57  C   UNL A   1      44.136  27.445  35.262  1.00  0.00     0.134 A 
ATOM     58  F   UNL A   1      45.897  29.846  33.182  1.00  0.00    -0.206 F 
ATOM     59  C   UNL A   1      46.730  28.103  34.515  1.00  0.00     0.040 A 
ATOM     60  C   UNL A   1      45.213  26.717  35.771  1.00  0.00     0.040 A 
ATOM     61  F   UNL A   1      42.899  27.088  35.640  1.00  0.00    -0.206 F 
ATOM     62  C   UNL A   1      46.513  27.040  35.389  1.00  0.00     0.006 A 
ENDBRANCH  38  55
ENDBRANCH  12  13
ENDBRANCH   5   7
ENDBRANCH   2   3
ENDBRANCH   1   2
BRANCH   1  63
ATOM     63  C   UNL A   1      31.541  30.738  26.084  1.00  0.00     0.118 C 
BRANCH  63  64
ATOM     64  N   UNL A   1      31.568  29.824  27.218  1.00  0.00    -0.352 N 
ATOM     65  C   UNL A   1      31.685  28.456  27.233  1.00  0.00     0.252 C 
ATOM     66  H   UNL A   1      31.491  30.249  28.102  1.00  0.00     0.163 HD
ATOM     67  O   UNL A   1      31.424  27.827  28.254  1.00  0.00    -0.269 OA
BRANCH  65  68
ATOM     68  C   UNL A   1      32.117  27.745  26.024  1.00  0.00     0.058 A 
ATOM     69  C   UNL A   1      33.451  27.714  25.629  1.00  0.00     0.017 A 
ATOM     70  C   UNL A   1      31.185  27.065  25.259  1.00  0.00     0.125 A 
ATOM     71  C   UNL A   1      33.790  27.082  24.438  1.00  0.00     0.025 A 
ATOM     72  N   UNL A   1      31.492  26.439  24.095  1.00  0.00    -0.260 NA
ATOM     73  C   UNL A   1      32.790  26.452  23.695  1.00  0.00     0.051 A 
BRANCH  73  74
ATOM     74  C   UNL A   1      33.133  25.775  22.390  1.00  0.00     0.132 C 
BRANCH  74  75
ATOM     75  S   UNL A   1      33.033  23.958  22.414  1.00  0.00    -0.100 SA
BRANCH  75  76
ATOM     76  C   UNL A   1      34.425  23.526  23.429  1.00  0.00     0.096 A 
ATOM     77  C   UNL A   1      34.368  23.544  24.821  1.00  0.00     0.037 A 
ATOM     78  N   UNL A   1      35.558  23.218  22.760  1.00  0.00    -0.248 NA
ATOM     79  C   UNL A   1      35.506  23.196  25.551  1.00  0.00     0.025 A 
ATOM     80  C   UNL A   1      36.653  22.896  23.489  1.00  0.00     0.132 A 
ATOM     81  C   UNL A   1      36.673  22.867  24.873  1.00  0.00     0.059 A 
ATOM     82  Cl  UNL A   1      38.097  22.448  25.730  1.00  0.00    -0.083 Cl
ENDBRANCH  75  76
ENDBRANCH  74  75
ENDBRANCH  73  74
ENDBRANCH  65  68
ENDBRANCH  63  64
ENDBRANCH   1  63
TORSDOF 13
ENDMDL
