MODEL 1
REMARK VINA RESULT:     -10.9      0.000      0.000
REMARK SMILES COc1ccsc1CN(Cc1ccccc1)C(=O)/C=C/C(=O)NCCCNC(=O)c1ccc(-c2c3nc(c(-c4c(F)cccc4F)c4ccc([nH]4)c(-c4c(F)cccc4F)c4nc(c(-c5c(F)cccc5F)c5ccc2[nH]5)C=C4)C=C3)cc1
REMARK SMILES IDX 21 1 22 2 23 3 20 5 19 6 17 7 18 8 9 9 8 10 7 11 3 12 4 13
REMARK SMILES IDX 5 14 6 15 2 16 1 17 10 18 11 19 12 20 16 21 13 22 15 23
REMARK SMILES IDX 14 24 24 25 25 26 26 27 27 28 28 29 29 31 30 32 31 33 83 34
REMARK SMILES IDX 32 35 82 36 33 37 34 38 35 39 76 40 36 41 81 42 75 43 77 44
REMARK SMILES IDX 37 45 80 46 74 47 73 48 38 50 64 51 47 52 63 53 48 54 51 55
REMARK SMILES IDX 62 56 78 57 49 58 50 59 61 61 79 62 52 63 39 64 40 65 45 66
REMARK SMILES IDX 41 67 42 68 44 69 46 70 43 71 65 72 66 73 71 74 67 75 68 76
REMARK SMILES IDX 70 77 72 78 69 79 53 80 54 81 59 82 55 83 56 84 58 85 60 86
REMARK SMILES IDX 57 87
REMARK H PARENT 23 4 27 30 77 49 51 60
REMARK Flexibility Score: inf
ROOT
ATOM      1  C   UNL A   1      36.894  22.928  25.519  1.00  0.00     0.244 C 
ATOM      2  O   UNL A   1      37.418  23.876  26.095  1.00  0.00    -0.270 OA
ATOM      3  N   UNL A   1      37.328  21.655  25.740  1.00  0.00    -0.352 N 
ATOM      4  H   UNL A   1      37.892  21.530  26.537  1.00  0.00     0.163 HD
ENDROOT
BRANCH   1   5
ATOM      5  C   UNL A   1      35.799  23.158  24.561  1.00  0.00     0.077 C 
ATOM      6  C   UNL A   1      35.079  24.276  24.697  1.00  0.00     0.077 C 
BRANCH   6   7
ATOM      7  C   UNL A   1      34.050  24.690  23.732  1.00  0.00     0.247 C 
ATOM      8  O   UNL A   1      34.321  24.563  22.540  1.00  0.00    -0.270 OA
BRANCH   7   9
ATOM      9  N   UNL A   1      32.816  25.073  24.238  1.00  0.00    -0.330 N 
BRANCH   9  10
ATOM     10  C   UNL A   1      31.701  25.210  23.300  1.00  0.00     0.170 C 
BRANCH  10  11
ATOM     11  C   UNL A   1      31.198  26.620  23.193  1.00  0.00     0.066 A 
ATOM     12  C   UNL A   1      31.881  27.719  22.710  1.00  0.00     0.134 A 
ATOM     13  C   UNL A   1      31.119  28.919  22.789  1.00  0.00     0.058 A 
ATOM     14  C   UNL A   1      29.871  28.696  23.329  1.00  0.00     0.069 A 
ATOM     15  S   UNL A   1      29.617  27.046  23.707  1.00  0.00    -0.143 S 
BRANCH  12  16
ATOM     16  O   UNL A   1      33.126  27.574  22.195  1.00  0.00    -0.496 OA
ATOM     17  C   UNL A   1      34.005  28.634  22.560  1.00  0.00     0.278 C 
ENDBRANCH  12  16
ENDBRANCH  10  11
ENDBRANCH   9  10
BRANCH   9  18
ATOM     18  C   UNL A   1      32.508  25.179  25.676  1.00  0.00     0.155 C 
BRANCH  18  19
ATOM     19  C   UNL A   1      32.626  26.587  26.224  1.00  0.00    -0.029 A 
ATOM     20  C   UNL A   1      31.551  27.153  26.930  1.00  0.00     0.005 A 
ATOM     21  C   UNL A   1      33.751  27.383  25.960  1.00  0.00     0.005 A 
ATOM     22  C   UNL A   1      31.563  28.502  27.282  1.00  0.00     0.000 A 
ATOM     23  C   UNL A   1      33.763  28.732  26.321  1.00  0.00     0.000 A 
ATOM     24  C   UNL A   1      32.665  29.294  26.968  1.00  0.00     0.000 A 
ENDBRANCH  18  19
ENDBRANCH   9  18
ENDBRANCH   7   9
ENDBRANCH   6   7
ENDBRANCH   1   5
BRANCH   3  25
ATOM     25  C   UNL A   1      37.070  20.456  24.957  1.00  0.00     0.118 C 
BRANCH  25  26
ATOM     26  C   UNL A   1      38.274  19.523  24.965  1.00  0.00     0.042 C 
BRANCH  26  27
ATOM     27  C   UNL A   1      39.275  19.872  26.058  1.00  0.00     0.118 C 
BRANCH  27  28
ATOM     28  N   UNL A   1      40.525  19.139  25.903  1.00  0.00    -0.352 N 
ATOM     29  C   UNL A   1      41.820  19.591  25.936  1.00  0.00     0.251 C 
ATOM     30  H   UNL A   1      40.426  18.172  25.752  1.00  0.00     0.163 HD
ATOM     31  O   UNL A   1      42.729  18.876  25.529  1.00  0.00    -0.269 OA
BRANCH  29  32
ATOM     32  C   UNL A   1      42.119  20.939  26.463  1.00  0.00     0.039 A 
ATOM     33  C   UNL A   1      42.491  21.951  25.574  1.00  0.00     0.014 A 
ATOM     34  C   UNL A   1      42.070  21.193  27.835  1.00  0.00     0.014 A 
ATOM     35  C   UNL A   1      42.762  23.231  26.060  1.00  0.00     0.010 A 
ATOM     36  C   UNL A   1      42.249  22.487  28.307  1.00  0.00     0.010 A 
ATOM     37  C   UNL A   1      42.616  23.515  27.427  1.00  0.00    -0.014 A 
BRANCH  37  38
ATOM     38  C   UNL A   1      42.878  24.869  27.972  1.00  0.00     0.031 A 
ATOM     39  C   UNL A   1      44.271  25.247  28.395  1.00  0.00     0.074 A 
ATOM     40  C   UNL A   1      41.856  25.727  28.151  1.00  0.00     0.049 A 
ATOM     41  N   UNL A   1      44.690  26.338  28.984  1.00  0.00    -0.248 NA
ATOM     42  C   UNL A   1      45.327  24.249  28.158  1.00  0.00     0.031 C 
ATOM     43  C   UNL A   1      40.454  25.457  27.823  1.00  0.00     0.029 A 
ATOM     44  N   UNL A   1      41.837  26.997  28.668  1.00  0.00    -0.354 N 
ATOM     45  C   UNL A   1      46.049  26.148  29.204  1.00  0.00     0.074 A 
ATOM     46  C   UNL A   1      46.372  24.816  28.741  1.00  0.00     0.031 C 
ATOM     47  C   UNL A   1      39.717  26.538  28.124  1.00  0.00     0.029 A 
ATOM     48  C   UNL A   1      40.585  27.560  28.701  1.00  0.00     0.049 A 
ATOM     49  H   UNL A   1      42.646  27.461  28.986  1.00  0.00     0.167 HD
ATOM     50  C   UNL A   1      46.952  27.014  29.722  1.00  0.00     0.037 A 
ATOM     51  C   UNL A   1      40.184  28.763  29.152  1.00  0.00     0.037 A 
ATOM     52  C   UNL A   1      46.631  28.349  30.150  1.00  0.00     0.049 A 
ATOM     53  C   UNL A   1      41.206  29.711  29.716  1.00  0.00     0.074 A 
ATOM     54  C   UNL A   1      47.479  29.327  30.637  1.00  0.00     0.029 A 
ATOM     55  N   UNL A   1      45.355  28.894  30.138  1.00  0.00    -0.354 N 
ATOM     56  N   UNL A   1      42.498  29.541  29.865  1.00  0.00    -0.248 NA
ATOM     57  C   UNL A   1      40.716  31.020  30.168  1.00  0.00     0.031 C 
ATOM     58  C   UNL A   1      46.711  30.451  30.956  1.00  0.00     0.029 A 
ATOM     59  C   UNL A   1      45.391  30.191  30.622  1.00  0.00     0.049 A 
ATOM     60  H   UNL A   1      44.544  28.427  29.831  1.00  0.00     0.167 HD
ATOM     61  C   UNL A   1      42.980  30.731  30.395  1.00  0.00     0.074 A 
ATOM     62  C   UNL A   1      41.842  31.617  30.532  1.00  0.00     0.031 C 
ATOM     63  C   UNL A   1      44.249  31.062  30.737  1.00  0.00     0.037 A 
BRANCH  50  64
ATOM     64  C   UNL A   1      48.372  26.541  29.844  1.00  0.00     0.057 A 
ATOM     65  C   UNL A   1      48.821  25.828  30.964  1.00  0.00     0.134 A 
ATOM     66  C   UNL A   1      49.297  26.781  28.820  1.00  0.00     0.134 A 
ATOM     67  F   UNL A   1      47.989  25.574  31.986  1.00  0.00    -0.206 F 
ATOM     68  C   UNL A   1      50.145  25.399  31.076  1.00  0.00     0.040 A 
ATOM     69  C   UNL A   1      50.616  26.333  28.908  1.00  0.00     0.040 A 
ATOM     70  F   UNL A   1      48.935  27.453  27.717  1.00  0.00    -0.206 F 
ATOM     71  C   UNL A   1      51.045  25.647  30.042  1.00  0.00     0.006 A 
ENDBRANCH  50  64
BRANCH  51  72
ATOM     72  C   UNL A   1      38.755  29.154  29.058  1.00  0.00     0.057 A 
ATOM     73  C   UNL A   1      37.914  29.080  30.174  1.00  0.00     0.134 A 
ATOM     74  C   UNL A   1      38.195  29.605  27.857  1.00  0.00     0.134 A 
ATOM     75  F   UNL A   1      38.389  28.640  31.349  1.00  0.00    -0.206 F 
ATOM     76  C   UNL A   1      36.563  29.421  30.096  1.00  0.00     0.040 A 
ATOM     77  C   UNL A   1      36.851  29.973  27.770  1.00  0.00     0.040 A 
ATOM     78  F   UNL A   1      38.949  29.708  26.753  1.00  0.00    -0.206 F 
ATOM     79  C   UNL A   1      36.029  29.873  28.892  1.00  0.00     0.006 A 
ENDBRANCH  51  72
BRANCH  63  80
ATOM     80  C   UNL A   1      44.482  32.452  31.246  1.00  0.00     0.057 A 
ATOM     81  C   UNL A   1      44.446  32.759  32.612  1.00  0.00     0.134 A 
ATOM     82  C   UNL A   1      44.785  33.492  30.357  1.00  0.00     0.134 A 
ATOM     83  F   UNL A   1      44.149  31.811  33.514  1.00  0.00    -0.206 F 
ATOM     84  C   UNL A   1      44.681  34.054  33.073  1.00  0.00     0.040 A 
ATOM     85  C   UNL A   1      45.049  34.785  30.808  1.00  0.00     0.040 A 
ATOM     86  F   UNL A   1      44.843  33.263  29.035  1.00  0.00    -0.206 F 
ATOM     87  C   UNL A   1      44.991  35.070  32.171  1.00  0.00     0.006 A 
ENDBRANCH  63  80
ENDBRANCH  37  38
ENDBRANCH  29  32
ENDBRANCH  27  28
ENDBRANCH  26  27
ENDBRANCH  25  26
ENDBRANCH   3  25
TORSDOF 17
ENDMDL
MODEL 2
REMARK VINA RESULT:     -10.8      1.365      6.448
REMARK SMILES COc1ccsc1CN(Cc1ccccc1)C(=O)/C=C/C(=O)NCCCNC(=O)c1ccc(-c2c3nc(c(-c4c(F)cccc4F)c4ccc([nH]4)c(-c4c(F)cccc4F)c4nc(c(-c5c(F)cccc5F)c5ccc2[nH]5)C=C4)C=C3)cc1
REMARK SMILES IDX 21 1 22 2 23 3 20 5 19 6 17 7 18 8 9 9 8 10 7 11 3 12 4 13
REMARK SMILES IDX 5 14 6 15 2 16 1 17 10 18 11 19 12 20 16 21 13 22 15 23
REMARK SMILES IDX 14 24 24 25 25 26 26 27 27 28 28 29 29 31 30 32 31 33 83 34
REMARK SMILES IDX 32 35 82 36 33 37 34 38 35 39 76 40 36 41 81 42 75 43 77 44
REMARK SMILES IDX 37 45 80 46 74 47 73 48 38 50 64 51 47 52 63 53 48 54 51 55
REMARK SMILES IDX 62 56 78 57 49 58 50 59 61 61 79 62 52 63 39 64 40 65 45 66
REMARK SMILES IDX 41 67 42 68 44 69 46 70 43 71 65 72 66 73 71 74 67 75 68 76
REMARK SMILES IDX 70 77 72 78 69 79 53 80 54 81 59 82 55 83 56 84 58 85 60 86
REMARK SMILES IDX 57 87
REMARK H PARENT 23 4 27 30 77 49 51 60
REMARK Flexibility Score: inf
ROOT
ATOM      1  C   UNL A   1      36.448  23.300  25.904  1.00  0.00     0.244 C 
ATOM      2  O   UNL A   1      37.141  24.151  26.453  1.00  0.00    -0.270 OA
ATOM      3  N   UNL A   1      36.705  21.974  26.081  1.00  0.00    -0.352 N 
ATOM      4  H   UNL A   1      37.295  21.752  26.837  1.00  0.00     0.163 HD
ENDROOT
BRANCH   1   5
ATOM      5  C   UNL A   1      35.338  23.708  25.025  1.00  0.00     0.077 C 
ATOM      6  C   UNL A   1      34.533  24.685  25.453  1.00  0.00     0.077 C 
BRANCH   6   7
ATOM      7  C   UNL A   1      33.475  25.275  24.620  1.00  0.00     0.247 C 
ATOM      8  O   UNL A   1      33.817  25.755  23.541  1.00  0.00    -0.270 OA
BRANCH   7   9
ATOM      9  N   UNL A   1      32.165  25.133  25.056  1.00  0.00    -0.330 N 
BRANCH   9  10
ATOM     10  C   UNL A   1      31.712  25.985  26.158  1.00  0.00     0.170 C 
BRANCH  10  11
ATOM     11  C   UNL A   1      31.949  27.445  25.902  1.00  0.00     0.066 A 
ATOM     12  C   UNL A   1      31.337  28.239  24.953  1.00  0.00     0.134 A 
ATOM     13  C   UNL A   1      31.828  29.576  24.955  1.00  0.00     0.058 A 
ATOM     14  C   UNL A   1      32.801  29.761  25.911  1.00  0.00     0.069 A 
ATOM     15  S   UNL A   1      33.094  28.338  26.817  1.00  0.00    -0.143 S 
BRANCH  12  16
ATOM     16  O   UNL A   1      30.353  27.731  24.172  1.00  0.00    -0.496 OA
ATOM     17  C   UNL A   1      30.634  27.845  22.780  1.00  0.00     0.278 C 
ENDBRANCH  12  16
ENDBRANCH  10  11
ENDBRANCH   9  10
BRANCH   9  18
ATOM     18  C   UNL A   1      31.148  24.314  24.372  1.00  0.00     0.155 C 
BRANCH  18  19
ATOM     19  C   UNL A   1      31.550  22.863  24.198  1.00  0.00    -0.029 A 
ATOM     20  C   UNL A   1      31.756  22.055  25.329  1.00  0.00     0.005 A 
ATOM     21  C   UNL A   1      31.817  22.325  22.930  1.00  0.00     0.005 A 
ATOM     22  C   UNL A   1      32.302  20.778  25.202  1.00  0.00     0.000 A 
ATOM     23  C   UNL A   1      32.356  21.042  22.806  1.00  0.00     0.000 A 
ATOM     24  C   UNL A   1      32.612  20.276  23.941  1.00  0.00     0.000 A 
ENDBRANCH  18  19
ENDBRANCH   9  18
ENDBRANCH   7   9
ENDBRANCH   6   7
ENDBRANCH   1   5
BRANCH   3  25
ATOM     25  C   UNL A   1      36.223  20.841  25.305  1.00  0.00     0.118 C 
BRANCH  25  26
ATOM     26  C   UNL A   1      37.348  19.860  25.006  1.00  0.00     0.042 C 
BRANCH  26  27
ATOM     27  C   UNL A   1      38.727  20.468  25.227  1.00  0.00     0.118 C 
BRANCH  27  28
ATOM     28  N   UNL A   1      39.725  19.453  25.537  1.00  0.00    -0.352 N 
ATOM     29  C   UNL A   1      41.007  19.593  26.002  1.00  0.00     0.251 C 
ATOM     30  H   UNL A   1      39.435  18.524  25.390  1.00  0.00     0.163 HD
ATOM     31  O   UNL A   1      41.783  18.645  25.957  1.00  0.00    -0.269 OA
BRANCH  29  32
ATOM     32  C   UNL A   1      41.454  20.887  26.559  1.00  0.00     0.039 A 
ATOM     33  C   UNL A   1      42.080  21.811  25.717  1.00  0.00     0.014 A 
ATOM     34  C   UNL A   1      41.291  21.172  27.916  1.00  0.00     0.014 A 
ATOM     35  C   UNL A   1      42.493  23.042  26.230  1.00  0.00     0.010 A 
ATOM     36  C   UNL A   1      41.617  22.431  28.404  1.00  0.00     0.010 A 
ATOM     37  C   UNL A   1      42.240  23.371  27.571  1.00  0.00    -0.014 A 
BRANCH  37  38
ATOM     38  C   UNL A   1      42.649  24.677  28.141  1.00  0.00     0.031 A 
ATOM     39  C   UNL A   1      41.618  25.750  28.365  1.00  0.00     0.074 A 
ATOM     40  C   UNL A   1      43.949  24.922  28.387  1.00  0.00     0.049 A 
ATOM     41  N   UNL A   1      41.782  26.988  28.757  1.00  0.00    -0.248 NA
ATOM     42  C   UNL A   1      40.220  25.394  28.072  1.00  0.00     0.031 C 
ATOM     43  C   UNL A   1      45.047  23.978  28.167  1.00  0.00     0.029 A 
ATOM     44  N   UNL A   1      44.571  26.047  28.865  1.00  0.00    -0.354 N 
ATOM     45  C   UNL A   1      40.516  27.560  28.739  1.00  0.00     0.074 A 
ATOM     46  C   UNL A   1      39.603  26.554  28.240  1.00  0.00     0.031 C 
ATOM     47  C   UNL A   1      46.203  24.555  28.532  1.00  0.00     0.029 A 
ATOM     48  C   UNL A   1      45.935  25.920  28.974  1.00  0.00     0.049 A 
ATOM     49  H   UNL A   1      44.085  26.869  29.109  1.00  0.00     0.167 HD
ATOM     50  C   UNL A   1      40.142  28.802  29.126  1.00  0.00     0.037 A 
ATOM     51  C   UNL A   1      46.861  26.807  29.380  1.00  0.00     0.037 A 
ATOM     52  C   UNL A   1      41.049  29.786  29.652  1.00  0.00     0.049 A 
ATOM     53  C   UNL A   1      46.421  28.179  29.812  1.00  0.00     0.074 A 
ATOM     54  C   UNL A   1      40.766  31.055  30.126  1.00  0.00     0.029 A 
ATOM     55  N   UNL A   1      42.419  29.608  29.776  1.00  0.00    -0.354 N 
ATOM     56  N   UNL A   1      45.213  28.687  29.845  1.00  0.00    -0.248 NA
ATOM     57  C   UNL A   1      47.472  29.097  30.271  1.00  0.00     0.031 C 
ATOM     58  C   UNL A   1      41.971  31.658  30.502  1.00  0.00     0.029 A 
ATOM     59  C   UNL A   1      42.998  30.748  30.307  1.00  0.00     0.049 A 
ATOM     60  H   UNL A   1      42.908  28.791  29.524  1.00  0.00     0.167 HD
ATOM     61  C   UNL A   1      45.354  29.970  30.358  1.00  0.00     0.074 A 
ATOM     62  C   UNL A   1      46.763  30.158  30.632  1.00  0.00     0.031 C 
ATOM     63  C   UNL A   1      44.402  30.909  30.585  1.00  0.00     0.037 A 
BRANCH  50  64
ATOM     64  C   UNL A   1      38.688  29.156  29.000  1.00  0.00     0.057 A 
ATOM     65  C   UNL A   1      37.815  29.097  30.095  1.00  0.00     0.134 A 
ATOM     66  C   UNL A   1      38.158  29.583  27.776  1.00  0.00     0.134 A 
ATOM     67  F   UNL A   1      38.255  28.684  31.294  1.00  0.00    -0.206 F 
ATOM     68  C   UNL A   1      36.462  29.418  29.970  1.00  0.00     0.040 A 
ATOM     69  C   UNL A   1      36.813  29.934  27.646  1.00  0.00     0.040 A 
ATOM     70  F   UNL A   1      38.938  29.668  26.688  1.00  0.00    -0.206 F 
ATOM     71  C   UNL A   1      35.960  29.844  28.743  1.00  0.00     0.006 A 
ENDBRANCH  50  64
BRANCH  51  72
ATOM     72  C   UNL A   1      48.293  26.418  29.429  1.00  0.00     0.057 A 
ATOM     73  C   UNL A   1      48.828  25.788  30.559  1.00  0.00     0.134 A 
ATOM     74  C   UNL A   1      49.158  26.666  28.358  1.00  0.00     0.134 A 
ATOM     75  F   UNL A   1      48.052  25.538  31.624  1.00  0.00    -0.206 F 
ATOM     76  C   UNL A   1      50.177  25.437  30.630  1.00  0.00     0.040 A 
ATOM     77  C   UNL A   1      50.504  26.298  28.406  1.00  0.00     0.040 A 
ATOM     78  F   UNL A   1      48.706  27.258  27.243  1.00  0.00    -0.206 F 
ATOM     79  C   UNL A   1      51.018  25.688  29.549  1.00  0.00     0.006 A 
ENDBRANCH  51  72
BRANCH  63  80
ATOM     80  C   UNL A   1      44.847  32.202  31.199  1.00  0.00     0.057 A 
ATOM     81  C   UNL A   1      44.913  32.381  32.586  1.00  0.00     0.134 A 
ATOM     82  C   UNL A   1      45.254  33.270  30.388  1.00  0.00     0.134 A 
ATOM     83  F   UNL A   1      44.526  31.401  33.418  1.00  0.00    -0.206 F 
ATOM     84  C   UNL A   1      45.345  33.584  33.145  1.00  0.00     0.040 A 
ATOM     85  C   UNL A   1      45.714  34.468  30.935  1.00  0.00     0.040 A 
ATOM     86  F   UNL A   1      45.224  33.160  29.051  1.00  0.00    -0.206 F 
ATOM     87  C   UNL A   1      45.755  34.629  32.319  1.00  0.00     0.006 A 
ENDBRANCH  63  80
ENDBRANCH  37  38
ENDBRANCH  29  32
ENDBRANCH  27  28
ENDBRANCH  26  27
ENDBRANCH  25  26
ENDBRANCH   3  25
TORSDOF 17
ENDMDL
MODEL 3
REMARK VINA RESULT:     -10.8      1.621      6.308
REMARK SMILES COc1ccsc1CN(Cc1ccccc1)C(=O)/C=C/C(=O)NCCCNC(=O)c1ccc(-c2c3nc(c(-c4c(F)cccc4F)c4ccc([nH]4)c(-c4c(F)cccc4F)c4nc(c(-c5c(F)cccc5F)c5ccc2[nH]5)C=C4)C=C3)cc1
REMARK SMILES IDX 21 1 22 2 23 3 20 5 19 6 17 7 18 8 9 9 8 10 7 11 3 12 4 13
REMARK SMILES IDX 5 14 6 15 2 16 1 17 10 18 11 19 12 20 16 21 13 22 15 23
REMARK SMILES IDX 14 24 24 25 25 26 26 27 27 28 28 29 29 31 30 32 31 33 83 34
REMARK SMILES IDX 32 35 82 36 33 37 34 38 35 39 76 40 36 41 81 42 75 43 77 44
REMARK SMILES IDX 37 45 80 46 74 47 73 48 38 50 64 51 47 52 63 53 48 54 51 55
REMARK SMILES IDX 62 56 78 57 49 58 50 59 61 61 79 62 52 63 39 64 40 65 45 66
REMARK SMILES IDX 41 67 42 68 44 69 46 70 43 71 65 72 66 73 71 74 67 75 68 76
REMARK SMILES IDX 70 77 72 78 69 79 53 80 54 81 59 82 55 83 56 84 58 85 60 86
REMARK SMILES IDX 57 87
REMARK H PARENT 23 4 27 30 77 49 51 60
REMARK Flexibility Score: inf
ROOT
ATOM      1  C   UNL A   1      34.516  21.072  25.611  1.00  0.00     0.244 C 
ATOM      2  O   UNL A   1      33.617  20.704  26.361  1.00  0.00    -0.270 OA
ATOM      3  N   UNL A   1      35.531  20.227  25.275  1.00  0.00    -0.352 N 
ATOM      4  H   UNL A   1      35.371  19.274  25.464  1.00  0.00     0.163 HD
ENDROOT
BRANCH   1   5
ATOM      5  C   UNL A   1      34.518  22.446  25.080  1.00  0.00     0.077 C 
ATOM      6  C   UNL A   1      33.662  22.734  24.094  1.00  0.00     0.077 C 
BRANCH   6   7
ATOM      7  C   UNL A   1      33.470  24.094  23.571  1.00  0.00     0.247 C 
ATOM      8  O   UNL A   1      34.293  24.497  22.751  1.00  0.00    -0.270 OA
BRANCH   7   9
ATOM      9  N   UNL A   1      32.316  24.766  23.946  1.00  0.00    -0.330 N 
BRANCH   9  10
ATOM     10  C   UNL A   1      31.405  25.211  22.889  1.00  0.00     0.170 C 
BRANCH  10  11
ATOM     11  C   UNL A   1      31.047  26.665  23.002  1.00  0.00     0.066 A 
ATOM     12  C   UNL A   1      31.863  27.750  22.752  1.00  0.00     0.134 A 
ATOM     13  C   UNL A   1      31.215  28.994  22.998  1.00  0.00     0.058 A 
ATOM     14  C   UNL A   1      29.917  28.817  23.427  1.00  0.00     0.069 A 
ATOM     15  S   UNL A   1      29.482  27.163  23.501  1.00  0.00    -0.143 S 
BRANCH  12  16
ATOM     16  O   UNL A   1      33.121  27.563  22.284  1.00  0.00    -0.496 OA
ATOM     17  C   UNL A   1      34.028  28.577  22.708  1.00  0.00     0.278 C 
ENDBRANCH  12  16
ENDBRANCH  10  11
ENDBRANCH   9  10
BRANCH   9  18
ATOM     18  C   UNL A   1      31.855  24.907  25.339  1.00  0.00     0.155 C 
BRANCH  18  19
ATOM     19  C   UNL A   1      32.330  26.178  26.014  1.00  0.00    -0.029 A 
ATOM     20  C   UNL A   1      31.412  26.985  26.707  1.00  0.00     0.005 A 
ATOM     21  C   UNL A   1      33.654  26.625  25.884  1.00  0.00     0.005 A 
ATOM     22  C   UNL A   1      31.784  28.244  27.176  1.00  0.00     0.000 A 
ATOM     23  C   UNL A   1      34.025  27.883  26.363  1.00  0.00     0.000 A 
ATOM     24  C   UNL A   1      33.087  28.698  26.994  1.00  0.00     0.000 A 
ENDBRANCH  18  19
ENDBRANCH   9  18
ENDBRANCH   7   9
ENDBRANCH   6   7
ENDBRANCH   1   5
BRANCH   3  25
ATOM     25  C   UNL A   1      36.818  20.543  24.675  1.00  0.00     0.118 C 
BRANCH  25  26
ATOM     26  C   UNL A   1      37.854  19.476  25.001  1.00  0.00     0.042 C 
BRANCH  26  27
ATOM     27  C   UNL A   1      39.035  20.030  25.786  1.00  0.00     0.118 C 
BRANCH  27  28
ATOM     28  N   UNL A   1      40.109  19.053  25.915  1.00  0.00    -0.352 N 
ATOM     29  C   UNL A   1      41.460  19.243  26.051  1.00  0.00     0.251 C 
ATOM     30  H   UNL A   1      39.820  18.112  25.903  1.00  0.00     0.163 HD
ATOM     31  O   UNL A   1      42.231  18.304  25.884  1.00  0.00    -0.269 OA
BRANCH  29  32
ATOM     32  C   UNL A   1      41.987  20.579  26.399  1.00  0.00     0.039 A 
ATOM     33  C   UNL A   1      42.281  21.483  25.376  1.00  0.00     0.014 A 
ATOM     34  C   UNL A   1      42.226  20.924  27.731  1.00  0.00     0.014 A 
ATOM     35  C   UNL A   1      42.766  22.753  25.695  1.00  0.00     0.010 A 
ATOM     36  C   UNL A   1      42.620  22.217  28.052  1.00  0.00     0.010 A 
ATOM     37  C   UNL A   1      42.913  23.138  27.037  1.00  0.00    -0.014 A 
BRANCH  37  38
ATOM     38  C   UNL A   1      43.407  24.485  27.409  1.00  0.00     0.031 A 
ATOM     39  C   UNL A   1      42.433  25.540  27.860  1.00  0.00     0.074 A 
ATOM     40  C   UNL A   1      44.714  24.780  27.273  1.00  0.00     0.049 A 
ATOM     41  N   UNL A   1      42.647  26.802  28.133  1.00  0.00    -0.248 NA
ATOM     42  C   UNL A   1      41.025  25.129  27.984  1.00  0.00     0.031 C 
ATOM     43  C   UNL A   1      45.747  23.856  26.800  1.00  0.00     0.029 A 
ATOM     44  N   UNL A   1      45.395  25.947  27.506  1.00  0.00    -0.354 N 
ATOM     45  C   UNL A   1      41.401  27.336  28.440  1.00  0.00     0.074 A 
ATOM     46  C   UNL A   1      40.430  26.278  28.262  1.00  0.00     0.031 C 
ATOM     47  C   UNL A   1      46.933  24.485  26.802  1.00  0.00     0.029 A 
ATOM     48  C   UNL A   1      46.739  25.864  27.238  1.00  0.00     0.049 A 
ATOM     49  H   UNL A   1      44.960  26.768  27.836  1.00  0.00     0.167 HD
ATOM     50  C   UNL A   1      41.096  28.587  28.858  1.00  0.00     0.037 A 
ATOM     51  C   UNL A   1      47.704  26.799  27.328  1.00  0.00     0.037 A 
ATOM     52  C   UNL A   1      42.070  29.625  29.065  1.00  0.00     0.049 A 
ATOM     53  C   UNL A   1      47.341  28.180  27.801  1.00  0.00     0.074 A 
ATOM     54  C   UNL A   1      41.876  30.910  29.538  1.00  0.00     0.029 A 
ATOM     55  N   UNL A   1      43.428  29.492  28.811  1.00  0.00    -0.354 N 
ATOM     56  N   UNL A   1      46.169  28.655  28.145  1.00  0.00    -0.248 NA
ATOM     57  C   UNL A   1      48.438  29.151  27.907  1.00  0.00     0.031 C 
ATOM     58  C   UNL A   1      43.110  31.567  29.536  1.00  0.00     0.029 A 
ATOM     59  C   UNL A   1      44.081  30.676  29.106  1.00  0.00     0.049 A 
ATOM     60  H   UNL A   1      43.862  28.676  28.472  1.00  0.00     0.167 HD
ATOM     61  C   UNL A   1      46.391  29.969  28.538  1.00  0.00     0.074 A 
ATOM     62  C   UNL A   1      47.812  30.211  28.400  1.00  0.00     0.031 C 
ATOM     63  C   UNL A   1      45.500  30.892  28.975  1.00  0.00     0.037 A 
BRANCH  50  64
ATOM     64  C   UNL A   1      39.650  28.893  29.124  1.00  0.00     0.057 A 
ATOM     65  C   UNL A   1      38.788  29.332  28.110  1.00  0.00     0.134 A 
ATOM     66  C   UNL A   1      39.107  28.727  30.405  1.00  0.00     0.134 A 
ATOM     67  F   UNL A   1      39.247  29.524  26.864  1.00  0.00    -0.206 F 
ATOM     68  C   UNL A   1      37.447  29.625  28.366  1.00  0.00     0.040 A 
ATOM     69  C   UNL A   1      37.761  28.990  30.666  1.00  0.00     0.040 A 
ATOM     70  F   UNL A   1      39.874  28.305  31.422  1.00  0.00    -0.206 F 
ATOM     71  C   UNL A   1      36.930  29.448  29.647  1.00  0.00     0.006 A 
ENDBRANCH  50  64
BRANCH  51  72
ATOM     72  C   UNL A   1      49.108  26.453  26.996  1.00  0.00     0.057 A 
ATOM     73  C   UNL A   1      49.613  26.657  25.707  1.00  0.00     0.134 A 
ATOM     74  C   UNL A   1      49.976  25.909  27.951  1.00  0.00     0.134 A 
ATOM     75  F   UNL A   1      48.826  27.159  24.745  1.00  0.00    -0.206 F 
ATOM     76  C   UNL A   1      50.925  26.314  25.373  1.00  0.00     0.040 A 
ATOM     77  C   UNL A   1      51.297  25.585  27.637  1.00  0.00     0.040 A 
ATOM     78  F   UNL A   1      49.556  25.698  29.207  1.00  0.00    -0.206 F 
ATOM     79  C   UNL A   1      51.771  25.780  26.341  1.00  0.00     0.006 A 
ENDBRANCH  51  72
BRANCH  63  80
ATOM     80  C   UNL A   1      46.042  32.229  29.381  1.00  0.00     0.057 A 
ATOM     81  C   UNL A   1      46.490  32.485  30.683  1.00  0.00     0.134 A 
ATOM     82  C   UNL A   1      46.153  33.264  28.443  1.00  0.00     0.134 A 
ATOM     83  F   UNL A   1      46.399  31.541  31.631  1.00  0.00    -0.206 F 
ATOM     84  C   UNL A   1      47.008  33.730  31.043  1.00  0.00     0.040 A 
ATOM     85  C   UNL A   1      46.694  34.504  28.783  1.00  0.00     0.040 A 
ATOM     86  F   UNL A   1      45.750  33.081  27.175  1.00  0.00    -0.206 F 
ATOM     87  C   UNL A   1      47.118  34.741  30.089  1.00  0.00     0.006 A 
ENDBRANCH  63  80
ENDBRANCH  37  38
ENDBRANCH  29  32
ENDBRANCH  27  28
ENDBRANCH  26  27
ENDBRANCH  25  26
ENDBRANCH   3  25
TORSDOF 17
ENDMDL
