MODEL 1
REMARK VINA RESULT:     -12.1      0.000      0.000
REMARK SMILES O=C(NCCCNC(=O)[C@H]1C=C[C@H](NS(=O)(=O)c2ccc3c(c2)CCO3)C1)c1ccc(-c2c3nc(c(-c4c(F)cccc4F)c4ccc([nH]4)c(-c4c(F)cccc4F)c4nc(c(-c5c(F)cccc5F)c5ccc2[nH]5)C=C4)C=C3)cc1
REMARK SMILES IDX 5 1 4 2 3 3 1 4 2 5 28 7 29 8 81 9 30 10 80 11 31 12 32 13
REMARK SMILES IDX 33 14 74 15 34 16 79 17 73 18 75 19 35 20 78 21 72 22 71 23
REMARK SMILES IDX 36 25 62 26 45 27 61 28 46 29 49 30 60 31 76 32 47 33 48 34
REMARK SMILES IDX 59 36 77 37 50 38 37 39 38 40 43 41 39 42 40 43 42 44 44 45
REMARK SMILES IDX 41 46 63 47 64 48 69 49 65 50 66 51 68 52 70 53 67 54 51 55
REMARK SMILES IDX 52 56 57 57 53 58 54 59 56 60 58 61 55 62 6 63 7 64 8 65
REMARK SMILES IDX 9 67 10 68 11 69 27 70 12 71 13 72 14 73 15 75 16 76 17 77
REMARK SMILES IDX 18 78 19 79 23 80 20 81 22 82 21 83 24 84 26 85 25 86
REMARK H PARENT 3 6 75 24 49 35 7 66 14 74
REMARK Flexibility Score: inf
ROOT
ATOM      1  C   UNL A   1      37.774  19.664  24.921  1.00  0.00     0.042 C 
ENDROOT
BRANCH   1   2
ATOM      2  C   UNL A   1      38.924  20.240  25.740  1.00  0.00     0.118 C 
BRANCH   2   3
ATOM      3  N   UNL A   1      40.046  19.317  25.832  1.00  0.00    -0.352 N 
ATOM      4  O   UNL A   1      42.198  18.670  25.833  1.00  0.00    -0.269 OA
ATOM      5  C   UNL A   1      41.379  19.562  26.039  1.00  0.00     0.251 C 
ATOM      6  H   UNL A   1      39.810  18.367  25.728  1.00  0.00     0.163 HD
BRANCH   5   7
ATOM      7  C   UNL A   1      41.839  20.885  26.510  1.00  0.00     0.039 A 
ATOM      8  C   UNL A   1      42.166  21.898  25.605  1.00  0.00     0.014 A 
ATOM      9  C   UNL A   1      41.869  21.136  27.884  1.00  0.00     0.014 A 
ATOM     10  C   UNL A   1      42.624  23.127  26.071  1.00  0.00     0.010 A 
ATOM     11  C   UNL A   1      42.261  22.391  28.351  1.00  0.00     0.010 A 
ATOM     12  C   UNL A   1      42.659  23.389  27.449  1.00  0.00    -0.014 A 
BRANCH  12  13
ATOM     13  C   UNL A   1      43.050  24.730  27.941  1.00  0.00     0.031 A 
ATOM     14  C   UNL A   1      42.008  25.763  28.255  1.00  0.00     0.074 A 
ATOM     15  C   UNL A   1      44.357  25.023  28.068  1.00  0.00     0.049 A 
ATOM     16  N   UNL A   1      42.167  27.012  28.610  1.00  0.00    -0.248 NA
ATOM     17  C   UNL A   1      40.604  25.340  28.143  1.00  0.00     0.031 C 
ATOM     18  C   UNL A   1      45.458  24.103  27.782  1.00  0.00     0.029 A 
ATOM     19  N   UNL A   1      44.981  26.181  28.456  1.00  0.00    -0.354 N 
ATOM     20  C   UNL A   1      40.887  27.534  28.739  1.00  0.00     0.074 A 
ATOM     21  C   UNL A   1      39.962  26.470  28.409  1.00  0.00     0.031 C 
ATOM     22  C   UNL A   1      46.623  24.729  28.006  1.00  0.00     0.029 A 
ATOM     23  C   UNL A   1      46.350  26.106  28.400  1.00  0.00     0.049 A 
ATOM     24  H   UNL A   1      44.495  26.987  28.745  1.00  0.00     0.167 HD
ATOM     25  C   UNL A   1      40.520  28.785  29.103  1.00  0.00     0.037 A 
ATOM     26  C   UNL A   1      47.286  27.050  28.612  1.00  0.00     0.037 A 
ATOM     27  C   UNL A   1      41.446  29.834  29.444  1.00  0.00     0.049 A 
ATOM     28  C   UNL A   1      46.857  28.435  28.994  1.00  0.00     0.074 A 
ATOM     29  C   UNL A   1      41.173  31.120  29.878  1.00  0.00     0.029 A 
ATOM     30  N   UNL A   1      42.827  29.716  29.385  1.00  0.00    -0.354 N 
ATOM     31  N   UNL A   1      45.644  28.906  29.152  1.00  0.00    -0.248 NA
ATOM     32  C   UNL A   1      47.922  29.419  29.226  1.00  0.00     0.031 C 
ATOM     33  C   UNL A   1      42.389  31.793  30.041  1.00  0.00     0.029 A 
ATOM     34  C   UNL A   1      43.420  30.915  29.749  1.00  0.00     0.049 A 
ATOM     35  H   UNL A   1      43.314  28.902  29.122  1.00  0.00     0.167 HD
ATOM     36  C   UNL A   1      45.796  30.235  29.517  1.00  0.00     0.074 A 
ATOM     37  C   UNL A   1      47.221  30.494  29.564  1.00  0.00     0.031 C 
ATOM     38  C   UNL A   1      44.840  31.154  29.792  1.00  0.00     0.037 A 
BRANCH  25  39
ATOM     39  C   UNL A   1      39.053  29.094  29.124  1.00  0.00     0.057 A 
ATOM     40  C   UNL A   1      38.360  29.496  27.975  1.00  0.00     0.134 A 
ATOM     41  C   UNL A   1      38.318  28.971  30.311  1.00  0.00     0.134 A 
ATOM     42  F   UNL A   1      39.008  29.646  26.809  1.00  0.00    -0.206 F 
ATOM     43  C   UNL A   1      36.996  29.791  28.010  1.00  0.00     0.040 A 
ATOM     44  C   UNL A   1      36.949  29.241  30.354  1.00  0.00     0.040 A 
ATOM     45  F   UNL A   1      38.919  28.586  31.447  1.00  0.00    -0.206 F 
ATOM     46  C   UNL A   1      36.286  29.659  29.202  1.00  0.00     0.006 A 
ENDBRANCH  25  39
BRANCH  26  47
ATOM     47  C   UNL A   1      48.716  26.699  28.445  1.00  0.00     0.057 A 
ATOM     48  C   UNL A   1      49.476  26.231  29.520  1.00  0.00     0.134 A 
ATOM     49  C   UNL A   1      49.336  26.762  27.191  1.00  0.00     0.134 A 
ATOM     50  F   UNL A   1      48.938  26.161  30.747  1.00  0.00    -0.206 F 
ATOM     51  C   UNL A   1      50.804  25.836  29.356  1.00  0.00     0.040 A 
ATOM     52  C   UNL A   1      50.656  26.351  27.008  1.00  0.00     0.040 A 
ATOM     53  F   UNL A   1      48.652  27.193  26.119  1.00  0.00    -0.206 F 
ATOM     54  C   UNL A   1      51.394  25.886  28.094  1.00  0.00     0.006 A 
ENDBRANCH  26  47
BRANCH  38  55
ATOM     55  C   UNL A   1      45.300  32.522  30.195  1.00  0.00     0.057 A 
ATOM     56  C   UNL A   1      45.459  33.549  29.258  1.00  0.00     0.134 A 
ATOM     57  C   UNL A   1      45.528  32.828  31.542  1.00  0.00     0.134 A 
ATOM     58  F   UNL A   1      45.269  33.313  27.951  1.00  0.00    -0.206 F 
ATOM     59  C   UNL A   1      45.836  34.835  29.648  1.00  0.00     0.040 A 
ATOM     60  C   UNL A   1      45.885  34.114  31.945  1.00  0.00     0.040 A 
ATOM     61  F   UNL A   1      45.386  31.886  32.488  1.00  0.00    -0.206 F 
ATOM     62  C   UNL A   1      46.042  35.122  30.996  1.00  0.00     0.006 A 
ENDBRANCH  38  55
ENDBRANCH  12  13
ENDBRANCH   5   7
ENDBRANCH   2   3
ENDBRANCH   1   2
BRANCH   1  63
ATOM     63  C   UNL A   1      36.704  20.692  24.579  1.00  0.00     0.117 C 
BRANCH  63  64
ATOM     64  N   UNL A   1      35.596  20.656  25.512  1.00  0.00    -0.356 N 
ATOM     65  C   UNL A   1      34.302  21.052  25.389  1.00  0.00     0.226 C 
ATOM     66  H   UNL A   1      35.820  20.278  26.392  1.00  0.00     0.163 HD
ATOM     67  O   UNL A   1      33.609  21.016  26.410  1.00  0.00    -0.274 OA
BRANCH  65  68
ATOM     68  C   UNL A   1      33.688  21.507  24.063  1.00  0.00     0.103 C 
ATOM     69  C   UNL A   1      32.196  21.460  23.996  1.00  0.00    -0.016 C 
ATOM     70  C   UNL A   1      34.045  22.941  23.653  1.00  0.00     0.042 C 
ATOM     71  C   UNL A   1      31.678  22.630  23.606  1.00  0.00    -0.011 C 
ATOM     72  C   UNL A   1      32.716  23.683  23.429  1.00  0.00     0.093 C 
BRANCH  72  73
ATOM     73  N   UNL A   1      32.676  24.214  22.082  1.00  0.00    -0.204 NA
ATOM     74  H   UNL A   1      31.870  23.791  21.622  1.00  0.00     0.142 HD
BRANCH  73  75
ATOM     75  S   UNL A   1      32.561  25.864  21.836  1.00  0.00     0.241 S 
ATOM     76  O   UNL A   1      33.885  26.300  21.454  1.00  0.00    -0.207 OA
ATOM     77  O   UNL A   1      31.403  26.105  21.005  1.00  0.00    -0.207 OA
BRANCH  75  78
ATOM     78  C   UNL A   1      32.227  26.569  23.435  1.00  0.00     0.083 A 
ATOM     79  C   UNL A   1      30.925  26.611  23.972  1.00  0.00     0.025 A 
ATOM     80  C   UNL A   1      33.309  27.139  24.122  1.00  0.00     0.029 A 
ATOM     81  C   UNL A   1      30.689  27.256  25.190  1.00  0.00     0.048 A 
ATOM     82  C   UNL A   1      33.057  27.738  25.343  1.00  0.00    -0.001 A 
ATOM     83  C   UNL A   1      31.770  27.803  25.853  1.00  0.00     0.122 A 
ATOM     84  C   UNL A   1      33.980  28.446  26.259  1.00  0.00     0.081 C 
ATOM     85  O   UNL A   1      31.683  28.464  27.049  1.00  0.00    -0.493 OA
ATOM     86  C   UNL A   1      33.061  28.575  27.476  1.00  0.00     0.234 C 
ENDBRANCH  75  78
ENDBRANCH  73  75
ENDBRANCH  72  73
ENDBRANCH  65  68
ENDBRANCH  63  64
ENDBRANCH   1  63
TORSDOF 13
ENDMDL
MODEL 2
REMARK VINA RESULT:     -12.0      4.641      9.572
REMARK SMILES O=C(NCCCNC(=O)[C@H]1C=C[C@H](NS(=O)(=O)c2ccc3c(c2)CCO3)C1)c1ccc(-c2c3nc(c(-c4c(F)cccc4F)c4ccc([nH]4)c(-c4c(F)cccc4F)c4nc(c(-c5c(F)cccc5F)c5ccc2[nH]5)C=C4)C=C3)cc1
REMARK SMILES IDX 5 1 4 2 3 3 1 4 2 5 28 7 29 8 81 9 30 10 80 11 31 12 32 13
REMARK SMILES IDX 33 14 74 15 34 16 79 17 73 18 75 19 35 20 78 21 72 22 71 23
REMARK SMILES IDX 36 25 62 26 45 27 61 28 46 29 49 30 60 31 76 32 47 33 48 34
REMARK SMILES IDX 59 36 77 37 50 38 37 39 38 40 43 41 39 42 40 43 42 44 44 45
REMARK SMILES IDX 41 46 63 47 64 48 69 49 65 50 66 51 68 52 70 53 67 54 51 55
REMARK SMILES IDX 52 56 57 57 53 58 54 59 56 60 58 61 55 62 6 63 7 64 8 65
REMARK SMILES IDX 9 67 10 68 11 69 27 70 12 71 13 72 14 73 15 75 16 76 17 77
REMARK SMILES IDX 18 78 19 79 23 80 20 81 22 82 21 83 24 84 26 85 25 86
REMARK H PARENT 3 6 75 24 49 35 7 66 14 74
REMARK Flexibility Score: inf
ROOT
ATOM      1  C   UNL A   1      31.379  32.036  26.471  1.00  0.00     0.042 C 
ENDROOT
BRANCH   1   2
ATOM      2  C   UNL A   1      32.667  32.518  27.129  1.00  0.00     0.118 C 
BRANCH   2   3
ATOM      3  N   UNL A   1      32.558  33.891  27.603  1.00  0.00    -0.352 N 
ATOM      4  O   UNL A   1      32.787  35.611  29.029  1.00  0.00    -0.269 OA
ATOM      5  C   UNL A   1      33.202  34.526  28.633  1.00  0.00     0.251 C 
ATOM      6  H   UNL A   1      31.920  34.451  27.104  1.00  0.00     0.163 HD
BRANCH   5   7
ATOM      7  C   UNL A   1      34.391  33.919  29.268  1.00  0.00     0.039 A 
ATOM      8  C   UNL A   1      34.260  32.933  30.249  1.00  0.00     0.014 A 
ATOM      9  C   UNL A   1      35.659  34.292  28.815  1.00  0.00     0.014 A 
ATOM     10  C   UNL A   1      35.393  32.396  30.853  1.00  0.00     0.010 A 
ATOM     11  C   UNL A   1      36.795  33.703  29.371  1.00  0.00     0.010 A 
ATOM     12  C   UNL A   1      36.670  32.765  30.407  1.00  0.00    -0.014 A 
BRANCH  12  13
ATOM     13  C   UNL A   1      37.874  32.119  30.980  1.00  0.00     0.031 A 
ATOM     14  C   UNL A   1      38.568  31.010  30.247  1.00  0.00     0.074 A 
ATOM     15  C   UNL A   1      38.315  32.516  32.188  1.00  0.00     0.049 A 
ATOM     16  N   UNL A   1      39.577  30.272  30.633  1.00  0.00    -0.248 NA
ATOM     17  C   UNL A   1      38.055  30.680  28.909  1.00  0.00     0.031 C 
ATOM     18  C   UNL A   1      37.713  33.576  32.998  1.00  0.00     0.029 A 
ATOM     19  N   UNL A   1      39.360  32.065  32.951  1.00  0.00    -0.354 N 
ATOM     20  C   UNL A   1      39.804  29.372  29.601  1.00  0.00     0.074 A 
ATOM     21  C   UNL A   1      38.818  29.646  28.578  1.00  0.00     0.031 C 
ATOM     22  C   UNL A   1      38.400  33.697  34.143  1.00  0.00     0.029 A 
ATOM     23  C   UNL A   1      39.455  32.691  34.169  1.00  0.00     0.049 A 
ATOM     24  H   UNL A   1      39.983  31.362  32.655  1.00  0.00     0.167 HD
ATOM     25  C   UNL A   1      40.752  28.408  29.517  1.00  0.00     0.037 A 
ATOM     26  C   UNL A   1      40.278  32.460  35.208  1.00  0.00     0.037 A 
ATOM     27  C   UNL A   1      41.739  28.152  30.533  1.00  0.00     0.049 A 
ATOM     28  C   UNL A   1      41.307  31.375  35.101  1.00  0.00     0.074 A 
ATOM     29  C   UNL A   1      42.775  27.235  30.518  1.00  0.00     0.029 A 
ATOM     30  N   UNL A   1      41.808  28.814  31.751  1.00  0.00    -0.354 N 
ATOM     31  N   UNL A   1      41.538  30.556  34.104  1.00  0.00    -0.248 NA
ATOM     32  C   UNL A   1      42.188  31.178  36.260  1.00  0.00     0.031 C 
ATOM     33  C   UNL A   1      43.446  27.313  31.744  1.00  0.00     0.029 A 
ATOM     34  C   UNL A   1      42.853  28.307  32.506  1.00  0.00     0.049 A 
ATOM     35  H   UNL A   1      41.203  29.537  32.035  1.00  0.00     0.167 HD
ATOM     36  C   UNL A   1      42.599  29.758  34.505  1.00  0.00     0.074 A 
ATOM     37  C   UNL A   1      42.971  30.195  35.835  1.00  0.00     0.031 C 
ATOM     38  C   UNL A   1      43.210  28.756  33.828  1.00  0.00     0.037 A 
BRANCH  25  39
ATOM     39  C   UNL A   1      40.747  27.543  28.292  1.00  0.00     0.057 A 
ATOM     40  C   UNL A   1      40.012  26.353  28.225  1.00  0.00     0.134 A 
ATOM     41  C   UNL A   1      41.477  27.917  27.156  1.00  0.00     0.134 A 
ATOM     42  F   UNL A   1      39.303  25.932  29.283  1.00  0.00    -0.206 F 
ATOM     43  C   UNL A   1      40.024  25.550  27.082  1.00  0.00     0.040 A 
ATOM     44  C   UNL A   1      41.479  27.135  25.999  1.00  0.00     0.040 A 
ATOM     45  F   UNL A   1      42.198  29.048  27.151  1.00  0.00    -0.206 F 
ATOM     46  C   UNL A   1      40.757  25.944  25.964  1.00  0.00     0.006 A 
ENDBRANCH  25  39
BRANCH  26  47
ATOM     47  C   UNL A   1      40.135  33.275  36.437  1.00  0.00     0.057 A 
ATOM     48  C   UNL A   1      40.878  34.445  36.620  1.00  0.00     0.134 A 
ATOM     49  C   UNL A   1      39.204  32.937  37.427  1.00  0.00     0.134 A 
ATOM     50  F   UNL A   1      41.794  34.812  35.710  1.00  0.00    -0.206 F 
ATOM     51  C   UNL A   1      40.701  35.252  37.743  1.00  0.00     0.040 A 
ATOM     52  C   UNL A   1      39.001  33.745  38.545  1.00  0.00     0.040 A 
ATOM     53  F   UNL A   1      38.454  31.831  37.300  1.00  0.00    -0.206 F 
ATOM     54  C   UNL A   1      39.752  34.907  38.706  1.00  0.00     0.006 A 
ENDBRANCH  26  47
BRANCH  38  55
ATOM     55  C   UNL A   1      44.364  28.078  34.501  1.00  0.00     0.057 A 
ATOM     56  C   UNL A   1      45.668  28.577  34.403  1.00  0.00     0.134 A 
ATOM     57  C   UNL A   1      44.156  26.950  35.305  1.00  0.00     0.134 A 
ATOM     58  F   UNL A   1      45.932  29.646  33.637  1.00  0.00    -0.206 F 
ATOM     59  C   UNL A   1      46.729  27.970  35.077  1.00  0.00     0.040 A 
ATOM     60  C   UNL A   1      45.206  26.348  35.998  1.00  0.00     0.040 A 
ATOM     61  F   UNL A   1      42.927  26.429  35.442  1.00  0.00    -0.206 F 
ATOM     62  C   UNL A   1      46.497  26.858  35.884  1.00  0.00     0.006 A 
ENDBRANCH  38  55
ENDBRANCH  12  13
ENDBRANCH   5   7
ENDBRANCH   2   3
ENDBRANCH   1   2
BRANCH   1  63
ATOM     63  C   UNL A   1      31.332  30.527  26.274  1.00  0.00     0.117 C 
BRANCH  63  64
ATOM     64  N   UNL A   1      31.875  30.127  24.991  1.00  0.00    -0.356 N 
ATOM     65  C   UNL A   1      31.710  28.996  24.255  1.00  0.00     0.226 C 
ATOM     66  H   UNL A   1      32.470  30.793  24.578  1.00  0.00     0.163 HD
ATOM     67  O   UNL A   1      32.410  28.881  23.245  1.00  0.00    -0.274 OA
BRANCH  65  68
ATOM     68  C   UNL A   1      30.699  27.904  24.616  1.00  0.00     0.103 C 
ATOM     69  C   UNL A   1      30.022  27.248  23.456  1.00  0.00    -0.016 C 
ATOM     70  C   UNL A   1      31.279  26.741  25.430  1.00  0.00     0.042 C 
ATOM     71  C   UNL A   1      30.127  25.916  23.507  1.00  0.00    -0.011 C 
ATOM     72  C   UNL A   1      30.960  25.452  24.652  1.00  0.00     0.093 C 
BRANCH  72  73
ATOM     73  N   UNL A   1      30.205  24.549  25.498  1.00  0.00    -0.204 NA
ATOM     74  H   UNL A   1      29.482  24.131  24.910  1.00  0.00     0.142 HD
BRANCH  73  75
ATOM     75  S   UNL A   1      30.980  23.291  26.278  1.00  0.00     0.241 S 
ATOM     76  O   UNL A   1      31.308  23.786  27.596  1.00  0.00    -0.207 OA
ATOM     77  O   UNL A   1      30.188  22.098  26.082  1.00  0.00    -0.207 OA
BRANCH  75  78
ATOM     78  C   UNL A   1      32.517  23.059  25.415  1.00  0.00     0.083 A 
ATOM     79  C   UNL A   1      32.597  22.313  24.224  1.00  0.00     0.025 A 
ATOM     80  C   UNL A   1      33.669  23.604  26.002  1.00  0.00     0.029 A 
ATOM     81  C   UNL A   1      33.838  22.075  23.625  1.00  0.00     0.048 A 
ATOM     82  C   UNL A   1      34.881  23.388  25.371  1.00  0.00    -0.001 A 
ATOM     83  C   UNL A   1      34.957  22.628  24.215  1.00  0.00     0.122 A 
ATOM     84  C   UNL A   1      36.245  23.800  25.774  1.00  0.00     0.081 C 
ATOM     85  O   UNL A   1      36.232  22.474  23.739  1.00  0.00    -0.493 OA
ATOM     86  C   UNL A   1      36.993  23.453  24.485  1.00  0.00     0.234 C 
ENDBRANCH  75  78
ENDBRANCH  73  75
ENDBRANCH  72  73
ENDBRANCH  65  68
ENDBRANCH  63  64
ENDBRANCH   1  63
TORSDOF 13
ENDMDL
MODEL 3
REMARK VINA RESULT:     -12.0      1.412      1.897
REMARK SMILES O=C(NCCCNC(=O)[C@H]1C=C[C@H](NS(=O)(=O)c2ccc3c(c2)CCO3)C1)c1ccc(-c2c3nc(c(-c4c(F)cccc4F)c4ccc([nH]4)c(-c4c(F)cccc4F)c4nc(c(-c5c(F)cccc5F)c5ccc2[nH]5)C=C4)C=C3)cc1
REMARK SMILES IDX 5 1 4 2 3 3 1 4 2 5 28 7 29 8 81 9 30 10 80 11 31 12 32 13
REMARK SMILES IDX 33 14 74 15 34 16 79 17 73 18 75 19 35 20 78 21 72 22 71 23
REMARK SMILES IDX 36 25 62 26 45 27 61 28 46 29 49 30 60 31 76 32 47 33 48 34
REMARK SMILES IDX 59 36 77 37 50 38 37 39 38 40 43 41 39 42 40 43 42 44 44 45
REMARK SMILES IDX 41 46 63 47 64 48 69 49 65 50 66 51 68 52 70 53 67 54 51 55
REMARK SMILES IDX 52 56 57 57 53 58 54 59 56 60 58 61 55 62 6 63 7 64 8 65
REMARK SMILES IDX 9 67 10 68 11 69 27 70 12 71 13 72 14 73 15 75 16 76 17 77
REMARK SMILES IDX 18 78 19 79 23 80 20 81 22 82 21 83 24 84 26 85 25 86
REMARK H PARENT 3 6 75 24 49 35 7 66 14 74
REMARK Flexibility Score: inf
ROOT
ATOM      1  C   UNL A   1      37.733  19.439  25.011  1.00  0.00     0.042 C 
ENDROOT
BRANCH   1   2
ATOM      2  C   UNL A   1      38.991  20.083  25.584  1.00  0.00     0.118 C 
BRANCH   2   3
ATOM      3  N   UNL A   1      40.053  19.110  25.800  1.00  0.00    -0.352 N 
ATOM      4  O   UNL A   1      42.162  18.352  25.963  1.00  0.00    -0.269 OA
ATOM      5  C   UNL A   1      41.385  19.298  26.064  1.00  0.00     0.251 C 
ATOM      6  H   UNL A   1      39.770  18.168  25.746  1.00  0.00     0.163 HD
BRANCH   5   7
ATOM      7  C   UNL A   1      41.895  20.624  26.471  1.00  0.00     0.039 A 
ATOM      8  C   UNL A   1      42.273  21.574  25.519  1.00  0.00     0.014 A 
ATOM      9  C   UNL A   1      41.919  20.946  27.831  1.00  0.00     0.014 A 
ATOM     10  C   UNL A   1      42.776  22.806  25.927  1.00  0.00     0.010 A 
ATOM     11  C   UNL A   1      42.357  22.207  28.237  1.00  0.00     0.010 A 
ATOM     12  C   UNL A   1      42.806  23.139  27.289  1.00  0.00    -0.014 A 
BRANCH  12  13
ATOM     13  C   UNL A   1      43.246  24.487  27.717  1.00  0.00     0.031 A 
ATOM     14  C   UNL A   1      42.243  25.529  28.113  1.00  0.00     0.074 A 
ATOM     15  C   UNL A   1      44.561  24.777  27.708  1.00  0.00     0.049 A 
ATOM     16  N   UNL A   1      42.438  26.784  28.428  1.00  0.00    -0.248 NA
ATOM     17  C   UNL A   1      40.834  25.109  28.149  1.00  0.00     0.031 C 
ATOM     18  C   UNL A   1      45.626  23.848  27.331  1.00  0.00     0.029 A 
ATOM     19  N   UNL A   1      45.222  25.939  28.011  1.00  0.00    -0.354 N 
ATOM     20  C   UNL A   1      41.178  27.312  28.674  1.00  0.00     0.074 A 
ATOM     21  C   UNL A   1      40.224  26.246  28.456  1.00  0.00     0.031 C 
ATOM     22  C   UNL A   1      46.809  24.473  27.427  1.00  0.00     0.029 A 
ATOM     23  C   UNL A   1      46.579  25.859  27.822  1.00  0.00     0.049 A 
ATOM     24  H   UNL A   1      44.768  26.752  28.333  1.00  0.00     0.167 HD
ATOM     25  C   UNL A   1      40.852  28.571  29.049  1.00  0.00     0.037 A 
ATOM     26  C   UNL A   1      47.533  26.803  27.922  1.00  0.00     0.037 A 
ATOM     27  C   UNL A   1      41.809  29.622  29.279  1.00  0.00     0.049 A 
ATOM     28  C   UNL A   1      47.146  28.195  28.320  1.00  0.00     0.074 A 
ATOM     29  C   UNL A   1      41.583  30.917  29.714  1.00  0.00     0.029 A 
ATOM     30  N   UNL A   1      43.178  29.499  29.085  1.00  0.00    -0.354 N 
ATOM     31  N   UNL A   1      45.956  28.673  28.589  1.00  0.00    -0.248 NA
ATOM     32  C   UNL A   1      48.231  29.180  28.428  1.00  0.00     0.031 C 
ATOM     33  C   UNL A   1      42.810  31.588  29.744  1.00  0.00     0.029 A 
ATOM     34  C   UNL A   1      43.805  30.701  29.366  1.00  0.00     0.049 A 
ATOM     35  H   UNL A   1      43.634  28.678  28.790  1.00  0.00     0.167 HD
ATOM     36  C   UNL A   1      46.146  30.009  28.913  1.00  0.00     0.074 A 
ATOM     37  C   UNL A   1      47.569  30.263  28.814  1.00  0.00     0.031 C 
ATOM     38  C   UNL A   1      45.224  30.936  29.264  1.00  0.00     0.037 A 
BRANCH  25  39
ATOM     39  C   UNL A   1      39.394  28.886  29.210  1.00  0.00     0.057 A 
ATOM     40  C   UNL A   1      38.736  28.752  30.439  1.00  0.00     0.134 A 
ATOM     41  C   UNL A   1      38.642  29.344  28.121  1.00  0.00     0.134 A 
ATOM     42  F   UNL A   1      39.396  28.304  31.518  1.00  0.00    -0.206 F 
ATOM     43  C   UNL A   1      37.376  29.037  30.573  1.00  0.00     0.040 A 
ATOM     44  C   UNL A   1      37.287  29.655  28.248  1.00  0.00     0.040 A 
ATOM     45  F   UNL A   1      39.212  29.500  26.917  1.00  0.00    -0.206 F 
ATOM     46  C   UNL A   1      36.649  29.494  29.475  1.00  0.00     0.006 A 
ENDBRANCH  25  39
BRANCH  26  47
ATOM     47  C   UNL A   1      48.938  26.443  27.621  1.00  0.00     0.057 A 
ATOM     48  C   UNL A   1      49.806  26.010  28.628  1.00  0.00     0.134 A 
ATOM     49  C   UNL A   1      49.426  26.463  26.309  1.00  0.00     0.134 A 
ATOM     50  F   UNL A   1      49.397  25.983  29.905  1.00  0.00    -0.206 F 
ATOM     51  C   UNL A   1      51.110  25.607  28.341  1.00  0.00     0.040 A 
ATOM     52  C   UNL A   1      50.720  26.043  26.004  1.00  0.00     0.040 A 
ATOM     53  F   UNL A   1      48.635  26.858  25.299  1.00  0.00    -0.206 F 
ATOM     54  C   UNL A   1      51.568  25.614  27.024  1.00  0.00     0.006 A 
ENDBRANCH  26  47
BRANCH  38  55
ATOM     55  C   UNL A   1      45.724  32.309  29.595  1.00  0.00     0.057 A 
ATOM     56  C   UNL A   1      45.803  33.315  28.625  1.00  0.00     0.134 A 
ATOM     57  C   UNL A   1      46.072  32.642  30.910  1.00  0.00     0.134 A 
ATOM     58  F   UNL A   1      45.497  33.053  27.346  1.00  0.00    -0.206 F 
ATOM     59  C   UNL A   1      46.219  34.607  28.953  1.00  0.00     0.040 A 
ATOM     60  C   UNL A   1      46.470  33.934  31.252  1.00  0.00     0.040 A 
ATOM     61  F   UNL A   1      46.011  31.721  31.884  1.00  0.00    -0.206 F 
ATOM     62  C   UNL A   1      46.546  34.921  30.271  1.00  0.00     0.006 A 
ENDBRANCH  38  55
ENDBRANCH  12  13
ENDBRANCH   5   7
ENDBRANCH   2   3
ENDBRANCH   1   2
BRANCH   1  63
ATOM     63  C   UNL A   1      36.535  20.379  24.984  1.00  0.00     0.117 C 
BRANCH  63  64
ATOM     64  N   UNL A   1      35.277  19.660  25.001  1.00  0.00    -0.356 N 
ATOM     65  C   UNL A   1      34.000  20.075  24.793  1.00  0.00     0.226 C 
ATOM     66  H   UNL A   1      35.363  18.700  25.198  1.00  0.00     0.163 HD
ATOM     67  O   UNL A   1      33.106  19.249  25.001  1.00  0.00    -0.274 OA
BRANCH  65  68
ATOM     68  C   UNL A   1      33.645  21.481  24.305  1.00  0.00     0.103 C 
ATOM     69  C   UNL A   1      32.739  21.540  23.118  1.00  0.00    -0.016 C 
ATOM     70  C   UNL A   1      32.963  22.369  25.353  1.00  0.00     0.042 C 
ATOM     71  C   UNL A   1      31.677  22.321  23.341  1.00  0.00    -0.011 C 
ATOM     72  C   UNL A   1      31.640  22.851  24.733  1.00  0.00     0.093 C 
BRANCH  72  73
ATOM     73  N   UNL A   1      31.607  24.299  24.726  1.00  0.00    -0.204 NA
ATOM     74  H   UNL A   1      31.038  24.576  23.925  1.00  0.00     0.142 HD
BRANCH  73  75
ATOM     75  S   UNL A   1      31.012  25.129  26.050  1.00  0.00     0.241 S 
ATOM     76  O   UNL A   1      29.694  25.586  25.670  1.00  0.00    -0.207 OA
ATOM     77  O   UNL A   1      31.233  24.308  27.218  1.00  0.00    -0.207 OA
BRANCH  75  78
ATOM     78  C   UNL A   1      32.034  26.576  26.213  1.00  0.00     0.083 A 
ATOM     79  C   UNL A   1      33.431  26.524  26.040  1.00  0.00     0.025 A 
ATOM     80  C   UNL A   1      31.396  27.771  26.580  1.00  0.00     0.029 A 
ATOM     81  C   UNL A   1      34.209  27.663  26.269  1.00  0.00     0.048 A 
ATOM     82  C   UNL A   1      32.183  28.894  26.762  1.00  0.00    -0.001 A 
ATOM     83  C   UNL A   1      33.560  28.830  26.620  1.00  0.00     0.122 A 
ATOM     84  C   UNL A   1      31.800  30.260  27.183  1.00  0.00     0.081 C 
ATOM     85  O   UNL A   1      34.197  30.015  26.875  1.00  0.00    -0.493 OA
ATOM     86  C   UNL A   1      33.119  30.981  26.896  1.00  0.00     0.234 C 
ENDBRANCH  75  78
ENDBRANCH  73  75
ENDBRANCH  72  73
ENDBRANCH  65  68
ENDBRANCH  63  64
ENDBRANCH   1  63
TORSDOF 13
ENDMDL
