MODEL 1
REMARK VINA RESULT:      -9.2      0.000      0.000
REMARK SMILES NC(=O)C[C@@H](CC(=O)NCCCNC(=O)c1ccc(-c2c3nc(c(-c4c(F)cccc4F)c4ccc([nH]4)c(-c4c(F)cccc4F)c4nc(c(-c5c(F)cccc5F)c5ccc2[nH]5)C=C4)C=C3)cc1)c1cccc(Br)c1
REMARK SMILES IDX 10 1 9 2 7 3 8 4 6 6 5 7 4 8 2 9 1 10 3 13 70 14 71 15 76 16
REMARK SMILES IDX 72 17 74 18 73 19 75 20 11 21 12 22 13 23 14 24 15 26 16 27
REMARK SMILES IDX 17 28 69 29 18 30 68 31 19 32 20 33 21 34 62 35 22 36 67 37
REMARK SMILES IDX 61 38 63 39 23 40 66 41 60 42 59 43 24 45 50 46 33 47 49 48
REMARK SMILES IDX 34 49 37 50 48 51 64 52 35 53 36 54 47 56 65 57 38 58 25 59
REMARK SMILES IDX 26 60 31 61 27 62 28 63 30 64 32 65 29 66 51 67 52 68 57 69
REMARK SMILES IDX 53 70 54 71 56 72 58 73 55 74 39 75 40 76 45 77 41 78 42 79
REMARK SMILES IDX 44 80 46 81 43 82
REMARK H PARENT 9 5 1 11 1 12 13 25 63 44 37 55
REMARK Flexibility Score: inf
ROOT
ATOM      1  C   UNL A   1      34.903  35.319  32.674  1.00  0.00     0.117 C 
ENDROOT
BRANCH   1   2
ATOM      2  N   UNL A   1      34.940  34.959  34.073  1.00  0.00    -0.356 N 
ATOM      3  C   UNL A   1      35.606  33.972  34.725  1.00  0.00     0.220 C 
ATOM      4  O   UNL A   1      35.470  33.928  35.950  1.00  0.00    -0.275 OA
ATOM      5  H   UNL A   1      34.387  35.528  34.655  1.00  0.00     0.163 HD
BRANCH   3   6
ATOM      6  C   UNL A   1      36.529  32.991  34.017  1.00  0.00     0.108 C 
BRANCH   6   7
ATOM      7  C   UNL A   1      37.554  32.099  34.759  1.00  0.00     0.038 C 
BRANCH   7   8
ATOM      8  C   UNL A   1      38.770  32.733  35.461  1.00  0.00     0.108 C 
BRANCH   8   9
ATOM      9  C   UNL A   1      38.830  32.928  36.968  1.00  0.00     0.218 C 
ATOM     10  N   UNL A   1      38.179  33.954  37.562  1.00  0.00    -0.370 N 
ATOM     11  H   UNL A   1      38.226  34.067  38.539  1.00  0.00     0.159 HD
ATOM     12  H   UNL A   1      37.657  34.587  37.019  1.00  0.00     0.159 HD
ATOM     13  O   UNL A   1      39.564  32.231  37.667  1.00  0.00    -0.275 OA
ENDBRANCH   8   9
ENDBRANCH   7   8
BRANCH   7  14
ATOM     14  C   UNL A   1      38.033  30.879  33.955  1.00  0.00    -0.043 A 
ATOM     15  C   UNL A   1      37.131  30.237  33.086  1.00  0.00     0.004 A 
ATOM     16  C   UNL A   1      39.312  30.314  34.089  1.00  0.00     0.019 A 
ATOM     17  C   UNL A   1      37.507  29.103  32.357  1.00  0.00     0.001 A 
ATOM     18  C   UNL A   1      39.692  29.197  33.340  1.00  0.00     0.018 A 
ATOM     19  C   UNL A   1      38.795  28.588  32.473  1.00  0.00     0.016 A 
ATOM     20  Br  UNL A   1      41.446  28.509  33.519  1.00  0.00    -0.051 Br
ENDBRANCH   7  14
ENDBRANCH   6   7
ENDBRANCH   3   6
ENDBRANCH   1   2
BRANCH   1  21
ATOM     21  C   UNL A   1      33.476  35.416  32.148  1.00  0.00     0.042 C 
BRANCH  21  22
ATOM     22  C   UNL A   1      33.324  36.187  30.851  1.00  0.00     0.118 C 
BRANCH  22  23
ATOM     23  N   UNL A   1      32.696  35.398  29.807  1.00  0.00    -0.352 N 
ATOM     24  C   UNL A   1      33.207  34.418  28.999  1.00  0.00     0.251 C 
ATOM     25  H   UNL A   1      31.745  35.602  29.654  1.00  0.00     0.163 HD
ATOM     26  O   UNL A   1      32.525  34.028  28.047  1.00  0.00    -0.269 OA
BRANCH  24  27
ATOM     27  C   UNL A   1      34.543  33.819  29.233  1.00  0.00     0.039 A 
ATOM     28  C   UNL A   1      34.648  32.772  30.155  1.00  0.00     0.014 A 
ATOM     29  C   UNL A   1      35.700  34.314  28.628  1.00  0.00     0.014 A 
ATOM     30  C   UNL A   1      35.897  32.223  30.456  1.00  0.00     0.010 A 
ATOM     31  C   UNL A   1      36.929  33.694  28.844  1.00  0.00     0.010 A 
ATOM     32  C   UNL A   1      37.049  32.673  29.794  1.00  0.00    -0.014 A 
BRANCH  32  33
ATOM     33  C   UNL A   1      38.391  32.142  30.145  1.00  0.00     0.031 A 
ATOM     34  C   UNL A   1      38.860  30.832  29.564  1.00  0.00     0.074 A 
ATOM     35  C   UNL A   1      39.177  32.818  31.004  1.00  0.00     0.049 A 
ATOM     36  N   UNL A   1      39.990  30.198  29.753  1.00  0.00    -0.248 NA
ATOM     37  C   UNL A   1      37.922  30.124  28.677  1.00  0.00     0.031 C 
ATOM     38  C   UNL A   1      38.815  34.065  31.681  1.00  0.00     0.029 A 
ATOM     39  N   UNL A   1      40.446  32.554  31.451  1.00  0.00    -0.354 N 
ATOM     40  C   UNL A   1      39.885  29.015  29.031  1.00  0.00     0.074 A 
ATOM     41  C   UNL A   1      38.562  28.987  28.454  1.00  0.00     0.031 C 
ATOM     42  C   UNL A   1      39.853  34.476  32.428  1.00  0.00     0.029 A 
ATOM     43  C   UNL A   1      40.940  33.511  32.303  1.00  0.00     0.049 A 
ATOM     44  H   UNL A   1      40.955  31.753  31.185  1.00  0.00     0.167 HD
ATOM     45  C   UNL A   1      40.818  28.051  28.839  1.00  0.00     0.037 A 
ATOM     46  C   UNL A   1      42.140  33.602  32.907  1.00  0.00     0.037 A 
ATOM     47  C   UNL A   1      42.150  28.102  29.379  1.00  0.00     0.049 A 
ATOM     48  C   UNL A   1      43.176  32.544  32.642  1.00  0.00     0.074 A 
ATOM     49  C   UNL A   1      43.192  27.211  29.195  1.00  0.00     0.029 A 
ATOM     50  N   UNL A   1      42.625  29.108  30.208  1.00  0.00    -0.354 N 
ATOM     51  N   UNL A   1      43.087  31.466  31.901  1.00  0.00    -0.248 NA
ATOM     52  C   UNL A   1      44.484  32.726  33.285  1.00  0.00     0.031 C 
ATOM     53  C   UNL A   1      44.288  27.660  29.941  1.00  0.00     0.029 A 
ATOM     54  C   UNL A   1      43.941  28.855  30.551  1.00  0.00     0.049 A 
ATOM     55  H   UNL A   1      42.102  29.887  30.507  1.00  0.00     0.167 HD
ATOM     56  C   UNL A   1      44.333  30.857  31.964  1.00  0.00     0.074 A 
ATOM     57  C   UNL A   1      45.164  31.696  32.803  1.00  0.00     0.031 C 
ATOM     58  C   UNL A   1      44.753  29.707  31.382  1.00  0.00     0.037 A 
BRANCH  45  59
ATOM     59  C   UNL A   1      40.426  26.869  27.998  1.00  0.00     0.057 A 
ATOM     60  C   UNL A   1      39.561  25.874  28.475  1.00  0.00     0.134 A 
ATOM     61  C   UNL A   1      40.907  26.730  26.690  1.00  0.00     0.134 A 
ATOM     62  F   UNL A   1      39.075  25.938  29.724  1.00  0.00    -0.206 F 
ATOM     63  C   UNL A   1      39.218  24.767  27.697  1.00  0.00     0.040 A 
ATOM     64  C   UNL A   1      40.548  25.642  25.891  1.00  0.00     0.040 A 
ATOM     65  F   UNL A   1      41.734  27.647  26.167  1.00  0.00    -0.206 F 
ATOM     66  C   UNL A   1      39.708  24.652  26.398  1.00  0.00     0.006 A 
ENDBRANCH  45  59
BRANCH  46  67
ATOM     67  C   UNL A   1      42.445  34.765  33.777  1.00  0.00     0.057 A 
ATOM     68  C   UNL A   1      42.894  35.975  33.234  1.00  0.00     0.134 A 
ATOM     69  C   UNL A   1      42.297  34.698  35.167  1.00  0.00     0.134 A 
ATOM     70  F   UNL A   1      43.070  36.095  31.910  1.00  0.00    -0.206 F 
ATOM     71  C   UNL A   1      43.203  37.070  34.042  1.00  0.00     0.040 A 
ATOM     72  C   UNL A   1      42.579  35.792  35.986  1.00  0.00     0.040 A 
ATOM     73  F   UNL A   1      41.862  33.570  35.747  1.00  0.00    -0.206 F 
ATOM     74  C   UNL A   1      43.041  36.981  35.423  1.00  0.00     0.006 A 
ENDBRANCH  46  67
BRANCH  58  75
ATOM     75  C   UNL A   1      46.185  29.315  31.604  1.00  0.00     0.057 A 
ATOM     76  C   UNL A   1      47.209  29.732  30.745  1.00  0.00     0.134 A 
ATOM     77  C   UNL A   1      46.543  28.526  32.704  1.00  0.00     0.134 A 
ATOM     78  F   UNL A   1      46.931  30.481  29.668  1.00  0.00    -0.206 F 
ATOM     79  C   UNL A   1      48.535  29.348  30.953  1.00  0.00     0.040 A 
ATOM     80  C   UNL A   1      47.868  28.159  32.938  1.00  0.00     0.040 A 
ATOM     81  F   UNL A   1      45.611  28.103  33.572  1.00  0.00    -0.206 F 
ATOM     82  C   UNL A   1      48.868  28.564  32.055  1.00  0.00     0.006 A 
ENDBRANCH  58  75
ENDBRANCH  32  33
ENDBRANCH  24  27
ENDBRANCH  22  23
ENDBRANCH  21  22
ENDBRANCH   1  21
TORSDOF 14
ENDMDL
MODEL 2
REMARK VINA RESULT:      -8.9      0.907      6.545
REMARK SMILES NC(=O)C[C@@H](CC(=O)NCCCNC(=O)c1ccc(-c2c3nc(c(-c4c(F)cccc4F)c4ccc([nH]4)c(-c4c(F)cccc4F)c4nc(c(-c5c(F)cccc5F)c5ccc2[nH]5)C=C4)C=C3)cc1)c1cccc(Br)c1
REMARK SMILES IDX 10 1 9 2 7 3 8 4 6 6 5 7 4 8 2 9 1 10 3 13 70 14 71 15 76 16
REMARK SMILES IDX 72 17 74 18 73 19 75 20 11 21 12 22 13 23 14 24 15 26 16 27
REMARK SMILES IDX 17 28 69 29 18 30 68 31 19 32 20 33 21 34 62 35 22 36 67 37
REMARK SMILES IDX 61 38 63 39 23 40 66 41 60 42 59 43 24 45 50 46 33 47 49 48
REMARK SMILES IDX 34 49 37 50 48 51 64 52 35 53 36 54 47 56 65 57 38 58 25 59
REMARK SMILES IDX 26 60 31 61 27 62 28 63 30 64 32 65 29 66 51 67 52 68 57 69
REMARK SMILES IDX 53 70 54 71 56 72 58 73 55 74 39 75 40 76 45 77 41 78 42 79
REMARK SMILES IDX 44 80 46 81 43 82
REMARK H PARENT 9 5 1 11 1 12 13 25 63 44 37 55
REMARK Flexibility Score: inf
ROOT
ATOM      1  C   UNL A   1      34.805  35.407  32.905  1.00  0.00     0.117 C 
ENDROOT
BRANCH   1   2
ATOM      2  N   UNL A   1      34.822  34.955  34.278  1.00  0.00    -0.356 N 
ATOM      3  C   UNL A   1      35.664  34.116  34.932  1.00  0.00     0.220 C 
ATOM      4  O   UNL A   1      35.447  33.940  36.134  1.00  0.00    -0.275 OA
ATOM      5  H   UNL A   1      34.098  35.320  34.835  1.00  0.00     0.163 HD
BRANCH   3   6
ATOM      6  C   UNL A   1      36.859  33.456  34.262  1.00  0.00     0.108 C 
BRANCH   6   7
ATOM      7  C   UNL A   1      38.115  32.981  35.034  1.00  0.00     0.038 C 
BRANCH   7   8
ATOM      8  C   UNL A   1      39.202  33.992  35.443  1.00  0.00     0.108 C 
BRANCH   8   9
ATOM      9  C   UNL A   1      39.183  34.710  36.784  1.00  0.00     0.218 C 
ATOM     10  N   UNL A   1      40.027  35.738  37.033  1.00  0.00    -0.370 N 
ATOM     11  H   UNL A   1      40.002  36.195  37.905  1.00  0.00     0.159 HD
ATOM     12  H   UNL A   1      40.664  36.031  36.343  1.00  0.00     0.159 HD
ATOM     13  O   UNL A   1      38.487  34.301  37.712  1.00  0.00    -0.275 OA
ENDBRANCH   8   9
ENDBRANCH   7   8
BRANCH   7  14
ATOM     14  C   UNL A   1      38.797  31.741  34.433  1.00  0.00    -0.043 A 
ATOM     15  C   UNL A   1      40.180  31.563  34.624  1.00  0.00     0.004 A 
ATOM     16  C   UNL A   1      38.129  30.799  33.634  1.00  0.00     0.019 A 
ATOM     17  C   UNL A   1      40.854  30.469  34.069  1.00  0.00     0.001 A 
ATOM     18  C   UNL A   1      38.801  29.694  33.104  1.00  0.00     0.018 A 
ATOM     19  C   UNL A   1      40.161  29.524  33.318  1.00  0.00     0.016 A 
ATOM     20  Br  UNL A   1      37.841  28.425  32.079  1.00  0.00    -0.051 Br
ENDBRANCH   7  14
ENDBRANCH   6   7
ENDBRANCH   3   6
ENDBRANCH   1   2
BRANCH   1  21
ATOM     21  C   UNL A   1      33.411  35.317  32.293  1.00  0.00     0.042 C 
BRANCH  21  22
ATOM     22  C   UNL A   1      33.221  36.118  31.018  1.00  0.00     0.118 C 
BRANCH  22  23
ATOM     23  N   UNL A   1      32.685  35.314  29.935  1.00  0.00    -0.352 N 
ATOM     24  C   UNL A   1      33.277  34.361  29.151  1.00  0.00     0.251 C 
ATOM     25  H   UNL A   1      31.737  35.484  29.729  1.00  0.00     0.163 HD
ATOM     26  O   UNL A   1      32.666  33.955  28.159  1.00  0.00    -0.269 OA
BRANCH  24  27
ATOM     27  C   UNL A   1      34.619  33.811  29.457  1.00  0.00     0.039 A 
ATOM     28  C   UNL A   1      35.717  34.300  28.740  1.00  0.00     0.014 A 
ATOM     29  C   UNL A   1      34.810  32.773  30.373  1.00  0.00     0.014 A 
ATOM     30  C   UNL A   1      36.989  33.762  28.949  1.00  0.00     0.010 A 
ATOM     31  C   UNL A   1      36.094  32.315  30.661  1.00  0.00     0.010 A 
ATOM     32  C   UNL A   1      37.191  32.771  29.920  1.00  0.00    -0.014 A 
BRANCH  32  33
ATOM     33  C   UNL A   1      38.526  32.148  30.112  1.00  0.00     0.031 A 
ATOM     34  C   UNL A   1      39.581  32.858  30.920  1.00  0.00     0.074 A 
ATOM     35  C   UNL A   1      38.800  30.959  29.541  1.00  0.00     0.049 A 
ATOM     36  N   UNL A   1      40.806  32.485  31.196  1.00  0.00    -0.248 NA
ATOM     37  C   UNL A   1      39.225  34.178  31.466  1.00  0.00     0.031 C 
ATOM     38  C   UNL A   1      37.886  30.199  28.686  1.00  0.00     0.029 A 
ATOM     39  N   UNL A   1      39.927  30.180  29.598  1.00  0.00    -0.354 N 
ATOM     40  C   UNL A   1      41.366  33.530  31.921  1.00  0.00     0.074 A 
ATOM     41  C   UNL A   1      40.373  34.578  31.989  1.00  0.00     0.031 C 
ATOM     42  C   UNL A   1      38.476  29.046  28.329  1.00  0.00     0.029 A 
ATOM     43  C   UNL A   1      39.815  28.998  28.907  1.00  0.00     0.049 A 
ATOM     44  H   UNL A   1      40.740  30.443  30.088  1.00  0.00     0.167 HD
ATOM     45  C   UNL A   1      42.585  33.602  32.507  1.00  0.00     0.037 A 
ATOM     46  C   UNL A   1      40.691  27.987  28.766  1.00  0.00     0.037 A 
ATOM     47  C   UNL A   1      43.556  32.540  32.475  1.00  0.00     0.049 A 
ATOM     48  C   UNL A   1      42.022  28.067  29.463  1.00  0.00     0.074 A 
ATOM     49  C   UNL A   1      44.795  32.484  33.086  1.00  0.00     0.029 A 
ATOM     50  N   UNL A   1      43.389  31.343  31.796  1.00  0.00    -0.354 N 
ATOM     51  N   UNL A   1      42.511  29.033  30.204  1.00  0.00    -0.248 NA
ATOM     52  C   UNL A   1      42.914  26.910  29.317  1.00  0.00     0.031 C 
ATOM     53  C   UNL A   1      45.393  31.265  32.748  1.00  0.00     0.029 A 
ATOM     54  C   UNL A   1      44.507  30.544  31.965  1.00  0.00     0.049 A 
ATOM     55  H   UNL A   1      42.593  31.097  31.271  1.00  0.00     0.167 HD
ATOM     56  C   UNL A   1      43.753  28.588  30.636  1.00  0.00     0.074 A 
ATOM     57  C   UNL A   1      43.934  27.260  30.087  1.00  0.00     0.031 C 
ATOM     58  C   UNL A   1      44.664  29.221  31.416  1.00  0.00     0.037 A 
BRANCH  45  59
ATOM     59  C   UNL A   1      42.926  34.868  33.240  1.00  0.00     0.057 A 
ATOM     60  C   UNL A   1      43.360  36.020  32.568  1.00  0.00     0.134 A 
ATOM     61  C   UNL A   1      42.807  34.943  34.634  1.00  0.00     0.134 A 
ATOM     62  F   UNL A   1      43.511  36.013  31.235  1.00  0.00    -0.206 F 
ATOM     63  C   UNL A   1      43.696  37.186  33.258  1.00  0.00     0.040 A 
ATOM     64  C   UNL A   1      43.112  36.113  35.331  1.00  0.00     0.040 A 
ATOM     65  F   UNL A   1      42.392  33.881  35.340  1.00  0.00    -0.206 F 
ATOM     66  C   UNL A   1      43.567  37.237  34.644  1.00  0.00     0.006 A 
ENDBRANCH  45  59
BRANCH  46  67
ATOM     67  C   UNL A   1      40.318  26.787  27.976  1.00  0.00     0.057 A 
ATOM     68  C   UNL A   1      39.479  25.803  28.511  1.00  0.00     0.134 A 
ATOM     69  C   UNL A   1      40.787  26.595  26.672  1.00  0.00     0.134 A 
ATOM     70  F   UNL A   1      39.010  25.923  29.762  1.00  0.00    -0.206 F 
ATOM     71  C   UNL A   1      39.135  24.660  27.787  1.00  0.00     0.040 A 
ATOM     72  C   UNL A   1      40.433  25.469  25.926  1.00  0.00     0.040 A 
ATOM     73  F   UNL A   1      41.587  27.506  26.099  1.00  0.00    -0.206 F 
ATOM     74  C   UNL A   1      39.610  24.494  26.487  1.00  0.00     0.006 A 
ENDBRANCH  46  67
BRANCH  58  75
ATOM     75  C   UNL A   1      45.917  28.466  31.749  1.00  0.00     0.057 A 
ATOM     76  C   UNL A   1      47.104  28.645  31.028  1.00  0.00     0.134 A 
ATOM     77  C   UNL A   1      45.937  27.561  32.818  1.00  0.00     0.134 A 
ATOM     78  F   UNL A   1      47.147  29.488  29.987  1.00  0.00    -0.206 F 
ATOM     79  C   UNL A   1      48.259  27.924  31.338  1.00  0.00     0.040 A 
ATOM     80  C   UNL A   1      47.093  26.856  33.155  1.00  0.00     0.040 A 
ATOM     81  F   UNL A   1      44.836  27.352  33.555  1.00  0.00    -0.206 F 
ATOM     82  C   UNL A   1      48.256  27.031  32.407  1.00  0.00     0.006 A 
ENDBRANCH  58  75
ENDBRANCH  32  33
ENDBRANCH  24  27
ENDBRANCH  22  23
ENDBRANCH  21  22
ENDBRANCH   1  21
TORSDOF 14
ENDMDL
MODEL 3
REMARK VINA RESULT:      -8.5      1.510      6.941
REMARK SMILES NC(=O)C[C@@H](CC(=O)NCCCNC(=O)c1ccc(-c2c3nc(c(-c4c(F)cccc4F)c4ccc([nH]4)c(-c4c(F)cccc4F)c4nc(c(-c5c(F)cccc5F)c5ccc2[nH]5)C=C4)C=C3)cc1)c1cccc(Br)c1
REMARK SMILES IDX 10 1 9 2 7 3 8 4 6 6 5 7 4 8 2 9 1 10 3 13 70 14 71 15 76 16
REMARK SMILES IDX 72 17 74 18 73 19 75 20 11 21 12 22 13 23 14 24 15 26 16 27
REMARK SMILES IDX 17 28 69 29 18 30 68 31 19 32 20 33 21 34 62 35 22 36 67 37
REMARK SMILES IDX 61 38 63 39 23 40 66 41 60 42 59 43 24 45 50 46 33 47 49 48
REMARK SMILES IDX 34 49 37 50 48 51 64 52 35 53 36 54 47 56 65 57 38 58 25 59
REMARK SMILES IDX 26 60 31 61 27 62 28 63 30 64 32 65 29 66 51 67 52 68 57 69
REMARK SMILES IDX 53 70 54 71 56 72 58 73 55 74 39 75 40 76 45 77 41 78 42 79
REMARK SMILES IDX 44 80 46 81 43 82
REMARK H PARENT 9 5 1 11 1 12 13 25 63 44 37 55
REMARK Flexibility Score: inf
ROOT
ATOM      1  C   UNL A   1      34.666  35.766  32.873  1.00  0.00     0.117 C 
ENDROOT
BRANCH   1   2
ATOM      2  N   UNL A   1      34.624  35.065  34.136  1.00  0.00    -0.356 N 
ATOM      3  C   UNL A   1      35.537  34.270  34.748  1.00  0.00     0.220 C 
ATOM      4  O   UNL A   1      35.231  33.829  35.859  1.00  0.00    -0.275 OA
ATOM      5  H   UNL A   1      33.788  35.187  34.641  1.00  0.00     0.163 HD
BRANCH   3   6
ATOM      6  C   UNL A   1      36.901  33.966  34.148  1.00  0.00     0.108 C 
BRANCH   6   7
ATOM      7  C   UNL A   1      37.999  33.163  34.890  1.00  0.00     0.038 C 
BRANCH   7   8
ATOM      8  C   UNL A   1      37.877  31.634  35.034  1.00  0.00     0.108 C 
BRANCH   8   9
ATOM      9  C   UNL A   1      39.083  30.711  34.960  1.00  0.00     0.218 C 
ATOM     10  N   UNL A   1      39.700  30.468  33.781  1.00  0.00    -0.370 N 
ATOM     11  H   UNL A   1      40.480  29.868  33.748  1.00  0.00     0.159 HD
ATOM     12  H   UNL A   1      39.370  30.890  32.956  1.00  0.00     0.159 HD
ATOM     13  O   UNL A   1      39.453  30.073  35.945  1.00  0.00    -0.275 OA
ENDBRANCH   8   9
ENDBRANCH   7   8
BRANCH   7  14
ATOM     14  C   UNL A   1      38.408  33.754  36.249  1.00  0.00    -0.043 A 
ATOM     15  C   UNL A   1      39.157  34.944  36.279  1.00  0.00     0.004 A 
ATOM     16  C   UNL A   1      38.138  33.131  37.479  1.00  0.00     0.019 A 
ATOM     17  C   UNL A   1      39.583  35.505  37.488  1.00  0.00     0.001 A 
ATOM     18  C   UNL A   1      38.542  33.707  38.686  1.00  0.00     0.018 A 
ATOM     19  C   UNL A   1      39.263  34.893  38.698  1.00  0.00     0.016 A 
ATOM     20  Br  UNL A   1      38.103  32.854  40.318  1.00  0.00    -0.051 Br
ENDBRANCH   7  14
ENDBRANCH   6   7
ENDBRANCH   3   6
ENDBRANCH   1   2
BRANCH   1  21
ATOM     21  C   UNL A   1      33.297  35.815  32.202  1.00  0.00     0.042 C 
BRANCH  21  22
ATOM     22  C   UNL A   1      33.280  36.470  30.834  1.00  0.00     0.118 C 
BRANCH  22  23
ATOM     23  N   UNL A   1      32.720  35.604  29.812  1.00  0.00    -0.352 N 
ATOM     24  C   UNL A   1      33.280  34.570  29.112  1.00  0.00     0.251 C 
ATOM     25  H   UNL A   1      31.781  35.793  29.585  1.00  0.00     0.163 HD
ATOM     26  O   UNL A   1      32.660  34.109  28.150  1.00  0.00    -0.269 OA
BRANCH  24  27
ATOM     27  C   UNL A   1      34.598  33.994  29.474  1.00  0.00     0.039 A 
ATOM     28  C   UNL A   1      35.718  34.381  28.730  1.00  0.00     0.014 A 
ATOM     29  C   UNL A   1      34.743  33.028  30.472  1.00  0.00     0.014 A 
ATOM     30  C   UNL A   1      36.966  33.813  28.993  1.00  0.00     0.010 A 
ATOM     31  C   UNL A   1      36.006  32.545  30.808  1.00  0.00     0.010 A 
ATOM     32  C   UNL A   1      37.124  32.897  30.043  1.00  0.00    -0.014 A 
BRANCH  32  33
ATOM     33  C   UNL A   1      38.432  32.241  30.297  1.00  0.00     0.031 A 
ATOM     34  C   UNL A   1      39.452  32.908  31.183  1.00  0.00     0.074 A 
ATOM     35  C   UNL A   1      38.716  31.060  29.713  1.00  0.00     0.049 A 
ATOM     36  N   UNL A   1      40.650  32.502  31.521  1.00  0.00    -0.248 NA
ATOM     37  C   UNL A   1      39.091  34.222  31.741  1.00  0.00     0.031 C 
ATOM     38  C   UNL A   1      37.838  30.342  28.786  1.00  0.00     0.029 A 
ATOM     39  N   UNL A   1      39.821  30.256  29.816  1.00  0.00    -0.354 N 
ATOM     40  C   UNL A   1      41.188  33.517  32.304  1.00  0.00     0.074 A 
ATOM     41  C   UNL A   1      40.215  34.583  32.340  1.00  0.00     0.031 C 
ATOM     42  C   UNL A   1      38.424  29.185  28.435  1.00  0.00     0.029 A 
ATOM     43  C   UNL A   1      39.726  29.094  29.090  1.00  0.00     0.049 A 
ATOM     44  H   UNL A   1      40.609  30.490  30.359  1.00  0.00     0.167 HD
ATOM     45  C   UNL A   1      42.372  33.548  32.961  1.00  0.00     0.037 A 
ATOM     46  C   UNL A   1      40.589  28.068  28.974  1.00  0.00     0.037 A 
ATOM     47  C   UNL A   1      43.321  32.466  32.959  1.00  0.00     0.049 A 
ATOM     48  C   UNL A   1      41.877  28.102  29.749  1.00  0.00     0.074 A 
ATOM     49  C   UNL A   1      44.521  32.368  33.640  1.00  0.00     0.029 A 
ATOM     50  N   UNL A   1      43.170  31.289  32.241  1.00  0.00    -0.354 N 
ATOM     51  N   UNL A   1      42.341  29.038  30.542  1.00  0.00    -0.248 NA
ATOM     52  C   UNL A   1      42.753  26.929  29.627  1.00  0.00     0.031 C 
ATOM     53  C   UNL A   1      45.113  31.145  33.307  1.00  0.00     0.029 A 
ATOM     54  C   UNL A   1      44.259  30.463  32.455  1.00  0.00     0.049 A 
ATOM     55  H   UNL A   1      42.401  31.073  31.665  1.00  0.00     0.167 HD
ATOM     56  C   UNL A   1      43.546  28.556  31.034  1.00  0.00     0.074 A 
ATOM     57  C   UNL A   1      43.732  27.238  30.464  1.00  0.00     0.031 C 
ATOM     58  C   UNL A   1      44.422  29.150  31.882  1.00  0.00     0.037 A 
BRANCH  45  59
ATOM     59  C   UNL A   1      42.694  34.788  33.745  1.00  0.00     0.057 A 
ATOM     60  C   UNL A   1      43.147  35.961  33.124  1.00  0.00     0.134 A 
ATOM     61  C   UNL A   1      42.538  34.816  35.137  1.00  0.00     0.134 A 
ATOM     62  F   UNL A   1      43.333  35.998  31.796  1.00  0.00    -0.206 F 
ATOM     63  C   UNL A   1      43.466  37.102  33.861  1.00  0.00     0.040 A 
ATOM     64  C   UNL A   1      42.826  35.962  35.882  1.00  0.00     0.040 A 
ATOM     65  F   UNL A   1      42.104  33.732  35.796  1.00  0.00    -0.206 F 
ATOM     66  C   UNL A   1      43.300  37.107  35.245  1.00  0.00     0.006 A 
ENDBRANCH  45  59
BRANCH  46  67
ATOM     67  C   UNL A   1      40.238  26.896  28.133  1.00  0.00     0.057 A 
ATOM     68  C   UNL A   1      39.396  25.887  28.615  1.00  0.00     0.134 A 
ATOM     69  C   UNL A   1      40.733  26.755  26.831  1.00  0.00     0.134 A 
ATOM     70  F   UNL A   1      38.903  25.958  29.861  1.00  0.00    -0.206 F 
ATOM     71  C   UNL A   1      39.074  24.770  27.843  1.00  0.00     0.040 A 
ATOM     72  C   UNL A   1      40.400  25.656  26.038  1.00  0.00     0.040 A 
ATOM     73  F   UNL A   1      41.536  27.692  26.308  1.00  0.00    -0.206 F 
ATOM     74  C   UNL A   1      39.573  24.655  26.547  1.00  0.00     0.006 A 
ENDBRANCH  46  67
BRANCH  58  75
ATOM     75  C   UNL A   1      45.637  28.360  32.269  1.00  0.00     0.057 A 
ATOM     76  C   UNL A   1      45.640  27.499  33.374  1.00  0.00     0.134 A 
ATOM     77  C   UNL A   1      46.813  28.449  31.513  1.00  0.00     0.134 A 
ATOM     78  F   UNL A   1      44.550  27.378  34.145  1.00  0.00    -0.206 F 
ATOM     79  C   UNL A   1      46.782  26.782  33.734  1.00  0.00     0.040 A 
ATOM     80  C   UNL A   1      47.951  27.715  31.846  1.00  0.00     0.040 A 
ATOM     81  F   UNL A   1      46.872  29.247  30.436  1.00  0.00    -0.206 F 
ATOM     82  C   UNL A   1      47.940  26.884  32.966  1.00  0.00     0.006 A 
ENDBRANCH  58  75
ENDBRANCH  32  33
ENDBRANCH  24  27
ENDBRANCH  22  23
ENDBRANCH  21  22
ENDBRANCH   1  21
TORSDOF 14
ENDMDL
