MODEL 1
REMARK VINA RESULT:     -11.9      0.000      0.000
REMARK SMILES Cc1ccc(-c2ncccc2C(=O)NCCCNC(=O)c2ccc(-c3c4nc(c(-c5c(F)cccc5F)c5ccc([nH]5)c(-c5c(F)cccc5F)c5nc(c(-c6c(F)cccc6F)c6ccc3[nH]6)C=C5)C=C4)cc2)c(C)c1
REMARK SMILES IDX 16 1 15 2 14 3 12 4 13 5 11 7 6 8 7 9 8 10 10 11 9 12 5 13
REMARK SMILES IDX 1 14 2 15 3 16 77 17 4 18 75 19 76 20 17 21 18 22 19 23
REMARK SMILES IDX 20 25 21 26 22 27 74 28 23 29 73 30 24 31 25 32 26 33 67 34
REMARK SMILES IDX 27 35 72 36 66 37 68 38 28 39 71 40 65 41 64 42 29 44 55 45
REMARK SMILES IDX 38 46 54 47 39 48 42 49 53 50 69 51 40 52 41 53 52 55 70 56
REMARK SMILES IDX 43 57 30 58 31 59 36 60 32 61 33 62 35 63 37 64 34 65 56 66
REMARK SMILES IDX 57 67 62 68 58 69 59 70 61 71 63 72 60 73 44 74 45 75 50 76
REMARK SMILES IDX 46 77 47 78 49 79 51 80 48 81
REMARK H PARENT 14 6 18 24 68 43 42 54
REMARK Flexibility Score: inf
ROOT
ATOM      1  C   UNL A   1      36.957  20.230  25.084  1.00  0.00     0.042 C 
ENDROOT
BRANCH   1   2
ATOM      2  C   UNL A   1      35.990  21.340  25.501  1.00  0.00     0.118 C 
BRANCH   2   3
ATOM      3  N   UNL A   1      35.616  22.157  24.365  1.00  0.00    -0.352 N 
ATOM      4  C   UNL A   1      34.518  22.884  23.982  1.00  0.00     0.253 C 
ATOM      5  O   UNL A   1      34.637  23.384  22.864  1.00  0.00    -0.269 OA
ATOM      6  H   UNL A   1      36.335  22.202  23.694  1.00  0.00     0.163 HD
BRANCH   4   7
ATOM      7  C   UNL A   1      33.286  23.101  24.810  1.00  0.00     0.066 A 
ATOM      8  C   UNL A   1      32.352  22.061  25.019  1.00  0.00     0.083 A 
ATOM      9  N   UNL A   1      31.169  22.255  25.684  1.00  0.00    -0.255 NA
ATOM     10  C   UNL A   1      30.906  23.473  26.185  1.00  0.00     0.112 A 
ATOM     11  C   UNL A   1      32.992  24.327  25.420  1.00  0.00     0.018 A 
ATOM     12  C   UNL A   1      31.788  24.527  26.097  1.00  0.00     0.021 A 
BRANCH   8  13
ATOM     13  C   UNL A   1      32.539  20.646  24.636  1.00  0.00     0.004 A 
ATOM     14  C   UNL A   1      33.226  16.471  23.693  1.00  0.00     0.044 C 
ATOM     15  C   UNL A   1      32.967  17.907  24.033  1.00  0.00    -0.051 A 
ATOM     16  C   UNL A   1      33.100  18.366  25.342  1.00  0.00     0.004 A 
ATOM     17  C   UNL A   1      32.572  18.808  23.037  1.00  0.00     0.007 A 
ATOM     18  C   UNL A   1      32.873  19.711  25.639  1.00  0.00     0.011 A 
ATOM     19  C   UNL A   1      32.362  20.173  23.318  1.00  0.00    -0.041 A 
ATOM     20  C   UNL A   1      31.895  21.058  22.195  1.00  0.00     0.045 C 
ENDBRANCH   8  13
ENDBRANCH   4   7
ENDBRANCH   2   3
ENDBRANCH   1   2
BRANCH   1  21
ATOM     21  C   UNL A   1      38.417  20.689  24.990  1.00  0.00     0.118 C 
BRANCH  21  22
ATOM     22  N   UNL A   1      39.349  19.640  25.380  1.00  0.00    -0.352 N 
ATOM     23  C   UNL A   1      40.587  19.720  25.962  1.00  0.00     0.251 C 
ATOM     24  H   UNL A   1      39.039  18.723  25.195  1.00  0.00     0.163 HD
ATOM     25  O   UNL A   1      41.308  18.725  25.989  1.00  0.00    -0.269 OA
BRANCH  23  26
ATOM     26  C   UNL A   1      41.072  20.986  26.555  1.00  0.00     0.039 A 
ATOM     27  C   UNL A   1      41.639  21.947  25.712  1.00  0.00     0.014 A 
ATOM     28  C   UNL A   1      41.036  21.202  27.934  1.00  0.00     0.014 A 
ATOM     29  C   UNL A   1      42.115  23.148  26.244  1.00  0.00     0.010 A 
ATOM     30  C   UNL A   1      41.459  22.424  28.459  1.00  0.00     0.010 A 
ATOM     31  C   UNL A   1      42.003  23.408  27.620  1.00  0.00    -0.014 A 
BRANCH  31  32
ATOM     32  C   UNL A   1      42.431  24.709  28.193  1.00  0.00     0.031 A 
ATOM     33  C   UNL A   1      41.430  25.806  28.427  1.00  0.00     0.074 A 
ATOM     34  C   UNL A   1      43.737  24.924  28.437  1.00  0.00     0.049 A 
ATOM     35  N   UNL A   1      41.630  27.032  28.841  1.00  0.00    -0.248 NA
ATOM     36  C   UNL A   1      40.024  25.491  28.137  1.00  0.00     0.031 C 
ATOM     37  C   UNL A   1      44.811  23.954  28.212  1.00  0.00     0.029 A 
ATOM     38  N   UNL A   1      44.387  26.034  28.914  1.00  0.00    -0.354 N 
ATOM     39  C   UNL A   1      40.381  27.639  28.842  1.00  0.00     0.074 A 
ATOM     40  C   UNL A   1      39.435  26.659  28.352  1.00  0.00     0.031 C 
ATOM     41  C   UNL A   1      45.983  24.506  28.564  1.00  0.00     0.029 A 
ATOM     42  C   UNL A   1      45.749  25.878  29.006  1.00  0.00     0.049 A 
ATOM     43  H   UNL A   1      43.922  26.864  29.168  1.00  0.00     0.167 HD
ATOM     44  C   UNL A   1      40.051  28.894  29.233  1.00  0.00     0.037 A 
ATOM     45  C   UNL A   1      46.703  26.744  29.393  1.00  0.00     0.037 A 
ATOM     46  C   UNL A   1      40.989  29.858  29.745  1.00  0.00     0.049 A 
ATOM     47  C   UNL A   1      46.311  28.130  29.822  1.00  0.00     0.074 A 
ATOM     48  C   UNL A   1      40.740  31.131  30.229  1.00  0.00     0.029 A 
ATOM     49  N   UNL A   1      42.358  29.656  29.839  1.00  0.00    -0.354 N 
ATOM     50  N   UNL A   1      45.117  28.670  29.876  1.00  0.00    -0.248 NA
ATOM     51  C   UNL A   1      47.396  29.023  30.247  1.00  0.00     0.031 C 
ATOM     52  C   UNL A   1      41.964  31.713  30.581  1.00  0.00     0.029 A 
ATOM     53  C   UNL A   1      42.969  30.787  30.354  1.00  0.00     0.049 A 
ATOM     54  H   UNL A   1      42.826  28.829  29.578  1.00  0.00     0.167 HD
ATOM     55  C   UNL A   1      45.305  29.957  30.359  1.00  0.00     0.074 A 
ATOM     56  C   UNL A   1      46.726  30.112  30.598  1.00  0.00     0.031 C 
ATOM     57  C   UNL A   1      44.384  30.925  30.584  1.00  0.00     0.037 A 
BRANCH  44  58
ATOM     58  C   UNL A   1      38.608  29.295  29.123  1.00  0.00     0.057 A 
ATOM     59  C   UNL A   1      37.756  29.293  30.235  1.00  0.00     0.134 A 
ATOM     60  C   UNL A   1      38.076  29.723  27.901  1.00  0.00     0.134 A 
ATOM     61  F   UNL A   1      38.202  28.884  31.432  1.00  0.00    -0.206 F 
ATOM     62  C   UNL A   1      36.418  29.677  30.130  1.00  0.00     0.040 A 
ATOM     63  C   UNL A   1      36.746  30.133  27.788  1.00  0.00     0.040 A 
ATOM     64  F   UNL A   1      38.840  29.756  26.799  1.00  0.00    -0.206 F 
ATOM     65  C   UNL A   1      35.911  30.105  28.904  1.00  0.00     0.006 A 
ENDBRANCH  44  58
BRANCH  45  66
ATOM     66  C   UNL A   1      48.124  26.321  29.408  1.00  0.00     0.057 A 
ATOM     67  C   UNL A   1      48.934  26.479  28.278  1.00  0.00     0.134 A 
ATOM     68  C   UNL A   1      48.708  25.755  30.548  1.00  0.00     0.134 A 
ATOM     69  F   UNL A   1      48.424  26.999  27.151  1.00  0.00    -0.206 F 
ATOM     70  C   UNL A   1      50.270  26.075  28.274  1.00  0.00     0.040 A 
ATOM     71  C   UNL A   1      50.049  25.367  30.564  1.00  0.00     0.040 A 
ATOM     72  F   UNL A   1      47.986  25.585  31.665  1.00  0.00    -0.206 F 
ATOM     73  C   UNL A   1      50.832  25.522  29.422  1.00  0.00     0.006 A 
ENDBRANCH  45  66
BRANCH  57  74
ATOM     74  C   UNL A   1      44.883  32.227  31.134  1.00  0.00     0.057 A 
ATOM     75  C   UNL A   1      45.253  33.287  30.297  1.00  0.00     0.134 A 
ATOM     76  C   UNL A   1      44.965  32.433  32.517  1.00  0.00     0.134 A 
ATOM     77  F   UNL A   1      45.211  33.146  28.964  1.00  0.00    -0.206 F 
ATOM     78  C   UNL A   1      45.706  34.501  30.817  1.00  0.00     0.040 A 
ATOM     79  C   UNL A   1      45.396  33.650  33.048  1.00  0.00     0.040 A 
ATOM     80  F   UNL A   1      44.620  31.460  33.374  1.00  0.00    -0.206 F 
ATOM     81  C   UNL A   1      45.772  34.687  32.196  1.00  0.00     0.006 A 
ENDBRANCH  57  74
ENDBRANCH  31  32
ENDBRANCH  23  26
ENDBRANCH  21  22
ENDBRANCH   1  21
TORSDOF 11
ENDMDL
MODEL 2
REMARK VINA RESULT:     -11.9      4.347      6.456
REMARK SMILES Cc1ccc(-c2ncccc2C(=O)NCCCNC(=O)c2ccc(-c3c4nc(c(-c5c(F)cccc5F)c5ccc([nH]5)c(-c5c(F)cccc5F)c5nc(c(-c6c(F)cccc6F)c6ccc3[nH]6)C=C5)C=C4)cc2)c(C)c1
REMARK SMILES IDX 16 1 15 2 14 3 12 4 13 5 11 7 6 8 7 9 8 10 10 11 9 12 5 13
REMARK SMILES IDX 1 14 2 15 3 16 77 17 4 18 75 19 76 20 17 21 18 22 19 23
REMARK SMILES IDX 20 25 21 26 22 27 74 28 23 29 73 30 24 31 25 32 26 33 67 34
REMARK SMILES IDX 27 35 72 36 66 37 68 38 28 39 71 40 65 41 64 42 29 44 55 45
REMARK SMILES IDX 38 46 54 47 39 48 42 49 53 50 69 51 40 52 41 53 52 55 70 56
REMARK SMILES IDX 43 57 30 58 31 59 36 60 32 61 33 62 35 63 37 64 34 65 56 66
REMARK SMILES IDX 57 67 62 68 58 69 59 70 61 71 63 72 60 73 44 74 45 75 50 76
REMARK SMILES IDX 46 77 47 78 49 79 51 80 48 81
REMARK H PARENT 14 6 18 24 68 43 42 54
REMARK Flexibility Score: inf
ROOT
ATOM      1  C   UNL A   1      39.006  22.498  26.412  1.00  0.00     0.042 C 
ENDROOT
BRANCH   1   2
ATOM      2  C   UNL A   1      37.867  23.460  26.068  1.00  0.00     0.118 C 
BRANCH   2   3
ATOM      3  N   UNL A   1      37.520  23.373  24.664  1.00  0.00    -0.352 N 
ATOM      4  C   UNL A   1      36.480  22.867  23.926  1.00  0.00     0.253 C 
ATOM      5  O   UNL A   1      36.652  22.975  22.714  1.00  0.00    -0.269 OA
ATOM      6  H   UNL A   1      38.208  23.782  24.091  1.00  0.00     0.163 HD
BRANCH   4   7
ATOM      7  C   UNL A   1      35.228  22.261  24.489  1.00  0.00     0.066 A 
ATOM      8  C   UNL A   1      34.095  23.055  24.775  1.00  0.00     0.083 A 
ATOM      9  N   UNL A   1      32.975  22.550  25.383  1.00  0.00    -0.255 NA
ATOM     10  C   UNL A   1      32.942  21.241  25.684  1.00  0.00     0.112 A 
ATOM     11  C   UNL A   1      35.106  20.891  24.755  1.00  0.00     0.018 A 
ATOM     12  C   UNL A   1      33.967  20.375  25.373  1.00  0.00     0.021 A 
BRANCH   8  13
ATOM     13  C   UNL A   1      33.924  24.476  24.408  1.00  0.00     0.004 A 
ATOM     14  C   UNL A   1      33.388  28.693  23.553  1.00  0.00     0.044 C 
ATOM     15  C   UNL A   1      33.600  27.239  23.850  1.00  0.00    -0.051 A 
ATOM     16  C   UNL A   1      34.054  26.824  25.100  1.00  0.00     0.004 A 
ATOM     17  C   UNL A   1      33.356  26.275  22.865  1.00  0.00     0.007 A 
ATOM     18  C   UNL A   1      34.227  25.465  25.367  1.00  0.00     0.011 A 
ATOM     19  C   UNL A   1      33.505  24.898  23.128  1.00  0.00    -0.041 A 
ATOM     20  C   UNL A   1      33.264  23.937  21.996  1.00  0.00     0.045 C 
ENDBRANCH   8  13
ENDBRANCH   4   7
ENDBRANCH   2   3
ENDBRANCH   1   2
BRANCH   1  21
ATOM     21  C   UNL A   1      40.207  23.179  27.078  1.00  0.00     0.118 C 
BRANCH  21  22
ATOM     22  N   UNL A   1      41.065  23.850  26.110  1.00  0.00    -0.352 N 
ATOM     23  C   UNL A   1      41.432  25.167  26.007  1.00  0.00     0.251 C 
ATOM     24  H   UNL A   1      41.443  23.261  25.417  1.00  0.00     0.163 HD
ATOM     25  O   UNL A   1      41.971  25.564  24.978  1.00  0.00    -0.269 OA
BRANCH  23  26
ATOM     26  C   UNL A   1      41.184  26.117  27.113  1.00  0.00     0.039 A 
ATOM     27  C   UNL A   1      40.165  25.832  28.028  1.00  0.00     0.014 A 
ATOM     28  C   UNL A   1      41.898  27.314  27.214  1.00  0.00     0.014 A 
ATOM     29  C   UNL A   1      39.902  26.716  29.077  1.00  0.00     0.010 A 
ATOM     30  C   UNL A   1      41.673  28.169  28.294  1.00  0.00     0.010 A 
ATOM     31  C   UNL A   1      40.673  27.879  29.234  1.00  0.00    -0.014 A 
BRANCH  31  32
ATOM     32  C   UNL A   1      40.460  28.791  30.387  1.00  0.00     0.031 A 
ATOM     33  C   UNL A   1      39.395  29.850  30.336  1.00  0.00     0.074 A 
ATOM     34  C   UNL A   1      41.278  28.708  31.454  1.00  0.00     0.049 A 
ATOM     35  N   UNL A   1      39.117  30.785  31.208  1.00  0.00    -0.248 NA
ATOM     36  C   UNL A   1      38.543  29.873  29.138  1.00  0.00     0.031 C 
ATOM     37  C   UNL A   1      42.377  27.752  31.605  1.00  0.00     0.029 A 
ATOM     38  N   UNL A   1      41.322  29.449  32.607  1.00  0.00    -0.354 N 
ATOM     39  C   UNL A   1      38.075  31.519  30.657  1.00  0.00     0.074 A 
ATOM     40  C   UNL A   1      37.794  30.944  29.359  1.00  0.00     0.031 C 
ATOM     41  C   UNL A   1      42.976  27.955  32.789  1.00  0.00     0.029 A 
ATOM     42  C   UNL A   1      42.329  29.076  33.464  1.00  0.00     0.049 A 
ATOM     43  H   UNL A   1      40.691  30.179  32.804  1.00  0.00     0.167 HD
ATOM     44  C   UNL A   1      37.402  32.566  31.193  1.00  0.00     0.037 A 
ATOM     45  C   UNL A   1      42.696  29.585  34.654  1.00  0.00     0.037 A 
ATOM     46  C   UNL A   1      37.665  33.119  32.495  1.00  0.00     0.049 A 
ATOM     47  C   UNL A   1      41.933  30.746  35.226  1.00  0.00     0.074 A 
ATOM     48  C   UNL A   1      36.993  34.137  33.152  1.00  0.00     0.029 A 
ATOM     49  N   UNL A   1      38.682  32.703  33.340  1.00  0.00    -0.354 N 
ATOM     50  N   UNL A   1      40.910  31.391  34.720  1.00  0.00    -0.248 NA
ATOM     51  C   UNL A   1      42.373  31.247  36.535  1.00  0.00     0.031 C 
ATOM     52  C   UNL A   1      37.628  34.360  34.380  1.00  0.00     0.029 A 
ATOM     53  C   UNL A   1      38.670  33.455  34.503  1.00  0.00     0.049 A 
ATOM     54  H   UNL A   1      39.320  31.978  33.142  1.00  0.00     0.167 HD
ATOM     55  C   UNL A   1      40.571  32.359  35.655  1.00  0.00     0.074 A 
ATOM     56  C   UNL A   1      41.489  32.206  36.767  1.00  0.00     0.031 C 
ATOM     57  C   UNL A   1      39.590  33.291  35.599  1.00  0.00     0.037 A 
BRANCH  44  58
ATOM     58  C   UNL A   1      36.310  33.182  30.366  1.00  0.00     0.057 A 
ATOM     59  C   UNL A   1      36.590  34.060  29.312  1.00  0.00     0.134 A 
ATOM     60  C   UNL A   1      34.967  32.864  30.605  1.00  0.00     0.134 A 
ATOM     61  F   UNL A   1      37.855  34.412  29.039  1.00  0.00    -0.206 F 
ATOM     62  C   UNL A   1      35.572  34.621  28.539  1.00  0.00     0.040 A 
ATOM     63  C   UNL A   1      33.941  33.399  29.822  1.00  0.00     0.040 A 
ATOM     64  F   UNL A   1      34.630  32.023  31.594  1.00  0.00    -0.206 F 
ATOM     65  C   UNL A   1      34.242  34.286  28.790  1.00  0.00     0.006 A 
ENDBRANCH  44  58
BRANCH  45  66
ATOM     66  C   UNL A   1      43.834  28.988  35.394  1.00  0.00     0.057 A 
ATOM     67  C   UNL A   1      45.146  29.417  35.164  1.00  0.00     0.134 A 
ATOM     68  C   UNL A   1      43.641  27.982  36.348  1.00  0.00     0.134 A 
ATOM     69  F   UNL A   1      45.394  30.365  34.248  1.00  0.00    -0.206 F 
ATOM     70  C   UNL A   1      46.228  28.857  35.845  1.00  0.00     0.040 A 
ATOM     71  C   UNL A   1      44.712  27.429  37.052  1.00  0.00     0.040 A 
ATOM     72  F   UNL A   1      42.406  27.534  36.619  1.00  0.00    -0.206 F 
ATOM     73  C   UNL A   1      46.011  27.863  36.797  1.00  0.00     0.006 A 
ENDBRANCH  45  66
BRANCH  57  74
ATOM     74  C   UNL A   1      39.446  34.202  36.781  1.00  0.00     0.057 A 
ATOM     75  C   UNL A   1      38.773  33.802  37.942  1.00  0.00     0.134 A 
ATOM     76  C   UNL A   1      40.013  35.483  36.768  1.00  0.00     0.134 A 
ATOM     77  F   UNL A   1      38.195  32.594  38.010  1.00  0.00    -0.206 F 
ATOM     78  C   UNL A   1      38.653  34.652  39.043  1.00  0.00     0.040 A 
ATOM     79  C   UNL A   1      39.919  36.333  37.870  1.00  0.00     0.040 A 
ATOM     80  F   UNL A   1      40.675  35.924  35.688  1.00  0.00    -0.206 F 
ATOM     81  C   UNL A   1      39.233  35.919  39.011  1.00  0.00     0.006 A 
ENDBRANCH  57  74
ENDBRANCH  31  32
ENDBRANCH  23  26
ENDBRANCH  21  22
ENDBRANCH   1  21
TORSDOF 11
ENDMDL
MODEL 3
REMARK VINA RESULT:     -11.9      5.411     11.951
REMARK SMILES Cc1ccc(-c2ncccc2C(=O)NCCCNC(=O)c2ccc(-c3c4nc(c(-c5c(F)cccc5F)c5ccc([nH]5)c(-c5c(F)cccc5F)c5nc(c(-c6c(F)cccc6F)c6ccc3[nH]6)C=C5)C=C4)cc2)c(C)c1
REMARK SMILES IDX 16 1 15 2 14 3 12 4 13 5 11 7 6 8 7 9 8 10 10 11 9 12 5 13
REMARK SMILES IDX 1 14 2 15 3 16 77 17 4 18 75 19 76 20 17 21 18 22 19 23
REMARK SMILES IDX 20 25 21 26 22 27 74 28 23 29 73 30 24 31 25 32 26 33 67 34
REMARK SMILES IDX 27 35 72 36 66 37 68 38 28 39 71 40 65 41 64 42 29 44 55 45
REMARK SMILES IDX 38 46 54 47 39 48 42 49 53 50 69 51 40 52 41 53 52 55 70 56
REMARK SMILES IDX 43 57 30 58 31 59 36 60 32 61 33 62 35 63 37 64 34 65 56 66
REMARK SMILES IDX 57 67 62 68 58 69 59 70 61 71 63 72 60 73 44 74 45 75 50 76
REMARK SMILES IDX 46 77 47 78 49 79 51 80 48 81
REMARK H PARENT 14 6 18 24 68 43 42 54
REMARK Flexibility Score: inf
ROOT
ATOM      1  C   UNL A   1      33.570  35.193  32.149  1.00  0.00     0.042 C 
ENDROOT
BRANCH   1   2
ATOM      2  C   UNL A   1      35.022  34.963  32.569  1.00  0.00     0.118 C 
BRANCH   2   3
ATOM      3  N   UNL A   1      35.122  34.761  34.001  1.00  0.00    -0.352 N 
ATOM      4  C   UNL A   1      35.803  33.917  34.841  1.00  0.00     0.253 C 
ATOM      5  O   UNL A   1      35.519  34.084  36.025  1.00  0.00    -0.269 OA
ATOM      6  H   UNL A   1      34.556  35.393  34.500  1.00  0.00     0.163 HD
BRANCH   4   7
ATOM      7  C   UNL A   1      36.818  32.898  34.415  1.00  0.00     0.066 A 
ATOM      8  C   UNL A   1      38.168  32.995  34.821  1.00  0.00     0.083 A 
ATOM      9  N   UNL A   1      39.139  32.140  34.368  1.00  0.00    -0.255 NA
ATOM     10  C   UNL A   1      38.783  31.151  33.532  1.00  0.00     0.112 A 
ATOM     11  C   UNL A   1      36.495  31.802  33.605  1.00  0.00     0.018 A 
ATOM     12  C   UNL A   1      37.481  30.930  33.142  1.00  0.00     0.021 A 
BRANCH   8  13
ATOM     13  C   UNL A   1      38.701  33.948  35.818  1.00  0.00     0.004 A 
ATOM     14  C   UNL A   1      40.399  36.832  38.575  1.00  0.00     0.044 C 
ATOM     15  C   UNL A   1      39.792  35.852  37.616  1.00  0.00    -0.051 A 
ATOM     16  C   UNL A   1      39.752  36.121  36.250  1.00  0.00     0.004 A 
ATOM     17  C   UNL A   1      39.242  34.654  38.087  1.00  0.00     0.007 A 
ATOM     18  C   UNL A   1      39.200  35.189  35.369  1.00  0.00     0.011 A 
ATOM     19  C   UNL A   1      38.703  33.694  37.206  1.00  0.00    -0.041 A 
ATOM     20  C   UNL A   1      38.092  32.456  37.804  1.00  0.00     0.045 C 
ENDBRANCH   8  13
ENDBRANCH   4   7
ENDBRANCH   2   3
ENDBRANCH   1   2
BRANCH   1  21
ATOM     21  C   UNL A   1      33.425  35.988  30.846  1.00  0.00     0.118 C 
BRANCH  21  22
ATOM     22  N   UNL A   1      32.771  35.214  29.799  1.00  0.00    -0.352 N 
ATOM     23  C   UNL A   1      33.277  34.274  28.939  1.00  0.00     0.251 C 
ATOM     24  H   UNL A   1      31.810  35.396  29.691  1.00  0.00     0.163 HD
ATOM     25  O   UNL A   1      32.607  33.916  27.974  1.00  0.00    -0.269 OA
BRANCH  23  26
ATOM     26  C   UNL A   1      34.618  33.688  29.151  1.00  0.00     0.039 A 
ATOM     27  C   UNL A   1      35.712  34.257  28.491  1.00  0.00     0.014 A 
ATOM     28  C   UNL A   1      34.795  32.546  29.936  1.00  0.00     0.014 A 
ATOM     29  C   UNL A   1      36.989  33.719  28.663  1.00  0.00     0.010 A 
ATOM     30  C   UNL A   1      36.078  32.042  30.153  1.00  0.00     0.010 A 
ATOM     31  C   UNL A   1      37.187  32.623  29.520  1.00  0.00    -0.014 A 
BRANCH  31  32
ATOM     32  C   UNL A   1      38.547  32.086  29.777  1.00  0.00     0.031 A 
ATOM     33  C   UNL A   1      38.945  30.733  29.256  1.00  0.00     0.074 A 
ATOM     34  C   UNL A   1      39.401  32.791  30.543  1.00  0.00     0.049 A 
ATOM     35  N   UNL A   1      40.055  30.068  29.450  1.00  0.00    -0.248 NA
ATOM     36  C   UNL A   1      37.957  30.028  28.427  1.00  0.00     0.031 C 
ATOM     37  C   UNL A   1      39.117  34.096  31.143  1.00  0.00     0.029 A 
ATOM     38  N   UNL A   1      40.675  32.503  30.961  1.00  0.00    -0.354 N 
ATOM     39  C   UNL A   1      39.893  28.859  28.784  1.00  0.00     0.074 A 
ATOM     40  C   UNL A   1      38.562  28.868  28.214  1.00  0.00     0.031 C 
ATOM     41  C   UNL A   1      40.191  34.502  31.839  1.00  0.00     0.029 A 
ATOM     42  C   UNL A   1      41.224  33.473  31.765  1.00  0.00     0.049 A 
ATOM     43  H   UNL A   1      41.152  31.680  30.709  1.00  0.00     0.167 HD
ATOM     44  C   UNL A   1      40.778  27.843  28.647  1.00  0.00     0.037 A 
ATOM     45  C   UNL A   1      42.419  33.524  32.380  1.00  0.00     0.037 A 
ATOM     46  C   UNL A   1      42.110  27.848  29.193  1.00  0.00     0.049 A 
ATOM     47  C   UNL A   1      43.383  32.384  32.212  1.00  0.00     0.074 A 
ATOM     48  C   UNL A   1      43.103  26.893  29.052  1.00  0.00     0.029 A 
ATOM     49  N   UNL A   1      42.635  28.856  29.987  1.00  0.00    -0.354 N 
ATOM     50  N   UNL A   1      43.238  31.274  31.529  1.00  0.00    -0.248 NA
ATOM     51  C   UNL A   1      44.677  32.505  32.896  1.00  0.00     0.031 C 
ATOM     52  C   UNL A   1      44.218  27.309  29.791  1.00  0.00     0.029 A 
ATOM     53  C   UNL A   1      43.931  28.539  30.359  1.00  0.00     0.049 A 
ATOM     54  H   UNL A   1      42.157  29.677  30.247  1.00  0.00     0.167 HD
ATOM     55  C   UNL A   1      44.427  30.575  31.684  1.00  0.00     0.074 A 
ATOM     56  C   UNL A   1      45.290  31.393  32.514  1.00  0.00     0.031 C 
ATOM     57  C   UNL A   1      44.774  29.364  31.185  1.00  0.00     0.037 A 
BRANCH  44  58
ATOM     58  C   UNL A   1      40.332  26.637  27.871  1.00  0.00     0.057 A 
ATOM     59  C   UNL A   1      40.763  26.405  26.559  1.00  0.00     0.134 A 
ATOM     60  C   UNL A   1      39.493  25.681  28.456  1.00  0.00     0.134 A 
ATOM     61  F   UNL A   1      41.559  27.289  25.939  1.00  0.00    -0.206 F 
ATOM     62  C   UNL A   1      40.355  25.277  25.845  1.00  0.00     0.040 A 
ATOM     63  C   UNL A   1      39.098  24.536  27.760  1.00  0.00     0.040 A 
ATOM     64  F   UNL A   1      39.051  25.838  29.712  1.00  0.00    -0.206 F 
ATOM     65  C   UNL A   1      39.524  24.335  26.449  1.00  0.00     0.006 A 
ENDBRANCH  44  58
BRANCH  45  66
ATOM     66  C   UNL A   1      42.779  34.705  33.201  1.00  0.00     0.057 A 
ATOM     67  C   UNL A   1      43.234  35.885  32.601  1.00  0.00     0.134 A 
ATOM     68  C   UNL A   1      42.673  34.688  34.597  1.00  0.00     0.134 A 
ATOM     69  F   UNL A   1      43.373  35.954  31.269  1.00  0.00    -0.206 F 
ATOM     70  C   UNL A   1      43.587  37.001  33.361  1.00  0.00     0.040 A 
ATOM     71  C   UNL A   1      43.002  35.805  35.367  1.00  0.00     0.040 A 
ATOM     72  F   UNL A   1      42.235  33.590  35.229  1.00  0.00    -0.206 F 
ATOM     73  C   UNL A   1      43.465  36.964  34.749  1.00  0.00     0.006 A 
ENDBRANCH  45  66
BRANCH  57  74
ATOM     74  C   UNL A   1      46.150  28.862  31.507  1.00  0.00     0.057 A 
ATOM     75  C   UNL A   1      46.399  28.064  32.630  1.00  0.00     0.134 A 
ATOM     76  C   UNL A   1      47.232  29.157  30.667  1.00  0.00     0.134 A 
ATOM     77  F   UNL A   1      45.408  27.759  33.480  1.00  0.00    -0.206 F 
ATOM     78  C   UNL A   1      47.681  27.591  32.916  1.00  0.00     0.040 A 
ATOM     79  C   UNL A   1      48.513  28.672  30.931  1.00  0.00     0.040 A 
ATOM     80  F   UNL A   1      47.059  29.913  29.572  1.00  0.00    -0.206 F 
ATOM     81  C   UNL A   1      48.741  27.889  32.062  1.00  0.00     0.006 A 
ENDBRANCH  57  74
ENDBRANCH  31  32
ENDBRANCH  23  26
ENDBRANCH  21  22
ENDBRANCH   1  21
TORSDOF 11
ENDMDL
