MODEL 1
REMARK VINA RESULT:      -9.5      0.000      0.000
REMARK SMILES CCCSc1nc(=O)cc(CC(=O)NCCCNC(=O)c2ccc(-c3c4nc(c(-c5c(F)cccc5F)c5ccc([nH]5)c(-c5c(F)cccc5F)c5nc(c(-c6c(F)cccc6F)c6ccc3[nH]6)C=C5)C=C4)cc2)[nH]1
REMARK SMILES IDX 15 1 14 2 12 3 13 4 11 6 10 7 5 8 6 9 75 10 7 11 8 13 9 14
REMARK SMILES IDX 4 15 3 16 2 17 1 18 16 19 17 20 18 21 19 22 20 24 21 25
REMARK SMILES IDX 22 26 74 27 23 28 73 29 24 30 25 31 26 32 67 33 27 34 72 35
REMARK SMILES IDX 66 36 68 37 28 38 71 39 65 40 64 41 29 43 55 44 38 45 54 46
REMARK SMILES IDX 39 47 42 48 53 49 69 50 40 51 41 52 52 54 70 55 43 56 30 57
REMARK SMILES IDX 31 58 36 59 32 60 33 61 35 62 37 63 34 64 56 65 57 66 62 67
REMARK SMILES IDX 58 68 59 69 61 70 63 71 60 72 44 73 45 74 50 75 46 76 47 77
REMARK SMILES IDX 49 78 51 79 48 80
REMARK H PARENT 14 5 75 12 18 23 68 42 42 53
REMARK Flexibility Score: inf
ROOT
ATOM      1  C   UNL A   1      46.388  20.703  24.371  1.00  0.00     0.117 C 
ENDROOT
BRANCH   1   2
ATOM      2  N   UNL A   1      45.536  21.826  24.017  1.00  0.00    -0.356 N 
ATOM      3  C   UNL A   1      45.705  23.159  24.271  1.00  0.00     0.225 C 
ATOM      4  O   UNL A   1      44.827  23.945  23.915  1.00  0.00    -0.275 OA
ATOM      5  H   UNL A   1      44.717  21.594  23.521  1.00  0.00     0.163 HD
BRANCH   3   6
ATOM      6  C   UNL A   1      46.956  23.643  24.995  1.00  0.00     0.154 C 
BRANCH   6   7
ATOM      7  C   UNL A   1      47.082  25.140  24.918  1.00  0.00     0.032 A 
ATOM      8  C   UNL A   1      46.044  27.257  25.238  1.00  0.00     0.169 A 
ATOM      9  N   UNL A   1      46.915  27.910  24.548  1.00  0.00    -0.185 NA
ATOM     10  N   UNL A   1      46.090  25.917  25.468  1.00  0.00    -0.337 N 
ATOM     11  C   UNL A   1      48.030  27.238  24.103  1.00  0.00     0.273 A 
ATOM     12  H   UNL A   1      45.403  25.498  26.035  1.00  0.00     0.168 HD
ATOM     13  O   UNL A   1      48.975  27.795  23.554  1.00  0.00    -0.267 OA
ATOM     14  C   UNL A   1      48.077  25.758  24.263  1.00  0.00     0.095 A 
BRANCH   8  15
ATOM     15  S   UNL A   1      44.659  28.052  25.939  1.00  0.00    -0.088 SA
BRANCH  15  16
ATOM     16  C   UNL A   1      43.266  27.169  25.171  1.00  0.00     0.078 C 
BRANCH  16  17
ATOM     17  C   UNL A   1      41.888  27.764  25.475  1.00  0.00     0.008 C 
ATOM     18  C   UNL A   1      41.904  29.196  25.989  1.00  0.00     0.005 C 
ENDBRANCH  16  17
ENDBRANCH  15  16
ENDBRANCH   8  15
ENDBRANCH   6   7
ENDBRANCH   3   6
ENDBRANCH   1   2
BRANCH   1  19
ATOM     19  C   UNL A   1      45.608  19.402  24.540  1.00  0.00     0.042 C 
BRANCH  19  20
ATOM     20  C   UNL A   1      44.746  19.343  25.797  1.00  0.00     0.118 C 
BRANCH  20  21
ATOM     21  N   UNL A   1      43.395  18.854  25.544  1.00  0.00    -0.352 N 
ATOM     22  C   UNL A   1      42.176  19.413  25.848  1.00  0.00     0.251 C 
ATOM     23  H   UNL A   1      43.349  17.986  25.081  1.00  0.00     0.163 HD
ATOM     24  O   UNL A   1      41.150  18.761  25.676  1.00  0.00    -0.269 OA
BRANCH  22  25
ATOM     25  C   UNL A   1      42.096  20.775  26.422  1.00  0.00     0.039 A 
ATOM     26  C   UNL A   1      42.233  21.904  25.614  1.00  0.00     0.014 A 
ATOM     27  C   UNL A   1      41.907  20.924  27.800  1.00  0.00     0.014 A 
ATOM     28  C   UNL A   1      42.398  23.154  26.202  1.00  0.00     0.010 A 
ATOM     29  C   UNL A   1      41.972  22.195  28.378  1.00  0.00     0.010 A 
ATOM     30  C   UNL A   1      42.294  23.313  27.592  1.00  0.00    -0.014 A 
BRANCH  30  31
ATOM     31  C   UNL A   1      42.588  24.640  28.200  1.00  0.00     0.031 A 
ATOM     32  C   UNL A   1      44.008  25.033  28.527  1.00  0.00     0.074 A 
ATOM     33  C   UNL A   1      41.592  25.530  28.381  1.00  0.00     0.049 A 
ATOM     34  N   UNL A   1      44.466  26.158  29.021  1.00  0.00    -0.248 NA
ATOM     35  C   UNL A   1      45.052  24.028  28.273  1.00  0.00     0.031 C 
ATOM     36  C   UNL A   1      40.178  25.288  28.089  1.00  0.00     0.029 A 
ATOM     37  N   UNL A   1      41.621  26.827  28.828  1.00  0.00    -0.354 N 
ATOM     38  C   UNL A   1      45.841  25.992  29.143  1.00  0.00     0.074 A 
ATOM     39  C   UNL A   1      46.138  24.640  28.722  1.00  0.00     0.031 C 
ATOM     40  C   UNL A   1      39.485  26.414  28.310  1.00  0.00     0.029 A 
ATOM     41  C   UNL A   1      40.391  27.438  28.818  1.00  0.00     0.049 A 
ATOM     42  H   UNL A   1      42.445  27.276  29.126  1.00  0.00     0.167 HD
ATOM     43  C   UNL A   1      46.777  26.886  29.549  1.00  0.00     0.037 A 
ATOM     44  C   UNL A   1      40.031  28.681  29.189  1.00  0.00     0.037 A 
ATOM     45  C   UNL A   1      46.486  28.235  29.960  1.00  0.00     0.049 A 
ATOM     46  C   UNL A   1      41.080  29.628  29.701  1.00  0.00     0.074 A 
ATOM     47  C   UNL A   1      47.364  29.216  30.390  1.00  0.00     0.029 A 
ATOM     48  N   UNL A   1      45.218  28.796  29.993  1.00  0.00    -0.354 N 
ATOM     49  N   UNL A   1      42.375  29.457  29.806  1.00  0.00    -0.248 NA
ATOM     50  C   UNL A   1      40.610  30.947  30.147  1.00  0.00     0.031 C 
ATOM     51  C   UNL A   1      46.623  30.353  30.728  1.00  0.00     0.029 A 
ATOM     52  C   UNL A   1      45.288  30.101  30.453  1.00  0.00     0.049 A 
ATOM     53  H   UNL A   1      44.390  28.334  29.729  1.00  0.00     0.167 HD
ATOM     54  C   UNL A   1      42.878  30.655  30.295  1.00  0.00     0.074 A 
ATOM     55  C   UNL A   1      41.750  31.549  30.448  1.00  0.00     0.031 C 
ATOM     56  C   UNL A   1      44.160  30.986  30.593  1.00  0.00     0.037 A 
BRANCH  43  57
ATOM     57  C   UNL A   1      48.205  26.417  29.585  1.00  0.00     0.057 A 
ATOM     58  C   UNL A   1      49.041  26.582  28.472  1.00  0.00     0.134 A 
ATOM     59  C   UNL A   1      48.754  25.791  30.713  1.00  0.00     0.134 A 
ATOM     60  F   UNL A   1      48.580  27.165  27.355  1.00  0.00    -0.206 F 
ATOM     61  C   UNL A   1      50.367  26.148  28.482  1.00  0.00     0.040 A 
ATOM     62  C   UNL A   1      50.088  25.380  30.746  1.00  0.00     0.040 A 
ATOM     63  F   UNL A   1      48.016  25.614  31.819  1.00  0.00    -0.206 F 
ATOM     64  C   UNL A   1      50.898  25.554  29.625  1.00  0.00     0.006 A 
ENDBRANCH  43  57
BRANCH  44  65
ATOM     65  C   UNL A   1      38.611  29.108  29.102  1.00  0.00     0.057 A 
ATOM     66  C   UNL A   1      38.063  29.580  27.903  1.00  0.00     0.134 A 
ATOM     67  C   UNL A   1      37.756  29.008  30.206  1.00  0.00     0.134 A 
ATOM     68  F   UNL A   1      38.830  29.704  26.809  1.00  0.00    -0.206 F 
ATOM     69  C   UNL A   1      36.718  29.935  27.804  1.00  0.00     0.040 A 
ATOM     70  C   UNL A   1      36.400  29.330  30.113  1.00  0.00     0.040 A 
ATOM     71  F   UNL A   1      38.216  28.544  31.377  1.00  0.00    -0.206 F 
ATOM     72  C   UNL A   1      35.879  29.797  28.908  1.00  0.00     0.006 A 
ENDBRANCH  44  65
BRANCH  56  73
ATOM     73  C   UNL A   1      44.406  32.393  31.059  1.00  0.00     0.057 A 
ATOM     74  C   UNL A   1      44.555  33.431  30.129  1.00  0.00     0.134 A 
ATOM     75  C   UNL A   1      44.486  32.728  32.417  1.00  0.00     0.134 A 
ATOM     76  F   UNL A   1      44.501  33.181  28.813  1.00  0.00    -0.206 F 
ATOM     77  C   UNL A   1      44.762  34.751  30.534  1.00  0.00     0.040 A 
ATOM     78  C   UNL A   1      44.659  34.049  32.835  1.00  0.00     0.040 A 
ATOM     79  F   UNL A   1      44.337  31.785  33.360  1.00  0.00    -0.206 F 
ATOM     80  C   UNL A   1      44.801  35.065  31.891  1.00  0.00     0.006 A 
ENDBRANCH  56  73
ENDBRANCH  30  31
ENDBRANCH  22  25
ENDBRANCH  20  21
ENDBRANCH  19  20
ENDBRANCH   1  19
TORSDOF 14
ENDMDL
MODEL 2
REMARK VINA RESULT:      -8.9      1.147      2.594
REMARK SMILES CCCSc1nc(=O)cc(CC(=O)NCCCNC(=O)c2ccc(-c3c4nc(c(-c5c(F)cccc5F)c5ccc([nH]5)c(-c5c(F)cccc5F)c5nc(c(-c6c(F)cccc6F)c6ccc3[nH]6)C=C5)C=C4)cc2)[nH]1
REMARK SMILES IDX 15 1 14 2 12 3 13 4 11 6 10 7 5 8 6 9 75 10 7 11 8 13 9 14
REMARK SMILES IDX 4 15 3 16 2 17 1 18 16 19 17 20 18 21 19 22 20 24 21 25
REMARK SMILES IDX 22 26 74 27 23 28 73 29 24 30 25 31 26 32 67 33 27 34 72 35
REMARK SMILES IDX 66 36 68 37 28 38 71 39 65 40 64 41 29 43 55 44 38 45 54 46
REMARK SMILES IDX 39 47 42 48 53 49 69 50 40 51 41 52 52 54 70 55 43 56 30 57
REMARK SMILES IDX 31 58 36 59 32 60 33 61 35 62 37 63 34 64 56 65 57 66 62 67
REMARK SMILES IDX 58 68 59 69 61 70 63 71 60 72 44 73 45 74 50 75 46 76 47 77
REMARK SMILES IDX 49 78 51 79 48 80
REMARK H PARENT 14 5 75 12 18 23 68 42 42 53
REMARK Flexibility Score: inf
ROOT
ATOM      1  C   UNL A   1      46.521  20.153  24.599  1.00  0.00     0.117 C 
ENDROOT
BRANCH   1   2
ATOM      2  N   UNL A   1      45.704  21.083  23.836  1.00  0.00    -0.356 N 
ATOM      3  C   UNL A   1      45.438  22.402  24.074  1.00  0.00     0.225 C 
ATOM      4  O   UNL A   1      44.673  22.997  23.314  1.00  0.00    -0.275 OA
ATOM      5  H   UNL A   1      45.279  20.707  23.031  1.00  0.00     0.163 HD
BRANCH   3   6
ATOM      6  C   UNL A   1      46.073  23.104  25.268  1.00  0.00     0.154 C 
BRANCH   6   7
ATOM      7  C   UNL A   1      46.211  24.581  25.019  1.00  0.00     0.032 A 
ATOM      8  C   UNL A   1      47.670  26.423  24.645  1.00  0.00     0.169 A 
ATOM      9  N   UNL A   1      46.779  27.320  24.894  1.00  0.00    -0.185 NA
ATOM     10  N   UNL A   1      47.442  25.082  24.669  1.00  0.00    -0.337 N 
ATOM     11  C   UNL A   1      45.480  26.910  25.088  1.00  0.00     0.273 A 
ATOM     12  H   UNL A   1      48.169  24.462  24.433  1.00  0.00     0.168 HD
ATOM     13  O   UNL A   1      44.540  27.691  25.200  1.00  0.00    -0.267 OA
ATOM     14  C   UNL A   1      45.206  25.451  25.204  1.00  0.00     0.095 A 
BRANCH   8  15
ATOM     15  S   UNL A   1      49.318  26.858  24.274  1.00  0.00    -0.088 SA
BRANCH  15  16
ATOM     16  C   UNL A   1      50.272  25.786  25.391  1.00  0.00     0.078 C 
BRANCH  16  17
ATOM     17  C   UNL A   1      51.735  26.197  25.575  1.00  0.00     0.008 C 
ATOM     18  C   UNL A   1      52.703  25.047  25.809  1.00  0.00     0.005 C 
ENDBRANCH  16  17
ENDBRANCH  15  16
ENDBRANCH   8  15
ENDBRANCH   6   7
ENDBRANCH   3   6
ENDBRANCH   1   2
BRANCH   1  19
ATOM     19  C   UNL A   1      45.733  18.942  25.090  1.00  0.00     0.042 C 
BRANCH  19  20
ATOM     20  C   UNL A   1      44.657  19.266  26.120  1.00  0.00     0.118 C 
BRANCH  20  21
ATOM     21  N   UNL A   1      43.325  18.829  25.717  1.00  0.00    -0.352 N 
ATOM     22  C   UNL A   1      42.101  19.432  25.889  1.00  0.00     0.251 C 
ATOM     23  H   UNL A   1      43.298  17.966  25.244  1.00  0.00     0.163 HD
ATOM     24  O   UNL A   1      41.077  18.820  25.600  1.00  0.00    -0.269 OA
BRANCH  22  25
ATOM     25  C   UNL A   1      42.009  20.794  26.463  1.00  0.00     0.039 A 
ATOM     26  C   UNL A   1      42.231  21.922  25.675  1.00  0.00     0.014 A 
ATOM     27  C   UNL A   1      41.720  20.941  27.824  1.00  0.00     0.014 A 
ATOM     28  C   UNL A   1      42.379  23.166  26.279  1.00  0.00     0.010 A 
ATOM     29  C   UNL A   1      41.769  22.209  28.413  1.00  0.00     0.010 A 
ATOM     30  C   UNL A   1      42.174  23.322  27.659  1.00  0.00    -0.014 A 
BRANCH  30  31
ATOM     31  C   UNL A   1      42.451  24.640  28.295  1.00  0.00     0.031 A 
ATOM     32  C   UNL A   1      43.855  25.009  28.708  1.00  0.00     0.074 A 
ATOM     33  C   UNL A   1      41.459  25.543  28.425  1.00  0.00     0.049 A 
ATOM     34  N   UNL A   1      44.299  26.123  29.237  1.00  0.00    -0.248 NA
ATOM     35  C   UNL A   1      44.898  23.991  28.506  1.00  0.00     0.031 C 
ATOM     36  C   UNL A   1      40.061  25.323  28.049  1.00  0.00     0.029 A 
ATOM     37  N   UNL A   1      41.481  26.835  28.884  1.00  0.00    -0.354 N 
ATOM     38  C   UNL A   1      45.662  25.936  29.437  1.00  0.00     0.074 A 
ATOM     39  C   UNL A   1      45.964  24.583  29.023  1.00  0.00     0.031 C 
ATOM     40  C   UNL A   1      39.373  26.458  28.239  1.00  0.00     0.029 A 
ATOM     41  C   UNL A   1      40.262  27.465  28.809  1.00  0.00     0.049 A 
ATOM     42  H   UNL A   1      42.292  27.270  29.234  1.00  0.00     0.167 HD
ATOM     43  C   UNL A   1      46.585  26.812  29.905  1.00  0.00     0.037 A 
ATOM     44  C   UNL A   1      39.899  28.710  29.168  1.00  0.00     0.037 A 
ATOM     45  C   UNL A   1      46.291  28.163  30.310  1.00  0.00     0.049 A 
ATOM     46  C   UNL A   1      40.929  29.637  29.749  1.00  0.00     0.074 A 
ATOM     47  C   UNL A   1      47.156  29.128  30.799  1.00  0.00     0.029 A 
ATOM     48  N   UNL A   1      45.031  28.742  30.274  1.00  0.00    -0.354 N 
ATOM     49  N   UNL A   1      42.214  29.446  29.927  1.00  0.00    -0.248 NA
ATOM     50  C   UNL A   1      40.453  30.959  30.178  1.00  0.00     0.031 C 
ATOM     51  C   UNL A   1      46.412  30.273  31.103  1.00  0.00     0.029 A 
ATOM     52  C   UNL A   1      45.093  30.043  30.748  1.00  0.00     0.049 A 
ATOM     53  H   UNL A   1      44.214  28.294  29.958  1.00  0.00     0.167 HD
ATOM     54  C   UNL A   1      42.704  30.633  30.456  1.00  0.00     0.074 A 
ATOM     55  C   UNL A   1      41.582  31.543  30.551  1.00  0.00     0.031 C 
ATOM     56  C   UNL A   1      43.971  30.943  30.831  1.00  0.00     0.037 A 
BRANCH  43  57
ATOM     57  C   UNL A   1      48.003  26.323  30.019  1.00  0.00     0.057 A 
ATOM     58  C   UNL A   1      48.899  26.467  28.951  1.00  0.00     0.134 A 
ATOM     59  C   UNL A   1      48.481  25.697  31.180  1.00  0.00     0.134 A 
ATOM     60  F   UNL A   1      48.507  27.048  27.808  1.00  0.00    -0.206 F 
ATOM     61  C   UNL A   1      50.216  26.013  29.035  1.00  0.00     0.040 A 
ATOM     62  C   UNL A   1      49.805  25.266  31.286  1.00  0.00     0.040 A 
ATOM     63  F   UNL A   1      47.682  25.539  32.246  1.00  0.00    -0.206 F 
ATOM     64  C   UNL A   1      50.676  25.420  30.209  1.00  0.00     0.006 A 
ENDBRANCH  43  57
BRANCH  44  65
ATOM     65  C   UNL A   1      38.493  29.159  29.002  1.00  0.00     0.057 A 
ATOM     66  C   UNL A   1      37.590  29.143  30.073  1.00  0.00     0.134 A 
ATOM     67  C   UNL A   1      38.032  29.661  27.779  1.00  0.00     0.134 A 
ATOM     68  F   UNL A   1      37.967  28.670  31.270  1.00  0.00    -0.206 F 
ATOM     69  C   UNL A   1      36.284  29.611  29.935  1.00  0.00     0.040 A 
ATOM     70  C   UNL A   1      36.737  30.162  27.635  1.00  0.00     0.040 A 
ATOM     71  F   UNL A   1      38.854  29.722  26.721  1.00  0.00    -0.206 F 
ATOM     72  C   UNL A   1      35.858  30.135  28.716  1.00  0.00     0.006 A 
ENDBRANCH  44  65
BRANCH  56  73
ATOM     73  C   UNL A   1      44.209  32.342  31.322  1.00  0.00     0.057 A 
ATOM     74  C   UNL A   1      44.108  32.640  32.687  1.00  0.00     0.134 A 
ATOM     75  C   UNL A   1      44.548  33.391  30.457  1.00  0.00     0.134 A 
ATOM     76  F   UNL A   1      43.777  31.687  33.571  1.00  0.00    -0.206 F 
ATOM     77  C   UNL A   1      44.348  33.927  33.175  1.00  0.00     0.040 A 
ATOM     78  C   UNL A   1      44.822  34.674  30.936  1.00  0.00     0.040 A 
ATOM     79  F   UNL A   1      44.676  33.171  29.139  1.00  0.00    -0.206 F 
ATOM     80  C   UNL A   1      44.719  34.945  32.299  1.00  0.00     0.006 A 
ENDBRANCH  56  73
ENDBRANCH  30  31
ENDBRANCH  22  25
ENDBRANCH  20  21
ENDBRANCH  19  20
ENDBRANCH   1  19
TORSDOF 14
ENDMDL
MODEL 3
REMARK VINA RESULT:      -8.7      6.218     11.614
REMARK SMILES CCCSc1nc(=O)cc(CC(=O)NCCCNC(=O)c2ccc(-c3c4nc(c(-c5c(F)cccc5F)c5ccc([nH]5)c(-c5c(F)cccc5F)c5nc(c(-c6c(F)cccc6F)c6ccc3[nH]6)C=C5)C=C4)cc2)[nH]1
REMARK SMILES IDX 15 1 14 2 12 3 13 4 11 6 10 7 5 8 6 9 75 10 7 11 8 13 9 14
REMARK SMILES IDX 4 15 3 16 2 17 1 18 16 19 17 20 18 21 19 22 20 24 21 25
REMARK SMILES IDX 22 26 74 27 23 28 73 29 24 30 25 31 26 32 67 33 27 34 72 35
REMARK SMILES IDX 66 36 68 37 28 38 71 39 65 40 64 41 29 43 55 44 38 45 54 46
REMARK SMILES IDX 39 47 42 48 53 49 69 50 40 51 41 52 52 54 70 55 43 56 30 57
REMARK SMILES IDX 31 58 36 59 32 60 33 61 35 62 37 63 34 64 56 65 57 66 62 67
REMARK SMILES IDX 58 68 59 69 61 70 63 71 60 72 44 73 45 74 50 75 46 76 47 77
REMARK SMILES IDX 49 78 51 79 48 80
REMARK H PARENT 14 5 75 12 18 23 68 42 42 53
REMARK Flexibility Score: inf
ROOT
ATOM      1  C   UNL A   1      31.835  30.251  26.606  1.00  0.00     0.117 C 
ENDROOT
BRANCH   1   2
ATOM      2  N   UNL A   1      32.315  30.109  25.241  1.00  0.00    -0.356 N 
ATOM      3  C   UNL A   1      33.065  29.111  24.684  1.00  0.00     0.225 C 
ATOM      4  O   UNL A   1      33.402  29.215  23.504  1.00  0.00    -0.275 OA
ATOM      5  H   UNL A   1      32.063  30.838  24.629  1.00  0.00     0.163 HD
BRANCH   3   6
ATOM      6  C   UNL A   1      33.480  27.909  25.524  1.00  0.00     0.154 C 
BRANCH   6   7
ATOM      7  C   UNL A   1      32.395  26.867  25.552  1.00  0.00     0.032 A 
ATOM      8  C   UNL A   1      30.201  26.240  24.881  1.00  0.00     0.169 A 
ATOM      9  N   UNL A   1      30.100  25.273  25.726  1.00  0.00    -0.185 NA
ATOM     10  N   UNL A   1      31.299  27.030  24.738  1.00  0.00    -0.337 N 
ATOM     11  C   UNL A   1      31.212  24.934  26.462  1.00  0.00     0.273 A 
ATOM     12  H   UNL A   1      31.309  27.727  24.044  1.00  0.00     0.168 HD
ATOM     13  O   UNL A   1      31.259  23.950  27.194  1.00  0.00    -0.267 OA
ATOM     14  C   UNL A   1      32.405  25.824  26.396  1.00  0.00     0.095 A 
BRANCH   8  15
ATOM     15  S   UNL A   1      28.879  26.665  23.825  1.00  0.00    -0.088 SA
BRANCH  15  16
ATOM     16  C   UNL A   1      29.591  27.999  22.816  1.00  0.00     0.078 C 
BRANCH  16  17
ATOM     17  C   UNL A   1      28.714  29.249  22.699  1.00  0.00     0.008 C 
ATOM     18  C   UNL A   1      29.214  30.462  23.469  1.00  0.00     0.005 C 
ENDBRANCH  16  17
ENDBRANCH  15  16
ENDBRANCH   8  15
ENDBRANCH   6   7
ENDBRANCH   3   6
ENDBRANCH   1   2
BRANCH   1  19
ATOM     19  C   UNL A   1      31.322  31.656  26.908  1.00  0.00     0.042 C 
BRANCH  19  20
ATOM     20  C   UNL A   1      32.272  32.776  26.497  1.00  0.00     0.118 C 
BRANCH  20  21
ATOM     21  N   UNL A   1      32.222  33.927  27.390  1.00  0.00    -0.352 N 
ATOM     22  C   UNL A   1      33.050  34.282  28.430  1.00  0.00     0.251 C 
ATOM     23  H   UNL A   1      31.479  34.551  27.222  1.00  0.00     0.163 HD
ATOM     24  O   UNL A   1      32.744  35.224  29.155  1.00  0.00    -0.269 OA
BRANCH  22  25
ATOM     25  C   UNL A   1      34.282  33.509  28.707  1.00  0.00     0.039 A 
ATOM     26  C   UNL A   1      34.217  32.175  29.109  1.00  0.00     0.014 A 
ATOM     27  C   UNL A   1      35.524  34.139  28.585  1.00  0.00     0.014 A 
ATOM     28  C   UNL A   1      35.359  31.546  29.595  1.00  0.00     0.010 A 
ATOM     29  C   UNL A   1      36.687  33.469  28.979  1.00  0.00     0.010 A 
ATOM     30  C   UNL A   1      36.605  32.193  29.558  1.00  0.00    -0.014 A 
BRANCH  30  31
ATOM     31  C   UNL A   1      37.785  31.540  30.188  1.00  0.00     0.031 A 
ATOM     32  C   UNL A   1      38.112  31.788  31.640  1.00  0.00     0.074 A 
ATOM     33  C   UNL A   1      38.518  30.657  29.482  1.00  0.00     0.049 A 
ATOM     34  N   UNL A   1      39.071  31.280  32.375  1.00  0.00    -0.248 NA
ATOM     35  C   UNL A   1      37.251  32.737  32.364  1.00  0.00     0.031 C 
ATOM     36  C   UNL A   1      38.301  30.309  28.077  1.00  0.00     0.029 A 
ATOM     37  N   UNL A   1      39.577  29.870  29.859  1.00  0.00    -0.354 N 
ATOM     38  C   UNL A   1      38.934  31.851  33.635  1.00  0.00     0.074 A 
ATOM     39  C   UNL A   1      37.832  32.785  33.553  1.00  0.00     0.031 C 
ATOM     40  C   UNL A   1      39.160  29.340  27.726  1.00  0.00     0.029 A 
ATOM     41  C   UNL A   1      40.029  29.043  28.859  1.00  0.00     0.049 A 
ATOM     42  H   UNL A   1      39.975  29.895  30.759  1.00  0.00     0.167 HD
ATOM     43  C   UNL A   1      39.644  31.610  34.764  1.00  0.00     0.037 A 
ATOM     44  C   UNL A   1      41.037  28.152  28.852  1.00  0.00     0.037 A 
ATOM     45  C   UNL A   1      40.737  30.675  34.852  1.00  0.00     0.049 A 
ATOM     46  C   UNL A   1      41.853  27.956  30.099  1.00  0.00     0.074 A 
ATOM     47  C   UNL A   1      41.520  30.362  35.951  1.00  0.00     0.029 A 
ATOM     48  N   UNL A   1      41.201  29.901  33.800  1.00  0.00    -0.354 N 
ATOM     49  N   UNL A   1      41.708  28.501  31.282  1.00  0.00    -0.248 NA
ATOM     50  C   UNL A   1      42.978  27.016  30.005  1.00  0.00     0.031 C 
ATOM     51  C   UNL A   1      42.488  29.434  35.550  1.00  0.00     0.029 A 
ATOM     52  C   UNL A   1      42.271  29.125  34.217  1.00  0.00     0.049 A 
ATOM     53  H   UNL A   1      40.826  29.903  32.890  1.00  0.00     0.167 HD
ATOM     54  C   UNL A   1      42.698  27.944  32.082  1.00  0.00     0.074 A 
ATOM     55  C   UNL A   1      43.425  27.006  31.252  1.00  0.00     0.031 C 
ATOM     56  C   UNL A   1      42.982  28.188  33.385  1.00  0.00     0.037 A 
BRANCH  43  57
ATOM     57  C   UNL A   1      39.269  32.392  35.993  1.00  0.00     0.057 A 
ATOM     58  C   UNL A   1      38.347  31.877  36.914  1.00  0.00     0.134 A 
ATOM     59  C   UNL A   1      39.807  33.658  36.262  1.00  0.00     0.134 A 
ATOM     60  F   UNL A   1      37.785  30.675  36.717  1.00  0.00    -0.206 F 
ATOM     61  C   UNL A   1      37.979  32.589  38.057  1.00  0.00     0.040 A 
ATOM     62  C   UNL A   1      39.470  34.367  37.417  1.00  0.00     0.040 A 
ATOM     63  F   UNL A   1      40.706  34.206  35.430  1.00  0.00    -0.206 F 
ATOM     64  C   UNL A   1      38.549  33.834  38.318  1.00  0.00     0.006 A 
ENDBRANCH  43  57
BRANCH  44  65
ATOM     65  C   UNL A   1      41.347  27.378  27.623  1.00  0.00     0.057 A 
ATOM     66  C   UNL A   1      42.195  27.890  26.632  1.00  0.00     0.134 A 
ATOM     67  C   UNL A   1      40.842  26.086  27.433  1.00  0.00     0.134 A 
ATOM     68  F   UNL A   1      42.708  29.123  26.751  1.00  0.00    -0.206 F 
ATOM     69  C   UNL A   1      42.529  27.147  25.501  1.00  0.00     0.040 A 
ATOM     70  C   UNL A   1      41.193  25.319  26.320  1.00  0.00     0.040 A 
ATOM     71  F   UNL A   1      40.042  25.532  28.355  1.00  0.00    -0.206 F 
ATOM     72  C   UNL A   1      42.038  25.852  25.348  1.00  0.00     0.006 A 
ENDBRANCH  44  65
BRANCH  56  73
ATOM     73  C   UNL A   1      44.091  27.382  34.000  1.00  0.00     0.057 A 
ATOM     74  C   UNL A   1      45.408  27.859  33.980  1.00  0.00     0.134 A 
ATOM     75  C   UNL A   1      43.862  26.146  34.619  1.00  0.00     0.134 A 
ATOM     76  F   UNL A   1      45.701  29.030  33.395  1.00  0.00    -0.206 F 
ATOM     77  C   UNL A   1      46.455  27.142  34.564  1.00  0.00     0.040 A 
ATOM     78  C   UNL A   1      44.894  25.436  35.236  1.00  0.00     0.040 A 
ATOM     79  F   UNL A   1      42.622  25.638  34.686  1.00  0.00    -0.206 F 
ATOM     80  C   UNL A   1      46.196  25.933  35.206  1.00  0.00     0.006 A 
ENDBRANCH  56  73
ENDBRANCH  30  31
ENDBRANCH  22  25
ENDBRANCH  20  21
ENDBRANCH  19  20
ENDBRANCH   1  19
TORSDOF 14
ENDMDL
