MODEL 1
REMARK VINA RESULT:     -13.3      0.000      0.000
REMARK SMILES Cc1c(CC(=O)NCCCNC(=O)c2ccc(-c3c4nc(c(-c5c(F)cccc5F)c5ccc([nH]5)c(-c5c(F)cccc5F)c5nc(c(-c6c(F)cccc6F)c6ccc3[nH]6)C=C5)C=C4)cc2)cc(-c2ccc(S(C)(=O)=O)cc2)n1-c1ccccc1
REMARK SMILES IDX 8 1 7 2 5 3 6 4 4 6 3 7 1 8 2 9 80 10 68 11 69 12 81 13
REMARK SMILES IDX 82 14 86 15 83 16 85 17 84 18 70 19 71 20 79 21 72 22 78 23
REMARK SMILES IDX 73 24 74 25 75 26 76 27 77 28 9 29 10 30 11 31 12 32 13 34
REMARK SMILES IDX 14 35 15 36 67 37 16 38 66 39 17 40 18 41 19 42 60 43 20 44
REMARK SMILES IDX 65 45 59 46 61 47 21 48 64 49 58 50 57 51 22 53 48 54 31 55
REMARK SMILES IDX 47 56 32 57 35 58 46 59 62 60 33 61 34 62 45 64 63 65 36 66
REMARK SMILES IDX 23 67 24 68 29 69 25 70 26 71 28 72 30 73 27 74 49 75 50 76
REMARK SMILES IDX 55 77 51 78 52 79 54 80 56 81 53 82 37 83 38 84 43 85 39 86
REMARK SMILES IDX 40 87 42 88 44 89 41 90
REMARK H PARENT 7 5 11 33 61 52 35 63
REMARK Flexibility Score: inf
ROOT
ATOM      1  C   UNL A   1      31.614  27.493  26.562  1.00  0.00     0.117 C 
ENDROOT
BRANCH   1   2
ATOM      2  N   UNL A   1      30.489  26.614  26.864  1.00  0.00    -0.356 N 
ATOM      3  C   UNL A   1      29.912  25.600  26.142  1.00  0.00     0.224 C 
ATOM      4  O   UNL A   1      29.163  24.831  26.756  1.00  0.00    -0.275 OA
ATOM      5  H   UNL A   1      30.069  26.778  27.740  1.00  0.00     0.163 HD
BRANCH   3   6
ATOM      6  C   UNL A   1      30.182  25.372  24.657  1.00  0.00     0.137 C 
BRANCH   6   7
ATOM      7  C   UNL A   1      31.289  24.404  24.398  1.00  0.00    -0.017 A 
ATOM      8  C   UNL A   1      33.316  26.001  24.069  1.00  0.00     0.065 C 
ATOM      9  C   UNL A   1      32.639  24.678  24.239  1.00  0.00     0.024 A 
ATOM     10  N   UNL A   1      33.323  23.468  24.205  1.00  0.00    -0.314 N 
ATOM     11  C   UNL A   1      31.135  23.009  24.207  1.00  0.00     0.033 A 
ATOM     12  C   UNL A   1      32.391  22.435  24.110  1.00  0.00     0.053 A 
BRANCH  10  13
ATOM     13  C   UNL A   1      34.730  23.320  24.321  1.00  0.00     0.046 A 
ATOM     14  C   UNL A   1      35.496  22.946  23.214  1.00  0.00     0.026 A 
ATOM     15  C   UNL A   1      35.330  23.501  25.573  1.00  0.00     0.026 A 
ATOM     16  C   UNL A   1      36.871  22.772  23.362  1.00  0.00     0.002 A 
ATOM     17  C   UNL A   1      36.702  23.304  25.717  1.00  0.00     0.002 A 
ATOM     18  C   UNL A   1      37.472  22.946  24.611  1.00  0.00     0.000 A 
ENDBRANCH  10  13
BRANCH  12  19
ATOM     19  C   UNL A   1      32.693  21.002  24.115  1.00  0.00    -0.001 A 
ATOM     20  C   UNL A   1      32.209  20.174  23.091  1.00  0.00     0.011 A 
ATOM     21  C   UNL A   1      33.518  20.458  25.108  1.00  0.00     0.011 A 
ATOM     22  C   UNL A   1      32.508  18.813  23.079  1.00  0.00     0.021 A 
ATOM     23  C   UNL A   1      33.821  19.094  25.103  1.00  0.00     0.021 A 
ATOM     24  C   UNL A   1      33.300  18.278  24.096  1.00  0.00     0.067 A 
BRANCH  24  25
ATOM     25  S   UNL A   1      33.659  16.539  24.087  1.00  0.00     0.175 S 
ATOM     26  C   UNL A   1      35.086  16.402  25.133  1.00  0.00     0.163 C 
ATOM     27  O   UNL A   1      32.541  15.876  24.755  1.00  0.00    -0.224 OA
ATOM     28  O   UNL A   1      34.051  16.170  22.752  1.00  0.00    -0.224 OA
ENDBRANCH  24  25
ENDBRANCH  12  19
ENDBRANCH   6   7
ENDBRANCH   3   6
ENDBRANCH   1   2
BRANCH   1  29
ATOM     29  C   UNL A   1      31.524  28.980  27.032  1.00  0.00     0.042 C 
BRANCH  29  30
ATOM     30  C   UNL A   1      32.016  30.161  26.117  1.00  0.00     0.118 C 
BRANCH  30  31
ATOM     31  N   UNL A   1      32.384  31.393  26.876  1.00  0.00    -0.352 N 
ATOM     32  C   UNL A   1      33.453  32.016  27.519  1.00  0.00     0.251 C 
ATOM     33  H   UNL A   1      31.590  31.972  26.945  1.00  0.00     0.163 HD
ATOM     34  O   UNL A   1      33.132  33.081  28.071  1.00  0.00    -0.269 OA
BRANCH  32  35
ATOM     35  C   UNL A   1      34.933  31.655  27.647  1.00  0.00     0.039 A 
ATOM     36  C   UNL A   1      35.331  30.293  27.695  1.00  0.00     0.014 A 
ATOM     37  C   UNL A   1      35.948  32.515  28.009  1.00  0.00     0.014 A 
ATOM     38  C   UNL A   1      36.664  29.815  28.092  1.00  0.00     0.010 A 
ATOM     39  C   UNL A   1      37.278  32.021  28.409  1.00  0.00     0.010 A 
ATOM     40  C   UNL A   1      37.721  30.650  28.528  1.00  0.00    -0.014 A 
BRANCH  40  41
ATOM     41  C   UNL A   1      38.943  29.952  29.513  1.00  0.00     0.031 A 
ATOM     42  C   UNL A   1      38.301  29.789  30.882  1.00  0.00     0.074 A 
ATOM     43  C   UNL A   1      40.336  29.858  29.818  1.00  0.00     0.049 A 
ATOM     44  N   UNL A   1      38.730  30.616  31.788  1.00  0.00    -0.248 NA
ATOM     45  C   UNL A   1      36.931  29.340  31.127  1.00  0.00     0.031 C 
ATOM     46  C   UNL A   1      40.900  29.017  30.965  1.00  0.00     0.029 A 
ATOM     47  N   UNL A   1      41.554  30.443  29.392  1.00  0.00    -0.354 N 
ATOM     48  C   UNL A   1      37.600  31.288  32.121  1.00  0.00     0.074 A 
ATOM     49  C   UNL A   1      36.500  30.362  31.880  1.00  0.00     0.031 C 
ATOM     50  C   UNL A   1      42.244  29.133  31.109  1.00  0.00     0.029 A 
ATOM     51  C   UNL A   1      42.753  30.088  30.147  1.00  0.00     0.049 A 
ATOM     52  H   UNL A   1      41.590  31.060  28.625  1.00  0.00     0.167 HD
ATOM     53  C   UNL A   1      37.624  32.642  32.193  1.00  0.00     0.037 A 
ATOM     54  C   UNL A   1      44.035  30.612  30.114  1.00  0.00     0.037 A 
ATOM     55  C   UNL A   1      38.768  33.287  31.528  1.00  0.00     0.049 A 
ATOM     56  C   UNL A   1      43.773  32.069  30.262  1.00  0.00     0.074 A 
ATOM     57  C   UNL A   1      39.398  33.157  30.306  1.00  0.00     0.029 A 
ATOM     58  N   UNL A   1      39.636  34.137  32.187  1.00  0.00    -0.354 N 
ATOM     59  N   UNL A   1      43.741  32.708  31.400  1.00  0.00    -0.248 NA
ATOM     60  C   UNL A   1      43.553  32.867  29.065  1.00  0.00     0.031 C 
ATOM     61  C   UNL A   1      40.268  34.229  30.083  1.00  0.00     0.029 A 
ATOM     62  C   UNL A   1      40.749  34.375  31.362  1.00  0.00     0.049 A 
ATOM     63  H   UNL A   1      39.498  34.514  33.085  1.00  0.00     0.167 HD
ATOM     64  C   UNL A   1      43.093  33.886  31.085  1.00  0.00     0.074 A 
ATOM     65  C   UNL A   1      43.190  34.009  29.639  1.00  0.00     0.031 C 
ATOM     66  C   UNL A   1      42.087  34.314  31.897  1.00  0.00     0.037 A 
BRANCH  53  67
ATOM     67  C   UNL A   1      36.510  33.402  32.829  1.00  0.00     0.057 A 
ATOM     68  C   UNL A   1      36.357  33.519  34.225  1.00  0.00     0.134 A 
ATOM     69  C   UNL A   1      35.690  34.232  32.053  1.00  0.00     0.134 A 
ATOM     70  F   UNL A   1      37.104  32.818  35.090  1.00  0.00    -0.206 F 
ATOM     71  C   UNL A   1      35.486  34.433  34.808  1.00  0.00     0.040 A 
ATOM     72  C   UNL A   1      34.872  35.205  32.627  1.00  0.00     0.040 A 
ATOM     73  F   UNL A   1      35.700  34.176  30.713  1.00  0.00    -0.206 F 
ATOM     74  C   UNL A   1      34.778  35.315  34.010  1.00  0.00     0.006 A 
ENDBRANCH  53  67
BRANCH  54  75
ATOM     75  C   UNL A   1      45.519  30.394  30.462  1.00  0.00     0.057 A 
ATOM     76  C   UNL A   1      46.196  30.289  31.684  1.00  0.00     0.134 A 
ATOM     77  C   UNL A   1      46.400  30.438  29.337  1.00  0.00     0.134 A 
ATOM     78  F   UNL A   1      45.527  30.252  32.844  1.00  0.00    -0.206 F 
ATOM     79  C   UNL A   1      47.624  30.238  31.765  1.00  0.00     0.040 A 
ATOM     80  C   UNL A   1      47.805  30.425  29.402  1.00  0.00     0.040 A 
ATOM     81  F   UNL A   1      45.892  30.501  28.096  1.00  0.00    -0.206 F 
ATOM     82  C   UNL A   1      48.431  30.318  30.627  1.00  0.00     0.006 A 
ENDBRANCH  54  75
BRANCH  66  83
ATOM     83  C   UNL A   1      42.306  34.266  33.357  1.00  0.00     0.057 A 
ATOM     84  C   UNL A   1      42.625  35.469  33.982  1.00  0.00     0.134 A 
ATOM     85  C   UNL A   1      41.945  33.173  34.155  1.00  0.00     0.134 A 
ATOM     86  F   UNL A   1      42.981  36.538  33.252  1.00  0.00    -0.206 F 
ATOM     87  C   UNL A   1      42.481  35.620  35.355  1.00  0.00     0.040 A 
ATOM     88  C   UNL A   1      41.765  33.322  35.527  1.00  0.00     0.040 A 
ATOM     89  F   UNL A   1      41.615  31.995  33.606  1.00  0.00    -0.206 F 
ATOM     90  C   UNL A   1      42.015  34.556  36.126  1.00  0.00     0.006 A 
ENDBRANCH  66  83
ENDBRANCH  40  41
ENDBRANCH  32  35
ENDBRANCH  30  31
ENDBRANCH  29  30
ENDBRANCH   1  29
TORSDOF 14
ENDMDL
MODEL 2
REMARK VINA RESULT:     -13.1      4.637      9.711
REMARK SMILES Cc1c(CC(=O)NCCCNC(=O)c2ccc(-c3c4nc(c(-c5c(F)cccc5F)c5ccc([nH]5)c(-c5c(F)cccc5F)c5nc(c(-c6c(F)cccc6F)c6ccc3[nH]6)C=C5)C=C4)cc2)cc(-c2ccc(S(C)(=O)=O)cc2)n1-c1ccccc1
REMARK SMILES IDX 8 1 7 2 5 3 6 4 4 6 3 7 1 8 2 9 80 10 68 11 69 12 81 13
REMARK SMILES IDX 82 14 86 15 83 16 85 17 84 18 70 19 71 20 79 21 72 22 78 23
REMARK SMILES IDX 73 24 74 25 75 26 76 27 77 28 9 29 10 30 11 31 12 32 13 34
REMARK SMILES IDX 14 35 15 36 67 37 16 38 66 39 17 40 18 41 19 42 60 43 20 44
REMARK SMILES IDX 65 45 59 46 61 47 21 48 64 49 58 50 57 51 22 53 48 54 31 55
REMARK SMILES IDX 47 56 32 57 35 58 46 59 62 60 33 61 34 62 45 64 63 65 36 66
REMARK SMILES IDX 23 67 24 68 29 69 25 70 26 71 28 72 30 73 27 74 49 75 50 76
REMARK SMILES IDX 55 77 51 78 52 79 54 80 56 81 53 82 37 83 38 84 43 85 39 86
REMARK SMILES IDX 40 87 42 88 44 89 41 90
REMARK H PARENT 7 5 11 33 61 52 35 63
REMARK Flexibility Score: inf
ROOT
ATOM      1  C   UNL A   1      33.853  20.896  24.572  1.00  0.00     0.117 C 
ENDROOT
BRANCH   1   2
ATOM      2  N   UNL A   1      33.764  21.537  23.265  1.00  0.00    -0.356 N 
ATOM      3  C   UNL A   1      32.824  22.385  22.735  1.00  0.00     0.224 C 
ATOM      4  O   UNL A   1      33.144  23.008  21.715  1.00  0.00    -0.275 OA
ATOM      5  H   UNL A   1      34.509  21.325  22.657  1.00  0.00     0.163 HD
BRANCH   3   6
ATOM      6  C   UNL A   1      31.449  22.606  23.359  1.00  0.00     0.137 C 
BRANCH   6   7
ATOM      7  C   UNL A   1      31.251  23.993  23.877  1.00  0.00    -0.017 A 
ATOM      8  C   UNL A   1      32.595  23.917  26.104  1.00  0.00     0.065 C 
ATOM      9  C   UNL A   1      31.819  24.569  25.003  1.00  0.00     0.024 A 
ATOM     10  N   UNL A   1      31.505  25.924  24.998  1.00  0.00    -0.314 N 
ATOM     11  C   UNL A   1      30.379  24.962  23.325  1.00  0.00     0.033 A 
ATOM     12  C   UNL A   1      30.555  26.155  24.005  1.00  0.00     0.053 A 
BRANCH  10  13
ATOM     13  C   UNL A   1      32.111  26.906  25.824  1.00  0.00     0.046 A 
ATOM     14  C   UNL A   1      31.390  27.501  26.863  1.00  0.00     0.026 A 
ATOM     15  C   UNL A   1      33.423  27.310  25.547  1.00  0.00     0.026 A 
ATOM     16  C   UNL A   1      31.996  28.491  27.636  1.00  0.00     0.002 A 
ATOM     17  C   UNL A   1      34.013  28.315  26.312  1.00  0.00     0.002 A 
ATOM     18  C   UNL A   1      33.302  28.900  27.359  1.00  0.00     0.000 A 
ENDBRANCH  10  13
BRANCH  12  19
ATOM     19  C   UNL A   1      30.007  27.459  23.627  1.00  0.00    -0.001 A 
ATOM     20  C   UNL A   1      30.865  28.521  23.307  1.00  0.00     0.011 A 
ATOM     21  C   UNL A   1      28.621  27.639  23.524  1.00  0.00     0.011 A 
ATOM     22  C   UNL A   1      30.350  29.759  22.929  1.00  0.00     0.021 A 
ATOM     23  C   UNL A   1      28.097  28.878  23.146  1.00  0.00     0.021 A 
ATOM     24  C   UNL A   1      28.967  29.935  22.866  1.00  0.00     0.067 A 
BRANCH  24  25
ATOM     25  S   UNL A   1      28.317  31.521  22.405  1.00  0.00     0.175 S 
ATOM     26  C   UNL A   1      27.862  31.307  20.703  1.00  0.00     0.163 C 
ATOM     27  O   UNL A   1      27.094  31.716  23.181  1.00  0.00    -0.224 OA
ATOM     28  O   UNL A   1      29.392  32.478  22.459  1.00  0.00    -0.224 OA
ENDBRANCH  24  25
ENDBRANCH  12  19
ENDBRANCH   6   7
ENDBRANCH   3   6
ENDBRANCH   1   2
BRANCH   1  29
ATOM     29  C   UNL A   1      35.275  20.680  25.183  1.00  0.00     0.042 C 
BRANCH  29  30
ATOM     30  C   UNL A   1      36.445  21.699  24.919  1.00  0.00     0.118 C 
BRANCH  30  31
ATOM     31  N   UNL A   1      37.796  21.157  25.245  1.00  0.00    -0.352 N 
ATOM     32  C   UNL A   1      38.974  21.462  25.927  1.00  0.00     0.251 C 
ATOM     33  H   UNL A   1      37.889  20.267  24.834  1.00  0.00     0.163 HD
ATOM     34  O   UNL A   1      39.852  20.595  25.789  1.00  0.00    -0.269 OA
BRANCH  32  35
ATOM     35  C   UNL A   1      39.372  22.633  26.826  1.00  0.00     0.039 A 
ATOM     36  C   UNL A   1      38.748  23.897  26.666  1.00  0.00     0.014 A 
ATOM     37  C   UNL A   1      40.496  22.696  27.622  1.00  0.00     0.014 A 
ATOM     38  C   UNL A   1      39.222  25.156  27.258  1.00  0.00     0.010 A 
ATOM     39  C   UNL A   1      40.963  23.967  28.205  1.00  0.00     0.010 A 
ATOM     40  C   UNL A   1      40.400  25.287  28.032  1.00  0.00    -0.014 A 
BRANCH  40  41
ATOM     41  C   UNL A   1      41.137  26.836  28.120  1.00  0.00     0.031 A 
ATOM     42  C   UNL A   1      42.009  26.930  26.878  1.00  0.00     0.074 A 
ATOM     43  C   UNL A   1      41.678  27.867  28.949  1.00  0.00     0.049 A 
ATOM     44  N   UNL A   1      43.287  26.851  27.101  1.00  0.00    -0.248 NA
ATOM     45  C   UNL A   1      41.637  26.460  25.544  1.00  0.00     0.031 C 
ATOM     46  C   UNL A   1      42.310  29.150  28.407  1.00  0.00     0.029 A 
ATOM     47  N   UNL A   1      41.937  28.092  30.323  1.00  0.00    -0.354 N 
ATOM     48  C   UNL A   1      43.634  25.744  26.398  1.00  0.00     0.074 A 
ATOM     49  C   UNL A   1      42.681  25.655  25.299  1.00  0.00     0.031 C 
ATOM     50  C   UNL A   1      42.819  29.953  29.375  1.00  0.00     0.029 A 
ATOM     51  C   UNL A   1      42.660  29.315  30.664  1.00  0.00     0.049 A 
ATOM     52  H   UNL A   1      41.644  27.455  31.015  1.00  0.00     0.167 HD
ATOM     53  C   UNL A   1      44.409  24.797  26.984  1.00  0.00     0.037 A 
ATOM     54  C   UNL A   1      43.223  29.734  31.859  1.00  0.00     0.037 A 
ATOM     55  C   UNL A   1      44.486  24.866  28.451  1.00  0.00     0.049 A 
ATOM     56  C   UNL A   1      44.045  28.553  32.240  1.00  0.00     0.074 A 
ATOM     57  C   UNL A   1      43.576  25.019  29.480  1.00  0.00     0.029 A 
ATOM     58  N   UNL A   1      45.682  24.979  29.135  1.00  0.00    -0.354 N 
ATOM     59  N   UNL A   1      45.300  28.384  31.922  1.00  0.00    -0.248 NA
ATOM     60  C   UNL A   1      43.433  27.503  33.042  1.00  0.00     0.031 C 
ATOM     61  C   UNL A   1      44.171  24.727  30.712  1.00  0.00     0.029 A 
ATOM     62  C   UNL A   1      45.408  25.279  30.480  1.00  0.00     0.049 A 
ATOM     63  H   UNL A   1      46.578  24.867  28.744  1.00  0.00     0.167 HD
ATOM     64  C   UNL A   1      45.501  27.034  32.130  1.00  0.00     0.074 A 
ATOM     65  C   UNL A   1      44.412  26.605  32.992  1.00  0.00     0.031 C 
ATOM     66  C   UNL A   1      46.141  26.315  31.167  1.00  0.00     0.037 A 
BRANCH  53  67
ATOM     67  C   UNL A   1      45.052  23.720  26.177  1.00  0.00     0.057 A 
ATOM     68  C   UNL A   1      44.545  22.407  26.105  1.00  0.00     0.134 A 
ATOM     69  C   UNL A   1      46.068  24.034  25.264  1.00  0.00     0.134 A 
ATOM     70  F   UNL A   1      43.544  21.981  26.886  1.00  0.00    -0.206 F 
ATOM     71  C   UNL A   1      44.984  21.488  25.158  1.00  0.00     0.040 A 
ATOM     72  C   UNL A   1      46.459  23.147  24.263  1.00  0.00     0.040 A 
ATOM     73  F   UNL A   1      46.671  25.232  25.270  1.00  0.00    -0.206 F 
ATOM     74  C   UNL A   1      45.907  21.872  24.200  1.00  0.00     0.006 A 
ENDBRANCH  53  67
BRANCH  54  75
ATOM     75  C   UNL A   1      43.758  30.923  32.678  1.00  0.00     0.057 A 
ATOM     76  C   UNL A   1      44.897  31.726  32.542  1.00  0.00     0.134 A 
ATOM     77  C   UNL A   1      43.032  31.182  33.882  1.00  0.00     0.134 A 
ATOM     78  F   UNL A   1      45.705  31.607  31.480  1.00  0.00    -0.206 F 
ATOM     79  C   UNL A   1      45.272  32.694  33.528  1.00  0.00     0.040 A 
ATOM     80  C   UNL A   1      43.406  32.103  34.876  1.00  0.00     0.040 A 
ATOM     81  F   UNL A   1      41.895  30.512  34.131  1.00  0.00    -0.206 F 
ATOM     82  C   UNL A   1      44.535  32.875  34.701  1.00  0.00     0.006 A 
ENDBRANCH  54  75
BRANCH  66  83
ATOM     83  C   UNL A   1      47.360  26.893  30.563  1.00  0.00     0.057 A 
ATOM     84  C   UNL A   1      48.578  26.396  31.018  1.00  0.00     0.134 A 
ATOM     85  C   UNL A   1      47.347  27.677  29.403  1.00  0.00     0.134 A 
ATOM     86  F   UNL A   1      48.632  25.644  32.129  1.00  0.00    -0.206 F 
ATOM     87  C   UNL A   1      49.742  26.576  30.281  1.00  0.00     0.040 A 
ATOM     88  C   UNL A   1      48.501  27.835  28.640  1.00  0.00     0.040 A 
ATOM     89  F   UNL A   1      46.201  28.169  28.912  1.00  0.00    -0.206 F 
ATOM     90  C   UNL A   1      49.698  27.266  29.070  1.00  0.00     0.006 A 
ENDBRANCH  66  83
ENDBRANCH  40  41
ENDBRANCH  32  35
ENDBRANCH  30  31
ENDBRANCH  29  30
ENDBRANCH   1  29
TORSDOF 14
ENDMDL
MODEL 3
REMARK VINA RESULT:     -13.0      5.065      9.290
REMARK SMILES Cc1c(CC(=O)NCCCNC(=O)c2ccc(-c3c4nc(c(-c5c(F)cccc5F)c5ccc([nH]5)c(-c5c(F)cccc5F)c5nc(c(-c6c(F)cccc6F)c6ccc3[nH]6)C=C5)C=C4)cc2)cc(-c2ccc(S(C)(=O)=O)cc2)n1-c1ccccc1
REMARK SMILES IDX 8 1 7 2 5 3 6 4 4 6 3 7 1 8 2 9 80 10 68 11 69 12 81 13
REMARK SMILES IDX 82 14 86 15 83 16 85 17 84 18 70 19 71 20 79 21 72 22 78 23
REMARK SMILES IDX 73 24 74 25 75 26 76 27 77 28 9 29 10 30 11 31 12 32 13 34
REMARK SMILES IDX 14 35 15 36 67 37 16 38 66 39 17 40 18 41 19 42 60 43 20 44
REMARK SMILES IDX 65 45 59 46 61 47 21 48 64 49 58 50 57 51 22 53 48 54 31 55
REMARK SMILES IDX 47 56 32 57 35 58 46 59 62 60 33 61 34 62 45 64 63 65 36 66
REMARK SMILES IDX 23 67 24 68 29 69 25 70 26 71 28 72 30 73 27 74 49 75 50 76
REMARK SMILES IDX 55 77 51 78 52 79 54 80 56 81 53 82 37 83 38 84 43 85 39 86
REMARK SMILES IDX 40 87 42 88 44 89 41 90
REMARK H PARENT 7 5 11 33 61 52 35 63
REMARK Flexibility Score: inf
ROOT
ATOM      1  C   UNL A   1      35.361  22.397  24.384  1.00  0.00     0.117 C 
ENDROOT
BRANCH   1   2
ATOM      2  N   UNL A   1      34.917  22.629  23.014  1.00  0.00    -0.356 N 
ATOM      3  C   UNL A   1      33.691  22.979  22.506  1.00  0.00     0.224 C 
ATOM      4  O   UNL A   1      33.666  23.394  21.341  1.00  0.00    -0.275 OA
ATOM      5  H   UNL A   1      35.620  22.513  22.334  1.00  0.00     0.163 HD
BRANCH   3   6
ATOM      6  C   UNL A   1      32.399  22.911  23.316  1.00  0.00     0.137 C 
BRANCH   6   7
ATOM      7  C   UNL A   1      31.955  24.239  23.834  1.00  0.00    -0.017 A 
ATOM      8  C   UNL A   1      33.174  24.341  26.131  1.00  0.00     0.065 C 
ATOM      9  C   UNL A   1      32.363  24.880  24.994  1.00  0.00     0.024 A 
ATOM     10  N   UNL A   1      31.838  26.167  24.983  1.00  0.00    -0.314 N 
ATOM     11  C   UNL A   1      30.970  25.067  23.242  1.00  0.00     0.033 A 
ATOM     12  C   UNL A   1      30.916  26.261  23.941  1.00  0.00     0.053 A 
BRANCH  10  13
ATOM     13  C   UNL A   1      32.234  27.219  25.850  1.00  0.00     0.046 A 
ATOM     14  C   UNL A   1      31.381  27.659  26.865  1.00  0.00     0.026 A 
ATOM     15  C   UNL A   1      33.468  27.846  25.635  1.00  0.00     0.026 A 
ATOM     16  C   UNL A   1      31.779  28.719  27.679  1.00  0.00     0.002 A 
ATOM     17  C   UNL A   1      33.847  28.919  26.440  1.00  0.00     0.002 A 
ATOM     18  C   UNL A   1      33.006  29.351  27.465  1.00  0.00     0.000 A 
ENDBRANCH  10  13
BRANCH  12  19
ATOM     19  C   UNL A   1      30.188  27.467  23.544  1.00  0.00    -0.001 A 
ATOM     20  C   UNL A   1      30.885  28.599  23.096  1.00  0.00     0.011 A 
ATOM     21  C   UNL A   1      28.787  27.480  23.553  1.00  0.00     0.011 A 
ATOM     22  C   UNL A   1      30.196  29.744  22.700  1.00  0.00     0.021 A 
ATOM     23  C   UNL A   1      28.089  28.625  23.157  1.00  0.00     0.021 A 
ATOM     24  C   UNL A   1      28.801  29.755  22.749  1.00  0.00     0.067 A 
BRANCH  24  25
ATOM     25  S   UNL A   1      27.932  31.225  22.263  1.00  0.00     0.175 S 
ATOM     26  C   UNL A   1      29.155  32.502  22.412  1.00  0.00     0.163 C 
ATOM     27  O   UNL A   1      27.606  31.071  20.847  1.00  0.00    -0.224 OA
ATOM     28  O   UNL A   1      26.904  31.480  23.239  1.00  0.00    -0.224 OA
ENDBRANCH  24  25
ENDBRANCH  12  19
ENDBRANCH   6   7
ENDBRANCH   3   6
ENDBRANCH   1   2
BRANCH   1  29
ATOM     29  C   UNL A   1      36.640  21.526  24.598  1.00  0.00     0.042 C 
BRANCH  29  30
ATOM     30  C   UNL A   1      37.849  22.042  25.463  1.00  0.00     0.118 C 
BRANCH  30  31
ATOM     31  N   UNL A   1      38.756  20.954  25.934  1.00  0.00    -0.352 N 
ATOM     32  C   UNL A   1      40.103  20.641  26.118  1.00  0.00     0.251 C 
ATOM     33  H   UNL A   1      38.210  20.185  26.215  1.00  0.00     0.163 HD
ATOM     34  O   UNL A   1      40.280  19.476  26.509  1.00  0.00    -0.269 OA
BRANCH  32  35
ATOM     35  C   UNL A   1      41.384  21.461  25.961  1.00  0.00     0.039 A 
ATOM     36  C   UNL A   1      42.650  20.822  26.028  1.00  0.00     0.014 A 
ATOM     37  C   UNL A   1      41.480  22.834  26.037  1.00  0.00     0.014 A 
ATOM     38  C   UNL A   1      43.939  21.513  26.173  1.00  0.00     0.010 A 
ATOM     39  C   UNL A   1      42.780  23.513  26.186  1.00  0.00     0.010 A 
ATOM     40  C   UNL A   1      44.089  22.914  26.314  1.00  0.00    -0.014 A 
BRANCH  40  41
ATOM     41  C   UNL A   1      45.516  23.498  27.072  1.00  0.00     0.031 A 
ATOM     42  C   UNL A   1      45.095  23.847  28.491  1.00  0.00     0.074 A 
ATOM     43  C   UNL A   1      46.746  24.214  26.937  1.00  0.00     0.049 A 
ATOM     44  N   UNL A   1      45.029  25.120  28.743  1.00  0.00    -0.248 NA
ATOM     45  C   UNL A   1      44.191  23.055  29.325  1.00  0.00     0.031 C 
ATOM     46  C   UNL A   1      47.700  24.493  28.099  1.00  0.00     0.029 A 
ATOM     47  N   UNL A   1      47.444  24.935  25.938  1.00  0.00    -0.354 N 
ATOM     48  C   UNL A   1      43.722  25.280  29.071  1.00  0.00     0.074 A 
ATOM     49  C   UNL A   1      43.292  24.003  29.629  1.00  0.00     0.031 C 
ATOM     50  C   UNL A   1      48.771  25.249  27.749  1.00  0.00     0.029 A 
ATOM     51  C   UNL A   1      48.662  25.626  26.355  1.00  0.00     0.049 A 
ATOM     52  H   UNL A   1      47.125  24.969  25.006  1.00  0.00     0.167 HD
ATOM     53  C   UNL A   1      43.012  26.293  28.514  1.00  0.00     0.037 A 
ATOM     54  C   UNL A   1      49.457  26.547  25.693  1.00  0.00     0.037 A 
ATOM     55  C   UNL A   1      43.611  26.892  27.311  1.00  0.00     0.049 A 
ATOM     56  C   UNL A   1      48.452  27.548  25.242  1.00  0.00     0.074 A 
ATOM     57  C   UNL A   1      44.185  26.410  26.150  1.00  0.00     0.029 A 
ATOM     58  N   UNL A   1      43.897  28.241  27.208  1.00  0.00    -0.354 N 
ATOM     59  N   UNL A   1      48.104  28.611  25.916  1.00  0.00    -0.248 NA
ATOM     60  C   UNL A   1      47.809  27.362  23.950  1.00  0.00     0.031 C 
ATOM     61  C   UNL A   1      44.332  27.435  25.210  1.00  0.00     0.029 A 
ATOM     62  C   UNL A   1      44.686  28.451  26.065  1.00  0.00     0.049 A 
ATOM     63  H   UNL A   1      43.597  28.939  27.834  1.00  0.00     0.167 HD
ATOM     64  C   UNL A   1      46.916  28.988  25.324  1.00  0.00     0.074 A 
ATOM     65  C   UNL A   1      46.899  28.328  24.028  1.00  0.00     0.031 C 
ATOM     66  C   UNL A   1      45.856  29.292  26.123  1.00  0.00     0.037 A 
BRANCH  53  67
ATOM     67  C   UNL A   1      41.678  26.687  29.051  1.00  0.00     0.057 A 
ATOM     68  C   UNL A   1      41.516  27.612  30.102  1.00  0.00     0.134 A 
ATOM     69  C   UNL A   1      40.509  26.324  28.369  1.00  0.00     0.134 A 
ATOM     70  F   UNL A   1      42.551  28.081  30.812  1.00  0.00    -0.206 F 
ATOM     71  C   UNL A   1      40.283  28.173  30.420  1.00  0.00     0.040 A 
ATOM     72  C   UNL A   1      39.284  26.939  28.628  1.00  0.00     0.040 A 
ATOM     73  F   UNL A   1      40.523  25.411  27.387  1.00  0.00    -0.206 F 
ATOM     74  C   UNL A   1      39.172  27.876  29.649  1.00  0.00     0.006 A 
ENDBRANCH  53  67
BRANCH  54  75
ATOM     75  C   UNL A   1      50.830  27.240  25.620  1.00  0.00     0.057 A 
ATOM     76  C   UNL A   1      51.780  27.346  24.597  1.00  0.00     0.134 A 
ATOM     77  C   UNL A   1      51.291  27.764  26.868  1.00  0.00     0.134 A 
ATOM     78  F   UNL A   1      51.523  26.891  23.364  1.00  0.00    -0.206 F 
ATOM     79  C   UNL A   1      53.074  27.921  24.812  1.00  0.00     0.040 A 
ATOM     80  C   UNL A   1      52.570  28.298  27.104  1.00  0.00     0.040 A 
ATOM     81  F   UNL A   1      50.473  27.762  27.933  1.00  0.00    -0.206 F 
ATOM     82  C   UNL A   1      53.474  28.387  26.066  1.00  0.00     0.006 A 
ENDBRANCH  54  75
BRANCH  66  83
ATOM     83  C   UNL A   1      46.099  30.154  27.299  1.00  0.00     0.057 A 
ATOM     84  C   UNL A   1      45.732  31.492  27.179  1.00  0.00     0.134 A 
ATOM     85  C   UNL A   1      46.401  29.653  28.571  1.00  0.00     0.134 A 
ATOM     86  F   UNL A   1      45.439  32.010  25.976  1.00  0.00    -0.206 F 
ATOM     87  C   UNL A   1      45.560  32.287  28.305  1.00  0.00     0.040 A 
ATOM     88  C   UNL A   1      46.200  30.431  29.708  1.00  0.00     0.040 A 
ATOM     89  F   UNL A   1      46.746  28.370  28.747  1.00  0.00    -0.206 F 
ATOM     90  C   UNL A   1      45.758  31.747  29.575  1.00  0.00     0.006 A 
ENDBRANCH  66  83
ENDBRANCH  40  41
ENDBRANCH  32  35
ENDBRANCH  30  31
ENDBRANCH  29  30
ENDBRANCH   1  29
TORSDOF 14
ENDMDL
