MODEL 1
REMARK VINA RESULT:     -12.3      0.000      0.000
REMARK SMILES O=C(NCCCNC(=O)[C@H]1CC[C@@H]2CCCC[C@@H]2N1C(=O)Cc1ccn[nH]1)c1ccc(-c2c3nc(c(-c4c(F)cccc4F)c4ccc([nH]4)c(-c4c(F)cccc4F)c4nc(c(-c5c(F)cccc5F)c5ccc2[nH]5)C=C4)C=C3)cc1
REMARK SMILES IDX 5 1 4 2 3 3 1 4 2 5 28 7 29 8 81 9 30 10 80 11 31 12 32 13
REMARK SMILES IDX 33 14 74 15 34 16 79 17 73 18 75 19 35 20 78 21 72 22 71 23
REMARK SMILES IDX 36 25 62 26 45 27 61 28 46 29 49 30 60 31 76 32 47 33 48 34
REMARK SMILES IDX 59 36 77 37 50 38 37 39 38 40 43 41 39 42 40 43 42 44 44 45
REMARK SMILES IDX 41 46 63 47 64 48 69 49 65 50 66 51 68 52 70 53 67 54 51 55
REMARK SMILES IDX 52 56 57 57 53 58 54 59 56 60 58 61 55 62 6 63 7 64 8 65
REMARK SMILES IDX 9 67 10 68 11 69 19 70 12 71 18 72 13 73 17 74 14 75 16 76
REMARK SMILES IDX 15 77 20 78 21 79 22 80 23 81 24 82 27 83 25 84 26 85
REMARK H PARENT 3 6 75 24 49 35 7 66 27 86
REMARK Flexibility Score: inf
ROOT
ATOM      1  C   UNL A   1      37.858  20.513  25.274  1.00  0.00     0.042 C 
ENDROOT
BRANCH   1   2
ATOM      2  C   UNL A   1      39.218  20.515  25.942  1.00  0.00     0.118 C 
BRANCH   2   3
ATOM      3  N   UNL A   1      40.019  19.311  25.751  1.00  0.00    -0.352 N 
ATOM      4  O   UNL A   1      41.964  18.130  25.901  1.00  0.00    -0.269 OA
ATOM      5  C   UNL A   1      41.365  19.193  26.012  1.00  0.00     0.251 C 
ATOM      6  H   UNL A   1      39.556  18.513  25.405  1.00  0.00     0.163 HD
BRANCH   5   7
ATOM      7  C   UNL A   1      42.083  20.428  26.385  1.00  0.00     0.039 A 
ATOM      8  C   UNL A   1      42.202  20.774  27.733  1.00  0.00     0.014 A 
ATOM      9  C   UNL A   1      42.436  21.327  25.376  1.00  0.00     0.014 A 
ATOM     10  C   UNL A   1      42.515  22.084  28.070  1.00  0.00     0.010 A 
ATOM     11  C   UNL A   1      42.836  22.617  25.723  1.00  0.00     0.010 A 
ATOM     12  C   UNL A   1      42.835  23.019  27.069  1.00  0.00    -0.014 A 
BRANCH  12  13
ATOM     13  C   UNL A   1      43.225  24.397  27.452  1.00  0.00     0.031 A 
ATOM     14  C   UNL A   1      42.203  25.409  27.890  1.00  0.00     0.074 A 
ATOM     15  C   UNL A   1      44.529  24.726  27.394  1.00  0.00     0.049 A 
ATOM     16  N   UNL A   1      42.375  26.673  28.189  1.00  0.00    -0.248 NA
ATOM     17  C   UNL A   1      40.807  24.954  28.002  1.00  0.00     0.031 C 
ATOM     18  C   UNL A   1      45.607  23.824  26.983  1.00  0.00     0.029 A 
ATOM     19  N   UNL A   1      45.169  25.905  27.671  1.00  0.00    -0.354 N 
ATOM     20  C   UNL A   1      41.115  27.170  28.499  1.00  0.00     0.074 A 
ATOM     21  C   UNL A   1      40.182  26.074  28.345  1.00  0.00     0.031 C 
ATOM     22  C   UNL A   1      46.775  24.477  27.046  1.00  0.00     0.029 A 
ATOM     23  C   UNL A   1      46.521  25.858  27.434  1.00  0.00     0.049 A 
ATOM     24  H   UNL A   1      44.706  26.706  28.007  1.00  0.00     0.167 HD
ATOM     25  C   UNL A   1      40.777  28.426  28.876  1.00  0.00     0.037 A 
ATOM     26  C   UNL A   1      47.449  26.830  27.476  1.00  0.00     0.037 A 
ATOM     27  C   UNL A   1      41.720  29.502  29.056  1.00  0.00     0.049 A 
ATOM     28  C   UNL A   1      47.033  28.219  27.857  1.00  0.00     0.074 A 
ATOM     29  C   UNL A   1      41.481  30.787  29.512  1.00  0.00     0.029 A 
ATOM     30  N   UNL A   1      43.075  29.422  28.779  1.00  0.00    -0.354 N 
ATOM     31  N   UNL A   1      45.847  28.661  28.196  1.00  0.00    -0.248 NA
ATOM     32  C   UNL A   1      48.082  29.247  27.850  1.00  0.00     0.031 C 
ATOM     33  C   UNL A   1      42.682  31.501  29.458  1.00  0.00     0.029 A 
ATOM     34  C   UNL A   1      43.678  30.647  29.013  1.00  0.00     0.049 A 
ATOM     35  H   UNL A   1      43.542  28.614  28.462  1.00  0.00     0.167 HD
ATOM     36  C   UNL A   1      46.006  30.016  28.448  1.00  0.00     0.074 A 
ATOM     37  C   UNL A   1      47.410  30.316  28.253  1.00  0.00     0.031 C 
ATOM     38  C   UNL A   1      45.073  30.931  28.802  1.00  0.00     0.037 A 
BRANCH  25  39
ATOM     39  C   UNL A   1      39.327  28.736  29.108  1.00  0.00     0.057 A 
ATOM     40  C   UNL A   1      38.721  28.561  30.357  1.00  0.00     0.134 A 
ATOM     41  C   UNL A   1      38.559  29.326  28.094  1.00  0.00     0.134 A 
ATOM     42  F   UNL A   1      39.399  27.998  31.370  1.00  0.00    -0.206 F 
ATOM     43  C   UNL A   1      37.403  28.960  30.591  1.00  0.00     0.040 A 
ATOM     44  C   UNL A   1      37.248  29.745  28.320  1.00  0.00     0.040 A 
ATOM     45  F   UNL A   1      39.083  29.531  26.876  1.00  0.00    -0.206 F 
ATOM     46  C   UNL A   1      36.666  29.564  29.573  1.00  0.00     0.006 A 
ENDBRANCH  25  39
BRANCH  26  47
ATOM     47  C   UNL A   1      48.850  26.529  27.094  1.00  0.00     0.057 A 
ATOM     48  C   UNL A   1      49.803  26.171  28.050  1.00  0.00     0.134 A 
ATOM     49  C   UNL A   1      49.266  26.600  25.758  1.00  0.00     0.134 A 
ATOM     50  F   UNL A   1      49.467  26.104  29.347  1.00  0.00    -0.206 F 
ATOM     51  C   UNL A   1      51.128  25.914  27.696  1.00  0.00     0.040 A 
ATOM     52  C   UNL A   1      50.580  26.316  25.386  1.00  0.00     0.040 A 
ATOM     53  F   UNL A   1      48.396  26.930  24.793  1.00  0.00    -0.206 F 
ATOM     54  C   UNL A   1      51.518  25.981  26.359  1.00  0.00     0.006 A 
ENDBRANCH  26  47
BRANCH  38  55
ATOM     55  C   UNL A   1      45.547  32.339  29.000  1.00  0.00     0.057 A 
ATOM     56  C   UNL A   1      46.048  32.775  30.232  1.00  0.00     0.134 A 
ATOM     57  C   UNL A   1      45.524  33.260  27.946  1.00  0.00     0.134 A 
ATOM     58  F   UNL A   1      46.081  31.944  31.286  1.00  0.00    -0.206 F 
ATOM     59  C   UNL A   1      46.491  34.086  30.416  1.00  0.00     0.040 A 
ATOM     60  C   UNL A   1      45.987  34.566  28.109  1.00  0.00     0.040 A 
ATOM     61  F   UNL A   1      45.060  32.903  26.738  1.00  0.00    -0.206 F 
ATOM     62  C   UNL A   1      46.466  34.984  29.350  1.00  0.00     0.006 A 
ENDBRANCH  38  55
ENDBRANCH  12  13
ENDBRANCH   5   7
ENDBRANCH   2   3
ENDBRANCH   1   2
BRANCH   1  63
ATOM     63  C   UNL A   1      37.211  21.880  25.212  1.00  0.00     0.117 C 
BRANCH  63  64
ATOM     64  N   UNL A   1      36.743  22.267  23.891  1.00  0.00    -0.354 N 
ATOM     65  C   UNL A   1      35.619  22.974  23.561  1.00  0.00     0.242 C 
ATOM     66  H   UNL A   1      37.308  21.984  23.136  1.00  0.00     0.163 HD
ATOM     67  O   UNL A   1      35.440  23.280  22.377  1.00  0.00    -0.273 OA
BRANCH  65  68
ATOM     68  C   UNL A   1      34.508  23.251  24.582  1.00  0.00     0.174 C 
ATOM     69  C   UNL A   1      34.597  24.790  24.655  1.00  0.00     0.036 C 
ATOM     70  N   UNL A   1      33.209  22.657  24.228  1.00  0.00    -0.327 N 
ATOM     71  C   UNL A   1      33.342  25.519  25.037  1.00  0.00     0.008 C 
ATOM     72  C   UNL A   1      31.965  23.464  24.444  1.00  0.00     0.089 C 
ATOM     73  C   UNL A   1      32.150  24.980  24.255  1.00  0.00     0.012 C 
ATOM     74  C   UNL A   1      31.232  23.124  25.774  1.00  0.00     0.025 C 
ATOM     75  C   UNL A   1      30.868  25.722  24.637  1.00  0.00     0.006 C 
ATOM     76  C   UNL A   1      30.980  24.284  26.753  1.00  0.00     0.002 C 
ATOM     77  C   UNL A   1      30.568  25.619  26.126  1.00  0.00     0.000 C 
BRANCH  70  78
ATOM     78  C   UNL A   1      33.055  21.287  23.883  1.00  0.00     0.229 C 
ATOM     79  O   UNL A   1      32.452  20.985  22.844  1.00  0.00    -0.274 OA
BRANCH  78  80
ATOM     80  C   UNL A   1      33.558  20.141  24.801  1.00  0.00     0.155 C 
BRANCH  80  81
ATOM     81  C   UNL A   1      33.649  18.733  24.254  1.00  0.00     0.044 A 
ATOM     82  C   UNL A   1      34.646  17.771  24.251  1.00  0.00     0.045 A 
ATOM     83  N   UNL A   1      32.696  18.219  23.398  1.00  0.00    -0.282 N 
ATOM     84  C   UNL A   1      34.148  16.704  23.471  1.00  0.00     0.135 A 
ATOM     85  N   UNL A   1      32.925  16.953  23.011  1.00  0.00    -0.184 NA
ATOM     86  H   UNL A   1      31.914  18.736  23.097  1.00  0.00     0.190 HD
ENDBRANCH  80  81
ENDBRANCH  78  80
ENDBRANCH  70  78
ENDBRANCH  65  68
ENDBRANCH  63  64
ENDBRANCH   1  63
TORSDOF 13
ENDMDL
MODEL 2
REMARK VINA RESULT:     -12.2      2.927      7.478
REMARK SMILES O=C(NCCCNC(=O)[C@H]1CC[C@@H]2CCCC[C@@H]2N1C(=O)Cc1ccn[nH]1)c1ccc(-c2c3nc(c(-c4c(F)cccc4F)c4ccc([nH]4)c(-c4c(F)cccc4F)c4nc(c(-c5c(F)cccc5F)c5ccc2[nH]5)C=C4)C=C3)cc1
REMARK SMILES IDX 5 1 4 2 3 3 1 4 2 5 28 7 29 8 81 9 30 10 80 11 31 12 32 13
REMARK SMILES IDX 33 14 74 15 34 16 79 17 73 18 75 19 35 20 78 21 72 22 71 23
REMARK SMILES IDX 36 25 62 26 45 27 61 28 46 29 49 30 60 31 76 32 47 33 48 34
REMARK SMILES IDX 59 36 77 37 50 38 37 39 38 40 43 41 39 42 40 43 42 44 44 45
REMARK SMILES IDX 41 46 63 47 64 48 69 49 65 50 66 51 68 52 70 53 67 54 51 55
REMARK SMILES IDX 52 56 57 57 53 58 54 59 56 60 58 61 55 62 6 63 7 64 8 65
REMARK SMILES IDX 9 67 10 68 11 69 19 70 12 71 18 72 13 73 17 74 14 75 16 76
REMARK SMILES IDX 15 77 20 78 21 79 22 80 23 81 24 82 27 83 25 84 26 85
REMARK H PARENT 3 6 75 24 49 35 7 66 27 86
REMARK Flexibility Score: inf
ROOT
ATOM      1  C   UNL A   1      32.420  27.835  27.588  1.00  0.00     0.042 C 
ENDROOT
BRANCH   1   2
ATOM      2  C   UNL A   1      33.641  28.674  27.271  1.00  0.00     0.118 C 
BRANCH   2   3
ATOM      3  N   UNL A   1      33.589  30.063  27.717  1.00  0.00    -0.352 N 
ATOM      4  O   UNL A   1      34.562  31.988  28.457  1.00  0.00    -0.269 OA
ATOM      5  C   UNL A   1      34.659  30.801  28.167  1.00  0.00     0.251 C 
ATOM      6  H   UNL A   1      32.712  30.509  27.694  1.00  0.00     0.163 HD
BRANCH   5   7
ATOM      7  C   UNL A   1      35.938  30.085  28.342  1.00  0.00     0.039 A 
ATOM      8  C   UNL A   1      36.284  29.592  29.603  1.00  0.00     0.014 A 
ATOM      9  C   UNL A   1      36.865  30.107  27.298  1.00  0.00     0.014 A 
ATOM     10  C   UNL A   1      37.611  29.277  29.865  1.00  0.00     0.010 A 
ATOM     11  C   UNL A   1      38.178  29.706  27.544  1.00  0.00     0.010 A 
ATOM     12  C   UNL A   1      38.571  29.331  28.840  1.00  0.00    -0.014 A 
BRANCH  12  13
ATOM     13  C   UNL A   1      39.970  28.934  29.126  1.00  0.00     0.031 A 
ATOM     14  C   UNL A   1      40.940  29.885  29.771  1.00  0.00     0.074 A 
ATOM     15  C   UNL A   1      40.358  27.691  28.786  1.00  0.00     0.049 A 
ATOM     16  N   UNL A   1      42.215  29.713  30.022  1.00  0.00    -0.248 NA
ATOM     17  C   UNL A   1      40.423  31.200  30.183  1.00  0.00     0.031 C 
ATOM     18  C   UNL A   1      39.501  26.684  28.155  1.00  0.00     0.029 A 
ATOM     19  N   UNL A   1      41.569  27.063  28.915  1.00  0.00    -0.354 N 
ATOM     20  C   UNL A   1      42.657  30.899  30.595  1.00  0.00     0.074 A 
ATOM     21  C   UNL A   1      41.517  31.790  30.649  1.00  0.00     0.031 C 
ATOM     22  C   UNL A   1      40.209  25.563  27.962  1.00  0.00     0.029 A 
ATOM     23  C   UNL A   1      41.581  25.793  28.392  1.00  0.00     0.049 A 
ATOM     24  H   UNL A   1      42.353  27.480  29.341  1.00  0.00     0.167 HD
ATOM     25  C   UNL A   1      43.901  31.207  31.033  1.00  0.00     0.037 A 
ATOM     26  C   UNL A   1      42.595  24.925  28.230  1.00  0.00     0.037 A 
ATOM     27  C   UNL A   1      45.021  30.300  31.002  1.00  0.00     0.049 A 
ATOM     28  C   UNL A   1      43.968  25.315  28.687  1.00  0.00     0.074 A 
ATOM     29  C   UNL A   1      46.300  30.496  31.494  1.00  0.00     0.029 A 
ATOM     30  N   UNL A   1      45.000  29.034  30.439  1.00  0.00    -0.354 N 
ATOM     31  N   UNL A   1      44.360  26.420  29.274  1.00  0.00    -0.248 NA
ATOM     32  C   UNL A   1      45.044  24.343  28.451  1.00  0.00     0.031 C 
ATOM     33  C   UNL A   1      47.068  29.370  31.181  1.00  0.00     0.029 A 
ATOM     34  C   UNL A   1      46.255  28.454  30.534  1.00  0.00     0.049 A 
ATOM     35  H   UNL A   1      44.211  28.609  30.031  1.00  0.00     0.167 HD
ATOM     36  C   UNL A   1      45.724  26.275  29.481  1.00  0.00     0.074 A 
ATOM     37  C   UNL A   1      46.086  24.963  28.986  1.00  0.00     0.031 C 
ATOM     38  C   UNL A   1      46.600  27.153  30.025  1.00  0.00     0.037 A 
BRANCH  25  39
ATOM     39  C   UNL A   1      44.147  32.586  31.571  1.00  0.00     0.057 A 
ATOM     40  C   UNL A   1      44.069  32.873  32.939  1.00  0.00     0.134 A 
ATOM     41  C   UNL A   1      44.579  33.611  30.719  1.00  0.00     0.134 A 
ATOM     42  F   UNL A   1      43.658  31.938  33.809  1.00  0.00    -0.206 F 
ATOM     43  C   UNL A   1      44.412  34.132  33.440  1.00  0.00     0.040 A 
ATOM     44  C   UNL A   1      44.942  34.866  31.209  1.00  0.00     0.040 A 
ATOM     45  F   UNL A   1      44.686  33.398  29.398  1.00  0.00    -0.206 F 
ATOM     46  C   UNL A   1      44.860  35.129  32.575  1.00  0.00     0.006 A 
ENDBRANCH  25  39
BRANCH  26  47
ATOM     47  C   UNL A   1      42.354  23.627  27.555  1.00  0.00     0.057 A 
ATOM     48  C   UNL A   1      42.084  22.467  28.285  1.00  0.00     0.134 A 
ATOM     49  C   UNL A   1      42.396  23.519  26.158  1.00  0.00     0.134 A 
ATOM     50  F   UNL A   1      42.049  22.506  29.626  1.00  0.00    -0.206 F 
ATOM     51  C   UNL A   1      41.884  21.239  27.654  1.00  0.00     0.040 A 
ATOM     52  C   UNL A   1      42.167  22.305  25.512  1.00  0.00     0.040 A 
ATOM     53  F   UNL A   1      42.642  24.598  25.402  1.00  0.00    -0.206 F 
ATOM     54  C   UNL A   1      41.920  21.157  26.263  1.00  0.00     0.006 A 
ENDBRANCH  26  47
BRANCH  38  55
ATOM     55  C   UNL A   1      48.031  26.715  30.112  1.00  0.00     0.057 A 
ATOM     56  C   UNL A   1      48.492  25.933  31.178  1.00  0.00     0.134 A 
ATOM     57  C   UNL A   1      48.949  27.057  29.112  1.00  0.00     0.134 A 
ATOM     58  F   UNL A   1      47.664  25.586  32.176  1.00  0.00    -0.206 F 
ATOM     59  C   UNL A   1      49.825  25.524  31.258  1.00  0.00     0.040 A 
ATOM     60  C   UNL A   1      50.277  26.634  29.168  1.00  0.00     0.040 A 
ATOM     61  F   UNL A   1      48.568  27.801  28.062  1.00  0.00    -0.206 F 
ATOM     62  C   UNL A   1      50.720  25.870  30.247  1.00  0.00     0.006 A 
ENDBRANCH  38  55
ENDBRANCH  12  13
ENDBRANCH   5   7
ENDBRANCH   2   3
ENDBRANCH   1   2
BRANCH   1  63
ATOM     63  C   UNL A   1      31.904  27.044  26.406  1.00  0.00     0.117 C 
BRANCH  63  64
ATOM     64  N   UNL A   1      31.353  25.742  26.745  1.00  0.00    -0.354 N 
ATOM     65  C   UNL A   1      31.927  24.510  26.592  1.00  0.00     0.242 C 
ATOM     66  H   UNL A   1      30.450  25.747  27.136  1.00  0.00     0.163 HD
ATOM     67  O   UNL A   1      31.327  23.520  27.026  1.00  0.00    -0.273 OA
BRANCH  65  68
ATOM     68  C   UNL A   1      33.201  24.308  25.761  1.00  0.00     0.174 C 
ATOM     69  C   UNL A   1      34.133  23.729  26.846  1.00  0.00     0.036 C 
ATOM     70  N   UNL A   1      32.998  23.513  24.538  1.00  0.00    -0.327 N 
ATOM     71  C   UNL A   1      35.243  22.836  26.375  1.00  0.00     0.008 C 
ATOM     72  C   UNL A   1      34.027  22.490  24.167  1.00  0.00     0.089 C 
ATOM     73  C   UNL A   1      34.720  21.819  25.366  1.00  0.00     0.012 C 
ATOM     74  C   UNL A   1      35.049  22.998  23.108  1.00  0.00     0.025 C 
ATOM     75  C   UNL A   1      35.846  20.903  24.884  1.00  0.00     0.006 C 
ATOM     76  C   UNL A   1      36.539  22.932  23.483  1.00  0.00     0.002 C 
ATOM     77  C   UNL A   1      36.988  21.684  24.249  1.00  0.00     0.000 C 
BRANCH  70  78
ATOM     78  C   UNL A   1      31.984  23.806  23.587  1.00  0.00     0.229 C 
ATOM     79  O   UNL A   1      31.168  22.928  23.279  1.00  0.00    -0.274 OA
BRANCH  78  80
ATOM     80  C   UNL A   1      31.901  25.175  22.862  1.00  0.00     0.155 C 
BRANCH  80  81
ATOM     81  C   UNL A   1      30.687  26.056  23.068  1.00  0.00     0.044 A 
ATOM     82  C   UNL A   1      30.433  27.400  22.851  1.00  0.00     0.045 A 
ATOM     83  N   UNL A   1      29.585  25.626  23.780  1.00  0.00    -0.282 N 
ATOM     84  C   UNL A   1      29.137  27.634  23.362  1.00  0.00     0.135 A 
ATOM     85  N   UNL A   1      28.594  26.529  23.864  1.00  0.00    -0.184 NA
ATOM     86  H   UNL A   1      29.530  24.733  24.190  1.00  0.00     0.190 HD
ENDBRANCH  80  81
ENDBRANCH  78  80
ENDBRANCH  70  78
ENDBRANCH  65  68
ENDBRANCH  63  64
ENDBRANCH   1  63
TORSDOF 13
ENDMDL
MODEL 3
REMARK VINA RESULT:     -12.2      0.600      1.107
REMARK SMILES O=C(NCCCNC(=O)[C@H]1CC[C@@H]2CCCC[C@@H]2N1C(=O)Cc1ccn[nH]1)c1ccc(-c2c3nc(c(-c4c(F)cccc4F)c4ccc([nH]4)c(-c4c(F)cccc4F)c4nc(c(-c5c(F)cccc5F)c5ccc2[nH]5)C=C4)C=C3)cc1
REMARK SMILES IDX 5 1 4 2 3 3 1 4 2 5 28 7 29 8 81 9 30 10 80 11 31 12 32 13
REMARK SMILES IDX 33 14 74 15 34 16 79 17 73 18 75 19 35 20 78 21 72 22 71 23
REMARK SMILES IDX 36 25 62 26 45 27 61 28 46 29 49 30 60 31 76 32 47 33 48 34
REMARK SMILES IDX 59 36 77 37 50 38 37 39 38 40 43 41 39 42 40 43 42 44 44 45
REMARK SMILES IDX 41 46 63 47 64 48 69 49 65 50 66 51 68 52 70 53 67 54 51 55
REMARK SMILES IDX 52 56 57 57 53 58 54 59 56 60 58 61 55 62 6 63 7 64 8 65
REMARK SMILES IDX 9 67 10 68 11 69 19 70 12 71 18 72 13 73 17 74 14 75 16 76
REMARK SMILES IDX 15 77 20 78 21 79 22 80 23 81 24 82 27 83 25 84 26 85
REMARK H PARENT 3 6 75 24 49 35 7 66 27 86
REMARK Flexibility Score: inf
ROOT
ATOM      1  C   UNL A   1      37.800  20.691  25.352  1.00  0.00     0.042 C 
ENDROOT
BRANCH   1   2
ATOM      2  C   UNL A   1      39.169  20.762  25.998  1.00  0.00     0.118 C 
BRANCH   2   3
ATOM      3  N   UNL A   1      40.001  19.573  25.852  1.00  0.00    -0.352 N 
ATOM      4  O   UNL A   1      41.974  18.447  26.050  1.00  0.00    -0.269 OA
ATOM      5  C   UNL A   1      41.348  19.498  26.122  1.00  0.00     0.251 C 
ATOM      6  H   UNL A   1      39.560  18.752  25.531  1.00  0.00     0.163 HD
BRANCH   5   7
ATOM      7  C   UNL A   1      42.033  20.762  26.455  1.00  0.00     0.039 A 
ATOM      8  C   UNL A   1      42.197  21.123  27.795  1.00  0.00     0.014 A 
ATOM      9  C   UNL A   1      42.305  21.667  25.427  1.00  0.00     0.014 A 
ATOM     10  C   UNL A   1      42.474  22.447  28.110  1.00  0.00     0.010 A 
ATOM     11  C   UNL A   1      42.669  22.974  25.748  1.00  0.00     0.010 A 
ATOM     12  C   UNL A   1      42.712  23.385  27.091  1.00  0.00    -0.014 A 
BRANCH  12  13
ATOM     13  C   UNL A   1      43.065  24.780  27.448  1.00  0.00     0.031 A 
ATOM     14  C   UNL A   1      42.046  25.726  28.021  1.00  0.00     0.074 A 
ATOM     15  C   UNL A   1      44.331  25.187  27.241  1.00  0.00     0.049 A 
ATOM     16  N   UNL A   1      42.179  26.994  28.319  1.00  0.00    -0.248 NA
ATOM     17  C   UNL A   1      40.702  25.187  28.290  1.00  0.00     0.031 C 
ATOM     18  C   UNL A   1      45.403  24.355  26.690  1.00  0.00     0.029 A 
ATOM     19  N   UNL A   1      44.930  26.399  27.460  1.00  0.00    -0.354 N 
ATOM     20  C   UNL A   1      40.938  27.412  28.785  1.00  0.00     0.074 A 
ATOM     21  C   UNL A   1      40.059  26.264  28.724  1.00  0.00     0.031 C 
ATOM     22  C   UNL A   1      46.531  25.076  26.625  1.00  0.00     0.029 A 
ATOM     23  C   UNL A   1      46.245  26.435  27.063  1.00  0.00     0.049 A 
ATOM     24  H   UNL A   1      44.466  27.168  27.862  1.00  0.00     0.167 HD
ATOM     25  C   UNL A   1      40.575  28.642  29.220  1.00  0.00     0.037 A 
ATOM     26  C   UNL A   1      47.113  27.460  27.012  1.00  0.00     0.037 A 
ATOM     27  C   UNL A   1      41.469  29.770  29.305  1.00  0.00     0.049 A 
ATOM     28  C   UNL A   1      46.667  28.818  27.462  1.00  0.00     0.074 A 
ATOM     29  C   UNL A   1      41.213  31.035  29.808  1.00  0.00     0.029 A 
ATOM     30  N   UNL A   1      42.784  29.774  28.868  1.00  0.00    -0.354 N 
ATOM     31  N   UNL A   1      45.506  29.185  27.948  1.00  0.00    -0.248 NA
ATOM     32  C   UNL A   1      47.646  29.907  27.349  1.00  0.00     0.031 C 
ATOM     33  C   UNL A   1      42.356  31.820  29.624  1.00  0.00     0.029 A 
ATOM     34  C   UNL A   1      43.339  31.030  29.050  1.00  0.00     0.049 A 
ATOM     35  H   UNL A   1      43.256  28.999  28.485  1.00  0.00     0.167 HD
ATOM     36  C   UNL A   1      45.616  30.544  28.202  1.00  0.00     0.074 A 
ATOM     37  C   UNL A   1      46.966  30.930  27.846  1.00  0.00     0.031 C 
ATOM     38  C   UNL A   1      44.679  31.399  28.679  1.00  0.00     0.037 A 
BRANCH  25  39
ATOM     39  C   UNL A   1      39.148  28.864  29.628  1.00  0.00     0.057 A 
ATOM     40  C   UNL A   1      38.713  28.665  30.943  1.00  0.00     0.134 A 
ATOM     41  C   UNL A   1      38.226  29.391  28.714  1.00  0.00     0.134 A 
ATOM     42  F   UNL A   1      39.544  28.159  31.866  1.00  0.00    -0.206 F 
ATOM     43  C   UNL A   1      37.410  28.983  31.335  1.00  0.00     0.040 A 
ATOM     44  C   UNL A   1      36.928  29.730  29.098  1.00  0.00     0.040 A 
ATOM     45  F   UNL A   1      38.582  29.615  27.440  1.00  0.00    -0.206 F 
ATOM     46  C   UNL A   1      36.517  29.527  30.413  1.00  0.00     0.006 A 
ENDBRANCH  25  39
BRANCH  26  47
ATOM     47  C   UNL A   1      48.474  27.247  26.461  1.00  0.00     0.057 A 
ATOM     48  C   UNL A   1      49.557  26.953  27.292  1.00  0.00     0.134 A 
ATOM     49  C   UNL A   1      48.720  27.339  25.084  1.00  0.00     0.134 A 
ATOM     50  F   UNL A   1      49.386  26.870  28.620  1.00  0.00    -0.206 F 
ATOM     51  C   UNL A   1      50.843  26.779  26.779  1.00  0.00     0.040 A 
ATOM     52  C   UNL A   1      49.993  27.137  24.554  1.00  0.00     0.040 A 
ATOM     53  F   UNL A   1      47.719  27.609  24.233  1.00  0.00    -0.206 F 
ATOM     54  C   UNL A   1      51.062  26.866  25.405  1.00  0.00     0.006 A 
ENDBRANCH  26  47
BRANCH  38  55
ATOM     55  C   UNL A   1      45.092  32.831  28.843  1.00  0.00     0.057 A 
ATOM     56  C   UNL A   1      44.848  33.781  27.843  1.00  0.00     0.134 A 
ATOM     57  C   UNL A   1      45.716  33.269  30.017  1.00  0.00     0.134 A 
ATOM     58  F   UNL A   1      44.268  33.420  26.688  1.00  0.00    -0.206 F 
ATOM     59  C   UNL A   1      45.231  35.114  27.997  1.00  0.00     0.040 A 
ATOM     60  C   UNL A   1      46.081  34.604  30.193  1.00  0.00     0.040 A 
ATOM     61  F   UNL A   1      45.973  32.409  31.014  1.00  0.00    -0.206 F 
ATOM     62  C   UNL A   1      45.844  35.530  29.178  1.00  0.00     0.006 A 
ENDBRANCH  38  55
ENDBRANCH  12  13
ENDBRANCH   5   7
ENDBRANCH   2   3
ENDBRANCH   1   2
BRANCH   1  63
ATOM     63  C   UNL A   1      37.094  22.028  25.279  1.00  0.00     0.117 C 
BRANCH  63  64
ATOM     64  N   UNL A   1      36.623  22.390  23.951  1.00  0.00    -0.354 N 
ATOM     65  C   UNL A   1      35.464  23.029  23.606  1.00  0.00     0.242 C 
ATOM     66  H   UNL A   1      37.215  22.144  23.204  1.00  0.00     0.163 HD
ATOM     67  O   UNL A   1      35.285  23.327  22.419  1.00  0.00    -0.273 OA
BRANCH  65  68
ATOM     68  C   UNL A   1      34.323  23.234  24.610  1.00  0.00     0.174 C 
ATOM     69  C   UNL A   1      34.305  24.776  24.675  1.00  0.00     0.036 C 
ATOM     70  N   UNL A   1      33.072  22.551  24.243  1.00  0.00    -0.327 N 
ATOM     71  C   UNL A   1      32.999  25.421  25.035  1.00  0.00     0.008 C 
ATOM     72  C   UNL A   1      31.774  23.273  24.438  1.00  0.00     0.089 C 
ATOM     73  C   UNL A   1      31.857  24.797  24.241  1.00  0.00     0.012 C 
ATOM     74  C   UNL A   1      31.047  22.891  25.761  1.00  0.00     0.025 C 
ATOM     75  C   UNL A   1      30.522  25.452  24.602  1.00  0.00     0.006 C 
ATOM     76  C   UNL A   1      30.704  24.036  26.728  1.00  0.00     0.002 C 
ATOM     77  C   UNL A   1      30.210  25.337  26.087  1.00  0.00     0.000 C 
BRANCH  70  78
ATOM     78  C   UNL A   1      33.017  21.172  23.905  1.00  0.00     0.229 C 
ATOM     79  O   UNL A   1      32.418  20.821  22.879  1.00  0.00    -0.274 OA
BRANCH  78  80
ATOM     80  C   UNL A   1      33.624  20.072  24.816  1.00  0.00     0.155 C 
BRANCH  80  81
ATOM     81  C   UNL A   1      33.776  18.664  24.284  1.00  0.00     0.044 A 
ATOM     82  C   UNL A   1      34.809  17.741  24.301  1.00  0.00     0.045 A 
ATOM     83  N   UNL A   1      32.854  18.105  23.422  1.00  0.00    -0.282 N 
ATOM     84  C   UNL A   1      34.362  16.648  23.526  1.00  0.00     0.135 A 
ATOM     85  N   UNL A   1      33.136  16.845  23.050  1.00  0.00    -0.184 NA
ATOM     86  H   UNL A   1      32.056  18.589  23.107  1.00  0.00     0.190 HD
ENDBRANCH  80  81
ENDBRANCH  78  80
ENDBRANCH  70  78
ENDBRANCH  65  68
ENDBRANCH  63  64
ENDBRANCH   1  63
TORSDOF 13
ENDMDL
