MODEL 1
REMARK VINA RESULT:     -11.1      0.000      0.000
REMARK SMILES Cc1cscc1-c1noc(SCC(=O)NCCCNC(=O)c2ccc(-c3c4nc(c(-c5c(F)cccc5F)c5ccc([nH]5)c(-c5c(F)cccc5F)c5nc(c(-c6c(F)cccc6F)c6ccc3[nH]6)C=C5)C=C4)cc2)n1
REMARK SMILES IDX 16 1 15 2 13 3 14 4 12 6 11 7 10 8 7 9 8 10 76 11 9 12 6 13
REMARK SMILES IDX 1 14 2 15 3 16 4 17 5 18 17 19 18 20 19 21 20 22 21 24 22 25
REMARK SMILES IDX 23 26 75 27 24 28 74 29 25 30 26 31 27 32 68 33 28 34 73 35
REMARK SMILES IDX 67 36 69 37 29 38 72 39 66 40 65 41 30 43 56 44 39 45 55 46
REMARK SMILES IDX 40 47 43 48 54 49 70 50 41 51 42 52 53 54 71 55 44 56 31 57
REMARK SMILES IDX 32 58 37 59 33 60 34 61 36 62 38 63 35 64 57 65 58 66 63 67
REMARK SMILES IDX 59 68 60 69 62 70 64 71 61 72 45 73 46 74 51 75 47 76 48 77
REMARK SMILES IDX 50 78 52 79 49 80
REMARK H PARENT 15 5 19 23 69 42 43 53
REMARK Flexibility Score: inf
ROOT
ATOM      1  C   UNL A   1      36.368  20.717  24.967  1.00  0.00     0.117 C 
ENDROOT
BRANCH   1   2
ATOM      2  N   UNL A   1      35.254  19.794  25.076  1.00  0.00    -0.355 N 
ATOM      3  C   UNL A   1      33.920  20.034  25.224  1.00  0.00     0.230 C 
ATOM      4  O   UNL A   1      33.172  19.054  25.249  1.00  0.00    -0.274 OA
ATOM      5  H   UNL A   1      35.501  18.842  25.037  1.00  0.00     0.163 HD
BRANCH   3   6
ATOM      6  C   UNL A   1      33.371  21.448  25.235  1.00  0.00     0.179 C 
BRANCH   6   7
ATOM      7  S   UNL A   1      33.305  22.209  26.872  1.00  0.00    -0.055 SA
BRANCH   7   8
ATOM      8  C   UNL A   1      32.395  23.657  26.589  1.00  0.00     0.286 A 
ATOM      9  C   UNL A   1      31.746  25.551  25.993  1.00  0.00     0.204 A 
ATOM     10  N   UNL A   1      30.751  25.134  26.784  1.00  0.00    -0.056 NA
ATOM     11  N   UNL A   1      32.777  24.661  25.838  1.00  0.00    -0.181 NA
ATOM     12  O   UNL A   1      31.171  23.861  27.168  1.00  0.00    -0.327 OA
BRANCH   9  13
ATOM     13  C   UNL A   1      31.798  26.886  25.393  1.00  0.00     0.036 A 
ATOM     14  C   UNL A   1      31.803  28.219  27.636  1.00  0.00     0.046 C 
ATOM     15  C   UNL A   1      31.810  28.111  26.146  1.00  0.00    -0.029 A 
ATOM     16  C   UNL A   1      31.853  29.201  25.294  1.00  0.00     0.069 A 
ATOM     17  S   UNL A   1      31.890  28.763  23.644  1.00  0.00    -0.151 S 
ATOM     18  C   UNL A   1      31.856  27.102  24.032  1.00  0.00     0.077 A 
ENDBRANCH   9  13
ENDBRANCH   7   8
ENDBRANCH   6   7
ENDBRANCH   3   6
ENDBRANCH   1   2
BRANCH   1  19
ATOM     19  C   UNL A   1      37.696  19.991  24.761  1.00  0.00     0.042 C 
BRANCH  19  20
ATOM     20  C   UNL A   1      38.769  20.333  25.792  1.00  0.00     0.118 C 
BRANCH  20  21
ATOM     21  N   UNL A   1      39.882  19.394  25.782  1.00  0.00    -0.352 N 
ATOM     22  C   UNL A   1      41.210  19.595  26.057  1.00  0.00     0.251 C 
ATOM     23  H   UNL A   1      39.642  18.469  25.542  1.00  0.00     0.163 HD
ATOM     24  O   UNL A   1      42.016  18.692  25.832  1.00  0.00    -0.269 OA
BRANCH  22  25
ATOM     25  C   UNL A   1      41.693  20.885  26.596  1.00  0.00     0.039 A 
ATOM     26  C   UNL A   1      42.121  21.868  25.697  1.00  0.00     0.014 A 
ATOM     27  C   UNL A   1      41.763  21.124  27.971  1.00  0.00     0.014 A 
ATOM     28  C   UNL A   1      42.555  23.108  26.172  1.00  0.00     0.010 A 
ATOM     29  C   UNL A   1      42.133  22.383  28.443  1.00  0.00     0.010 A 
ATOM     30  C   UNL A   1      42.532  23.388  27.548  1.00  0.00    -0.014 A 
BRANCH  30  31
ATOM     31  C   UNL A   1      42.908  24.729  28.066  1.00  0.00     0.031 A 
ATOM     32  C   UNL A   1      41.854  25.770  28.325  1.00  0.00     0.074 A 
ATOM     33  C   UNL A   1      44.209  25.035  28.239  1.00  0.00     0.049 A 
ATOM     34  N   UNL A   1      41.997  27.016  28.701  1.00  0.00    -0.248 NA
ATOM     35  C   UNL A   1      40.457  25.363  28.113  1.00  0.00     0.031 C 
ATOM     36  C   UNL A   1      45.332  24.132  27.980  1.00  0.00     0.029 A 
ATOM     37  N   UNL A   1      44.807  26.197  28.659  1.00  0.00    -0.354 N 
ATOM     38  C   UNL A   1      40.714  27.546  28.753  1.00  0.00     0.074 A 
ATOM     39  C   UNL A   1      39.809  26.499  28.328  1.00  0.00     0.031 C 
ATOM     40  C   UNL A   1      46.481  24.766  28.262  1.00  0.00     0.029 A 
ATOM     41  C   UNL A   1      46.180  26.131  28.686  1.00  0.00     0.049 A 
ATOM     42  H   UNL A   1      44.301  27.000  28.918  1.00  0.00     0.167 HD
ATOM     43  C   UNL A   1      40.324  28.785  29.135  1.00  0.00     0.037 A 
ATOM     44  C   UNL A   1      47.094  27.066  29.005  1.00  0.00     0.037 A 
ATOM     45  C   UNL A   1      41.222  29.818  29.583  1.00  0.00     0.049 A 
ATOM     46  C   UNL A   1      46.635  28.433  29.428  1.00  0.00     0.074 A 
ATOM     47  C   UNL A   1      40.914  31.084  30.052  1.00  0.00     0.029 A 
ATOM     48  N   UNL A   1      42.603  29.705  29.617  1.00  0.00    -0.354 N 
ATOM     49  N   UNL A   1      45.414  28.900  29.532  1.00  0.00    -0.248 NA
ATOM     50  C   UNL A   1      47.681  29.403  29.782  1.00  0.00     0.031 C 
ATOM     51  C   UNL A   1      42.111  31.750  30.334  1.00  0.00     0.029 A 
ATOM     52  C   UNL A   1      43.163  30.884  30.081  1.00  0.00     0.049 A 
ATOM     53  H   UNL A   1      43.111  28.905  29.351  1.00  0.00     0.167 HD
ATOM     54  C   UNL A   1      45.544  30.205  29.988  1.00  0.00     0.074 A 
ATOM     55  C   UNL A   1      46.961  30.453  30.152  1.00  0.00     0.031 C 
ATOM     56  C   UNL A   1      44.575  31.116  30.246  1.00  0.00     0.037 A 
BRANCH  43  57
ATOM     57  C   UNL A   1      38.856  29.094  29.089  1.00  0.00     0.057 A 
ATOM     58  C   UNL A   1      38.037  28.959  30.218  1.00  0.00     0.134 A 
ATOM     59  C   UNL A   1      38.261  29.571  27.914  1.00  0.00     0.134 A 
ATOM     60  F   UNL A   1      38.543  28.496  31.372  1.00  0.00    -0.206 F 
ATOM     61  C   UNL A   1      36.676  29.262  30.173  1.00  0.00     0.040 A 
ATOM     62  C   UNL A   1      36.907  29.903  27.864  1.00  0.00     0.040 A 
ATOM     63  F   UNL A   1      38.990  29.732  26.798  1.00  0.00    -0.206 F 
ATOM     64  C   UNL A   1      36.109  29.743  28.995  1.00  0.00     0.006 A 
ENDBRANCH  43  57
BRANCH  44  65
ATOM     65  C   UNL A   1      48.540  26.736  28.954  1.00  0.00     0.057 A 
ATOM     66  C   UNL A   1      49.294  26.975  27.800  1.00  0.00     0.134 A 
ATOM     67  C   UNL A   1      49.199  26.171  30.051  1.00  0.00     0.134 A 
ATOM     68  F   UNL A   1      48.711  27.496  26.710  1.00  0.00    -0.206 F 
ATOM     69  C   UNL A   1      50.649  26.648  27.732  1.00  0.00     0.040 A 
ATOM     70  C   UNL A   1      50.559  25.861  30.006  1.00  0.00     0.040 A 
ATOM     71  F   UNL A   1      48.533  25.925  31.189  1.00  0.00    -0.206 F 
ATOM     72  C   UNL A   1      51.286  26.095  28.840  1.00  0.00     0.006 A 
ENDBRANCH  44  65
BRANCH  56  73
ATOM     73  C   UNL A   1      45.011  32.453  30.766  1.00  0.00     0.057 A 
ATOM     74  C   UNL A   1      45.161  32.701  32.135  1.00  0.00     0.134 A 
ATOM     75  C   UNL A   1      45.322  33.495  29.881  1.00  0.00     0.134 A 
ATOM     76  F   UNL A   1      44.865  31.749  33.034  1.00  0.00    -0.206 F 
ATOM     77  C   UNL A   1      45.584  33.944  32.609  1.00  0.00     0.040 A 
ATOM     78  C   UNL A   1      45.770  34.733  30.341  1.00  0.00     0.040 A 
ATOM     79  F   UNL A   1      45.207  33.320  28.556  1.00  0.00    -0.206 F 
ATOM     80  C   UNL A   1      45.898  34.962  31.709  1.00  0.00     0.006 A 
ENDBRANCH  56  73
ENDBRANCH  30  31
ENDBRANCH  22  25
ENDBRANCH  20  21
ENDBRANCH  19  20
ENDBRANCH   1  19
TORSDOF 13
ENDMDL
MODEL 2
REMARK VINA RESULT:     -11.1      3.876      9.203
REMARK SMILES Cc1cscc1-c1noc(SCC(=O)NCCCNC(=O)c2ccc(-c3c4nc(c(-c5c(F)cccc5F)c5ccc([nH]5)c(-c5c(F)cccc5F)c5nc(c(-c6c(F)cccc6F)c6ccc3[nH]6)C=C5)C=C4)cc2)n1
REMARK SMILES IDX 16 1 15 2 13 3 14 4 12 6 11 7 10 8 7 9 8 10 76 11 9 12 6 13
REMARK SMILES IDX 1 14 2 15 3 16 4 17 5 18 17 19 18 20 19 21 20 22 21 24 22 25
REMARK SMILES IDX 23 26 75 27 24 28 74 29 25 30 26 31 27 32 68 33 28 34 73 35
REMARK SMILES IDX 67 36 69 37 29 38 72 39 66 40 65 41 30 43 56 44 39 45 55 46
REMARK SMILES IDX 40 47 43 48 54 49 70 50 41 51 42 52 53 54 71 55 44 56 31 57
REMARK SMILES IDX 32 58 37 59 33 60 34 61 36 62 38 63 35 64 57 65 58 66 63 67
REMARK SMILES IDX 59 68 60 69 62 70 64 71 61 72 45 73 46 74 51 75 47 76 48 77
REMARK SMILES IDX 50 78 52 79 49 80
REMARK H PARENT 15 5 19 23 69 42 43 53
REMARK Flexibility Score: inf
ROOT
ATOM      1  C   UNL A   1      31.582  30.064  25.528  1.00  0.00     0.117 C 
ENDROOT
BRANCH   1   2
ATOM      2  N   UNL A   1      30.907  30.013  24.245  1.00  0.00    -0.355 N 
ATOM      3  C   UNL A   1      30.911  29.046  23.283  1.00  0.00     0.230 C 
ATOM      4  O   UNL A   1      30.206  29.239  22.289  1.00  0.00    -0.274 OA
ATOM      5  H   UNL A   1      30.359  30.803  24.034  1.00  0.00     0.163 HD
BRANCH   3   6
ATOM      6  C   UNL A   1      31.654  27.739  23.484  1.00  0.00     0.179 C 
BRANCH   6   7
ATOM      7  S   UNL A   1      33.144  27.567  22.477  1.00  0.00    -0.055 SA
BRANCH   7   8
ATOM      8  C   UNL A   1      33.377  25.851  22.423  1.00  0.00     0.286 A 
ATOM      9  C   UNL A   1      33.775  23.850  22.876  1.00  0.00     0.204 A 
ATOM     10  N   UNL A   1      33.620  23.826  21.548  1.00  0.00    -0.056 NA
ATOM     11  N   UNL A   1      33.622  25.082  23.456  1.00  0.00    -0.181 NA
ATOM     12  O   UNL A   1      33.334  25.157  21.244  1.00  0.00    -0.327 OA
BRANCH   9  13
ATOM     13  C   UNL A   1      34.163  22.681  23.667  1.00  0.00     0.036 A 
ATOM     14  C   UNL A   1      36.719  23.207  23.738  1.00  0.00     0.046 C 
ATOM     15  C   UNL A   1      35.516  22.378  24.051  1.00  0.00    -0.029 A 
ATOM     16  C   UNL A   1      35.558  21.204  24.784  1.00  0.00     0.069 A 
ATOM     17  S   UNL A   1      34.019  20.499  25.013  1.00  0.00    -0.151 S 
ATOM     18  C   UNL A   1      33.259  21.753  24.141  1.00  0.00     0.077 A 
ENDBRANCH   9  13
ENDBRANCH   7   8
ENDBRANCH   6   7
ENDBRANCH   3   6
ENDBRANCH   1   2
BRANCH   1  19
ATOM     19  C   UNL A   1      31.312  31.375  26.266  1.00  0.00     0.042 C 
BRANCH  19  20
ATOM     20  C   UNL A   1      32.545  31.998  26.916  1.00  0.00     0.118 C 
BRANCH  20  21
ATOM     21  N   UNL A   1      32.325  33.373  27.341  1.00  0.00    -0.352 N 
ATOM     22  C   UNL A   1      33.053  34.161  28.195  1.00  0.00     0.251 C 
ATOM     23  H   UNL A   1      31.529  33.805  26.954  1.00  0.00     0.163 HD
ATOM     24  O   UNL A   1      32.599  35.251  28.545  1.00  0.00    -0.269 OA
BRANCH  22  25
ATOM     25  C   UNL A   1      34.362  33.714  28.720  1.00  0.00     0.039 A 
ATOM     26  C   UNL A   1      34.385  32.916  29.869  1.00  0.00     0.014 A 
ATOM     27  C   UNL A   1      35.563  34.100  28.118  1.00  0.00     0.014 A 
ATOM     28  C   UNL A   1      35.602  32.453  30.374  1.00  0.00     0.010 A 
ATOM     29  C   UNL A   1      36.772  33.584  28.582  1.00  0.00     0.010 A 
ATOM     30  C   UNL A   1      36.805  32.755  29.714  1.00  0.00    -0.014 A 
BRANCH  30  31
ATOM     31  C   UNL A   1      38.100  32.200  30.185  1.00  0.00     0.031 A 
ATOM     32  C   UNL A   1      38.620  30.902  29.635  1.00  0.00     0.074 A 
ATOM     33  C   UNL A   1      38.779  32.835  31.162  1.00  0.00     0.049 A 
ATOM     34  N   UNL A   1      39.687  30.226  29.979  1.00  0.00    -0.248 NA
ATOM     35  C   UNL A   1      37.825  30.268  28.572  1.00  0.00     0.031 C 
ATOM     36  C   UNL A   1      38.361  34.078  31.812  1.00  0.00     0.029 A 
ATOM     37  N   UNL A   1      39.957  32.511  31.788  1.00  0.00    -0.354 N 
ATOM     38  C   UNL A   1      39.681  29.081  29.192  1.00  0.00     0.074 A 
ATOM     39  C   UNL A   1      38.482  29.133  28.382  1.00  0.00     0.031 C 
ATOM     40  C   UNL A   1      39.275  34.420  32.734  1.00  0.00     0.029 A 
ATOM     41  C   UNL A   1      40.324  33.404  32.766  1.00  0.00     0.049 A 
ATOM     42  H   UNL A   1      40.489  31.716  31.558  1.00  0.00     0.167 HD
ATOM     43  C   UNL A   1      40.599  28.086  29.136  1.00  0.00     0.037 A 
ATOM     44  C   UNL A   1      41.379  33.401  33.601  1.00  0.00     0.037 A 
ATOM     45  C   UNL A   1      41.805  28.048  29.922  1.00  0.00     0.049 A 
ATOM     46  C   UNL A   1      42.385  32.288  33.517  1.00  0.00     0.074 A 
ATOM     47  C   UNL A   1      42.826  27.113  29.887  1.00  0.00     0.029 A 
ATOM     48  N   UNL A   1      42.151  28.983  30.884  1.00  0.00    -0.354 N 
ATOM     49  N   UNL A   1      42.398  31.244  32.724  1.00  0.00    -0.248 NA
ATOM     50  C   UNL A   1      43.524  32.353  34.443  1.00  0.00     0.031 C 
ATOM     51  C   UNL A   1      43.772  27.463  30.856  1.00  0.00     0.029 A 
ATOM     52  C   UNL A   1      43.361  28.638  31.464  1.00  0.00     0.049 A 
ATOM     53  H   UNL A   1      41.617  29.775  31.121  1.00  0.00     0.167 HD
ATOM     54  C   UNL A   1      43.556  30.545  33.034  1.00  0.00     0.074 A 
ATOM     55  C   UNL A   1      44.226  31.288  34.081  1.00  0.00     0.031 C 
ATOM     56  C   UNL A   1      44.021  29.390  32.500  1.00  0.00     0.037 A 
BRANCH  43  57
ATOM     57  C   UNL A   1      40.336  26.954  28.187  1.00  0.00     0.057 A 
ATOM     58  C   UNL A   1      40.894  26.923  26.902  1.00  0.00     0.134 A 
ATOM     59  C   UNL A   1      39.548  25.863  28.574  1.00  0.00     0.134 A 
ATOM     60  F   UNL A   1      41.649  27.942  26.465  1.00  0.00    -0.206 F 
ATOM     61  C   UNL A   1      40.659  25.860  26.029  1.00  0.00     0.040 A 
ATOM     62  C   UNL A   1      39.326  24.783  27.720  1.00  0.00     0.040 A 
ATOM     63  F   UNL A   1      38.988  25.825  29.794  1.00  0.00    -0.206 F 
ATOM     64  C   UNL A   1      39.878  24.782  26.440  1.00  0.00     0.006 A 
ENDBRANCH  43  57
BRANCH  44  65
ATOM     65  C   UNL A   1      41.551  34.503  34.582  1.00  0.00     0.057 A 
ATOM     66  C   UNL A   1      41.065  34.386  35.889  1.00  0.00     0.134 A 
ATOM     67  C   UNL A   1      42.196  35.695  34.235  1.00  0.00     0.134 A 
ATOM     68  F   UNL A   1      40.421  33.275  36.272  1.00  0.00    -0.206 F 
ATOM     69  C   UNL A   1      41.201  35.423  36.813  1.00  0.00     0.040 A 
ATOM     70  C   UNL A   1      42.360  36.731  35.157  1.00  0.00     0.040 A 
ATOM     71  F   UNL A   1      42.690  35.864  33.000  1.00  0.00    -0.206 F 
ATOM     72  C   UNL A   1      41.855  36.597  36.449  1.00  0.00     0.006 A 
ENDBRANCH  44  65
BRANCH  56  73
ATOM     73  C   UNL A   1      45.333  28.876  33.015  1.00  0.00     0.057 A 
ATOM     74  C   UNL A   1      45.406  27.958  34.068  1.00  0.00     0.134 A 
ATOM     75  C   UNL A   1      46.538  29.278  32.421  1.00  0.00     0.134 A 
ATOM     76  F   UNL A   1      44.289  27.545  34.688  1.00  0.00    -0.206 F 
ATOM     77  C   UNL A   1      46.630  27.473  34.529  1.00  0.00     0.040 A 
ATOM     78  C   UNL A   1      47.766  28.781  32.857  1.00  0.00     0.040 A 
ATOM     79  F   UNL A   1      46.537  30.150  31.403  1.00  0.00    -0.206 F 
ATOM     80  C   UNL A   1      47.815  27.879  33.917  1.00  0.00     0.006 A 
ENDBRANCH  56  73
ENDBRANCH  30  31
ENDBRANCH  22  25
ENDBRANCH  20  21
ENDBRANCH  19  20
ENDBRANCH   1  19
TORSDOF 13
ENDMDL
MODEL 3
REMARK VINA RESULT:     -11.1      0.976      6.561
REMARK SMILES Cc1cscc1-c1noc(SCC(=O)NCCCNC(=O)c2ccc(-c3c4nc(c(-c5c(F)cccc5F)c5ccc([nH]5)c(-c5c(F)cccc5F)c5nc(c(-c6c(F)cccc6F)c6ccc3[nH]6)C=C5)C=C4)cc2)n1
REMARK SMILES IDX 16 1 15 2 13 3 14 4 12 6 11 7 10 8 7 9 8 10 76 11 9 12 6 13
REMARK SMILES IDX 1 14 2 15 3 16 4 17 5 18 17 19 18 20 19 21 20 22 21 24 22 25
REMARK SMILES IDX 23 26 75 27 24 28 74 29 25 30 26 31 27 32 68 33 28 34 73 35
REMARK SMILES IDX 67 36 69 37 29 38 72 39 66 40 65 41 30 43 56 44 39 45 55 46
REMARK SMILES IDX 40 47 43 48 54 49 70 50 41 51 42 52 53 54 71 55 44 56 31 57
REMARK SMILES IDX 32 58 37 59 33 60 34 61 36 62 38 63 35 64 57 65 58 66 63 67
REMARK SMILES IDX 59 68 60 69 62 70 64 71 61 72 45 73 46 74 51 75 47 76 48 77
REMARK SMILES IDX 50 78 52 79 49 80
REMARK H PARENT 15 5 19 23 69 42 43 53
REMARK Flexibility Score: inf
ROOT
ATOM      1  C   UNL A   1      36.506  20.397  24.944  1.00  0.00     0.117 C 
ENDROOT
BRANCH   1   2
ATOM      2  N   UNL A   1      36.711  21.695  25.560  1.00  0.00    -0.355 N 
ATOM      3  C   UNL A   1      35.853  22.743  25.718  1.00  0.00     0.230 C 
ATOM      4  O   UNL A   1      36.277  23.730  26.324  1.00  0.00    -0.274 OA
ATOM      5  H   UNL A   1      37.615  21.843  25.920  1.00  0.00     0.163 HD
BRANCH   3   6
ATOM      6  C   UNL A   1      34.405  22.649  25.275  1.00  0.00     0.179 C 
BRANCH   6   7
ATOM      7  S   UNL A   1      33.221  22.482  26.629  1.00  0.00    -0.055 SA
BRANCH   7   8
ATOM      8  C   UNL A   1      32.200  23.867  26.421  1.00  0.00     0.286 A 
ATOM      9  C   UNL A   1      31.398  25.730  25.916  1.00  0.00     0.204 A 
ATOM     10  N   UNL A   1      30.451  25.204  26.702  1.00  0.00    -0.056 NA
ATOM     11  N   UNL A   1      32.491  24.929  25.710  1.00  0.00    -0.181 NA
ATOM     12  O   UNL A   1      30.974  23.952  27.025  1.00  0.00    -0.327 OA
BRANCH   9  13
ATOM     13  C   UNL A   1      31.338  27.088  25.374  1.00  0.00     0.036 A 
ATOM     14  C   UNL A   1      32.644  28.240  27.318  1.00  0.00     0.046 C 
ATOM     15  C   UNL A   1      31.898  28.243  26.024  1.00  0.00    -0.029 A 
ATOM     16  C   UNL A   1      31.671  29.380  25.267  1.00  0.00     0.069 A 
ATOM     17  S   UNL A   1      30.823  29.065  23.818  1.00  0.00    -0.151 S 
ATOM     18  C   UNL A   1      30.747  27.396  24.167  1.00  0.00     0.077 A 
ENDBRANCH   9  13
ENDBRANCH   7   8
ENDBRANCH   6   7
ENDBRANCH   3   6
ENDBRANCH   1   2
BRANCH   1  19
ATOM     19  C   UNL A   1      37.794  19.579  24.888  1.00  0.00     0.042 C 
BRANCH  19  20
ATOM     20  C   UNL A   1      38.923  20.118  25.764  1.00  0.00     0.118 C 
BRANCH  20  21
ATOM     21  N   UNL A   1      40.090  19.248  25.781  1.00  0.00    -0.352 N 
ATOM     22  C   UNL A   1      41.399  19.532  26.075  1.00  0.00     0.251 C 
ATOM     23  H   UNL A   1      39.910  18.309  25.546  1.00  0.00     0.163 HD
ATOM     24  O   UNL A   1      42.262  18.677  25.871  1.00  0.00    -0.269 OA
BRANCH  22  25
ATOM     25  C   UNL A   1      41.794  20.854  26.608  1.00  0.00     0.039 A 
ATOM     26  C   UNL A   1      42.258  21.825  25.714  1.00  0.00     0.014 A 
ATOM     27  C   UNL A   1      41.749  21.135  27.976  1.00  0.00     0.014 A 
ATOM     28  C   UNL A   1      42.611  23.093  26.181  1.00  0.00     0.010 A 
ATOM     29  C   UNL A   1      42.038  22.420  28.434  1.00  0.00     0.010 A 
ATOM     30  C   UNL A   1      42.472  23.412  27.542  1.00  0.00    -0.014 A 
BRANCH  30  31
ATOM     31  C   UNL A   1      42.760  24.780  28.044  1.00  0.00     0.031 A 
ATOM     32  C   UNL A   1      44.154  25.163  28.458  1.00  0.00     0.074 A 
ATOM     33  C   UNL A   1      41.751  25.662  28.190  1.00  0.00     0.049 A 
ATOM     34  N   UNL A   1      44.581  26.280  28.991  1.00  0.00    -0.248 NA
ATOM     35  C   UNL A   1      45.202  24.148  28.270  1.00  0.00     0.031 C 
ATOM     36  C   UNL A   1      40.347  25.402  27.868  1.00  0.00     0.029 A 
ATOM     37  N   UNL A   1      41.750  26.951  28.663  1.00  0.00    -0.354 N 
ATOM     38  C   UNL A   1      45.939  26.097  29.219  1.00  0.00     0.074 A 
ATOM     39  C   UNL A   1      46.256  24.746  28.805  1.00  0.00     0.031 C 
ATOM     40  C   UNL A   1      39.623  26.500  28.137  1.00  0.00     0.029 A 
ATOM     41  C   UNL A   1      40.504  27.528  28.684  1.00  0.00     0.049 A 
ATOM     42  H   UNL A   1      42.566  27.417  28.958  1.00  0.00     0.167 HD
ATOM     43  C   UNL A   1      46.842  26.978  29.710  1.00  0.00     0.037 A 
ATOM     44  C   UNL A   1      40.111  28.745  29.106  1.00  0.00     0.037 A 
ATOM     45  C   UNL A   1      46.532  28.330  30.097  1.00  0.00     0.049 A 
ATOM     46  C   UNL A   1      41.133  29.706  29.645  1.00  0.00     0.074 A 
ATOM     47  C   UNL A   1      47.393  29.317  30.545  1.00  0.00     0.029 A 
ATOM     48  N   UNL A   1      45.262  28.884  30.081  1.00  0.00    -0.354 N 
ATOM     49  N   UNL A   1      42.425  29.539  29.795  1.00  0.00    -0.248 NA
ATOM     50  C   UNL A   1      40.644  31.025  30.070  1.00  0.00     0.031 C 
ATOM     51  C   UNL A   1      46.638  30.457  30.837  1.00  0.00     0.029 A 
ATOM     52  C   UNL A   1      45.313  30.194  30.530  1.00  0.00     0.049 A 
ATOM     53  H   UNL A   1      44.445  28.417  29.794  1.00  0.00     0.167 HD
ATOM     54  C   UNL A   1      42.906  30.738  30.305  1.00  0.00     0.074 A 
ATOM     55  C   UNL A   1      41.770  31.626  30.428  1.00  0.00     0.031 C 
ATOM     56  C   UNL A   1      44.175  31.071  30.642  1.00  0.00     0.037 A 
BRANCH  43  57
ATOM     57  C   UNL A   1      48.260  26.507  29.856  1.00  0.00     0.057 A 
ATOM     58  C   UNL A   1      49.218  26.730  28.859  1.00  0.00     0.134 A 
ATOM     59  C   UNL A   1      48.683  25.860  31.024  1.00  0.00     0.134 A 
ATOM     60  F   UNL A   1      48.876  27.335  27.711  1.00  0.00    -0.206 F 
ATOM     61  C   UNL A   1      50.539  26.304  29.006  1.00  0.00     0.040 A 
ATOM     62  C   UNL A   1      50.006  25.452  31.194  1.00  0.00     0.040 A 
ATOM     63  F   UNL A   1      47.818  25.621  32.022  1.00  0.00    -0.206 F 
ATOM     64  C   UNL A   1      50.938  25.669  30.181  1.00  0.00     0.006 A 
ENDBRANCH  43  57
BRANCH  44  65
ATOM     65  C   UNL A   1      38.681  29.133  29.018  1.00  0.00     0.057 A 
ATOM     66  C   UNL A   1      37.844  29.056  30.136  1.00  0.00     0.134 A 
ATOM     67  C   UNL A   1      38.119  29.583  27.818  1.00  0.00     0.134 A 
ATOM     68  F   UNL A   1      38.322  28.613  31.307  1.00  0.00    -0.206 F 
ATOM     69  C   UNL A   1      36.492  29.397  30.061  1.00  0.00     0.040 A 
ATOM     70  C   UNL A   1      36.775  29.950  27.735  1.00  0.00     0.040 A 
ATOM     71  F   UNL A   1      38.872  29.686  26.713  1.00  0.00    -0.206 F 
ATOM     72  C   UNL A   1      35.956  29.851  28.858  1.00  0.00     0.006 A 
ENDBRANCH  44  65
BRANCH  56  73
ATOM     73  C   UNL A   1      44.409  32.465  31.144  1.00  0.00     0.057 A 
ATOM     74  C   UNL A   1      44.658  33.531  30.273  1.00  0.00     0.134 A 
ATOM     75  C   UNL A   1      44.344  32.748  32.515  1.00  0.00     0.134 A 
ATOM     76  F   UNL A   1      44.746  33.323  28.950  1.00  0.00    -0.206 F 
ATOM     77  C   UNL A   1      44.858  34.828  30.748  1.00  0.00     0.040 A 
ATOM     78  C   UNL A   1      44.517  34.045  32.999  1.00  0.00     0.040 A 
ATOM     79  F   UNL A   1      44.101  31.772  33.401  1.00  0.00    -0.206 F 
ATOM     80  C   UNL A   1      44.779  35.089  32.115  1.00  0.00     0.006 A 
ENDBRANCH  56  73
ENDBRANCH  30  31
ENDBRANCH  22  25
ENDBRANCH  20  21
ENDBRANCH  19  20
ENDBRANCH   1  19
TORSDOF 13
ENDMDL
