MODEL 1
REMARK VINA RESULT:     -12.0      0.000      0.000
REMARK SMILES CC(C)C[C@H](NC(=O)CNC(=O)[C@@H](NC(=O)OCc1ccccc1)C(C)C)C(=O)NCCCNC(=O)c1ccc(-c2c3nc(c(-c4c(F)cccc4F)c4ccc([nH]4)c(-c4c(F)cccc4F)c4nc(c(-c5c(F)cccc5F)c5ccc2[nH]5)C=C4)C=C3)cc1
REMARK SMILES IDX 5 1 4 2 2 3 1 4 3 5 28 6 29 7 30 8 31 10 32 11 33 12 34 13
REMARK SMILES IDX 35 14 36 16 37 17 38 18 90 19 39 20 89 21 40 22 41 23 42 24
REMARK SMILES IDX 83 25 43 26 88 27 82 28 84 29 44 30 87 31 81 32 80 33 45 35
REMARK SMILES IDX 71 36 54 37 70 38 55 39 58 40 69 41 85 42 56 43 57 44 68 46
REMARK SMILES IDX 86 47 59 48 46 49 47 50 52 51 48 52 49 53 51 54 53 55 50 56
REMARK SMILES IDX 72 57 73 58 78 59 74 60 75 61 77 62 79 63 76 64 60 65 61 66
REMARK SMILES IDX 66 67 62 68 63 69 65 70 67 71 64 72 6 73 7 74 8 76 9 77
REMARK SMILES IDX 10 78 11 79 12 81 13 82 14 83 15 84 16 86 17 87 18 88 19 89
REMARK SMILES IDX 20 90 24 91 21 92 23 93 22 94 25 95 26 96 27 97
REMARK H PARENT 30 9 34 15 84 34 58 45 6 75 10 80 14 85
REMARK Flexibility Score: inf
ROOT
ATOM      1  C   UNL A   1      33.250  21.096  24.842  1.00  0.00     0.171 C 
ENDROOT
BRANCH   1   2
ATOM      2  C   UNL A   1      33.668  22.102  23.765  1.00  0.00     0.038 C 
BRANCH   2   3
ATOM      3  C   UNL A   1      32.780  22.469  22.556  1.00  0.00    -0.015 C 
ATOM      4  C   UNL A   1      31.896  21.336  22.055  1.00  0.00     0.007 C 
ATOM      5  C   UNL A   1      31.899  23.675  22.922  1.00  0.00     0.007 C 
ENDBRANCH   2   3
ENDBRANCH   1   2
BRANCH   1   6
ATOM      6  C   UNL A   1      34.133  19.852  24.966  1.00  0.00     0.242 C 
ATOM      7  O   UNL A   1      33.668  18.717  24.858  1.00  0.00    -0.273 OA
ATOM      8  N   UNL A   1      35.459  19.993  25.229  1.00  0.00    -0.354 N 
ATOM      9  H   UNL A   1      35.989  19.164  25.264  1.00  0.00     0.163 HD
BRANCH   8  10
ATOM     10  C   UNL A   1      36.178  21.223  25.464  1.00  0.00     0.117 C 
BRANCH  10  11
ATOM     11  C   UNL A   1      37.508  21.243  24.754  1.00  0.00     0.042 C 
BRANCH  11  12
ATOM     12  C   UNL A   1      38.653  21.291  25.745  1.00  0.00     0.118 C 
BRANCH  12  13
ATOM     13  N   UNL A   1      39.477  20.083  25.708  1.00  0.00    -0.352 N 
ATOM     14  C   UNL A   1      40.815  19.952  25.985  1.00  0.00     0.251 C 
ATOM     15  H   UNL A   1      39.011  19.254  25.451  1.00  0.00     0.163 HD
ATOM     16  O   UNL A   1      41.418  18.917  25.741  1.00  0.00    -0.269 OA
BRANCH  14  17
ATOM     17  C   UNL A   1      41.498  21.114  26.568  1.00  0.00     0.039 A 
ATOM     18  C   UNL A   1      42.021  22.095  25.728  1.00  0.00     0.014 A 
ATOM     19  C   UNL A   1      41.486  21.271  27.956  1.00  0.00     0.014 A 
ATOM     20  C   UNL A   1      42.470  23.289  26.288  1.00  0.00     0.010 A 
ATOM     21  C   UNL A   1      41.817  22.500  28.492  1.00  0.00     0.010 A 
ATOM     22  C   UNL A   1      42.325  23.514  27.666  1.00  0.00    -0.014 A 
BRANCH  22  23
ATOM     23  C   UNL A   1      42.723  24.788  28.303  1.00  0.00     0.031 A 
ATOM     24  C   UNL A   1      41.677  25.845  28.518  1.00  0.00     0.074 A 
ATOM     25  C   UNL A   1      44.019  25.030  28.574  1.00  0.00     0.049 A 
ATOM     26  N   UNL A   1      41.823  27.090  28.885  1.00  0.00    -0.248 NA
ATOM     27  C   UNL A   1      40.283  25.461  28.232  1.00  0.00     0.031 C 
ATOM     28  C   UNL A   1      45.125  24.094  28.356  1.00  0.00     0.029 A 
ATOM     29  N   UNL A   1      44.628  26.153  29.071  1.00  0.00    -0.354 N 
ATOM     30  C   UNL A   1      40.550  27.643  28.840  1.00  0.00     0.074 A 
ATOM     31  C   UNL A   1      39.655  26.620  28.348  1.00  0.00     0.031 C 
ATOM     32  C   UNL A   1      46.274  24.675  28.739  1.00  0.00     0.029 A 
ATOM     33  C   UNL A   1      45.992  26.037  29.181  1.00  0.00     0.049 A 
ATOM     34  H   UNL A   1      44.133  26.966  29.326  1.00  0.00     0.167 HD
ATOM     35  C   UNL A   1      40.160  28.885  29.203  1.00  0.00     0.037 A 
ATOM     36  C   UNL A   1      46.909  26.938  29.578  1.00  0.00     0.037 A 
ATOM     37  C   UNL A   1      41.053  29.877  29.732  1.00  0.00     0.049 A 
ATOM     38  C   UNL A   1      46.449  28.311  29.987  1.00  0.00     0.074 A 
ATOM     39  C   UNL A   1      40.756  31.146  30.194  1.00  0.00     0.029 A 
ATOM     40  N   UNL A   1      42.422  29.704  29.874  1.00  0.00    -0.354 N 
ATOM     41  N   UNL A   1      45.234  28.806  29.996  1.00  0.00    -0.248 NA
ATOM     42  C   UNL A   1      47.483  29.249  30.442  1.00  0.00     0.031 C 
ATOM     43  C   UNL A   1      41.952  31.757  30.578  1.00  0.00     0.029 A 
ATOM     44  C   UNL A   1      42.987  30.850  30.406  1.00  0.00     0.049 A 
ATOM     45  H   UNL A   1      42.919  28.889  29.634  1.00  0.00     0.167 HD
ATOM     46  C   UNL A   1      45.353  30.096  30.495  1.00  0.00     0.074 A 
ATOM     47  C   UNL A   1      46.757  30.308  30.777  1.00  0.00     0.031 C 
ATOM     48  C   UNL A   1      44.385  31.022  30.703  1.00  0.00     0.037 A 
BRANCH  35  49
ATOM     49  C   UNL A   1      38.707  29.226  29.047  1.00  0.00     0.057 A 
ATOM     50  C   UNL A   1      38.167  29.622  27.815  1.00  0.00     0.134 A 
ATOM     51  C   UNL A   1      37.833  29.141  30.137  1.00  0.00     0.134 A 
ATOM     52  F   UNL A   1      38.953  29.741  26.734  1.00  0.00    -0.206 F 
ATOM     53  C   UNL A   1      36.817  29.950  27.681  1.00  0.00     0.040 A 
ATOM     54  C   UNL A   1      36.475  29.437  30.008  1.00  0.00     0.040 A 
ATOM     55  F   UNL A   1      38.282  28.767  31.344  1.00  0.00    -0.206 F 
ATOM     56  C   UNL A   1      35.965  29.850  28.779  1.00  0.00     0.006 A 
ENDBRANCH  35  49
BRANCH  36  57
ATOM     57  C   UNL A   1      48.345  26.566  29.635  1.00  0.00     0.057 A 
ATOM     58  C   UNL A   1      48.888  25.965  30.776  1.00  0.00     0.134 A 
ATOM     59  C   UNL A   1      49.209  26.799  28.558  1.00  0.00     0.134 A 
ATOM     60  F   UNL A   1      48.114  25.729  31.847  1.00  0.00    -0.206 F 
ATOM     61  C   UNL A   1      50.241  25.631  30.856  1.00  0.00     0.040 A 
ATOM     62  C   UNL A   1      50.558  26.447  28.613  1.00  0.00     0.040 A 
ATOM     63  F   UNL A   1      48.749  27.361  27.431  1.00  0.00    -0.206 F 
ATOM     64  C   UNL A   1      51.080  25.867  29.769  1.00  0.00     0.006 A 
ENDBRANCH  36  57
BRANCH  48  65
ATOM     65  C   UNL A   1      44.798  32.324  31.323  1.00  0.00     0.057 A 
ATOM     66  C   UNL A   1      44.814  32.514  32.709  1.00  0.00     0.134 A 
ATOM     67  C   UNL A   1      45.259  33.373  30.516  1.00  0.00     0.134 A 
ATOM     68  F   UNL A   1      44.375  31.552  33.533  1.00  0.00    -0.206 F 
ATOM     69  C   UNL A   1      45.263  33.710  33.271  1.00  0.00     0.040 A 
ATOM     70  C   UNL A   1      45.735  34.562  31.068  1.00  0.00     0.040 A 
ATOM     71  F   UNL A   1      45.277  33.248  29.180  1.00  0.00    -0.206 F 
ATOM     72  C   UNL A   1      45.736  34.733  32.451  1.00  0.00     0.006 A 
ENDBRANCH  48  65
ENDBRANCH  22  23
ENDBRANCH  14  17
ENDBRANCH  12  13
ENDBRANCH  11  12
ENDBRANCH  10  11
ENDBRANCH   8  10
ENDBRANCH   1   6
BRANCH   1  73
ATOM     73  N   UNL A   1      32.912  21.555  26.222  1.00  0.00    -0.343 N 
ATOM     74  C   UNL A   1      32.848  22.627  27.038  1.00  0.00     0.240 C 
ATOM     75  H   UNL A   1      32.621  20.768  26.738  1.00  0.00     0.164 HD
ATOM     76  O   UNL A   1      32.867  22.327  28.246  1.00  0.00    -0.273 OA
BRANCH  74  77
ATOM     77  C   UNL A   1      32.563  24.107  26.713  1.00  0.00     0.216 C 
BRANCH  77  78
ATOM     78  N   UNL A   1      31.255  24.713  26.644  1.00  0.00    -0.345 N 
ATOM     79  C   UNL A   1      30.762  25.769  25.946  1.00  0.00     0.243 C 
ATOM     80  H   UNL A   1      30.585  24.273  27.217  1.00  0.00     0.164 HD
ATOM     81  O   UNL A   1      29.527  25.804  25.890  1.00  0.00    -0.273 OA
BRANCH  79  82
ATOM     82  C   UNL A   1      31.626  26.940  25.364  1.00  0.00     0.177 C 
BRANCH  82  83
ATOM     83  N   UNL A   1      31.540  27.101  23.912  1.00  0.00    -0.309 N 
ATOM     84  C   UNL A   1      30.570  27.514  23.074  1.00  0.00     0.408 C 
ATOM     85  H   UNL A   1      32.372  26.853  23.447  1.00  0.00     0.167 HD
ATOM     86  O   UNL A   1      30.676  27.278  21.875  1.00  0.00    -0.225 OA
BRANCH  84  87
ATOM     87  O   UNL A   1      29.604  28.237  23.661  1.00  0.00    -0.445 OA
BRANCH  87  88
ATOM     88  C   UNL A   1      28.512  28.545  22.788  1.00  0.00     0.270 C 
BRANCH  88  89
ATOM     89  C   UNL A   1      28.378  30.030  22.492  1.00  0.00    -0.011 A 
ATOM     90  C   UNL A   1      28.521  31.029  23.473  1.00  0.00     0.007 A 
ATOM     91  C   UNL A   1      28.190  30.441  21.166  1.00  0.00     0.007 A 
ATOM     92  C   UNL A   1      28.457  32.384  23.150  1.00  0.00     0.000 A 
ATOM     93  C   UNL A   1      28.129  31.797  20.840  1.00  0.00     0.000 A 
ATOM     94  C   UNL A   1      28.263  32.768  21.830  1.00  0.00     0.000 A 
ENDBRANCH  88  89
ENDBRANCH  87  88
ENDBRANCH  84  87
ENDBRANCH  82  83
BRANCH  82  95
ATOM     95  C   UNL A   1      31.616  28.239  26.206  1.00  0.00     0.015 C 
ATOM     96  C   UNL A   1      32.134  28.027  27.638  1.00  0.00     0.010 C 
ATOM     97  C   UNL A   1      32.509  29.316  25.569  1.00  0.00     0.010 C 
ENDBRANCH  82  95
ENDBRANCH  79  82
ENDBRANCH  77  78
ENDBRANCH  74  77
ENDBRANCH   1  73
TORSDOF 21
ENDMDL
MODEL 2
REMARK VINA RESULT:     -11.9      4.049      9.744
REMARK SMILES CC(C)C[C@H](NC(=O)CNC(=O)[C@@H](NC(=O)OCc1ccccc1)C(C)C)C(=O)NCCCNC(=O)c1ccc(-c2c3nc(c(-c4c(F)cccc4F)c4ccc([nH]4)c(-c4c(F)cccc4F)c4nc(c(-c5c(F)cccc5F)c5ccc2[nH]5)C=C4)C=C3)cc1
REMARK SMILES IDX 5 1 4 2 2 3 1 4 3 5 28 6 29 7 30 8 31 10 32 11 33 12 34 13
REMARK SMILES IDX 35 14 36 16 37 17 38 18 90 19 39 20 89 21 40 22 41 23 42 24
REMARK SMILES IDX 83 25 43 26 88 27 82 28 84 29 44 30 87 31 81 32 80 33 45 35
REMARK SMILES IDX 71 36 54 37 70 38 55 39 58 40 69 41 85 42 56 43 57 44 68 46
REMARK SMILES IDX 86 47 59 48 46 49 47 50 52 51 48 52 49 53 51 54 53 55 50 56
REMARK SMILES IDX 72 57 73 58 78 59 74 60 75 61 77 62 79 63 76 64 60 65 61 66
REMARK SMILES IDX 66 67 62 68 63 69 65 70 67 71 64 72 6 73 7 74 8 76 9 77
REMARK SMILES IDX 10 78 11 79 12 81 13 82 14 83 15 84 16 86 17 87 18 88 19 89
REMARK SMILES IDX 20 90 24 91 21 92 23 93 22 94 25 95 26 96 27 97
REMARK H PARENT 30 9 34 15 84 34 58 45 6 75 10 80 14 85
REMARK Flexibility Score: inf
ROOT
ATOM      1  C   UNL A   1      31.060  28.925  24.091  1.00  0.00     0.171 C 
ENDROOT
BRANCH   1   2
ATOM      2  C   UNL A   1      32.244  28.804  23.128  1.00  0.00     0.038 C 
BRANCH   2   3
ATOM      3  C   UNL A   1      33.465  27.896  23.393  1.00  0.00    -0.015 C 
ATOM      4  C   UNL A   1      33.685  27.546  24.858  1.00  0.00     0.007 C 
ATOM      5  C   UNL A   1      33.317  26.599  22.580  1.00  0.00     0.007 C 
ENDBRANCH   2   3
ENDBRANCH   1   2
BRANCH   1   6
ATOM      6  C   UNL A   1      30.333  30.273  24.084  1.00  0.00     0.242 C 
ATOM      7  O   UNL A   1      29.468  30.535  23.248  1.00  0.00    -0.273 OA
ATOM      8  N   UNL A   1      30.663  31.219  25.002  1.00  0.00    -0.354 N 
ATOM      9  H   UNL A   1      30.142  32.053  24.978  1.00  0.00     0.163 HD
BRANCH   8  10
ATOM     10  C   UNL A   1      31.694  31.137  26.010  1.00  0.00     0.117 C 
BRANCH  10  11
ATOM     11  C   UNL A   1      31.461  32.115  27.134  1.00  0.00     0.042 C 
BRANCH  11  12
ATOM     12  C   UNL A   1      32.726  32.884  27.456  1.00  0.00     0.118 C 
BRANCH  12  13
ATOM     13  N   UNL A   1      32.477  34.310  27.669  1.00  0.00    -0.352 N 
ATOM     14  C   UNL A   1      33.037  35.145  28.602  1.00  0.00     0.251 C 
ATOM     15  H   UNL A   1      31.821  34.724  27.063  1.00  0.00     0.163 HD
ATOM     16  O   UNL A   1      32.606  36.274  28.787  1.00  0.00    -0.269 OA
BRANCH  14  17
ATOM     17  C   UNL A   1      34.163  34.621  29.385  1.00  0.00     0.039 A 
ATOM     18  C   UNL A   1      33.916  33.976  30.596  1.00  0.00     0.014 A 
ATOM     19  C   UNL A   1      35.443  34.663  28.829  1.00  0.00     0.014 A 
ATOM     20  C   UNL A   1      34.959  33.296  31.220  1.00  0.00     0.010 A 
ATOM     21  C   UNL A   1      36.440  33.887  29.386  1.00  0.00     0.010 A 
ATOM     22  C   UNL A   1      36.212  33.209  30.593  1.00  0.00    -0.014 A 
BRANCH  22  23
ATOM     23  C   UNL A   1      37.335  32.445  31.178  1.00  0.00     0.031 A 
ATOM     24  C   UNL A   1      37.928  32.913  32.476  1.00  0.00     0.074 A 
ATOM     25  C   UNL A   1      37.880  31.421  30.496  1.00  0.00     0.049 A 
ATOM     26  N   UNL A   1      39.017  32.516  33.078  1.00  0.00    -0.248 NA
ATOM     27  C   UNL A   1      37.227  34.012  33.164  1.00  0.00     0.031 C 
ATOM     28  C   UNL A   1      37.417  30.915  29.202  1.00  0.00     0.029 A 
ATOM     29  N   UNL A   1      38.965  30.636  30.790  1.00  0.00    -0.354 N 
ATOM     30  C   UNL A   1      39.148  33.338  34.190  1.00  0.00     0.074 A 
ATOM     31  C   UNL A   1      38.067  34.295  34.146  1.00  0.00     0.031 C 
ATOM     32  C   UNL A   1      38.199  29.890  28.824  1.00  0.00     0.029 A 
ATOM     33  C   UNL A   1      39.246  29.701  29.823  1.00  0.00     0.049 A 
ATOM     34  H   UNL A   1      39.493  30.733  31.616  1.00  0.00     0.167 HD
ATOM     35  C   UNL A   1      40.073  33.279  35.175  1.00  0.00     0.037 A 
ATOM     36  C   UNL A   1      40.247  28.804  29.749  1.00  0.00     0.037 A 
ATOM     37  C   UNL A   1      41.116  32.294  35.229  1.00  0.00     0.049 A 
ATOM     38  C   UNL A   1      41.258  28.752  30.862  1.00  0.00     0.074 A 
ATOM     39  C   UNL A   1      42.067  32.099  36.213  1.00  0.00     0.029 A 
ATOM     40  N   UNL A   1      41.337  31.331  34.255  1.00  0.00    -0.354 N 
ATOM     41  N   UNL A   1      41.339  29.495  31.940  1.00  0.00    -0.248 NA
ATOM     42  C   UNL A   1      42.314  27.737  30.752  1.00  0.00     0.031 C 
ATOM     43  C   UNL A   1      42.891  31.043  35.815  1.00  0.00     0.029 A 
ATOM     44  C   UNL A   1      42.420  30.546  34.609  1.00  0.00     0.049 A 
ATOM     45  H   UNL A   1      40.805  31.222  33.435  1.00  0.00     0.167 HD
ATOM     46  C   UNL A   1      42.428  29.012  32.655  1.00  0.00     0.074 A 
ATOM     47  C   UNL A   1      42.975  27.913  31.889  1.00  0.00     0.031 C 
ATOM     48  C   UNL A   1      42.927  29.439  33.840  1.00  0.00     0.037 A 
BRANCH  35  49
ATOM     49  C   UNL A   1      39.983  34.302  36.268  1.00  0.00     0.057 A 
ATOM     50  C   UNL A   1      39.241  34.076  37.436  1.00  0.00     0.134 A 
ATOM     51  C   UNL A   1      40.661  35.523  36.162  1.00  0.00     0.134 A 
ATOM     52  F   UNL A   1      38.553  32.934  37.595  1.00  0.00    -0.206 F 
ATOM     53  C   UNL A   1      39.152  35.037  38.444  1.00  0.00     0.040 A 
ATOM     54  C   UNL A   1      40.605  36.479  37.177  1.00  0.00     0.040 A 
ATOM     55  F   UNL A   1      41.391  35.804  35.073  1.00  0.00    -0.206 F 
ATOM     56  C   UNL A   1      39.843  36.241  38.318  1.00  0.00     0.006 A 
ENDBRANCH  35  49
BRANCH  36  57
ATOM     57  C   UNL A   1      40.329  27.870  28.599  1.00  0.00     0.057 A 
ATOM     58  C   UNL A   1      41.049  28.209  27.447  1.00  0.00     0.134 A 
ATOM     59  C   UNL A   1      39.695  26.622  28.618  1.00  0.00     0.134 A 
ATOM     60  F   UNL A   1      41.666  29.398  27.363  1.00  0.00    -0.206 F 
ATOM     61  C   UNL A   1      41.116  27.353  26.347  1.00  0.00     0.040 A 
ATOM     62  C   UNL A   1      39.775  25.745  27.535  1.00  0.00     0.040 A 
ATOM     63  F   UNL A   1      39.000  26.232  29.696  1.00  0.00    -0.206 F 
ATOM     64  C   UNL A   1      40.482  26.114  26.391  1.00  0.00     0.006 A 
ENDBRANCH  36  57
BRANCH  48  65
ATOM     65  C   UNL A   1      44.083  28.678  34.416  1.00  0.00     0.057 A 
ATOM     66  C   UNL A   1      45.410  29.073  34.207  1.00  0.00     0.134 A 
ATOM     67  C   UNL A   1      43.856  27.580  35.256  1.00  0.00     0.134 A 
ATOM     68  F   UNL A   1      45.692  30.109  33.404  1.00  0.00    -0.206 F 
ATOM     69  C   UNL A   1      46.471  28.392  34.804  1.00  0.00     0.040 A 
ATOM     70  C   UNL A   1      44.907  26.909  35.880  1.00  0.00     0.040 A 
ATOM     71  F   UNL A   1      42.606  27.159  35.504  1.00  0.00    -0.206 F 
ATOM     72  C   UNL A   1      46.221  27.314  35.652  1.00  0.00     0.006 A 
ENDBRANCH  48  65
ENDBRANCH  22  23
ENDBRANCH  14  17
ENDBRANCH  12  13
ENDBRANCH  11  12
ENDBRANCH  10  11
ENDBRANCH   8  10
ENDBRANCH   1   6
BRANCH   1  73
ATOM     73  N   UNL A   1      30.026  27.850  24.166  1.00  0.00    -0.343 N 
ATOM     74  C   UNL A   1      29.817  26.544  24.428  1.00  0.00     0.240 C 
ATOM     75  H   UNL A   1      29.157  28.252  23.934  1.00  0.00     0.164 HD
ATOM     76  O   UNL A   1      28.764  26.105  23.928  1.00  0.00    -0.273 OA
BRANCH  74  77
ATOM     77  C   UNL A   1      30.560  25.592  25.386  1.00  0.00     0.216 C 
BRANCH  77  78
ATOM     78  N   UNL A   1      29.944  24.555  26.181  1.00  0.00    -0.345 N 
ATOM     79  C   UNL A   1      30.423  23.414  26.740  1.00  0.00     0.243 C 
ATOM     80  H   UNL A   1      28.985  24.705  26.351  1.00  0.00     0.164 HD
ATOM     81  O   UNL A   1      29.690  22.936  27.614  1.00  0.00    -0.273 OA
BRANCH  79  82
ATOM     82  C   UNL A   1      31.709  22.654  26.265  1.00  0.00     0.177 C 
BRANCH  82  83
ATOM     83  N   UNL A   1      31.900  22.621  24.815  1.00  0.00    -0.309 N 
ATOM     84  C   UNL A   1      32.341  21.685  23.953  1.00  0.00     0.408 C 
ATOM     85  H   UNL A   1      31.654  23.466  24.374  1.00  0.00     0.167 HD
ATOM     86  O   UNL A   1      32.670  22.023  22.821  1.00  0.00    -0.225 OA
BRANCH  84  87
ATOM     87  O   UNL A   1      32.288  20.430  24.425  1.00  0.00    -0.445 OA
BRANCH  87  88
ATOM     88  C   UNL A   1      33.576  19.825  24.585  1.00  0.00     0.270 C 
BRANCH  88  89
ATOM     89  C   UNL A   1      33.522  18.310  24.692  1.00  0.00    -0.011 A 
ATOM     90  C   UNL A   1      34.344  17.452  23.940  1.00  0.00     0.007 A 
ATOM     91  C   UNL A   1      32.677  17.732  25.649  1.00  0.00     0.007 A 
ATOM     92  C   UNL A   1      34.311  16.069  24.116  1.00  0.00     0.000 A 
ATOM     93  C   UNL A   1      32.645  16.347  25.829  1.00  0.00     0.000 A 
ATOM     94  C   UNL A   1      33.461  15.516  25.063  1.00  0.00     0.000 A 
ENDBRANCH  88  89
ENDBRANCH  87  88
ENDBRANCH  84  87
ENDBRANCH  82  83
BRANCH  82  95
ATOM     95  C   UNL A   1      32.972  22.910  27.124  1.00  0.00     0.015 C 
ATOM     96  C   UNL A   1      33.712  21.615  27.497  1.00  0.00     0.010 C 
ATOM     97  C   UNL A   1      33.980  23.793  26.372  1.00  0.00     0.010 C 
ENDBRANCH  82  95
ENDBRANCH  79  82
ENDBRANCH  77  78
ENDBRANCH  74  77
ENDBRANCH   1  73
TORSDOF 21
ENDMDL
MODEL 3
REMARK VINA RESULT:     -11.9      0.515      5.908
REMARK SMILES CC(C)C[C@H](NC(=O)CNC(=O)[C@@H](NC(=O)OCc1ccccc1)C(C)C)C(=O)NCCCNC(=O)c1ccc(-c2c3nc(c(-c4c(F)cccc4F)c4ccc([nH]4)c(-c4c(F)cccc4F)c4nc(c(-c5c(F)cccc5F)c5ccc2[nH]5)C=C4)C=C3)cc1
REMARK SMILES IDX 5 1 4 2 2 3 1 4 3 5 28 6 29 7 30 8 31 10 32 11 33 12 34 13
REMARK SMILES IDX 35 14 36 16 37 17 38 18 90 19 39 20 89 21 40 22 41 23 42 24
REMARK SMILES IDX 83 25 43 26 88 27 82 28 84 29 44 30 87 31 81 32 80 33 45 35
REMARK SMILES IDX 71 36 54 37 70 38 55 39 58 40 69 41 85 42 56 43 57 44 68 46
REMARK SMILES IDX 86 47 59 48 46 49 47 50 52 51 48 52 49 53 51 54 53 55 50 56
REMARK SMILES IDX 72 57 73 58 78 59 74 60 75 61 77 62 79 63 76 64 60 65 61 66
REMARK SMILES IDX 66 67 62 68 63 69 65 70 67 71 64 72 6 73 7 74 8 76 9 77
REMARK SMILES IDX 10 78 11 79 12 81 13 82 14 83 15 84 16 86 17 87 18 88 19 89
REMARK SMILES IDX 20 90 24 91 21 92 23 93 22 94 25 95 26 96 27 97
REMARK H PARENT 30 9 34 15 84 34 58 45 6 75 10 80 14 85
REMARK Flexibility Score: inf
ROOT
ATOM      1  C   UNL A   1      33.532  21.307  24.783  1.00  0.00     0.171 C 
ENDROOT
BRANCH   1   2
ATOM      2  C   UNL A   1      34.271  22.295  23.877  1.00  0.00     0.038 C 
BRANCH   2   3
ATOM      3  C   UNL A   1      33.553  23.352  23.009  1.00  0.00    -0.015 C 
ATOM      4  C   UNL A   1      32.034  23.316  23.099  1.00  0.00     0.007 C 
ATOM      5  C   UNL A   1      34.050  24.753  23.403  1.00  0.00     0.007 C 
ENDBRANCH   2   3
ENDBRANCH   1   2
BRANCH   1   6
ATOM      6  C   UNL A   1      34.161  19.916  24.901  1.00  0.00     0.242 C 
ATOM      7  O   UNL A   1      33.483  18.892  24.819  1.00  0.00    -0.273 OA
ATOM      8  N   UNL A   1      35.496  19.800  25.128  1.00  0.00    -0.354 N 
ATOM      9  H   UNL A   1      35.857  18.884  25.159  1.00  0.00     0.163 HD
BRANCH   8  10
ATOM     10  C   UNL A   1      36.445  20.870  25.329  1.00  0.00     0.117 C 
BRANCH  10  11
ATOM     11  C   UNL A   1      37.806  20.527  24.776  1.00  0.00     0.042 C 
BRANCH  11  12
ATOM     12  C   UNL A   1      38.881  20.706  25.829  1.00  0.00     0.118 C 
BRANCH  12  13
ATOM     13  N   UNL A   1      39.833  19.596  25.853  1.00  0.00    -0.352 N 
ATOM     14  C   UNL A   1      41.182  19.632  26.103  1.00  0.00     0.251 C 
ATOM     15  H   UNL A   1      39.457  18.705  25.665  1.00  0.00     0.163 HD
ATOM     16  O   UNL A   1      41.891  18.654  25.914  1.00  0.00    -0.269 OA
BRANCH  14  17
ATOM     17  C   UNL A   1      41.742  20.900  26.586  1.00  0.00     0.039 A 
ATOM     18  C   UNL A   1      42.262  21.814  25.672  1.00  0.00     0.014 A 
ATOM     19  C   UNL A   1      41.618  21.214  27.942  1.00  0.00     0.014 A 
ATOM     20  C   UNL A   1      42.589  23.094  26.113  1.00  0.00     0.010 A 
ATOM     21  C   UNL A   1      41.827  22.517  28.348  1.00  0.00     0.010 A 
ATOM     22  C   UNL A   1      42.328  23.464  27.443  1.00  0.00    -0.014 A 
BRANCH  22  23
ATOM     23  C   UNL A   1      42.594  24.828  27.947  1.00  0.00     0.031 A 
ATOM     24  C   UNL A   1      43.981  25.169  28.412  1.00  0.00     0.074 A 
ATOM     25  C   UNL A   1      41.581  25.703  28.090  1.00  0.00     0.049 A 
ATOM     26  N   UNL A   1      44.402  26.226  29.053  1.00  0.00    -0.248 NA
ATOM     27  C   UNL A   1      45.025  24.157  28.168  1.00  0.00     0.031 C 
ATOM     28  C   UNL A   1      40.185  25.459  27.720  1.00  0.00     0.029 A 
ATOM     29  N   UNL A   1      41.569  26.971  28.612  1.00  0.00    -0.354 N 
ATOM     30  C   UNL A   1      45.745  25.991  29.316  1.00  0.00     0.074 A 
ATOM     31  C   UNL A   1      46.054  24.667  28.826  1.00  0.00     0.031 C 
ATOM     32  C   UNL A   1      39.457  26.551  28.006  1.00  0.00     0.029 A 
ATOM     33  C   UNL A   1      40.323  27.549  28.623  1.00  0.00     0.049 A 
ATOM     34  H   UNL A   1      42.377  27.423  28.946  1.00  0.00     0.167 HD
ATOM     35  C   UNL A   1      46.647  26.818  29.891  1.00  0.00     0.037 A 
ATOM     36  C   UNL A   1      39.928  28.746  29.097  1.00  0.00     0.037 A 
ATOM     37  C   UNL A   1      46.336  28.149  30.334  1.00  0.00     0.049 A 
ATOM     38  C   UNL A   1      40.951  29.653  29.723  1.00  0.00     0.074 A 
ATOM     39  C   UNL A   1      47.186  29.099  30.870  1.00  0.00     0.029 A 
ATOM     40  N   UNL A   1      45.073  28.718  30.283  1.00  0.00    -0.354 N 
ATOM     41  N   UNL A   1      42.232  29.445  29.914  1.00  0.00    -0.248 NA
ATOM     42  C   UNL A   1      40.478  30.960  30.197  1.00  0.00     0.031 C 
ATOM     43  C   UNL A   1      46.427  30.230  31.182  1.00  0.00     0.029 A 
ATOM     44  C   UNL A   1      45.116  30.004  30.791  1.00  0.00     0.049 A 
ATOM     45  H   UNL A   1      44.264  28.275  29.938  1.00  0.00     0.167 HD
ATOM     46  C   UNL A   1      42.725  30.608  30.492  1.00  0.00     0.074 A 
ATOM     47  C   UNL A   1      41.605  31.517  30.619  1.00  0.00     0.031 C 
ATOM     48  C   UNL A   1      43.991  30.898  30.880  1.00  0.00     0.037 A 
BRANCH  35  49
ATOM     49  C   UNL A   1      48.046  26.306  30.060  1.00  0.00     0.057 A 
ATOM     50  C   UNL A   1      49.006  26.425  29.045  1.00  0.00     0.134 A 
ATOM     51  C   UNL A   1      48.446  25.701  31.258  1.00  0.00     0.134 A 
ATOM     52  F   UNL A   1      48.685  26.979  27.865  1.00  0.00    -0.206 F 
ATOM     53  C   UNL A   1      50.303  25.934  29.204  1.00  0.00     0.040 A 
ATOM     54  C   UNL A   1      49.749  25.234  31.440  1.00  0.00     0.040 A 
ATOM     55  F   UNL A   1      47.579  25.556  32.270  1.00  0.00    -0.206 F 
ATOM     56  C   UNL A   1      50.679  25.343  30.408  1.00  0.00     0.006 A 
ENDBRANCH  35  49
BRANCH  36  57
ATOM     57  C   UNL A   1      38.509  29.165  28.974  1.00  0.00     0.057 A 
ATOM     58  C   UNL A   1      38.008  29.659  27.764  1.00  0.00     0.134 A 
ATOM     59  C   UNL A   1      37.622  29.085  30.053  1.00  0.00     0.134 A 
ATOM     60  F   UNL A   1      38.813  29.774  26.697  1.00  0.00    -0.206 F 
ATOM     61  C   UNL A   1      36.683  30.080  27.637  1.00  0.00     0.040 A 
ATOM     62  C   UNL A   1      36.288  29.479  29.934  1.00  0.00     0.040 A 
ATOM     63  F   UNL A   1      38.036  28.609  31.236  1.00  0.00    -0.206 F 
ATOM     64  C   UNL A   1      35.817  29.986  28.724  1.00  0.00     0.006 A 
ENDBRANCH  36  57
BRANCH  48  65
ATOM     65  C   UNL A   1      44.250  32.273  31.418  1.00  0.00     0.057 A 
ATOM     66  C   UNL A   1      44.209  32.555  32.788  1.00  0.00     0.134 A 
ATOM     67  C   UNL A   1      44.621  33.310  30.551  1.00  0.00     0.134 A 
ATOM     68  F   UNL A   1      43.850  31.607  33.666  1.00  0.00    -0.206 F 
ATOM     69  C   UNL A   1      44.517  33.824  33.277  1.00  0.00     0.040 A 
ATOM     70  C   UNL A   1      44.957  34.576  31.031  1.00  0.00     0.040 A 
ATOM     71  F   UNL A   1      44.688  33.101  29.228  1.00  0.00    -0.206 F 
ATOM     72  C   UNL A   1      44.903  34.836  32.399  1.00  0.00     0.006 A 
ENDBRANCH  48  65
ENDBRANCH  22  23
ENDBRANCH  14  17
ENDBRANCH  12  13
ENDBRANCH  11  12
ENDBRANCH  10  11
ENDBRANCH   8  10
ENDBRANCH   1   6
BRANCH   1  73
ATOM     73  N   UNL A   1      33.074  21.717  26.144  1.00  0.00    -0.343 N 
ATOM     74  C   UNL A   1      32.906  22.765  26.977  1.00  0.00     0.240 C 
ATOM     75  H   UNL A   1      32.780  20.906  26.619  1.00  0.00     0.164 HD
ATOM     76  O   UNL A   1      32.850  22.435  28.176  1.00  0.00    -0.273 OA
BRANCH  74  77
ATOM     77  C   UNL A   1      32.585  24.240  26.664  1.00  0.00     0.216 C 
BRANCH  77  78
ATOM     78  N   UNL A   1      31.260  24.804  26.560  1.00  0.00    -0.345 N 
ATOM     79  C   UNL A   1      30.757  25.854  25.861  1.00  0.00     0.243 C 
ATOM     80  H   UNL A   1      30.587  24.335  27.105  1.00  0.00     0.164 HD
ATOM     81  O   UNL A   1      29.524  25.850  25.764  1.00  0.00    -0.273 OA
BRANCH  79  82
ATOM     82  C   UNL A   1      31.601  27.060  25.324  1.00  0.00     0.177 C 
BRANCH  82  83
ATOM     83  N   UNL A   1      31.513  27.275  23.879  1.00  0.00    -0.309 N 
ATOM     84  C   UNL A   1      30.502  27.570  23.039  1.00  0.00     0.408 C 
ATOM     85  H   UNL A   1      32.381  27.184  23.422  1.00  0.00     0.167 HD
ATOM     86  O   UNL A   1      30.662  27.410  21.834  1.00  0.00    -0.225 OA
BRANCH  84  87
ATOM     87  O   UNL A   1      29.425  28.101  23.635  1.00  0.00    -0.445 OA
BRANCH  87  88
ATOM     88  C   UNL A   1      28.424  28.548  22.714  1.00  0.00     0.270 C 
BRANCH  88  89
ATOM     89  C   UNL A   1      28.467  30.046  22.457  1.00  0.00    -0.011 A 
ATOM     90  C   UNL A   1      28.139  30.627  21.218  1.00  0.00     0.007 A 
ATOM     91  C   UNL A   1      28.760  30.905  23.523  1.00  0.00     0.007 A 
ATOM     92  C   UNL A   1      28.125  32.010  21.041  1.00  0.00     0.000 A 
ATOM     93  C   UNL A   1      28.744  32.291  23.349  1.00  0.00     0.000 A 
ATOM     94  C   UNL A   1      28.427  32.843  22.110  1.00  0.00     0.000 A 
ENDBRANCH  88  89
ENDBRANCH  87  88
ENDBRANCH  84  87
ENDBRANCH  82  83
BRANCH  82  95
ATOM     95  C   UNL A   1      31.569  28.327  26.215  1.00  0.00     0.015 C 
ATOM     96  C   UNL A   1      32.543  28.247  27.402  1.00  0.00     0.010 C 
ATOM     97  C   UNL A   1      31.958  29.577  25.409  1.00  0.00     0.010 C 
ENDBRANCH  82  95
ENDBRANCH  79  82
ENDBRANCH  77  78
ENDBRANCH  74  77
ENDBRANCH   1  73
TORSDOF 21
ENDMDL
