MODEL 1
REMARK VINA RESULT:     -13.2      0.000      0.000
REMARK SMILES O=C(NCCCNC(=O)c1ccc(-c2c3nc(c(-c4c(F)cccc4F)c4ccc([nH]4)c(-c4c(F)cccc4F)c4nc(c(-c5c(F)cccc5F)c5ccc2[nH]5)C=C4)C=C3)cc1)C1=Cc2cc(S(F)(F)(F)(F)F)ccc2O[C@H]1C(F)(F)F
REMARK SMILES IDX 5 1 4 2 3 3 1 4 2 5 64 7 65 8 79 9 66 10 78 11 67 12 77 13
REMARK SMILES IDX 68 14 76 15 75 16 80 17 81 18 82 19 83 20 69 21 70 22 71 23
REMARK SMILES IDX 72 24 73 25 74 26 6 27 7 28 8 29 9 31 10 32 11 33 63 34
REMARK SMILES IDX 12 35 62 36 13 37 14 38 15 39 56 40 16 41 61 42 55 43 57 44
REMARK SMILES IDX 17 45 60 46 54 47 53 48 18 50 44 51 27 52 43 53 28 54 31 55
REMARK SMILES IDX 42 56 58 57 29 58 30 59 41 61 59 62 32 63 19 64 20 65 25 66
REMARK SMILES IDX 21 67 22 68 24 69 26 70 23 71 45 72 46 73 51 74 47 75 48 76
REMARK SMILES IDX 50 77 52 78 49 79 33 80 34 81 39 82 35 83 36 84 38 85 40 86
REMARK SMILES IDX 37 87
REMARK H PARENT 3 6 7 30 57 49 31 60
REMARK Flexibility Score: inf
ROOT
ATOM      1  C   UNL A   1      33.798  29.081  26.287  1.00  0.00     0.042 C 
ENDROOT
BRANCH   1   2
ATOM      2  C   UNL A   1      33.517  27.715  25.684  1.00  0.00     0.118 C 
BRANCH   2   3
ATOM      3  N   UNL A   1      32.277  27.173  26.257  1.00  0.00    -0.352 N 
ATOM      4  O   UNL A   1      30.332  25.845  25.937  1.00  0.00    -0.270 OA
ATOM      5  C   UNL A   1      31.405  26.314  25.442  1.00  0.00     0.251 C 
ATOM      6  H   UNL A   1      32.030  27.384  27.186  1.00  0.00     0.163 HD
BRANCH   5   7
ATOM      7  C   UNL A   1      31.786  25.986  24.007  1.00  0.00     0.067 C 
ATOM      8  C   UNL A   1      32.767  25.079  23.755  1.00  0.00     0.025 C 
ATOM      9  C   UNL A   1      31.071  26.672  22.856  1.00  0.00     0.314 C 
ATOM     10  C   UNL A   1      33.483  24.393  24.907  1.00  0.00     0.019 A 
ATOM     11  O   UNL A   1      31.384  24.192  26.003  1.00  0.00    -0.475 OA
ATOM     12  C   UNL A   1      34.863  24.277  24.876  1.00  0.00     0.036 A 
ATOM     13  C   UNL A   1      32.774  23.915  25.924  1.00  0.00     0.128 A 
ATOM     14  C   UNL A   1      35.384  23.377  25.836  1.00  0.00     0.107 A 
ATOM     15  C   UNL A   1      33.374  23.157  26.900  1.00  0.00     0.048 A 
ATOM     16  C   UNL A   1      34.726  22.951  26.898  1.00  0.00     0.028 A 
BRANCH   9  17
ATOM     17  C   UNL A   1      30.027  27.631  23.406  1.00  0.00     0.429 C 
ATOM     18  F   UNL A   1      29.044  26.882  23.896  1.00  0.00    -0.167 F 
ATOM     19  F   UNL A   1      30.470  28.456  24.351  1.00  0.00    -0.167 F 
ATOM     20  F   UNL A   1      29.573  28.339  22.376  1.00  0.00    -0.167 F 
ENDBRANCH   9  17
BRANCH  14  21
ATOM     21  S   UNL A   1      37.070  22.766  25.589  1.00  0.00     0.310 S 
ATOM     22  F   UNL A   1      37.244  23.606  24.254  1.00  0.00    -0.094 F 
ATOM     23  F   UNL A   1      36.488  21.603  24.699  1.00  0.00    -0.094 F 
ATOM     24  F   UNL A   1      38.518  22.242  25.375  1.00  0.00    -0.094 F 
ATOM     25  F   UNL A   1      37.645  24.016  26.365  1.00  0.00    -0.094 F 
ATOM     26  F   UNL A   1      35.616  23.373  25.719  1.00  0.00    -0.094 F 
ENDBRANCH  14  21
ENDBRANCH   5   7
ENDBRANCH   2   3
ENDBRANCH   1   2
BRANCH   1  27
ATOM     27  C   UNL A   1      34.932  28.967  27.294  1.00  0.00     0.118 C 
BRANCH  27  28
ATOM     28  N   UNL A   1      34.726  29.940  28.376  1.00  0.00    -0.352 N 
ATOM     29  C   UNL A   1      35.851  30.331  29.235  1.00  0.00     0.251 C 
ATOM     30  H   UNL A   1      33.834  30.328  28.525  1.00  0.00     0.163 HD
ATOM     31  O   UNL A   1      35.673  31.173  30.171  1.00  0.00    -0.269 OA
BRANCH  29  32
ATOM     32  C   UNL A   1      37.229  29.732  29.005  1.00  0.00     0.039 A 
ATOM     33  C   UNL A   1      37.880  29.111  30.059  1.00  0.00     0.014 A 
ATOM     34  C   UNL A   1      37.815  29.877  27.823  1.00  0.00     0.014 A 
ATOM     35  C   UNL A   1      39.268  28.931  29.849  1.00  0.00     0.010 A 
ATOM     36  C   UNL A   1      39.140  29.554  27.655  1.00  0.00     0.010 A 
ATOM     37  C   UNL A   1      39.861  28.992  28.671  1.00  0.00    -0.014 A 
BRANCH  37  38
ATOM     38  C   UNL A   1      41.270  28.463  28.456  1.00  0.00     0.031 A 
ATOM     39  C   UNL A   1      41.442  27.105  28.178  1.00  0.00     0.074 A 
ATOM     40  C   UNL A   1      42.298  29.389  28.455  1.00  0.00     0.049 A 
ATOM     41  N   UNL A   1      42.572  26.482  27.841  1.00  0.00    -0.248 NA
ATOM     42  C   UNL A   1      40.358  26.113  28.212  1.00  0.00     0.031 C 
ATOM     43  C   UNL A   1      42.130  30.762  28.727  1.00  0.00     0.029 A 
ATOM     44  N   UNL A   1      43.634  29.170  28.202  1.00  0.00    -0.354 N 
ATOM     45  C   UNL A   1      42.338  25.183  27.634  1.00  0.00     0.074 A 
ATOM     46  C   UNL A   1      40.912  24.926  27.875  1.00  0.00     0.031 C 
ATOM     47  C   UNL A   1      43.348  31.358  28.649  1.00  0.00     0.029 A 
ATOM     48  C   UNL A   1      44.298  30.370  28.328  1.00  0.00     0.049 A 
ATOM     49  H   UNL A   1      44.043  28.305  27.971  1.00  0.00     0.167 HD
ATOM     50  C   UNL A   1      43.257  24.206  27.251  1.00  0.00     0.037 A 
ATOM     51  C   UNL A   1      45.655  30.608  28.177  1.00  0.00     0.037 A 
ATOM     52  C   UNL A   1      44.607  24.453  27.058  1.00  0.00     0.049 A 
ATOM     53  C   UNL A   1      46.585  29.618  27.851  1.00  0.00     0.074 A 
ATOM     54  C   UNL A   1      45.546  23.480  26.665  1.00  0.00     0.029 A 
ATOM     55  N   UNL A   1      45.275  25.648  27.207  1.00  0.00    -0.354 N 
ATOM     56  N   UNL A   1      46.343  28.329  27.605  1.00  0.00    -0.248 NA
ATOM     57  C   UNL A   1      48.028  29.853  27.720  1.00  0.00     0.031 C 
ATOM     58  C   UNL A   1      46.765  24.077  26.587  1.00  0.00     0.029 A 
ATOM     59  C   UNL A   1      46.608  25.433  26.932  1.00  0.00     0.049 A 
ATOM     60  H   UNL A   1      44.870  26.507  27.467  1.00  0.00     0.167 HD
ATOM     61  C   UNL A   1      47.481  27.698  27.309  1.00  0.00     0.074 A 
ATOM     62  C   UNL A   1      48.582  28.667  27.386  1.00  0.00     0.031 C 
ATOM     63  C   UNL A   1      47.644  26.352  26.974  1.00  0.00     0.037 A 
BRANCH  50  64
ATOM     64  C   UNL A   1      42.749  22.790  27.034  1.00  0.00     0.057 A 
ATOM     65  C   UNL A   1      42.428  22.379  25.751  1.00  0.00     0.134 A 
ATOM     66  C   UNL A   1      42.622  21.971  28.072  1.00  0.00     0.134 A 
ATOM     67  F   UNL A   1      42.771  23.062  24.664  1.00  0.00    -0.206 F 
ATOM     68  C   UNL A   1      41.701  21.166  25.702  1.00  0.00     0.040 A 
ATOM     69  C   UNL A   1      42.023  20.743  27.924  1.00  0.00     0.040 A 
ATOM     70  F   UNL A   1      43.078  22.342  29.265  1.00  0.00    -0.206 F 
ATOM     71  C   UNL A   1      41.627  20.296  26.694  1.00  0.00     0.006 A 
ENDBRANCH  50  64
BRANCH  51  72
ATOM     72  C   UNL A   1      46.160  32.028  28.377  1.00  0.00     0.057 A 
ATOM     73  C   UNL A   1      46.593  32.418  29.634  1.00  0.00     0.134 A 
ATOM     74  C   UNL A   1      46.181  32.870  27.349  1.00  0.00     0.134 A 
ATOM     75  F   UNL A   1      46.829  31.557  30.620  1.00  0.00    -0.206 F 
ATOM     76  C   UNL A   1      46.761  33.816  29.774  1.00  0.00     0.040 A 
ATOM     77  C   UNL A   1      46.486  34.196  27.537  1.00  0.00     0.040 A 
ATOM     78  F   UNL A   1      45.903  32.424  26.127  1.00  0.00    -0.206 F 
ATOM     79  C   UNL A   1      46.864  34.663  28.765  1.00  0.00     0.006 A 
ENDBRANCH  51  72
BRANCH  63  80
ATOM     80  C   UNL A   1      49.044  25.866  26.634  1.00  0.00     0.057 A 
ATOM     81  C   UNL A   1      49.816  25.299  27.635  1.00  0.00     0.134 A 
ATOM     82  C   UNL A   1      49.541  26.089  25.424  1.00  0.00     0.134 A 
ATOM     83  F   UNL A   1      49.303  24.828  28.768  1.00  0.00    -0.206 F 
ATOM     84  C   UNL A   1      51.200  25.266  27.343  1.00  0.00     0.040 A 
ATOM     85  C   UNL A   1      50.880  25.906  25.173  1.00  0.00     0.040 A 
ATOM     86  F   UNL A   1      48.736  26.493  24.445  1.00  0.00    -0.206 F 
ATOM     87  C   UNL A   1      51.713  25.404  26.134  1.00  0.00     0.006 A 
ENDBRANCH  63  80
ENDBRANCH  37  38
ENDBRANCH  29  32
ENDBRANCH  27  28
ENDBRANCH   1  27
TORSDOF 12
ENDMDL
MODEL 2
REMARK VINA RESULT:     -13.1      5.530     10.008
REMARK SMILES O=C(NCCCNC(=O)c1ccc(-c2c3nc(c(-c4c(F)cccc4F)c4ccc([nH]4)c(-c4c(F)cccc4F)c4nc(c(-c5c(F)cccc5F)c5ccc2[nH]5)C=C4)C=C3)cc1)C1=Cc2cc(S(F)(F)(F)(F)F)ccc2O[C@H]1C(F)(F)F
REMARK SMILES IDX 5 1 4 2 3 3 1 4 2 5 64 7 65 8 79 9 66 10 78 11 67 12 77 13
REMARK SMILES IDX 68 14 76 15 75 16 80 17 81 18 82 19 83 20 69 21 70 22 71 23
REMARK SMILES IDX 72 24 73 25 74 26 6 27 7 28 8 29 9 31 10 32 11 33 63 34
REMARK SMILES IDX 12 35 62 36 13 37 14 38 15 39 56 40 16 41 61 42 55 43 57 44
REMARK SMILES IDX 17 45 60 46 54 47 53 48 18 50 44 51 27 52 43 53 28 54 31 55
REMARK SMILES IDX 42 56 58 57 29 58 30 59 41 61 59 62 32 63 19 64 20 65 25 66
REMARK SMILES IDX 21 67 22 68 24 69 26 70 23 71 45 72 46 73 51 74 47 75 48 76
REMARK SMILES IDX 50 77 52 78 49 79 33 80 34 81 39 82 35 83 36 84 38 85 40 86
REMARK SMILES IDX 37 87
REMARK H PARENT 3 6 7 30 57 49 31 60
REMARK Flexibility Score: inf
ROOT
ATOM      1  C   UNL A   1      36.731  23.233  25.751  1.00  0.00     0.042 C 
ENDROOT
BRANCH   1   2
ATOM      2  C   UNL A   1      35.530  24.078  25.360  1.00  0.00     0.118 C 
BRANCH   2   3
ATOM      3  N   UNL A   1      35.285  23.942  23.917  1.00  0.00    -0.352 N 
ATOM      4  O   UNL A   1      33.707  23.597  22.174  1.00  0.00    -0.270 OA
ATOM      5  C   UNL A   1      33.920  23.715  23.422  1.00  0.00     0.251 C 
ATOM      6  H   UNL A   1      36.035  24.003  23.282  1.00  0.00     0.163 HD
BRANCH   5   7
ATOM      7  C   UNL A   1      32.761  23.622  24.402  1.00  0.00     0.067 C 
ATOM      8  C   UNL A   1      32.311  24.740  25.031  1.00  0.00     0.025 C 
ATOM      9  C   UNL A   1      32.106  22.279  24.678  1.00  0.00     0.314 C 
ATOM     10  C   UNL A   1      32.966  26.084  24.754  1.00  0.00     0.019 A 
ATOM     11  O   UNL A   1      33.061  25.489  22.455  1.00  0.00    -0.475 OA
ATOM     12  C   UNL A   1      33.269  26.921  25.815  1.00  0.00     0.036 A 
ATOM     13  C   UNL A   1      33.235  26.432  23.501  1.00  0.00     0.128 A 
ATOM     14  C   UNL A   1      33.597  28.242  25.426  1.00  0.00     0.107 A 
ATOM     15  C   UNL A   1      33.682  27.699  23.209  1.00  0.00     0.048 A 
ATOM     16  C   UNL A   1      33.947  28.598  24.204  1.00  0.00     0.028 A 
BRANCH   9  17
ATOM     17  C   UNL A   1      32.792  21.200  23.854  1.00  0.00     0.429 C 
ATOM     18  F   UNL A   1      32.274  20.039  24.242  1.00  0.00    -0.167 F 
ATOM     19  F   UNL A   1      32.653  21.330  22.537  1.00  0.00    -0.167 F 
ATOM     20  F   UNL A   1      34.083  21.237  24.170  1.00  0.00    -0.167 F 
ENDBRANCH   9  17
BRANCH  14  21
ATOM     21  S   UNL A   1      33.531  29.533  26.693  1.00  0.00     0.310 S 
ATOM     22  F   UNL A   1      32.986  28.519  27.785  1.00  0.00    -0.094 F 
ATOM     23  F   UNL A   1      32.031  29.805  26.296  1.00  0.00    -0.094 F 
ATOM     24  F   UNL A   1      33.473  30.641  27.782  1.00  0.00    -0.094 F 
ATOM     25  F   UNL A   1      34.987  29.151  27.170  1.00  0.00    -0.094 F 
ATOM     26  F   UNL A   1      33.567  28.329  25.668  1.00  0.00    -0.094 F 
ENDBRANCH  14  21
ENDBRANCH   5   7
ENDBRANCH   2   3
ENDBRANCH   1   2
BRANCH   1  27
ATOM     27  C   UNL A   1      37.798  24.123  26.367  1.00  0.00     0.118 C 
BRANCH  27  28
ATOM     28  N   UNL A   1      39.128  23.645  25.964  1.00  0.00    -0.352 N 
ATOM     29  C   UNL A   1      40.334  24.312  26.473  1.00  0.00     0.251 C 
ATOM     30  H   UNL A   1      39.211  22.878  25.352  1.00  0.00     0.163 HD
ATOM     31  O   UNL A   1      41.485  23.898  26.124  1.00  0.00    -0.269 OA
BRANCH  29  32
ATOM     32  C   UNL A   1      40.207  25.496  27.417  1.00  0.00     0.039 A 
ATOM     33  C   UNL A   1      40.955  26.637  27.175  1.00  0.00     0.014 A 
ATOM     34  C   UNL A   1      39.441  25.392  28.496  1.00  0.00     0.014 A 
ATOM     35  C   UNL A   1      41.052  27.506  28.288  1.00  0.00     0.010 A 
ATOM     36  C   UNL A   1      39.486  26.348  29.482  1.00  0.00     0.010 A 
ATOM     37  C   UNL A   1      40.249  27.472  29.336  1.00  0.00    -0.014 A 
BRANCH  37  38
ATOM     38  C   UNL A   1      40.177  28.623  30.326  1.00  0.00     0.031 A 
ATOM     39  C   UNL A   1      39.222  29.621  30.127  1.00  0.00     0.074 A 
ATOM     40  C   UNL A   1      41.011  28.559  31.430  1.00  0.00     0.049 A 
ATOM     41  N   UNL A   1      38.922  30.634  30.943  1.00  0.00    -0.248 NA
ATOM     42  C   UNL A   1      38.358  29.711  28.941  1.00  0.00     0.031 C 
ATOM     43  C   UNL A   1      41.972  27.551  31.641  1.00  0.00     0.029 A 
ATOM     44  N   UNL A   1      41.070  29.428  32.496  1.00  0.00    -0.354 N 
ATOM     45  C   UNL A   1      37.939  31.371  30.420  1.00  0.00     0.074 A 
ATOM     46  C   UNL A   1      37.566  30.792  29.122  1.00  0.00     0.031 C 
ATOM     47  C   UNL A   1      42.608  27.814  32.812  1.00  0.00     0.029 A 
ATOM     48  C   UNL A   1      42.056  28.991  33.353  1.00  0.00     0.049 A 
ATOM     49  H   UNL A   1      40.505  30.223  32.624  1.00  0.00     0.167 HD
ATOM     50  C   UNL A   1      37.337  32.501  30.976  1.00  0.00     0.037 A 
ATOM     51  C   UNL A   1      42.467  29.573  34.542  1.00  0.00     0.037 A 
ATOM     52  C   UNL A   1      37.719  33.058  32.186  1.00  0.00     0.049 A 
ATOM     53  C   UNL A   1      41.905  30.737  35.069  1.00  0.00     0.074 A 
ATOM     54  C   UNL A   1      37.119  34.193  32.764  1.00  0.00     0.029 A 
ATOM     55  N   UNL A   1      38.721  32.635  33.031  1.00  0.00    -0.354 N 
ATOM     56  N   UNL A   1      40.896  31.450  34.566  1.00  0.00    -0.248 NA
ATOM     57  C   UNL A   1      42.353  31.381  36.311  1.00  0.00     0.031 C 
ATOM     58  C   UNL A   1      37.755  34.457  33.936  1.00  0.00     0.029 A 
ATOM     59  C   UNL A   1      38.766  33.491  34.109  1.00  0.00     0.049 A 
ATOM     60  H   UNL A   1      39.306  31.856  32.887  1.00  0.00     0.167 HD
ATOM     61  C   UNL A   1      40.625  32.487  35.362  1.00  0.00     0.074 A 
ATOM     62  C   UNL A   1      41.564  32.461  36.491  1.00  0.00     0.031 C 
ATOM     63  C   UNL A   1      39.630  33.452  35.191  1.00  0.00     0.037 A 
BRANCH  50  64
ATOM     64  C   UNL A   1      36.200  33.158  30.211  1.00  0.00     0.057 A 
ATOM     65  C   UNL A   1      34.895  32.802  30.508  1.00  0.00     0.134 A 
ATOM     66  C   UNL A   1      36.473  34.059  29.274  1.00  0.00     0.134 A 
ATOM     67  F   UNL A   1      34.562  32.107  31.592  1.00  0.00    -0.206 F 
ATOM     68  C   UNL A   1      33.949  33.245  29.554  1.00  0.00     0.040 A 
ATOM     69  C   UNL A   1      35.475  34.551  28.466  1.00  0.00     0.040 A 
ATOM     70  F   UNL A   1      37.721  34.488  29.115  1.00  0.00    -0.206 F 
ATOM     71  C   UNL A   1      34.170  34.197  28.665  1.00  0.00     0.006 A 
ENDBRANCH  50  64
BRANCH  51  72
ATOM     72  C   UNL A   1      43.593  28.906  35.315  1.00  0.00     0.057 A 
ATOM     73  C   UNL A   1      44.903  29.265  35.042  1.00  0.00     0.134 A 
ATOM     74  C   UNL A   1      43.307  27.995  36.238  1.00  0.00     0.134 A 
ATOM     75  F   UNL A   1      45.227  30.336  34.322  1.00  0.00    -0.206 F 
ATOM     76  C   UNL A   1      45.865  28.389  35.597  1.00  0.00     0.040 A 
ATOM     77  C   UNL A   1      44.307  27.270  36.839  1.00  0.00     0.040 A 
ATOM     78  F   UNL A   1      42.040  27.782  36.584  1.00  0.00    -0.206 F 
ATOM     79  C   UNL A   1      45.622  27.530  36.572  1.00  0.00     0.006 A 
ENDBRANCH  51  72
BRANCH  63  80
ATOM     80  C   UNL A   1      39.486  34.524  36.259  1.00  0.00     0.057 A 
ATOM     81  C   UNL A   1      40.144  35.730  36.089  1.00  0.00     0.134 A 
ATOM     82  C   UNL A   1      38.827  34.251  37.379  1.00  0.00     0.134 A 
ATOM     83  F   UNL A   1      40.596  36.150  34.910  1.00  0.00    -0.206 F 
ATOM     84  C   UNL A   1      40.293  36.476  37.282  1.00  0.00     0.040 A 
ATOM     85  C   UNL A   1      38.908  35.094  38.462  1.00  0.00     0.040 A 
ATOM     86  F   UNL A   1      38.082  33.152  37.455  1.00  0.00    -0.206 F 
ATOM     87  C   UNL A   1      39.592  36.276  38.382  1.00  0.00     0.006 A 
ENDBRANCH  63  80
ENDBRANCH  37  38
ENDBRANCH  29  32
ENDBRANCH  27  28
ENDBRANCH   1  27
TORSDOF 12
ENDMDL
MODEL 3
REMARK VINA RESULT:     -12.9      1.995      2.585
REMARK SMILES O=C(NCCCNC(=O)c1ccc(-c2c3nc(c(-c4c(F)cccc4F)c4ccc([nH]4)c(-c4c(F)cccc4F)c4nc(c(-c5c(F)cccc5F)c5ccc2[nH]5)C=C4)C=C3)cc1)C1=Cc2cc(S(F)(F)(F)(F)F)ccc2O[C@H]1C(F)(F)F
REMARK SMILES IDX 5 1 4 2 3 3 1 4 2 5 64 7 65 8 79 9 66 10 78 11 67 12 77 13
REMARK SMILES IDX 68 14 76 15 75 16 80 17 81 18 82 19 83 20 69 21 70 22 71 23
REMARK SMILES IDX 72 24 73 25 74 26 6 27 7 28 8 29 9 31 10 32 11 33 63 34
REMARK SMILES IDX 12 35 62 36 13 37 14 38 15 39 56 40 16 41 61 42 55 43 57 44
REMARK SMILES IDX 17 45 60 46 54 47 53 48 18 50 44 51 27 52 43 53 28 54 31 55
REMARK SMILES IDX 42 56 58 57 29 58 30 59 41 61 59 62 32 63 19 64 20 65 25 66
REMARK SMILES IDX 21 67 22 68 24 69 26 70 23 71 45 72 46 73 51 74 47 75 48 76
REMARK SMILES IDX 50 77 52 78 49 79 33 80 34 81 39 82 35 83 36 84 38 85 40 86
REMARK SMILES IDX 37 87
REMARK H PARENT 3 6 7 30 57 49 31 60
REMARK Flexibility Score: inf
ROOT
ATOM      1  C   UNL A   1      33.739  28.153  25.645  1.00  0.00     0.042 C 
ENDROOT
BRANCH   1   2
ATOM      2  C   UNL A   1      33.423  26.676  25.476  1.00  0.00     0.118 C 
BRANCH   2   3
ATOM      3  N   UNL A   1      32.369  26.289  26.425  1.00  0.00    -0.352 N 
ATOM      4  O   UNL A   1      30.385  25.044  26.821  1.00  0.00    -0.270 OA
ATOM      5  C   UNL A   1      31.296  25.378  26.000  1.00  0.00     0.251 C 
ATOM      6  H   UNL A   1      32.382  26.639  27.344  1.00  0.00     0.163 HD
BRANCH   5   7
ATOM      7  C   UNL A   1      31.276  24.837  24.580  1.00  0.00     0.067 C 
ATOM      8  C   UNL A   1      32.077  23.792  24.239  1.00  0.00     0.025 C 
ATOM      9  C   UNL A   1      30.361  25.463  23.541  1.00  0.00     0.314 C 
ATOM     10  C   UNL A   1      32.992  23.165  25.279  1.00  0.00     0.019 A 
ATOM     11  O   UNL A   1      31.223  23.358  26.855  1.00  0.00    -0.475 OA
ATOM     12  C   UNL A   1      34.304  22.876  24.942  1.00  0.00     0.036 A 
ATOM     13  C   UNL A   1      32.518  22.904  26.493  1.00  0.00     0.128 A 
ATOM     14  C   UNL A   1      34.964  22.040  25.874  1.00  0.00     0.107 A 
ATOM     15  C   UNL A   1      33.272  22.200  27.400  1.00  0.00     0.048 A 
ATOM     16  C   UNL A   1      34.557  21.830  27.111  1.00  0.00     0.028 A 
BRANCH   9  17
ATOM     17  C   UNL A   1      29.579  26.603  24.174  1.00  0.00     0.429 C 
ATOM     18  F   UNL A   1      28.715  26.047  25.018  1.00  0.00    -0.167 F 
ATOM     19  F   UNL A   1      30.321  27.496  24.824  1.00  0.00    -0.167 F 
ATOM     20  F   UNL A   1      28.915  27.207  23.194  1.00  0.00    -0.167 F 
ENDBRANCH   9  17
BRANCH  14  21
ATOM     21  S   UNL A   1      36.472  21.200  25.329  1.00  0.00     0.310 S 
ATOM     22  F   UNL A   1      36.386  21.850  23.884  1.00  0.00    -0.094 F 
ATOM     23  F   UNL A   1      35.583  20.022  24.778  1.00  0.00    -0.094 F 
ATOM     24  F   UNL A   1      37.768  20.479  24.861  1.00  0.00    -0.094 F 
ATOM     25  F   UNL A   1      37.335  22.451  25.761  1.00  0.00    -0.094 F 
ATOM     26  F   UNL A   1      35.158  21.994  25.708  1.00  0.00    -0.094 F 
ENDBRANCH  14  21
ENDBRANCH   5   7
ENDBRANCH   2   3
ENDBRANCH   1   2
BRANCH   1  27
ATOM     27  C   UNL A   1      34.140  28.424  27.086  1.00  0.00     0.118 C 
BRANCH  27  28
ATOM     28  N   UNL A   1      33.645  29.746  27.493  1.00  0.00    -0.352 N 
ATOM     29  C   UNL A   1      34.544  30.690  28.171  1.00  0.00     0.251 C 
ATOM     30  H   UNL A   1      32.711  29.999  27.310  1.00  0.00     0.163 HD
ATOM     31  O   UNL A   1      34.116  31.834  28.522  1.00  0.00    -0.269 OA
BRANCH  29  32
ATOM     32  C   UNL A   1      35.985  30.299  28.452  1.00  0.00     0.039 A 
ATOM     33  C   UNL A   1      36.936  30.465  27.459  1.00  0.00     0.014 A 
ATOM     34  C   UNL A   1      36.296  29.738  29.615  1.00  0.00     0.014 A 
ATOM     35  C   UNL A   1      38.130  29.739  27.680  1.00  0.00     0.010 A 
ATOM     36  C   UNL A   1      37.530  29.167  29.809  1.00  0.00     0.010 A 
ATOM     37  C   UNL A   1      38.498  29.241  28.847  1.00  0.00    -0.014 A 
BRANCH  37  38
ATOM     38  C   UNL A   1      39.922  28.776  29.106  1.00  0.00     0.031 A 
ATOM     39  C   UNL A   1      40.288  27.487  28.715  1.00  0.00     0.074 A 
ATOM     40  C   UNL A   1      40.803  29.705  29.632  1.00  0.00     0.049 A 
ATOM     41  N   UNL A   1      41.507  26.944  28.742  1.00  0.00    -0.248 NA
ATOM     42  C   UNL A   1      39.348  26.486  28.188  1.00  0.00     0.031 C 
ATOM     43  C   UNL A   1      40.442  31.010  30.020  1.00  0.00     0.029 A 
ATOM     44  N   UNL A   1      42.150  29.550  29.873  1.00  0.00    -0.354 N 
ATOM     45  C   UNL A   1      41.466  25.695  28.272  1.00  0.00     0.074 A 
ATOM     46  C   UNL A   1      40.076  25.381  27.915  1.00  0.00     0.031 C 
ATOM     47  C   UNL A   1      41.552  31.630  30.498  1.00  0.00     0.029 A 
ATOM     48  C   UNL A   1      42.626  30.723  30.418  1.00  0.00     0.049 A 
ATOM     49  H   UNL A   1      42.680  28.742  29.689  1.00  0.00     0.167 HD
ATOM     50  C   UNL A   1      42.533  24.809  28.124  1.00  0.00     0.037 A 
ATOM     51  C   UNL A   1      43.920  31.003  30.829  1.00  0.00     0.037 A 
ATOM     52  C   UNL A   1      43.836  25.105  28.496  1.00  0.00     0.049 A 
ATOM     53  C   UNL A   1      44.977  30.095  30.736  1.00  0.00     0.074 A 
ATOM     54  C   UNL A   1      44.925  24.224  28.348  1.00  0.00     0.029 A 
ATOM     55  N   UNL A   1      44.307  26.268  29.062  1.00  0.00    -0.354 N 
ATOM     56  N   UNL A   1      44.943  28.861  30.229  1.00  0.00    -0.248 NA
ATOM     57  C   UNL A   1      46.343  30.369  31.198  1.00  0.00     0.031 C 
ATOM     58  C   UNL A   1      46.036  24.844  28.826  1.00  0.00     0.029 A 
ATOM     59  C   UNL A   1      45.659  26.121  29.283  1.00  0.00     0.049 A 
ATOM     60  H   UNL A   1      43.771  27.065  29.274  1.00  0.00     0.167 HD
ATOM     61  C   UNL A   1      46.155  28.304  30.295  1.00  0.00     0.074 A 
ATOM     62  C   UNL A   1      47.071  29.264  30.926  1.00  0.00     0.031 C 
ATOM     63  C   UNL A   1      46.532  27.036  29.851  1.00  0.00     0.037 A 
BRANCH  50  64
ATOM     64  C   UNL A   1      42.252  23.441  27.524  1.00  0.00     0.057 A 
ATOM     65  C   UNL A   1      42.261  23.296  26.147  1.00  0.00     0.134 A 
ATOM     66  C   UNL A   1      42.003  22.411  28.324  1.00  0.00     0.134 A 
ATOM     67  F   UNL A   1      42.747  24.221  25.324  1.00  0.00    -0.206 F 
ATOM     68  C   UNL A   1      41.708  22.075  25.695  1.00  0.00     0.040 A 
ATOM     69  C   UNL A   1      41.596  21.205  27.804  1.00  0.00     0.040 A 
ATOM     70  F   UNL A   1      42.148  22.546  29.639  1.00  0.00    -0.206 F 
ATOM     71  C   UNL A   1      41.526  21.008  26.454  1.00  0.00     0.006 A 
ENDBRANCH  50  64
BRANCH  51  72
ATOM     72  C   UNL A   1      44.205  32.377  31.414  1.00  0.00     0.057 A 
ATOM     73  C   UNL A   1      44.100  32.561  32.783  1.00  0.00     0.134 A 
ATOM     74  C   UNL A   1      44.549  33.376  30.609  1.00  0.00     0.134 A 
ATOM     75  F   UNL A   1      44.010  31.553  33.646  1.00  0.00    -0.206 F 
ATOM     76  C   UNL A   1      44.098  33.919  33.180  1.00  0.00     0.040 A 
ATOM     77  C   UNL A   1      44.661  34.657  31.092  1.00  0.00     0.040 A 
ATOM     78  F   UNL A   1      44.788  33.133  29.323  1.00  0.00    -0.206 F 
ATOM     79  C   UNL A   1      44.511  34.921  32.424  1.00  0.00     0.006 A 
ENDBRANCH  51  72
BRANCH  63  80
ATOM     80  C   UNL A   1      47.991  26.634  29.998  1.00  0.00     0.057 A 
ATOM     81  C   UNL A   1      48.858  26.867  28.944  1.00  0.00     0.134 A 
ATOM     82  C   UNL A   1      48.384  25.972  31.080  1.00  0.00     0.134 A 
ATOM     83  F   UNL A   1      48.595  27.729  27.966  1.00  0.00    -0.206 F 
ATOM     84  C   UNL A   1      50.050  26.106  29.001  1.00  0.00     0.040 A 
ATOM     85  C   UNL A   1      49.618  25.367  31.119  1.00  0.00     0.040 A 
ATOM     86  F   UNL A   1      47.578  25.894  32.135  1.00  0.00    -0.206 F 
ATOM     87  C   UNL A   1      50.503  25.507  30.087  1.00  0.00     0.006 A 
ENDBRANCH  63  80
ENDBRANCH  37  38
ENDBRANCH  29  32
ENDBRANCH  27  28
ENDBRANCH   1  27
TORSDOF 12
ENDMDL
