MODEL 1
REMARK VINA RESULT:     -11.4      0.000      0.000
REMARK SMILES CC[C@@H]1C=CC[C@@H]2C(=O)N(CCCC(=O)NCCCNC(=O)c3ccc(-c4c5nc(c(-c6c(F)cccc6F)c6ccc([nH]6)c(-c6c(F)cccc6F)c6nc(c(-c7c(F)cccc7F)c7ccc4[nH]7)C=C6)C=C5)cc3)C(=O)[C@@H]21
REMARK SMILES IDX 17 1 16 2 14 3 15 4 13 6 12 7 11 8 10 9 3 10 4 11 79 12 5 13
REMARK SMILES IDX 7 14 77 15 6 16 8 17 78 18 9 19 2 20 1 21 18 22 19 23 20 24
REMARK SMILES IDX 21 25 22 27 23 28 24 29 76 30 25 31 75 32 26 33 27 34 28 35
REMARK SMILES IDX 69 36 29 37 74 38 68 39 70 40 30 41 73 42 67 43 66 44 31 46
REMARK SMILES IDX 57 47 40 48 56 49 41 50 44 51 55 52 71 53 42 54 43 55 54 57
REMARK SMILES IDX 72 58 45 59 32 60 33 61 38 62 34 63 35 64 37 65 39 66 36 67
REMARK SMILES IDX 58 68 59 69 64 70 60 71 61 72 63 73 65 74 62 75 46 76 47 77
REMARK SMILES IDX 52 78 48 79 49 80 51 81 53 82 50 83
REMARK H PARENT 16 5 20 26 70 45 44 56
REMARK Flexibility Score: inf
ROOT
ATOM      1  C   UNL A   1      31.099  30.423  25.383  1.00  0.00     0.117 C 
ENDROOT
BRANCH   1   2
ATOM      2  N   UNL A   1      30.562  30.386  24.041  1.00  0.00    -0.356 N 
ATOM      3  C   UNL A   1      30.324  29.361  23.185  1.00  0.00     0.220 C 
ATOM      4  O   UNL A   1      29.806  29.661  22.105  1.00  0.00    -0.275 OA
ATOM      5  H   UNL A   1      30.323  31.271  23.681  1.00  0.00     0.163 HD
BRANCH   3   6
ATOM      6  C   UNL A   1      30.586  27.899  23.511  1.00  0.00     0.102 C 
BRANCH   6   7
ATOM      7  C   UNL A   1      29.428  26.971  23.870  1.00  0.00     0.032 C 
BRANCH   7   8
ATOM      8  C   UNL A   1      29.538  25.955  25.002  1.00  0.00     0.129 C 
BRANCH   8   9
ATOM      9  N   UNL A   1      30.846  25.495  25.461  1.00  0.00    -0.282 N 
ATOM     10  C   UNL A   1      33.877  26.558  25.608  1.00  0.00     0.024 C 
ATOM     11  C   UNL A   1      34.015  26.018  24.201  1.00  0.00    -0.027 C 
ATOM     12  C   UNL A   1      32.924  25.719  26.502  1.00  0.00     0.099 C 
ATOM     13  C   UNL A   1      34.040  24.695  23.980  1.00  0.00    -0.030 C 
ATOM     14  C   UNL A   1      32.761  24.265  26.058  1.00  0.00     0.096 C 
ATOM     15  C   UNL A   1      31.503  26.199  26.433  1.00  0.00     0.233 C 
ATOM     16  C   UNL A   1      33.832  23.732  25.111  1.00  0.00     0.041 C 
ATOM     17  C   UNL A   1      31.451  24.287  25.312  1.00  0.00     0.233 C 
ATOM     18  O   UNL A   1      31.030  27.070  27.147  1.00  0.00    -0.274 OA
ATOM     19  O   UNL A   1      31.032  23.281  24.752  1.00  0.00    -0.274 OA
BRANCH  10  20
ATOM     20  C   UNL A   1      33.653  28.084  25.692  1.00  0.00     0.005 C 
ATOM     21  C   UNL A   1      34.283  28.818  26.870  1.00  0.00     0.004 C 
ENDBRANCH  10  20
ENDBRANCH   8   9
ENDBRANCH   7   8
ENDBRANCH   6   7
ENDBRANCH   3   6
ENDBRANCH   1   2
BRANCH   1  22
ATOM     22  C   UNL A   1      30.981  31.810  26.001  1.00  0.00     0.042 C 
BRANCH  22  23
ATOM     23  C   UNL A   1      32.162  32.172  26.870  1.00  0.00     0.118 C 
BRANCH  23  24
ATOM     24  N   UNL A   1      32.153  33.578  27.251  1.00  0.00    -0.352 N 
ATOM     25  C   UNL A   1      32.961  34.255  28.134  1.00  0.00     0.251 C 
ATOM     26  H   UNL A   1      31.464  34.127  26.810  1.00  0.00     0.163 HD
ATOM     27  O   UNL A   1      32.675  35.403  28.463  1.00  0.00    -0.269 OA
BRANCH  25  28
ATOM     28  C   UNL A   1      34.152  33.592  28.709  1.00  0.00     0.039 A 
ATOM     29  C   UNL A   1      35.398  34.216  28.601  1.00  0.00     0.014 A 
ATOM     30  C   UNL A   1      34.045  32.366  29.365  1.00  0.00     0.014 A 
ATOM     31  C   UNL A   1      36.514  33.640  29.212  1.00  0.00     0.010 A 
ATOM     32  C   UNL A   1      35.120  31.868  30.086  1.00  0.00     0.010 A 
ATOM     33  C   UNL A   1      36.375  32.483  29.996  1.00  0.00    -0.014 A 
BRANCH  33  34
ATOM     34  C   UNL A   1      37.529  31.867  30.696  1.00  0.00     0.031 A 
ATOM     35  C   UNL A   1      38.344  30.806  30.001  1.00  0.00     0.074 A 
ATOM     36  C   UNL A   1      37.801  32.206  31.971  1.00  0.00     0.049 A 
ATOM     37  N   UNL A   1      39.333  30.086  30.464  1.00  0.00    -0.248 NA
ATOM     38  C   UNL A   1      37.969  30.484  28.613  1.00  0.00     0.031 C 
ATOM     39  C   UNL A   1      37.052  33.178  32.770  1.00  0.00     0.029 A 
ATOM     40  N   UNL A   1      38.781  31.763  32.823  1.00  0.00    -0.354 N 
ATOM     41  C   UNL A   1      39.678  29.217  29.435  1.00  0.00     0.074 A 
ATOM     42  C   UNL A   1      38.748  29.447  28.354  1.00  0.00     0.031 C 
ATOM     43  C   UNL A   1      37.622  33.286  33.980  1.00  0.00     0.029 A 
ATOM     44  C   UNL A   1      38.744  32.358  34.061  1.00  0.00     0.049 A 
ATOM     45  H   UNL A   1      39.447  31.084  32.572  1.00  0.00     0.167 HD
ATOM     46  C   UNL A   1      40.701  28.332  29.382  1.00  0.00     0.037 A 
ATOM     47  C   UNL A   1      39.528  32.171  35.141  1.00  0.00     0.037 A 
ATOM     48  C   UNL A   1      41.642  28.133  30.449  1.00  0.00     0.049 A 
ATOM     49  C   UNL A   1      40.653  31.175  35.059  1.00  0.00     0.074 A 
ATOM     50  C   UNL A   1      42.753  27.307  30.477  1.00  0.00     0.029 A 
ATOM     51  N   UNL A   1      41.582  28.767  31.681  1.00  0.00    -0.354 N 
ATOM     52  N   UNL A   1      41.014  30.414  34.055  1.00  0.00    -0.248 NA
ATOM     53  C   UNL A   1      41.481  31.016  36.262  1.00  0.00     0.031 C 
ATOM     54  C   UNL A   1      43.333  27.402  31.745  1.00  0.00     0.029 A 
ATOM     55  C   UNL A   1      42.621  28.332  32.486  1.00  0.00     0.049 A 
ATOM     56  H   UNL A   1      40.901  29.427  31.943  1.00  0.00     0.167 HD
ATOM     57  C   UNL A   1      42.130  29.711  34.491  1.00  0.00     0.074 A 
ATOM     58  C   UNL A   1      42.393  30.148  35.846  1.00  0.00     0.031 C 
ATOM     59  C   UNL A   1      42.871  28.788  33.830  1.00  0.00     0.037 A 
BRANCH  46  60
ATOM     60  C   UNL A   1      40.850  27.521  28.124  1.00  0.00     0.057 A 
ATOM     61  C   UNL A   1      40.242  26.267  27.974  1.00  0.00     0.134 A 
ATOM     62  C   UNL A   1      41.596  28.007  27.044  1.00  0.00     0.134 A 
ATOM     63  F   UNL A   1      39.525  25.734  28.976  1.00  0.00    -0.206 F 
ATOM     64  C   UNL A   1      40.401  25.510  26.812  1.00  0.00     0.040 A 
ATOM     65  C   UNL A   1      41.734  27.274  25.863  1.00  0.00     0.040 A 
ATOM     66  F   UNL A   1      42.201  29.202  27.115  1.00  0.00    -0.206 F 
ATOM     67  C   UNL A   1      41.143  26.018  25.749  1.00  0.00     0.006 A 
ENDBRANCH  46  60
BRANCH  47  68
ATOM     68  C   UNL A   1      39.297  32.960  36.378  1.00  0.00     0.057 A 
ATOM     69  C   UNL A   1      39.940  34.187  36.581  1.00  0.00     0.134 A 
ATOM     70  C   UNL A   1      38.441  32.508  37.389  1.00  0.00     0.134 A 
ATOM     71  F   UNL A   1      40.785  34.667  35.657  1.00  0.00    -0.206 F 
ATOM     72  C   UNL A   1      39.759  34.924  37.753  1.00  0.00     0.040 A 
ATOM     73  C   UNL A   1      38.228  33.248  38.553  1.00  0.00     0.040 A 
ATOM     74  F   UNL A   1      37.787  31.345  37.253  1.00  0.00    -0.206 F 
ATOM     75  C   UNL A   1      38.896  34.456  38.742  1.00  0.00     0.006 A 
ENDBRANCH  47  68
BRANCH  59  76
ATOM     76  C   UNL A   1      44.062  28.222  34.548  1.00  0.00     0.057 A 
ATOM     77  C   UNL A   1      43.983  27.046  35.304  1.00  0.00     0.134 A 
ATOM     78  C   UNL A   1      45.314  28.840  34.440  1.00  0.00     0.134 A 
ATOM     79  F   UNL A   1      42.811  26.411  35.456  1.00  0.00    -0.206 F 
ATOM     80  C   UNL A   1      45.102  26.519  35.951  1.00  0.00     0.040 A 
ATOM     81  C   UNL A   1      46.447  28.306  35.055  1.00  0.00     0.040 A 
ATOM     82  F   UNL A   1      45.461  29.963  33.721  1.00  0.00    -0.206 F 
ATOM     83  C   UNL A   1      46.341  27.146  35.819  1.00  0.00     0.006 A 
ENDBRANCH  59  76
ENDBRANCH  33  34
ENDBRANCH  25  28
ENDBRANCH  23  24
ENDBRANCH  22  23
ENDBRANCH   1  22
TORSDOF 14
ENDMDL
MODEL 2
REMARK VINA RESULT:     -11.4      0.553      6.343
REMARK SMILES CC[C@@H]1C=CC[C@@H]2C(=O)N(CCCC(=O)NCCCNC(=O)c3ccc(-c4c5nc(c(-c6c(F)cccc6F)c6ccc([nH]6)c(-c6c(F)cccc6F)c6nc(c(-c7c(F)cccc7F)c7ccc4[nH]7)C=C6)C=C5)cc3)C(=O)[C@@H]21
REMARK SMILES IDX 17 1 16 2 14 3 15 4 13 6 12 7 11 8 10 9 3 10 4 11 79 12 5 13
REMARK SMILES IDX 7 14 77 15 6 16 8 17 78 18 9 19 2 20 1 21 18 22 19 23 20 24
REMARK SMILES IDX 21 25 22 27 23 28 24 29 76 30 25 31 75 32 26 33 27 34 28 35
REMARK SMILES IDX 69 36 29 37 74 38 68 39 70 40 30 41 73 42 67 43 66 44 31 46
REMARK SMILES IDX 57 47 40 48 56 49 41 50 44 51 55 52 71 53 42 54 43 55 54 57
REMARK SMILES IDX 72 58 45 59 32 60 33 61 38 62 34 63 35 64 37 65 39 66 36 67
REMARK SMILES IDX 58 68 59 69 64 70 60 71 61 72 63 73 65 74 62 75 46 76 47 77
REMARK SMILES IDX 52 78 48 79 49 80 51 81 53 82 50 83
REMARK H PARENT 16 5 20 26 70 45 44 56
REMARK Flexibility Score: inf
ROOT
ATOM      1  C   UNL A   1      30.999  30.850  25.397  1.00  0.00     0.117 C 
ENDROOT
BRANCH   1   2
ATOM      2  N   UNL A   1      30.127  30.837  24.243  1.00  0.00    -0.356 N 
ATOM      3  C   UNL A   1      29.820  29.865  23.348  1.00  0.00     0.220 C 
ATOM      4  O   UNL A   1      28.988  30.163  22.485  1.00  0.00    -0.275 OA
ATOM      5  H   UNL A   1      29.671  31.694  24.076  1.00  0.00     0.163 HD
BRANCH   3   6
ATOM      6  C   UNL A   1      30.373  28.450  23.401  1.00  0.00     0.102 C 
BRANCH   6   7
ATOM      7  C   UNL A   1      29.426  27.256  23.494  1.00  0.00     0.032 C 
BRANCH   7   8
ATOM      8  C   UNL A   1      29.470  26.292  24.676  1.00  0.00     0.129 C 
BRANCH   8   9
ATOM      9  N   UNL A   1      30.742  25.747  25.143  1.00  0.00    -0.282 N 
ATOM     10  C   UNL A   1      33.761  26.729  25.652  1.00  0.00     0.024 C 
ATOM     11  C   UNL A   1      33.991  26.414  24.190  1.00  0.00    -0.027 C 
ATOM     12  C   UNL A   1      32.747  25.776  26.339  1.00  0.00     0.099 C 
ATOM     13  C   UNL A   1      34.025  25.142  23.767  1.00  0.00    -0.030 C 
ATOM     14  C   UNL A   1      32.608  24.411  25.664  1.00  0.00     0.096 C 
ATOM     15  C   UNL A   1      31.335  26.282  26.253  1.00  0.00     0.233 C 
ATOM     16  C   UNL A   1      33.737  24.017  24.717  1.00  0.00     0.041 C 
ATOM     17  C   UNL A   1      31.351  24.568  24.846  1.00  0.00     0.233 C 
ATOM     18  O   UNL A   1      30.819  27.037  27.062  1.00  0.00    -0.274 OA
ATOM     19  O   UNL A   1      30.965  23.668  24.109  1.00  0.00    -0.274 OA
BRANCH  10  20
ATOM     20  C   UNL A   1      33.538  28.227  25.959  1.00  0.00     0.005 C 
ATOM     21  C   UNL A   1      34.527  28.900  26.905  1.00  0.00     0.004 C 
ENDBRANCH  10  20
ENDBRANCH   8   9
ENDBRANCH   7   8
ENDBRANCH   6   7
ENDBRANCH   3   6
ENDBRANCH   1   2
BRANCH   1  22
ATOM     22  C   UNL A   1      30.997  32.205  26.090  1.00  0.00     0.042 C 
BRANCH  22  23
ATOM     23  C   UNL A   1      32.243  32.452  26.909  1.00  0.00     0.118 C 
BRANCH  23  24
ATOM     24  N   UNL A   1      32.306  33.817  27.415  1.00  0.00    -0.352 N 
ATOM     25  C   UNL A   1      33.168  34.377  28.328  1.00  0.00     0.251 C 
ATOM     26  H   UNL A   1      31.629  34.431  27.048  1.00  0.00     0.163 HD
ATOM     27  O   UNL A   1      32.943  35.500  28.768  1.00  0.00    -0.269 OA
BRANCH  25  28
ATOM     28  C   UNL A   1      34.346  33.616  28.801  1.00  0.00     0.039 A 
ATOM     29  C   UNL A   1      35.607  34.216  28.760  1.00  0.00     0.014 A 
ATOM     30  C   UNL A   1      34.211  32.319  29.298  1.00  0.00     0.014 A 
ATOM     31  C   UNL A   1      36.712  33.540  29.280  1.00  0.00     0.010 A 
ATOM     32  C   UNL A   1      35.278  31.707  29.937  1.00  0.00     0.010 A 
ATOM     33  C   UNL A   1      36.548  32.296  29.912  1.00  0.00    -0.014 A 
BRANCH  33  34
ATOM     34  C   UNL A   1      37.691  31.567  30.516  1.00  0.00     0.031 A 
ATOM     35  C   UNL A   1      38.091  31.855  31.940  1.00  0.00     0.074 A 
ATOM     36  C   UNL A   1      38.408  30.704  29.769  1.00  0.00     0.049 A 
ATOM     37  N   UNL A   1      39.105  31.393  32.625  1.00  0.00    -0.248 NA
ATOM     38  C   UNL A   1      37.263  32.823  32.680  1.00  0.00     0.031 C 
ATOM     39  C   UNL A   1      38.154  30.384  28.363  1.00  0.00     0.029 A 
ATOM     40  N   UNL A   1      39.504  29.944  30.090  1.00  0.00    -0.354 N 
ATOM     41  C   UNL A   1      39.047  32.030  33.859  1.00  0.00     0.074 A 
ATOM     42  C   UNL A   1      37.946  32.963  33.805  1.00  0.00     0.031 C 
ATOM     43  C   UNL A   1      39.044  29.465  27.955  1.00  0.00     0.029 A 
ATOM     44  C   UNL A   1      39.958  29.168  29.050  1.00  0.00     0.049 A 
ATOM     45  H   UNL A   1      39.925  29.953  30.979  1.00  0.00     0.167 HD
ATOM     46  C   UNL A   1      39.818  31.829  34.953  1.00  0.00     0.037 A 
ATOM     47  C   UNL A   1      41.000  28.316  28.991  1.00  0.00     0.037 A 
ATOM     48  C   UNL A   1      40.891  30.874  35.011  1.00  0.00     0.049 A 
ATOM     49  C   UNL A   1      41.848  28.117  30.218  1.00  0.00     0.074 A 
ATOM     50  C   UNL A   1      41.697  30.546  36.087  1.00  0.00     0.029 A 
ATOM     51  N   UNL A   1      41.310  30.094  33.943  1.00  0.00    -0.354 N 
ATOM     52  N   UNL A   1      41.736  28.670  31.401  1.00  0.00    -0.248 NA
ATOM     53  C   UNL A   1      42.966  27.171  30.100  1.00  0.00     0.031 C 
ATOM     54  C   UNL A   1      42.637  29.607  35.655  1.00  0.00     0.029 A 
ATOM     55  C   UNL A   1      42.379  29.304  34.327  1.00  0.00     0.049 A 
ATOM     56  H   UNL A   1      40.907  30.104  33.045  1.00  0.00     0.167 HD
ATOM     57  C   UNL A   1      42.745  28.116  32.178  1.00  0.00     0.074 A 
ATOM     58  C   UNL A   1      43.450  27.173  31.335  1.00  0.00     0.031 C 
ATOM     59  C   UNL A   1      43.061  28.363  33.474  1.00  0.00     0.037 A 
BRANCH  46  60
ATOM     60  C   UNL A   1      39.521  32.657  36.172  1.00  0.00     0.057 A 
ATOM     61  C   UNL A   1      40.157  33.884  36.409  1.00  0.00     0.134 A 
ATOM     62  C   UNL A   1      38.574  32.232  37.112  1.00  0.00     0.134 A 
ATOM     63  F   UNL A   1      41.086  34.345  35.557  1.00  0.00    -0.206 F 
ATOM     64  C   UNL A   1      39.891  34.638  37.553  1.00  0.00     0.040 A 
ATOM     65  C   UNL A   1      38.275  32.995  38.243  1.00  0.00     0.040 A 
ATOM     66  F   UNL A   1      37.922  31.071  36.948  1.00  0.00    -0.206 F 
ATOM     67  C   UNL A   1      38.941  34.197  38.470  1.00  0.00     0.006 A 
ENDBRANCH  46  60
BRANCH  47  68
ATOM     68  C   UNL A   1      41.282  27.567  27.740  1.00  0.00     0.057 A 
ATOM     69  C   UNL A   1      42.078  28.122  26.731  1.00  0.00     0.134 A 
ATOM     70  C   UNL A   1      40.760  26.288  27.516  1.00  0.00     0.134 A 
ATOM     71  F   UNL A   1      42.594  29.351  26.878  1.00  0.00    -0.206 F 
ATOM     72  C   UNL A   1      42.324  27.445  25.535  1.00  0.00     0.040 A 
ATOM     73  C   UNL A   1      41.022  25.586  26.337  1.00  0.00     0.040 A 
ATOM     74  F   UNL A   1      39.998  25.694  28.446  1.00  0.00    -0.206 F 
ATOM     75  C   UNL A   1      41.798  26.170  25.338  1.00  0.00     0.006 A 
ENDBRANCH  47  68
BRANCH  59  76
ATOM     76  C   UNL A   1      44.188  27.572  34.069  1.00  0.00     0.057 A 
ATOM     77  C   UNL A   1      45.505  28.048  34.079  1.00  0.00     0.134 A 
ATOM     78  C   UNL A   1      43.942  26.337  34.682  1.00  0.00     0.134 A 
ATOM     79  F   UNL A   1      45.811  29.218  33.498  1.00  0.00    -0.206 F 
ATOM     80  C   UNL A   1      46.542  27.311  34.653  1.00  0.00     0.040 A 
ATOM     81  C   UNL A   1      44.963  25.605  35.288  1.00  0.00     0.040 A 
ATOM     82  F   UNL A   1      42.700  25.830  34.718  1.00  0.00    -0.206 F 
ATOM     83  C   UNL A   1      46.270  26.089  35.267  1.00  0.00     0.006 A 
ENDBRANCH  59  76
ENDBRANCH  33  34
ENDBRANCH  25  28
ENDBRANCH  23  24
ENDBRANCH  22  23
ENDBRANCH   1  22
TORSDOF 14
ENDMDL
MODEL 3
REMARK VINA RESULT:     -11.3      4.981      9.931
REMARK SMILES CC[C@@H]1C=CC[C@@H]2C(=O)N(CCCC(=O)NCCCNC(=O)c3ccc(-c4c5nc(c(-c6c(F)cccc6F)c6ccc([nH]6)c(-c6c(F)cccc6F)c6nc(c(-c7c(F)cccc7F)c7ccc4[nH]7)C=C6)C=C5)cc3)C(=O)[C@@H]21
REMARK SMILES IDX 17 1 16 2 14 3 15 4 13 6 12 7 11 8 10 9 3 10 4 11 79 12 5 13
REMARK SMILES IDX 7 14 77 15 6 16 8 17 78 18 9 19 2 20 1 21 18 22 19 23 20 24
REMARK SMILES IDX 21 25 22 27 23 28 24 29 76 30 25 31 75 32 26 33 27 34 28 35
REMARK SMILES IDX 69 36 29 37 74 38 68 39 70 40 30 41 73 42 67 43 66 44 31 46
REMARK SMILES IDX 57 47 40 48 56 49 41 50 44 51 55 52 71 53 42 54 43 55 54 57
REMARK SMILES IDX 72 58 45 59 32 60 33 61 38 62 34 63 35 64 37 65 39 66 36 67
REMARK SMILES IDX 58 68 59 69 64 70 60 71 61 72 63 73 65 74 62 75 46 76 47 77
REMARK SMILES IDX 52 78 48 79 49 80 51 81 53 82 50 83
REMARK H PARENT 16 5 20 26 70 45 44 56
REMARK Flexibility Score: inf
ROOT
ATOM      1  C   UNL A   1      36.416  20.474  25.005  1.00  0.00     0.117 C 
ENDROOT
BRANCH   1   2
ATOM      2  N   UNL A   1      35.420  19.428  24.982  1.00  0.00    -0.356 N 
ATOM      3  C   UNL A   1      34.071  19.460  24.837  1.00  0.00     0.220 C 
ATOM      4  O   UNL A   1      33.499  18.365  24.815  1.00  0.00    -0.275 OA
ATOM      5  H   UNL A   1      35.789  18.521  25.091  1.00  0.00     0.163 HD
BRANCH   3   6
ATOM      6  C   UNL A   1      33.265  20.732  24.631  1.00  0.00     0.102 C 
BRANCH   6   7
ATOM      7  C   UNL A   1      32.409  20.907  23.380  1.00  0.00     0.032 C 
BRANCH   7   8
ATOM      8  C   UNL A   1      32.536  22.139  22.489  1.00  0.00     0.129 C 
BRANCH   8   9
ATOM      9  N   UNL A   1      32.844  23.444  23.067  1.00  0.00    -0.282 N 
ATOM     10  C   UNL A   1      34.434  24.671  25.578  1.00  0.00     0.024 C 
ATOM     11  C   UNL A   1      33.149  24.465  26.349  1.00  0.00    -0.027 C 
ATOM     12  C   UNL A   1      34.209  25.040  24.088  1.00  0.00     0.099 C 
ATOM     13  C   UNL A   1      32.079  25.238  26.106  1.00  0.00    -0.030 C 
ATOM     14  C   UNL A   1      32.854  25.682  23.795  1.00  0.00     0.096 C 
ATOM     15  C   UNL A   1      34.150  23.829  23.200  1.00  0.00     0.233 C 
ATOM     16  C   UNL A   1      32.110  26.251  24.999  1.00  0.00     0.041 C 
ATOM     17  C   UNL A   1      32.046  24.530  23.253  1.00  0.00     0.233 C 
ATOM     18  O   UNL A   1      35.121  23.301  22.682  1.00  0.00    -0.274 OA
ATOM     19  O   UNL A   1      30.863  24.671  22.968  1.00  0.00    -0.274 OA
BRANCH  10  20
ATOM     20  C   UNL A   1      35.505  23.582  25.813  1.00  0.00     0.005 C 
ATOM     21  C   UNL A   1      36.966  24.013  25.742  1.00  0.00     0.004 C 
ENDBRANCH  10  20
ENDBRANCH   8   9
ENDBRANCH   7   8
ENDBRANCH   6   7
ENDBRANCH   3   6
ENDBRANCH   1   2
BRANCH   1  22
ATOM     22  C   UNL A   1      37.801  19.945  24.657  1.00  0.00     0.042 C 
BRANCH  22  23
ATOM     23  C   UNL A   1      38.840  20.273  25.703  1.00  0.00     0.118 C 
BRANCH  23  24
ATOM     24  N   UNL A   1      39.828  19.213  25.848  1.00  0.00    -0.352 N 
ATOM     25  C   UNL A   1      41.174  19.296  26.114  1.00  0.00     0.251 C 
ATOM     26  H   UNL A   1      39.480  18.298  25.739  1.00  0.00     0.163 HD
ATOM     27  O   UNL A   1      41.878  18.295  26.011  1.00  0.00    -0.269 OA
BRANCH  25  28
ATOM     28  C   UNL A   1      41.778  20.593  26.493  1.00  0.00     0.039 A 
ATOM     29  C   UNL A   1      42.159  21.487  25.489  1.00  0.00     0.014 A 
ATOM     30  C   UNL A   1      41.958  20.937  27.833  1.00  0.00     0.014 A 
ATOM     31  C   UNL A   1      42.653  22.746  25.835  1.00  0.00     0.010 A 
ATOM     32  C   UNL A   1      42.316  22.233  28.174  1.00  0.00     0.010 A 
ATOM     33  C   UNL A   1      42.694  23.145  27.181  1.00  0.00    -0.014 A 
BRANCH  33  34
ATOM     34  C   UNL A   1      43.171  24.491  27.586  1.00  0.00     0.031 A 
ATOM     35  C   UNL A   1      42.174  25.541  28.004  1.00  0.00     0.074 A 
ATOM     36  C   UNL A   1      44.483  24.791  27.511  1.00  0.00     0.049 A 
ATOM     37  N   UNL A   1      42.373  26.797  28.311  1.00  0.00    -0.248 NA
ATOM     38  C   UNL A   1      40.758  25.134  28.043  1.00  0.00     0.031 C 
ATOM     39  C   UNL A   1      45.538  23.878  27.067  1.00  0.00     0.029 A 
ATOM     40  N   UNL A   1      45.151  25.953  27.800  1.00  0.00    -0.354 N 
ATOM     41  C   UNL A   1      41.112  27.328  28.555  1.00  0.00     0.074 A 
ATOM     42  C   UNL A   1      40.151  26.284  28.289  1.00  0.00     0.031 C 
ATOM     43  C   UNL A   1      46.723  24.502  27.151  1.00  0.00     0.029 A 
ATOM     44  C   UNL A   1      46.509  25.871  27.606  1.00  0.00     0.049 A 
ATOM     45  H   UNL A   1      44.700  26.769  28.116  1.00  0.00     0.167 HD
ATOM     46  C   UNL A   1      40.786  28.566  28.996  1.00  0.00     0.037 A 
ATOM     47  C   UNL A   1      47.469  26.800  27.773  1.00  0.00     0.037 A 
ATOM     48  C   UNL A   1      41.750  29.590  29.290  1.00  0.00     0.049 A 
ATOM     49  C   UNL A   1      47.081  28.171  28.256  1.00  0.00     0.074 A 
ATOM     50  C   UNL A   1      41.534  30.858  29.801  1.00  0.00     0.029 A 
ATOM     51  N   UNL A   1      43.119  29.463  29.097  1.00  0.00    -0.354 N 
ATOM     52  N   UNL A   1      45.892  28.638  28.554  1.00  0.00    -0.248 NA
ATOM     53  C   UNL A   1      48.169  29.142  28.429  1.00  0.00     0.031 C 
ATOM     54  C   UNL A   1      42.765  31.516  29.866  1.00  0.00     0.029 A 
ATOM     55  C   UNL A   1      43.756  30.639  29.454  1.00  0.00     0.049 A 
ATOM     56  H   UNL A   1      43.568  28.657  28.756  1.00  0.00     0.167 HD
ATOM     57  C   UNL A   1      46.092  29.944  28.981  1.00  0.00     0.074 A 
ATOM     58  C   UNL A   1      47.518  30.190  28.916  1.00  0.00     0.031 C 
ATOM     59  C   UNL A   1      45.179  30.859  29.391  1.00  0.00     0.037 A 
BRANCH  46  60
ATOM     60  C   UNL A   1      39.326  28.870  29.188  1.00  0.00     0.057 A 
ATOM     61  C   UNL A   1      38.528  29.366  28.147  1.00  0.00     0.134 A 
ATOM     62  C   UNL A   1      38.707  28.650  30.424  1.00  0.00     0.134 A 
ATOM     63  F   UNL A   1      39.061  29.615  26.941  1.00  0.00    -0.206 F 
ATOM     64  C   UNL A   1      37.179  29.665  28.338  1.00  0.00     0.040 A 
ATOM     65  C   UNL A   1      37.349  28.913  30.618  1.00  0.00     0.040 A 
ATOM     66  F   UNL A   1      39.407  28.172  31.463  1.00  0.00    -0.206 F 
ATOM     67  C   UNL A   1      36.584  29.431  29.576  1.00  0.00     0.006 A 
ENDBRANCH  46  60
BRANCH  47  68
ATOM     68  C   UNL A   1      48.892  26.459  27.511  1.00  0.00     0.057 A 
ATOM     69  C   UNL A   1      49.698  25.912  28.515  1.00  0.00     0.134 A 
ATOM     70  C   UNL A   1      49.481  26.679  26.261  1.00  0.00     0.134 A 
ATOM     71  F   UNL A   1      49.197  25.692  29.739  1.00  0.00    -0.206 F 
ATOM     72  C   UNL A   1      51.045  25.618  28.294  1.00  0.00     0.040 A 
ATOM     73  C   UNL A   1      50.819  26.363  26.017  1.00  0.00     0.040 A 
ATOM     74  F   UNL A   1      48.761  27.192  25.252  1.00  0.00    -0.206 F 
ATOM     75  C   UNL A   1      51.608  25.840  27.039  1.00  0.00     0.006 A 
ENDBRANCH  47  68
BRANCH  59  76
ATOM     76  C   UNL A   1      45.698  32.193  29.842  1.00  0.00     0.057 A 
ATOM     77  C   UNL A   1      46.095  32.427  31.165  1.00  0.00     0.134 A 
ATOM     78  C   UNL A   1      45.846  33.243  28.926  1.00  0.00     0.134 A 
ATOM     79  F   UNL A   1      45.969  31.467  32.093  1.00  0.00    -0.206 F 
ATOM     80  C   UNL A   1      46.594  33.667  31.567  1.00  0.00     0.040 A 
ATOM     81  C   UNL A   1      46.373  34.476  29.308  1.00  0.00     0.040 A 
ATOM     82  F   UNL A   1      45.496  33.081  27.642  1.00  0.00    -0.206 F 
ATOM     83  C   UNL A   1      46.743  34.693  30.634  1.00  0.00     0.006 A 
ENDBRANCH  59  76
ENDBRANCH  33  34
ENDBRANCH  25  28
ENDBRANCH  23  24
ENDBRANCH  22  23
ENDBRANCH   1  22
TORSDOF 14
ENDMDL
