MODEL 1
REMARK VINA RESULT:     -11.9      0.000      0.000
REMARK SMILES CC(C)[C@H](NC(=O)[C@H](C)NC(=O)CNC(=O)OCc1ccccc1)C(=O)NCCCNC(=O)c1ccc(-c2c3nc(c(-c4c(F)cccc4F)c4ccc([nH]4)c(-c4c(F)cccc4F)c4nc(c(-c5c(F)cccc5F)c5ccc2[nH]5)C=C4)C=C3)cc1
REMARK SMILES IDX 4 1 2 2 1 3 3 4 25 5 26 6 27 7 28 9 29 10 30 11 31 12 32 13
REMARK SMILES IDX 33 15 34 16 35 17 87 18 36 19 86 20 37 21 38 22 39 23 80 24
REMARK SMILES IDX 40 25 85 26 79 27 81 28 41 29 84 30 78 31 77 32 42 34 68 35
REMARK SMILES IDX 51 36 67 37 52 38 55 39 66 40 82 41 53 42 54 43 65 45 83 46
REMARK SMILES IDX 56 47 43 48 44 49 49 50 45 51 46 52 48 53 50 54 47 55 69 56
REMARK SMILES IDX 70 57 75 58 71 59 72 60 74 61 76 62 73 63 57 64 58 65 63 66
REMARK SMILES IDX 59 67 60 68 62 69 64 70 61 71 5 72 6 73 7 75 8 76 9 77 10 78
REMARK SMILES IDX 11 79 12 81 13 82 14 83 15 84 16 86 17 87 18 88 19 89 20 90
REMARK SMILES IDX 24 91 21 92 23 93 22 94
REMARK H PARENT 27 8 31 14 81 33 55 44 5 74 10 80 14 85
REMARK Flexibility Score: inf
ROOT
ATOM      1  C   UNL A   1      32.256  26.915  25.839  1.00  0.00     0.173 C 
ENDROOT
BRANCH   1   2
ATOM      2  C   UNL A   1      33.456  26.000  26.127  1.00  0.00     0.015 C 
ATOM      3  C   UNL A   1      33.033  24.548  26.376  1.00  0.00     0.010 C 
ATOM      4  C   UNL A   1      34.457  26.021  24.960  1.00  0.00     0.010 C 
ENDBRANCH   1   2
BRANCH   1   5
ATOM      5  C   UNL A   1      31.581  27.638  27.039  1.00  0.00     0.242 C 
ATOM      6  O   UNL A   1      30.832  26.993  27.786  1.00  0.00    -0.273 OA
ATOM      7  N   UNL A   1      31.694  28.970  27.307  1.00  0.00    -0.354 N 
ATOM      8  H   UNL A   1      31.141  29.277  28.060  1.00  0.00     0.163 HD
BRANCH   7   9
ATOM      9  C   UNL A   1      32.490  30.033  26.676  1.00  0.00     0.117 C 
BRANCH   9  10
ATOM     10  C   UNL A   1      31.592  31.013  25.872  1.00  0.00     0.042 C 
BRANCH  10  11
ATOM     11  C   UNL A   1      31.270  32.598  26.266  1.00  0.00     0.118 C 
BRANCH  11  12
ATOM     12  N   UNL A   1      32.009  33.660  27.298  1.00  0.00    -0.352 N 
ATOM     13  C   UNL A   1      32.969  34.152  28.262  1.00  0.00     0.251 C 
ATOM     14  H   UNL A   1      31.440  34.455  27.184  1.00  0.00     0.163 HD
ATOM     15  O   UNL A   1      32.700  35.345  28.523  1.00  0.00    -0.269 OA
BRANCH  13  16
ATOM     16  C   UNL A   1      34.300  33.660  29.067  1.00  0.00     0.039 A 
ATOM     17  C   UNL A   1      35.540  34.274  28.757  1.00  0.00     0.014 A 
ATOM     18  C   UNL A   1      34.511  32.589  29.950  1.00  0.00     0.014 A 
ATOM     19  C   UNL A   1      36.828  33.741  29.163  1.00  0.00     0.010 A 
ATOM     20  C   UNL A   1      35.745  31.980  30.264  1.00  0.00     0.010 A 
ATOM     21  C   UNL A   1      36.944  32.526  29.860  1.00  0.00    -0.014 A 
BRANCH  21  22
ATOM     22  C   UNL A   1      38.169  31.887  30.461  1.00  0.00     0.031 A 
ATOM     23  C   UNL A   1      38.909  30.721  29.806  1.00  0.00     0.074 A 
ATOM     24  C   UNL A   1      38.366  32.065  31.785  1.00  0.00     0.049 A 
ATOM     25  N   UNL A   1      39.891  29.978  30.272  1.00  0.00    -0.248 NA
ATOM     26  C   UNL A   1      38.437  30.294  28.481  1.00  0.00     0.031 C 
ATOM     27  C   UNL A   1      37.540  32.924  32.635  1.00  0.00     0.029 A 
ATOM     28  N   UNL A   1      39.242  31.473  32.663  1.00  0.00    -0.354 N 
ATOM     29  C   UNL A   1      40.145  28.997  29.311  1.00  0.00     0.074 A 
ATOM     30  C   UNL A   1      39.180  29.215  28.252  1.00  0.00     0.031 C 
ATOM     31  C   UNL A   1      37.938  32.798  33.907  1.00  0.00     0.029 A 
ATOM     32  C   UNL A   1      39.063  31.872  33.967  1.00  0.00     0.049 A 
ATOM     33  H   UNL A   1      39.932  30.829  32.386  1.00  0.00     0.167 HD
ATOM     34  C   UNL A   1      41.095  28.018  29.304  1.00  0.00     0.037 A 
ATOM     35  C   UNL A   1      39.738  31.559  35.090  1.00  0.00     0.037 A 
ATOM     36  C   UNL A   1      42.051  27.808  30.371  1.00  0.00     0.049 A 
ATOM     37  C   UNL A   1      40.918  30.640  35.014  1.00  0.00     0.074 A 
ATOM     38  C   UNL A   1      43.172  26.989  30.390  1.00  0.00     0.029 A 
ATOM     39  N   UNL A   1      41.979  28.398  31.624  1.00  0.00    -0.354 N 
ATOM     40  N   UNL A   1      41.318  29.900  34.011  1.00  0.00    -0.248 NA
ATOM     41  C   UNL A   1      41.767  30.549  36.210  1.00  0.00     0.031 C 
ATOM     42  C   UNL A   1      43.752  27.055  31.663  1.00  0.00     0.029 A 
ATOM     43  C   UNL A   1      43.023  27.955  32.422  1.00  0.00     0.049 A 
ATOM     44  H   UNL A   1      41.287  29.039  31.905  1.00  0.00     0.167 HD
ATOM     45  C   UNL A   1      42.478  29.273  34.442  1.00  0.00     0.074 A 
ATOM     46  C   UNL A   1      42.728  29.736  35.791  1.00  0.00     0.031 C 
ATOM     47  C   UNL A   1      43.264  28.395  33.772  1.00  0.00     0.037 A 
BRANCH  34  48
ATOM     48  C   UNL A   1      41.222  27.117  28.091  1.00  0.00     0.057 A 
ATOM     49  C   UNL A   1      40.449  25.956  27.956  1.00  0.00     0.134 A 
ATOM     50  C   UNL A   1      42.001  27.486  26.980  1.00  0.00     0.134 A 
ATOM     51  F   UNL A   1      39.659  25.545  28.960  1.00  0.00    -0.206 F 
ATOM     52  C   UNL A   1      40.460  25.188  26.786  1.00  0.00     0.040 A 
ATOM     53  C   UNL A   1      41.998  26.743  25.793  1.00  0.00     0.040 A 
ATOM     54  F   UNL A   1      42.749  28.600  27.010  1.00  0.00    -0.206 F 
ATOM     55  C   UNL A   1      41.227  25.588  25.695  1.00  0.00     0.006 A 
ENDBRANCH  34  48
BRANCH  35  56
ATOM     56  C   UNL A   1      39.402  32.285  36.339  1.00  0.00     0.057 A 
ATOM     57  C   UNL A   1      40.026  33.506  36.621  1.00  0.00     0.134 A 
ATOM     58  C   UNL A   1      38.389  31.858  37.203  1.00  0.00     0.134 A 
ATOM     59  F   UNL A   1      41.007  33.961  35.827  1.00  0.00    -0.206 F 
ATOM     60  C   UNL A   1      39.655  34.281  37.718  1.00  0.00     0.040 A 
ATOM     61  C   UNL A   1      37.992  32.635  38.295  1.00  0.00     0.040 A 
ATOM     62  F   UNL A   1      37.737  30.710  36.971  1.00  0.00    -0.206 F 
ATOM     63  C   UNL A   1      38.626  33.851  38.552  1.00  0.00     0.006 A 
ENDBRANCH  35  56
BRANCH  47  64
ATOM     64  C   UNL A   1      44.480  27.889  34.490  1.00  0.00     0.057 A 
ATOM     65  C   UNL A   1      45.713  28.552  34.414  1.00  0.00     0.134 A 
ATOM     66  C   UNL A   1      44.422  26.721  35.260  1.00  0.00     0.134 A 
ATOM     67  F   UNL A   1      45.840  29.670  33.681  1.00  0.00    -0.206 F 
ATOM     68  C   UNL A   1      46.851  28.052  35.049  1.00  0.00     0.040 A 
ATOM     69  C   UNL A   1      45.547  26.225  35.920  1.00  0.00     0.040 A 
ATOM     70  F   UNL A   1      43.272  26.041  35.381  1.00  0.00    -0.206 F 
ATOM     71  C   UNL A   1      46.768  26.886  35.808  1.00  0.00     0.006 A 
ENDBRANCH  47  64
ENDBRANCH  21  22
ENDBRANCH  13  16
ENDBRANCH  11  12
ENDBRANCH  10  11
ENDBRANCH   9  10
ENDBRANCH   7   9
ENDBRANCH   1   5
BRANCH   1  72
ATOM     72  N   UNL A   1      32.249  27.709  24.593  1.00  0.00    -0.342 N 
ATOM     73  C   UNL A   1      31.519  27.909  23.472  1.00  0.00     0.242 C 
ATOM     74  H   UNL A   1      33.044  28.289  24.573  1.00  0.00     0.164 HD
ATOM     75  O   UNL A   1      32.001  28.756  22.705  1.00  0.00    -0.273 OA
BRANCH  73  76
ATOM     76  C   UNL A   1      30.345  27.035  22.988  1.00  0.00     0.168 C 
ATOM     77  C   UNL A   1      29.001  27.729  23.242  1.00  0.00     0.041 C 
BRANCH  76  78
ATOM     78  N   UNL A   1      30.196  25.672  23.449  1.00  0.00    -0.343 N 
ATOM     79  C   UNL A   1      30.917  24.583  23.058  1.00  0.00     0.240 C 
ATOM     80  H   UNL A   1      29.494  25.513  24.120  1.00  0.00     0.164 HD
ATOM     81  O   UNL A   1      30.571  23.492  23.526  1.00  0.00    -0.273 OA
BRANCH  79  82
ATOM     82  C   UNL A   1      32.272  24.713  22.296  1.00  0.00     0.219 C 
BRANCH  82  83
ATOM     83  N   UNL A   1      33.399  23.768  22.526  1.00  0.00    -0.312 N 
ATOM     84  C   UNL A   1      33.833  22.722  23.348  1.00  0.00     0.407 C 
ATOM     85  H   UNL A   1      34.094  23.944  21.851  1.00  0.00     0.167 HD
ATOM     86  O   UNL A   1      35.057  22.742  23.522  1.00  0.00    -0.225 OA
BRANCH  84  87
ATOM     87  O   UNL A   1      33.146  21.623  23.809  1.00  0.00    -0.445 OA
BRANCH  87  88
ATOM     88  C   UNL A   1      32.372  20.260  24.421  1.00  0.00     0.270 C 
BRANCH  88  89
ATOM     89  C   UNL A   1      32.946  18.822  24.687  1.00  0.00    -0.011 A 
ATOM     90  C   UNL A   1      32.311  17.689  25.232  1.00  0.00     0.007 A 
ATOM     91  C   UNL A   1      34.265  18.572  24.262  1.00  0.00     0.007 A 
ATOM     92  C   UNL A   1      32.957  16.475  25.517  1.00  0.00     0.000 A 
ATOM     93  C   UNL A   1      34.916  17.342  24.494  1.00  0.00     0.000 A 
ATOM     94  C   UNL A   1      34.275  16.303  25.155  1.00  0.00     0.000 A 
ENDBRANCH  88  89
ENDBRANCH  87  88
ENDBRANCH  84  87
ENDBRANCH  82  83
ENDBRANCH  79  82
ENDBRANCH  76  78
ENDBRANCH  73  76
ENDBRANCH   1  72
TORSDOF 19
ENDMDL
MODEL 2
REMARK VINA RESULT:     -11.9      2.481      4.327
REMARK SMILES CC(C)[C@H](NC(=O)[C@H](C)NC(=O)CNC(=O)OCc1ccccc1)C(=O)NCCCNC(=O)c1ccc(-c2c3nc(c(-c4c(F)cccc4F)c4ccc([nH]4)c(-c4c(F)cccc4F)c4nc(c(-c5c(F)cccc5F)c5ccc2[nH]5)C=C4)C=C3)cc1
REMARK SMILES IDX 4 1 2 2 1 3 3 4 25 5 26 6 27 7 28 9 29 10 30 11 31 12 32 13
REMARK SMILES IDX 33 15 34 16 35 17 87 18 36 19 86 20 37 21 38 22 39 23 80 24
REMARK SMILES IDX 40 25 85 26 79 27 81 28 41 29 84 30 78 31 77 32 42 34 68 35
REMARK SMILES IDX 51 36 67 37 52 38 55 39 66 40 82 41 53 42 54 43 65 45 83 46
REMARK SMILES IDX 56 47 43 48 44 49 49 50 45 51 46 52 48 53 50 54 47 55 69 56
REMARK SMILES IDX 70 57 75 58 71 59 72 60 74 61 76 62 73 63 57 64 58 65 63 66
REMARK SMILES IDX 59 67 60 68 62 69 64 70 61 71 5 72 6 73 7 75 8 76 9 77 10 78
REMARK SMILES IDX 11 79 12 81 13 82 14 83 15 84 16 86 17 87 18 88 19 89 20 90
REMARK SMILES IDX 24 91 21 92 23 93 22 94
REMARK H PARENT 27 8 31 14 81 33 55 44 5 74 10 80 14 85
REMARK Flexibility Score: inf
ROOT
ATOM      1  C   UNL A   1      31.677  24.913  24.234  1.00  0.00     0.173 C 
ENDROOT
BRANCH   1   2
ATOM      2  C   UNL A   1      30.350  25.450  24.791  1.00  0.00     0.015 C 
ATOM      3  C   UNL A   1      30.553  26.317  26.039  1.00  0.00     0.010 C 
ATOM      4  C   UNL A   1      29.607  26.285  23.735  1.00  0.00     0.010 C 
ENDBRANCH   1   2
BRANCH   1   5
ATOM      5  C   UNL A   1      32.217  25.526  22.910  1.00  0.00     0.242 C 
ATOM      6  O   UNL A   1      32.169  24.852  21.872  1.00  0.00    -0.273 OA
ATOM      7  N   UNL A   1      32.815  26.747  22.806  1.00  0.00    -0.354 N 
ATOM      8  H   UNL A   1      33.166  26.947  21.909  1.00  0.00     0.163 HD
BRANCH   7   9
ATOM      9  C   UNL A   1      33.032  27.819  23.787  1.00  0.00     0.117 C 
BRANCH   9  10
ATOM     10  C   UNL A   1      31.995  28.963  23.617  1.00  0.00     0.042 C 
BRANCH  10  11
ATOM     11  C   UNL A   1      31.176  29.737  24.842  1.00  0.00     0.118 C 
BRANCH  11  12
ATOM     12  N   UNL A   1      31.604  30.969  25.861  1.00  0.00    -0.352 N 
ATOM     13  C   UNL A   1      32.375  31.691  26.850  1.00  0.00     0.251 C 
ATOM     14  H   UNL A   1      30.882  31.614  25.684  1.00  0.00     0.163 HD
ATOM     15  O   UNL A   1      31.836  32.802  27.044  1.00  0.00    -0.269 OA
BRANCH  13  16
ATOM     16  C   UNL A   1      33.732  31.530  27.741  1.00  0.00     0.039 A 
ATOM     17  C   UNL A   1      34.556  32.670  27.923  1.00  0.00     0.014 A 
ATOM     18  C   UNL A   1      34.366  30.397  28.275  1.00  0.00     0.014 A 
ATOM     19  C   UNL A   1      35.917  32.608  28.424  1.00  0.00     0.010 A 
ATOM     20  C   UNL A   1      35.721  30.286  28.655  1.00  0.00     0.010 A 
ATOM     21  C   UNL A   1      36.547  31.387  28.720  1.00  0.00    -0.014 A 
BRANCH  21  22
ATOM     22  C   UNL A   1      37.891  31.138  29.353  1.00  0.00     0.031 A 
ATOM     23  C   UNL A   1      38.905  30.140  28.795  1.00  0.00     0.074 A 
ATOM     24  C   UNL A   1      38.030  31.484  30.651  1.00  0.00     0.049 A 
ATOM     25  N   UNL A   1      40.041  29.717  29.310  1.00  0.00    -0.248 NA
ATOM     26  C   UNL A   1      38.563  29.484  27.525  1.00  0.00     0.031 C 
ATOM     27  C   UNL A   1      37.009  32.184  31.433  1.00  0.00     0.029 A 
ATOM     28  N   UNL A   1      39.023  31.219  31.563  1.00  0.00    -0.354 N 
ATOM     29  C   UNL A   1      40.540  28.745  28.438  1.00  0.00     0.074 A 
ATOM     30  C   UNL A   1      39.556  28.610  27.383  1.00  0.00     0.031 C 
ATOM     31  C   UNL A   1      37.420  32.283  32.704  1.00  0.00     0.029 A 
ATOM     32  C   UNL A   1      38.743  31.681  32.827  1.00  0.00     0.049 A 
ATOM     33  H   UNL A   1      39.855  30.746  31.334  1.00  0.00     0.167 HD
ATOM     34  C   UNL A   1      41.707  28.041  28.504  1.00  0.00     0.037 A 
ATOM     35  C   UNL A   1      39.469  31.657  33.962  1.00  0.00     0.037 A 
ATOM     36  C   UNL A   1      42.680  28.182  29.568  1.00  0.00     0.049 A 
ATOM     37  C   UNL A   1      40.844  31.063  33.949  1.00  0.00     0.074 A 
ATOM     38  C   UNL A   1      43.972  27.678  29.641  1.00  0.00     0.029 A 
ATOM     39  N   UNL A   1      42.455  28.851  30.761  1.00  0.00    -0.354 N 
ATOM     40  N   UNL A   1      41.424  30.356  33.011  1.00  0.00    -0.248 NA
ATOM     41  C   UNL A   1      41.683  31.303  35.131  1.00  0.00     0.031 C 
ATOM     42  C   UNL A   1      44.510  28.009  30.891  1.00  0.00     0.029 A 
ATOM     43  C   UNL A   1      43.574  28.764  31.576  1.00  0.00     0.049 A 
ATOM     44  H   UNL A   1      41.622  29.320  30.995  1.00  0.00     0.167 HD
ATOM     45  C   UNL A   1      42.703  30.087  33.476  1.00  0.00     0.074 A 
ATOM     46  C   UNL A   1      42.821  30.723  34.771  1.00  0.00     0.031 C 
ATOM     47  C   UNL A   1      43.689  29.376  32.875  1.00  0.00     0.037 A 
BRANCH  34  48
ATOM     48  C   UNL A   1      42.064  27.091  27.378  1.00  0.00     0.057 A 
ATOM     49  C   UNL A   1      42.796  27.520  26.261  1.00  0.00     0.134 A 
ATOM     50  C   UNL A   1      41.819  25.710  27.476  1.00  0.00     0.134 A 
ATOM     51  F   UNL A   1      43.094  28.818  26.103  1.00  0.00    -0.206 F 
ATOM     52  C   UNL A   1      43.245  26.627  25.281  1.00  0.00     0.040 A 
ATOM     53  C   UNL A   1      42.289  24.804  26.517  1.00  0.00     0.040 A 
ATOM     54  F   UNL A   1      41.153  25.208  28.527  1.00  0.00    -0.206 F 
ATOM     55  C   UNL A   1      43.003  25.263  25.414  1.00  0.00     0.006 A 
ENDBRANCH  34  48
BRANCH  35  56
ATOM     56  C   UNL A   1      38.955  32.390  35.144  1.00  0.00     0.057 A 
ATOM     57  C   UNL A   1      38.306  31.689  36.167  1.00  0.00     0.134 A 
ATOM     58  C   UNL A   1      39.194  33.754  35.341  1.00  0.00     0.134 A 
ATOM     59  F   UNL A   1      38.048  30.380  36.028  1.00  0.00    -0.206 F 
ATOM     60  C   UNL A   1      37.914  32.315  37.349  1.00  0.00     0.040 A 
ATOM     61  C   UNL A   1      38.825  34.390  36.529  1.00  0.00     0.040 A 
ATOM     62  F   UNL A   1      39.833  34.472  34.408  1.00  0.00    -0.206 F 
ATOM     63  C   UNL A   1      38.185  33.668  37.537  1.00  0.00     0.006 A 
ENDBRANCH  35  56
BRANCH  47  64
ATOM     64  C   UNL A   1      44.990  29.264  33.613  1.00  0.00     0.057 A 
ATOM     65  C   UNL A   1      45.985  30.246  33.510  1.00  0.00     0.134 A 
ATOM     66  C   UNL A   1      45.255  28.159  34.430  1.00  0.00     0.134 A 
ATOM     67  F   UNL A   1      45.799  31.324  32.732  1.00  0.00    -0.206 F 
ATOM     68  C   UNL A   1      47.210  30.114  34.165  1.00  0.00     0.040 A 
ATOM     69  C   UNL A   1      46.467  28.028  35.110  1.00  0.00     0.040 A 
ATOM     70  F   UNL A   1      44.344  27.185  34.578  1.00  0.00    -0.206 F 
ATOM     71  C   UNL A   1      47.453  29.003  34.971  1.00  0.00     0.006 A 
ENDBRANCH  47  64
ENDBRANCH  21  22
ENDBRANCH  13  16
ENDBRANCH  11  12
ENDBRANCH  10  11
ENDBRANCH   9  10
ENDBRANCH   7   9
ENDBRANCH   1   5
BRANCH   1  72
ATOM     72  N   UNL A   1      32.743  24.527  25.181  1.00  0.00    -0.342 N 
ATOM     73  C   UNL A   1      33.687  23.581  25.379  1.00  0.00     0.242 C 
ATOM     74  H   UNL A   1      32.776  25.181  25.917  1.00  0.00     0.164 HD
ATOM     75  O   UNL A   1      34.362  23.752  26.406  1.00  0.00    -0.273 OA
BRANCH  73  76
ATOM     76  C   UNL A   1      33.812  22.250  24.610  1.00  0.00     0.168 C 
ATOM     77  C   UNL A   1      32.456  21.541  24.513  1.00  0.00     0.041 C 
BRANCH  76  78
ATOM     78  N   UNL A   1      34.772  21.247  25.015  1.00  0.00    -0.343 N 
ATOM     79  C   UNL A   1      36.105  21.214  24.729  1.00  0.00     0.240 C 
ATOM     80  H   UNL A   1      34.423  20.504  25.558  1.00  0.00     0.164 HD
ATOM     81  O   UNL A   1      36.730  20.218  25.114  1.00  0.00    -0.273 OA
BRANCH  79  82
ATOM     82  C   UNL A   1      36.874  22.465  24.205  1.00  0.00     0.219 C 
BRANCH  82  83
ATOM     83  N   UNL A   1      37.806  23.238  25.071  1.00  0.00    -0.312 N 
ATOM     84  C   UNL A   1      38.630  23.138  26.198  1.00  0.00     0.407 C 
ATOM     85  H   UNL A   1      37.865  24.156  24.721  1.00  0.00     0.167 HD
ATOM     86  O   UNL A   1      38.656  24.187  26.853  1.00  0.00    -0.225 OA
BRANCH  84  87
ATOM     87  O   UNL A   1      39.515  22.148  26.555  1.00  0.00    -0.445 OA
BRANCH  87  88
ATOM     88  C   UNL A   1      40.657  20.995  27.004  1.00  0.00     0.270 C 
BRANCH  88  89
ATOM     89  C   UNL A   1      42.014  20.614  26.311  1.00  0.00    -0.011 A 
ATOM     90  C   UNL A   1      43.093  21.438  25.935  1.00  0.00     0.007 A 
ATOM     91  C   UNL A   1      42.254  19.244  26.087  1.00  0.00     0.007 A 
ATOM     92  C   UNL A   1      44.223  20.995  25.228  1.00  0.00     0.000 A 
ATOM     93  C   UNL A   1      43.407  18.775  25.422  1.00  0.00     0.000 A 
ATOM     94  C   UNL A   1      44.376  19.654  24.959  1.00  0.00     0.000 A 
ENDBRANCH  88  89
ENDBRANCH  87  88
ENDBRANCH  84  87
ENDBRANCH  82  83
ENDBRANCH  79  82
ENDBRANCH  76  78
ENDBRANCH  73  76
ENDBRANCH   1  72
TORSDOF 19
ENDMDL
MODEL 3
REMARK VINA RESULT:     -11.8      4.365      6.441
REMARK SMILES CC(C)[C@H](NC(=O)[C@H](C)NC(=O)CNC(=O)OCc1ccccc1)C(=O)NCCCNC(=O)c1ccc(-c2c3nc(c(-c4c(F)cccc4F)c4ccc([nH]4)c(-c4c(F)cccc4F)c4nc(c(-c5c(F)cccc5F)c5ccc2[nH]5)C=C4)C=C3)cc1
REMARK SMILES IDX 4 1 2 2 1 3 3 4 25 5 26 6 27 7 28 9 29 10 30 11 31 12 32 13
REMARK SMILES IDX 33 15 34 16 35 17 87 18 36 19 86 20 37 21 38 22 39 23 80 24
REMARK SMILES IDX 40 25 85 26 79 27 81 28 41 29 84 30 78 31 77 32 42 34 68 35
REMARK SMILES IDX 51 36 67 37 52 38 55 39 66 40 82 41 53 42 54 43 65 45 83 46
REMARK SMILES IDX 56 47 43 48 44 49 49 50 45 51 46 52 48 53 50 54 47 55 69 56
REMARK SMILES IDX 70 57 75 58 71 59 72 60 74 61 76 62 73 63 57 64 58 65 63 66
REMARK SMILES IDX 59 67 60 68 62 69 64 70 61 71 5 72 6 73 7 75 8 76 9 77 10 78
REMARK SMILES IDX 11 79 12 81 13 82 14 83 15 84 16 86 17 87 18 88 19 89 20 90
REMARK SMILES IDX 24 91 21 92 23 93 22 94
REMARK H PARENT 27 8 31 14 81 33 55 44 5 74 10 80 14 85
REMARK Flexibility Score: inf
ROOT
ATOM      1  C   UNL A   1      32.061  28.045  25.290  1.00  0.00     0.173 C 
ENDROOT
BRANCH   1   2
ATOM      2  C   UNL A   1      33.526  27.695  24.983  1.00  0.00     0.015 C 
ATOM      3  C   UNL A   1      34.034  28.392  23.716  1.00  0.00     0.010 C 
ATOM      4  C   UNL A   1      34.442  28.087  26.153  1.00  0.00     0.010 C 
ENDBRANCH   1   2
BRANCH   1   5
ATOM      5  C   UNL A   1      31.679  28.367  26.763  1.00  0.00     0.242 C 
ATOM      6  O   UNL A   1      31.380  27.435  27.524  1.00  0.00    -0.273 OA
ATOM      7  N   UNL A   1      31.576  29.623  27.283  1.00  0.00    -0.354 N 
ATOM      8  H   UNL A   1      31.250  29.648  28.211  1.00  0.00     0.163 HD
BRANCH   7   9
ATOM      9  C   UNL A   1      31.863  30.946  26.713  1.00  0.00     0.117 C 
BRANCH   9  10
ATOM     10  C   UNL A   1      33.332  31.373  26.979  1.00  0.00     0.042 C 
BRANCH  10  11
ATOM     11  C   UNL A   1      33.923  32.038  28.386  1.00  0.00     0.118 C 
BRANCH  11  12
ATOM     12  N   UNL A   1      34.959  31.461  29.540  1.00  0.00    -0.352 N 
ATOM     13  C   UNL A   1      36.124  30.808  30.097  1.00  0.00     0.251 C 
ATOM     14  H   UNL A   1      34.488  31.728  30.362  1.00  0.00     0.163 HD
ATOM     15  O   UNL A   1      36.062  30.874  31.345  1.00  0.00    -0.269 OA
BRANCH  13  16
ATOM     16  C   UNL A   1      37.496  30.068  29.614  1.00  0.00     0.039 A 
ATOM     17  C   UNL A   1      38.471  29.752  30.594  1.00  0.00     0.014 A 
ATOM     18  C   UNL A   1      38.004  29.795  28.335  1.00  0.00     0.014 A 
ATOM     19  C   UNL A   1      39.838  29.378  30.279  1.00  0.00     0.010 A 
ATOM     20  C   UNL A   1      39.352  29.548  27.994  1.00  0.00     0.010 A 
ATOM     21  C   UNL A   1      40.317  29.354  28.958  1.00  0.00    -0.014 A 
BRANCH  21  22
ATOM     22  C   UNL A   1      41.650  28.881  28.438  1.00  0.00     0.031 A 
ATOM     23  C   UNL A   1      41.936  27.424  28.076  1.00  0.00     0.074 A 
ATOM     24  C   UNL A   1      42.719  29.666  28.690  1.00  0.00     0.049 A 
ATOM     25  N   UNL A   1      43.072  26.844  27.751  1.00  0.00    -0.248 NA
ATOM     26  C   UNL A   1      40.807  26.485  28.157  1.00  0.00     0.031 C 
ATOM     27  C   UNL A   1      42.646  30.983  29.324  1.00  0.00     0.029 A 
ATOM     28  N   UNL A   1      44.068  29.444  28.540  1.00  0.00    -0.354 N 
ATOM     29  C   UNL A   1      42.801  25.481  27.600  1.00  0.00     0.074 A 
ATOM     30  C   UNL A   1      41.396  25.317  27.914  1.00  0.00     0.031 C 
ATOM     31  C   UNL A   1      43.887  31.447  29.519  1.00  0.00     0.029 A 
ATOM     32  C   UNL A   1      44.847  30.477  29.002  1.00  0.00     0.049 A 
ATOM     33  H   UNL A   1      44.439  28.625  28.140  1.00  0.00     0.167 HD
ATOM     34  C   UNL A   1      43.634  24.469  27.226  1.00  0.00     0.037 A 
ATOM     35  C   UNL A   1      46.183  30.654  28.992  1.00  0.00     0.037 A 
ATOM     36  C   UNL A   1      45.039  24.647  26.918  1.00  0.00     0.049 A 
ATOM     37  C   UNL A   1      47.063  29.611  28.377  1.00  0.00     0.074 A 
ATOM     38  C   UNL A   1      45.928  23.748  26.345  1.00  0.00     0.029 A 
ATOM     39  N   UNL A   1      45.768  25.794  27.192  1.00  0.00    -0.354 N 
ATOM     40  N   UNL A   1      46.752  28.400  27.987  1.00  0.00    -0.248 NA
ATOM     41  C   UNL A   1      48.469  29.975  28.156  1.00  0.00     0.031 C 
ATOM     42  C   UNL A   1      47.198  24.337  26.309  1.00  0.00     0.029 A 
ATOM     43  C   UNL A   1      47.091  25.622  26.811  1.00  0.00     0.049 A 
ATOM     44  H   UNL A   1      45.400  26.612  27.598  1.00  0.00     0.167 HD
ATOM     45  C   UNL A   1      47.915  27.864  27.452  1.00  0.00     0.074 A 
ATOM     46  C   UNL A   1      48.932  28.889  27.550  1.00  0.00     0.031 C 
ATOM     47  C   UNL A   1      48.112  26.631  26.925  1.00  0.00     0.037 A 
BRANCH  34  48
ATOM     48  C   UNL A   1      43.074  23.072  27.052  1.00  0.00     0.057 A 
ATOM     49  C   UNL A   1      42.764  22.264  28.156  1.00  0.00     0.134 A 
ATOM     50  C   UNL A   1      42.691  22.585  25.790  1.00  0.00     0.134 A 
ATOM     51  F   UNL A   1      43.073  22.664  29.398  1.00  0.00    -0.206 F 
ATOM     52  C   UNL A   1      42.125  21.027  28.014  1.00  0.00     0.040 A 
ATOM     53  C   UNL A   1      42.024  21.363  25.638  1.00  0.00     0.040 A 
ATOM     54  F   UNL A   1      42.920  23.305  24.682  1.00  0.00    -0.206 F 
ATOM     55  C   UNL A   1      41.741  20.578  26.753  1.00  0.00     0.006 A 
ENDBRANCH  34  48
BRANCH  35  56
ATOM     56  C   UNL A   1      46.723  31.966  29.425  1.00  0.00     0.057 A 
ATOM     57  C   UNL A   1      46.723  33.045  28.534  1.00  0.00     0.134 A 
ATOM     58  C   UNL A   1      47.131  32.209  30.741  1.00  0.00     0.134 A 
ATOM     59  F   UNL A   1      46.344  32.866  27.259  1.00  0.00    -0.206 F 
ATOM     60  C   UNL A   1      47.106  34.324  28.933  1.00  0.00     0.040 A 
ATOM     61  C   UNL A   1      47.499  33.491  31.160  1.00  0.00     0.040 A 
ATOM     62  F   UNL A   1      47.129  31.221  31.646  1.00  0.00    -0.206 F 
ATOM     63  C   UNL A   1      47.485  34.551  30.254  1.00  0.00     0.006 A 
ENDBRANCH  35  56
BRANCH  47  64
ATOM     64  C   UNL A   1      49.485  26.331  26.399  1.00  0.00     0.057 A 
ATOM     65  C   UNL A   1      49.897  26.751  25.128  1.00  0.00     0.134 A 
ATOM     66  C   UNL A   1      50.403  25.606  27.169  1.00  0.00     0.134 A 
ATOM     67  F   UNL A   1      49.061  27.438  24.334  1.00  0.00    -0.206 F 
ATOM     68  C   UNL A   1      51.160  26.431  24.627  1.00  0.00     0.040 A 
ATOM     69  C   UNL A   1      51.678  25.302  26.690  1.00  0.00     0.040 A 
ATOM     70  F   UNL A   1      50.076  25.179  28.398  1.00  0.00    -0.206 F 
ATOM     71  C   UNL A   1      52.056  25.706  25.411  1.00  0.00     0.006 A 
ENDBRANCH  47  64
ENDBRANCH  21  22
ENDBRANCH  13  16
ENDBRANCH  11  12
ENDBRANCH  10  11
ENDBRANCH   9  10
ENDBRANCH   7   9
ENDBRANCH   1   5
BRANCH   1  72
ATOM     72  N   UNL A   1      31.292  28.825  24.299  1.00  0.00    -0.342 N 
ATOM     73  C   UNL A   1      30.183  28.752  23.530  1.00  0.00     0.242 C 
ATOM     74  H   UNL A   1      31.738  29.689  24.148  1.00  0.00     0.164 HD
ATOM     75  O   UNL A   1      29.985  29.763  22.838  1.00  0.00    -0.273 OA
BRANCH  73  76
ATOM     76  C   UNL A   1      29.340  27.487  23.272  1.00  0.00     0.168 C 
ATOM     77  C   UNL A   1      27.849  27.764  23.499  1.00  0.00     0.041 C 
BRANCH  76  78
ATOM     78  N   UNL A   1      29.635  26.248  23.956  1.00  0.00    -0.343 N 
ATOM     79  C   UNL A   1      30.475  25.255  23.545  1.00  0.00     0.240 C 
ATOM     80  H   UNL A   1      29.178  26.105  24.816  1.00  0.00     0.164 HD
ATOM     81  O   UNL A   1      30.523  24.241  24.251  1.00  0.00    -0.273 OA
BRANCH  79  82
ATOM     82  C   UNL A   1      31.530  25.473  22.417  1.00  0.00     0.219 C 
BRANCH  82  83
ATOM     83  N   UNL A   1      32.830  24.749  22.404  1.00  0.00    -0.312 N 
ATOM     84  C   UNL A   1      33.589  23.797  23.094  1.00  0.00     0.407 C 
ATOM     85  H   UNL A   1      33.346  25.052  21.622  1.00  0.00     0.167 HD
ATOM     86  O   UNL A   1      34.801  24.038  23.045  1.00  0.00    -0.225 OA
BRANCH  84  87
ATOM     87  O   UNL A   1      33.206  22.589  23.630  1.00  0.00    -0.445 OA
BRANCH  87  88
ATOM     88  C   UNL A   1      32.662  21.144  24.300  1.00  0.00     0.270 C 
BRANCH  88  89
ATOM     89  C   UNL A   1      33.149  19.674  24.032  1.00  0.00    -0.011 A 
ATOM     90  C   UNL A   1      34.203  18.955  24.629  1.00  0.00     0.007 A 
ATOM     91  C   UNL A   1      32.398  18.908  23.120  1.00  0.00     0.007 A 
ATOM     92  C   UNL A   1      34.611  17.669  24.237  1.00  0.00     0.000 A 
ATOM     93  C   UNL A   1      32.763  17.597  22.750  1.00  0.00     0.000 A 
ATOM     94  C   UNL A   1      33.892  16.989  23.280  1.00  0.00     0.000 A 
ENDBRANCH  88  89
ENDBRANCH  87  88
ENDBRANCH  84  87
ENDBRANCH  82  83
ENDBRANCH  79  82
ENDBRANCH  76  78
ENDBRANCH  73  76
ENDBRANCH   1  72
TORSDOF 19
ENDMDL
