MODEL 1
REMARK VINA RESULT:     -11.8      0.000      0.000
REMARK SMILES O=C(NCCCNC(=O)c1cc(-c2ccn(C(F)F)c(=O)c2)ccc1O)c1ccc(-c2c3nc(c(-c4c(F)cccc4F)c4ccc([nH]4)c(-c4c(F)cccc4F)c4nc(c(-c5c(F)cccc5F)c5ccc2[nH]5)C=C4)C=C3)cc1
REMARK SMILES IDX 5 1 4 2 3 3 1 4 2 5 27 7 28 8 80 9 29 10 79 11 30 12 31 13
REMARK SMILES IDX 32 14 73 15 33 16 78 17 72 18 74 19 34 20 77 21 71 22 70 23
REMARK SMILES IDX 35 25 61 26 44 27 60 28 45 29 48 30 59 31 75 32 46 33 47 34
REMARK SMILES IDX 58 36 76 37 49 38 36 39 37 40 42 41 38 42 39 43 41 44 43 45
REMARK SMILES IDX 40 46 62 47 63 48 68 49 64 50 65 51 67 52 69 53 66 54 50 55
REMARK SMILES IDX 51 56 56 57 52 58 53 59 55 60 57 61 54 62 6 63 7 64 8 65
REMARK SMILES IDX 9 67 10 68 11 69 25 70 12 71 24 72 23 73 26 74 13 76 14 77
REMARK SMILES IDX 22 78 15 79 20 80 16 81 21 82 17 83 18 84 19 85
REMARK H PARENT 3 6 74 24 48 35 7 66 26 75
REMARK Flexibility Score: inf
ROOT
ATOM      1  C   UNL A   1      33.170  28.839  27.251  1.00  0.00     0.042 C 
ENDROOT
BRANCH   1   2
ATOM      2  C   UNL A   1      34.585  29.384  27.353  1.00  0.00     0.118 C 
BRANCH   2   3
ATOM      3  N   UNL A   1      34.745  30.342  28.436  1.00  0.00    -0.352 N 
ATOM      4  O   UNL A   1      35.637  31.343  30.234  1.00  0.00    -0.269 OA
ATOM      5  C   UNL A   1      35.808  30.607  29.262  1.00  0.00     0.251 C 
ATOM      6  H   UNL A   1      33.951  30.899  28.606  1.00  0.00     0.163 HD
BRANCH   5   7
ATOM      7  C   UNL A   1      37.148  30.024  29.019  1.00  0.00     0.039 A 
ATOM      8  C   UNL A   1      37.870  29.531  30.110  1.00  0.00     0.014 A 
ATOM      9  C   UNL A   1      37.739  30.031  27.755  1.00  0.00     0.014 A 
ATOM     10  C   UNL A   1      39.164  29.034  29.929  1.00  0.00     0.010 A 
ATOM     11  C   UNL A   1      38.977  29.426  27.553  1.00  0.00     0.010 A 
ATOM     12  C   UNL A   1      39.726  28.970  28.645  1.00  0.00    -0.014 A 
BRANCH  12  13
ATOM     13  C   UNL A   1      41.137  28.550  28.443  1.00  0.00     0.031 A 
ATOM     14  C   UNL A   1      41.445  27.110  28.117  1.00  0.00     0.074 A 
ATOM     15  C   UNL A   1      42.137  29.445  28.557  1.00  0.00     0.049 A 
ATOM     16  N   UNL A   1      42.605  26.529  27.936  1.00  0.00    -0.248 NA
ATOM     17  C   UNL A   1      40.297  26.194  28.012  1.00  0.00     0.031 C 
ATOM     18  C   UNL A   1      41.981  30.856  28.910  1.00  0.00     0.029 A 
ATOM     19  N   UNL A   1      43.489  29.292  28.383  1.00  0.00    -0.354 N 
ATOM     20  C   UNL A   1      42.322  25.187  27.709  1.00  0.00     0.074 A 
ATOM     21  C   UNL A   1      40.894  25.023  27.860  1.00  0.00     0.031 C 
ATOM     22  C   UNL A   1      43.187  31.448  28.894  1.00  0.00     0.029 A 
ATOM     23  C   UNL A   1      44.201  30.454  28.557  1.00  0.00     0.049 A 
ATOM     24  H   UNL A   1      43.910  28.432  28.155  1.00  0.00     0.167 HD
ATOM     25  C   UNL A   1      43.162  24.183  27.361  1.00  0.00     0.037 A 
ATOM     26  C   UNL A   1      45.522  30.686  28.449  1.00  0.00     0.037 A 
ATOM     27  C   UNL A   1      44.580  24.344  27.183  1.00  0.00     0.049 A 
ATOM     28  C   UNL A   1      46.437  29.557  28.059  1.00  0.00     0.074 A 
ATOM     29  C   UNL A   1      45.522  23.398  26.819  1.00  0.00     0.029 A 
ATOM     30  N   UNL A   1      45.259  25.542  27.346  1.00  0.00    -0.354 N 
ATOM     31  N   UNL A   1      46.149  28.302  27.810  1.00  0.00    -0.248 NA
ATOM     32  C   UNL A   1      47.863  29.885  27.921  1.00  0.00     0.031 C 
ATOM     33  C   UNL A   1      46.775  24.021  26.784  1.00  0.00     0.029 A 
ATOM     34  C   UNL A   1      46.607  25.361  27.088  1.00  0.00     0.049 A 
ATOM     35  H   UNL A   1      44.843  26.396  27.606  1.00  0.00     0.167 HD
ATOM     36  C   UNL A   1      47.350  27.698  27.460  1.00  0.00     0.074 A 
ATOM     37  C   UNL A   1      48.364  28.731  27.504  1.00  0.00     0.031 C 
ATOM     38  C   UNL A   1      47.598  26.406  27.135  1.00  0.00     0.037 A 
BRANCH  25  39
ATOM     39  C   UNL A   1      42.549  22.832  27.132  1.00  0.00     0.057 A 
ATOM     40  C   UNL A   1      42.163  22.021  28.206  1.00  0.00     0.134 A 
ATOM     41  C   UNL A   1      42.325  22.338  25.838  1.00  0.00     0.134 A 
ATOM     42  F   UNL A   1      42.351  22.429  29.470  1.00  0.00    -0.206 F 
ATOM     43  C   UNL A   1      41.568  20.774  28.001  1.00  0.00     0.040 A 
ATOM     44  C   UNL A   1      41.704  21.106  25.622  1.00  0.00     0.040 A 
ATOM     45  F   UNL A   1      42.654  23.073  24.764  1.00  0.00    -0.206 F 
ATOM     46  C   UNL A   1      41.327  20.320  26.706  1.00  0.00     0.006 A 
ENDBRANCH  25  39
BRANCH  26  47
ATOM     47  C   UNL A   1      46.066  32.048  28.681  1.00  0.00     0.057 A 
ATOM     48  C   UNL A   1      46.531  32.444  29.940  1.00  0.00     0.134 A 
ATOM     49  C   UNL A   1      46.174  32.971  27.633  1.00  0.00     0.134 A 
ATOM     50  F   UNL A   1      46.449  31.609  30.986  1.00  0.00    -0.206 F 
ATOM     51  C   UNL A   1      47.090  33.706  30.148  1.00  0.00     0.040 A 
ATOM     52  C   UNL A   1      46.754  34.226  27.821  1.00  0.00     0.040 A 
ATOM     53  F   UNL A   1      45.763  32.642  26.400  1.00  0.00    -0.206 F 
ATOM     54  C   UNL A   1      47.214  34.597  29.083  1.00  0.00     0.006 A 
ENDBRANCH  26  47
BRANCH  38  55
ATOM     55  C   UNL A   1      49.011  26.059  26.770  1.00  0.00     0.057 A 
ATOM     56  C   UNL A   1      49.477  26.248  25.463  1.00  0.00     0.134 A 
ATOM     57  C   UNL A   1      49.914  25.546  27.712  1.00  0.00     0.134 A 
ATOM     58  F   UNL A   1      48.660  26.727  24.512  1.00  0.00    -0.206 F 
ATOM     59  C   UNL A   1      50.792  25.953  25.108  1.00  0.00     0.040 A 
ATOM     60  C   UNL A   1      51.241  25.274  27.375  1.00  0.00     0.040 A 
ATOM     61  F   UNL A   1      49.533  25.354  28.983  1.00  0.00    -0.206 F 
ATOM     62  C   UNL A   1      51.682  25.474  26.068  1.00  0.00     0.006 A 
ENDBRANCH  38  55
ENDBRANCH  12  13
ENDBRANCH   5   7
ENDBRANCH   2   3
ENDBRANCH   1   2
BRANCH   1  63
ATOM     63  C   UNL A   1      32.246  29.664  26.370  1.00  0.00     0.118 C 
BRANCH  63  64
ATOM     64  N   UNL A   1      32.782  29.863  25.034  1.00  0.00    -0.352 N 
ATOM     65  C   UNL A   1      32.992  28.946  24.036  1.00  0.00     0.255 C 
ATOM     66  H   UNL A   1      33.031  30.789  24.813  1.00  0.00     0.163 HD
ATOM     67  O   UNL A   1      33.562  29.291  23.001  1.00  0.00    -0.269 OA
BRANCH  65  68
ATOM     68  C   UNL A   1      32.612  27.530  24.218  1.00  0.00     0.082 A 
ATOM     69  C   UNL A   1      33.653  26.602  24.364  1.00  0.00     0.026 A 
ATOM     70  C   UNL A   1      31.282  27.093  24.202  1.00  0.00     0.128 A 
ATOM     71  C   UNL A   1      33.363  25.247  24.554  1.00  0.00    -0.017 A 
ATOM     72  C   UNL A   1      30.985  25.752  24.426  1.00  0.00     0.047 A 
ATOM     73  C   UNL A   1      32.022  24.836  24.609  1.00  0.00     0.012 A 
BRANCH  70  74
ATOM     74  O   UNL A   1      30.262  27.972  23.962  1.00  0.00    -0.507 OA
ATOM     75  H   UNL A   1      30.350  28.620  23.291  1.00  0.00     0.293 HD
ENDBRANCH  70  74
BRANCH  71  76
ATOM     76  C   UNL A   1      34.427  24.232  24.655  1.00  0.00    -0.011 A 
ATOM     77  C   UNL A   1      34.793  23.634  25.925  1.00  0.00     0.027 A 
ATOM     78  C   UNL A   1      35.107  23.882  23.550  1.00  0.00     0.080 A 
ATOM     79  C   UNL A   1      35.825  22.789  26.010  1.00  0.00     0.095 A 
ATOM     80  C   UNL A   1      36.250  22.929  23.628  1.00  0.00     0.255 A 
ATOM     81  N   UNL A   1      36.556  22.446  24.889  1.00  0.00    -0.258 N 
ATOM     82  O   UNL A   1      36.852  22.651  22.591  1.00  0.00    -0.269 OA
BRANCH  81  83
ATOM     83  C   UNL A   1      37.697  21.575  25.003  1.00  0.00     0.451 C 
ATOM     84  F   UNL A   1      38.411  21.838  26.122  1.00  0.00    -0.185 F 
ATOM     85  F   UNL A   1      37.310  20.276  25.044  1.00  0.00    -0.185 F 
ENDBRANCH  81  83
ENDBRANCH  71  76
ENDBRANCH  65  68
ENDBRANCH  63  64
ENDBRANCH   1  63
TORSDOF 13
ENDMDL
MODEL 2
REMARK VINA RESULT:     -11.7      2.875      8.024
REMARK SMILES O=C(NCCCNC(=O)c1cc(-c2ccn(C(F)F)c(=O)c2)ccc1O)c1ccc(-c2c3nc(c(-c4c(F)cccc4F)c4ccc([nH]4)c(-c4c(F)cccc4F)c4nc(c(-c5c(F)cccc5F)c5ccc2[nH]5)C=C4)C=C3)cc1
REMARK SMILES IDX 5 1 4 2 3 3 1 4 2 5 27 7 28 8 80 9 29 10 79 11 30 12 31 13
REMARK SMILES IDX 32 14 73 15 33 16 78 17 72 18 74 19 34 20 77 21 71 22 70 23
REMARK SMILES IDX 35 25 61 26 44 27 60 28 45 29 48 30 59 31 75 32 46 33 47 34
REMARK SMILES IDX 58 36 76 37 49 38 36 39 37 40 42 41 38 42 39 43 41 44 43 45
REMARK SMILES IDX 40 46 62 47 63 48 68 49 64 50 65 51 67 52 69 53 66 54 50 55
REMARK SMILES IDX 51 56 56 57 52 58 53 59 55 60 57 61 54 62 6 63 7 64 8 65
REMARK SMILES IDX 9 67 10 68 11 69 25 70 12 71 24 72 23 73 26 74 13 76 14 77
REMARK SMILES IDX 22 78 15 79 20 80 16 81 21 82 17 83 18 84 19 85
REMARK H PARENT 3 6 74 24 48 35 7 66 26 75
REMARK Flexibility Score: inf
ROOT
ATOM      1  C   UNL A   1      37.807  20.113  24.666  1.00  0.00     0.042 C 
ENDROOT
BRANCH   1   2
ATOM      2  C   UNL A   1      38.637  20.129  25.939  1.00  0.00     0.118 C 
BRANCH   2   3
ATOM      3  N   UNL A   1      39.806  19.265  25.863  1.00  0.00    -0.352 N 
ATOM      4  O   UNL A   1      41.960  18.662  25.711  1.00  0.00    -0.269 OA
ATOM      5  C   UNL A   1      41.143  19.535  26.007  1.00  0.00     0.251 C 
ATOM      6  H   UNL A   1      39.600  18.320  25.677  1.00  0.00     0.163 HD
BRANCH   5   7
ATOM      7  C   UNL A   1      41.626  20.847  26.496  1.00  0.00     0.039 A 
ATOM      8  C   UNL A   1      41.705  21.057  27.876  1.00  0.00     0.014 A 
ATOM      9  C   UNL A   1      41.920  21.898  25.626  1.00  0.00     0.014 A 
ATOM     10  C   UNL A   1      42.093  22.304  28.375  1.00  0.00     0.010 A 
ATOM     11  C   UNL A   1      42.423  23.099  26.118  1.00  0.00     0.010 A 
ATOM     12  C   UNL A   1      42.463  23.335  27.497  1.00  0.00    -0.014 A 
BRANCH  12  13
ATOM     13  C   UNL A   1      42.771  24.699  28.000  1.00  0.00     0.031 A 
ATOM     14  C   UNL A   1      44.209  25.118  28.184  1.00  0.00     0.074 A 
ATOM     15  C   UNL A   1      41.776  25.557  28.298  1.00  0.00     0.049 A 
ATOM     16  N   UNL A   1      44.695  26.245  28.640  1.00  0.00    -0.248 NA
ATOM     17  C   UNL A   1      45.238  24.122  27.839  1.00  0.00     0.031 C 
ATOM     18  C   UNL A   1      40.346  25.265  28.207  1.00  0.00     0.029 A 
ATOM     19  N   UNL A   1      41.825  26.856  28.737  1.00  0.00    -0.354 N 
ATOM     20  C   UNL A   1      46.076  26.085  28.646  1.00  0.00     0.074 A 
ATOM     21  C   UNL A   1      46.347  24.728  28.230  1.00  0.00     0.031 C 
ATOM     22  C   UNL A   1      39.652  26.364  28.547  1.00  0.00     0.029 A 
ATOM     23  C   UNL A   1      40.587  27.426  28.905  1.00  0.00     0.049 A 
ATOM     24  H   UNL A   1      42.667  27.334  28.915  1.00  0.00     0.167 HD
ATOM     25  C   UNL A   1      47.040  26.994  28.924  1.00  0.00     0.037 A 
ATOM     26  C   UNL A   1      40.251  28.669  29.298  1.00  0.00     0.037 A 
ATOM     27  C   UNL A   1      46.778  28.354  29.312  1.00  0.00     0.049 A 
ATOM     28  C   UNL A   1      41.338  29.663  29.600  1.00  0.00     0.074 A 
ATOM     29  C   UNL A   1      47.680  29.362  29.605  1.00  0.00     0.029 A 
ATOM     30  N   UNL A   1      45.511  28.899  29.448  1.00  0.00    -0.354 N 
ATOM     31  N   UNL A   1      42.640  29.508  29.563  1.00  0.00    -0.248 NA
ATOM     32  C   UNL A   1      40.905  31.013  29.986  1.00  0.00     0.031 C 
ATOM     33  C   UNL A   1      46.955  30.512  29.941  1.00  0.00     0.029 A 
ATOM     34  C   UNL A   1      45.605  30.230  29.819  1.00  0.00     0.049 A 
ATOM     35  H   UNL A   1      44.667  28.412  29.302  1.00  0.00     0.167 HD
ATOM     36  C   UNL A   1      43.180  30.745  29.893  1.00  0.00     0.074 A 
ATOM     37  C   UNL A   1      42.064  31.644  30.102  1.00  0.00     0.031 C 
ATOM     38  C   UNL A   1      44.480  31.107  30.018  1.00  0.00     0.037 A 
BRANCH  25  39
ATOM     39  C   UNL A   1      48.464  26.536  28.794  1.00  0.00     0.057 A 
ATOM     40  C   UNL A   1      49.139  25.955  29.874  1.00  0.00     0.134 A 
ATOM     41  C   UNL A   1      49.165  26.658  27.585  1.00  0.00     0.134 A 
ATOM     42  F   UNL A   1      48.531  25.811  31.060  1.00  0.00    -0.206 F 
ATOM     43  C   UNL A   1      50.455  25.503  29.753  1.00  0.00     0.040 A 
ATOM     44  C   UNL A   1      50.471  26.182  27.445  1.00  0.00     0.040 A 
ATOM     45  F   UNL A   1      48.571  27.188  26.505  1.00  0.00    -0.206 F 
ATOM     46  C   UNL A   1      51.120  25.606  28.533  1.00  0.00     0.006 A 
ENDBRANCH  25  39
BRANCH  26  47
ATOM     47  C   UNL A   1      38.823  29.063  29.400  1.00  0.00     0.057 A 
ATOM     48  C   UNL A   1      38.118  28.950  30.604  1.00  0.00     0.134 A 
ATOM     49  C   UNL A   1      38.142  29.604  28.302  1.00  0.00     0.134 A 
ATOM     50  F   UNL A   1      38.711  28.432  31.690  1.00  0.00    -0.206 F 
ATOM     51  C   UNL A   1      36.791  29.368  30.714  1.00  0.00     0.040 A 
ATOM     52  C   UNL A   1      36.823  30.049  28.406  1.00  0.00     0.040 A 
ATOM     53  F   UNL A   1      38.770  29.755  27.127  1.00  0.00    -0.206 F 
ATOM     54  C   UNL A   1      36.143  29.931  29.616  1.00  0.00     0.006 A 
ENDBRANCH  26  47
BRANCH  38  55
ATOM     55  C   UNL A   1      44.752  32.543  30.361  1.00  0.00     0.057 A 
ATOM     56  C   UNL A   1      44.881  33.504  29.351  1.00  0.00     0.134 A 
ATOM     57  C   UNL A   1      44.878  32.975  31.688  1.00  0.00     0.134 A 
ATOM     58  F   UNL A   1      44.781  33.154  28.060  1.00  0.00    -0.206 F 
ATOM     59  C   UNL A   1      45.113  34.846  29.649  1.00  0.00     0.040 A 
ATOM     60  C   UNL A   1      45.081  34.321  31.998  1.00  0.00     0.040 A 
ATOM     61  F   UNL A   1      44.751  32.105  32.701  1.00  0.00    -0.206 F 
ATOM     62  C   UNL A   1      45.202  35.260  30.976  1.00  0.00     0.006 A 
ENDBRANCH  38  55
ENDBRANCH  12  13
ENDBRANCH   5   7
ENDBRANCH   2   3
ENDBRANCH   1   2
BRANCH   1  63
ATOM     63  C   UNL A   1      37.250  21.470  24.269  1.00  0.00     0.118 C 
BRANCH  63  64
ATOM     64  N   UNL A   1      37.795  22.552  25.071  1.00  0.00    -0.352 N 
ATOM     65  C   UNL A   1      37.137  23.535  25.766  1.00  0.00     0.255 C 
ATOM     66  H   UNL A   1      38.777  22.585  25.123  1.00  0.00     0.163 HD
ATOM     67  O   UNL A   1      37.780  24.437  26.302  1.00  0.00    -0.269 OA
BRANCH  65  68
ATOM     68  C   UNL A   1      35.661  23.568  25.815  1.00  0.00     0.082 A 
ATOM     69  C   UNL A   1      35.027  24.686  25.254  1.00  0.00     0.026 A 
ATOM     70  C   UNL A   1      34.899  22.567  26.429  1.00  0.00     0.128 A 
ATOM     71  C   UNL A   1      33.632  24.774  25.254  1.00  0.00    -0.017 A 
ATOM     72  C   UNL A   1      33.509  22.631  26.401  1.00  0.00     0.047 A 
ATOM     73  C   UNL A   1      32.880  23.727  25.808  1.00  0.00     0.012 A 
BRANCH  70  74
ATOM     74  O   UNL A   1      35.507  21.520  27.065  1.00  0.00    -0.507 OA
ATOM     75  H   UNL A   1      36.420  21.562  27.270  1.00  0.00     0.293 HD
ENDBRANCH  70  74
BRANCH  71  76
ATOM     76  C   UNL A   1      32.929  25.958  24.727  1.00  0.00    -0.011 A 
ATOM     77  C   UNL A   1      31.572  26.280  25.126  1.00  0.00     0.027 A 
ATOM     78  C   UNL A   1      33.543  26.736  23.819  1.00  0.00     0.080 A 
ATOM     79  C   UNL A   1      30.918  27.301  24.564  1.00  0.00     0.095 A 
ATOM     80  C   UNL A   1      32.831  27.887  23.194  1.00  0.00     0.255 A 
ATOM     81  N   UNL A   1      31.523  28.088  23.604  1.00  0.00    -0.258 N 
ATOM     82  O   UNL A   1      33.429  28.560  22.356  1.00  0.00    -0.269 OA
BRANCH  81  83
ATOM     83  C   UNL A   1      30.791  29.153  22.968  1.00  0.00     0.451 C 
ATOM     84  F   UNL A   1      29.937  28.676  22.032  1.00  0.00    -0.185 F 
ATOM     85  F   UNL A   1      30.071  29.854  23.879  1.00  0.00    -0.185 F 
ENDBRANCH  81  83
ENDBRANCH  71  76
ENDBRANCH  65  68
ENDBRANCH  63  64
ENDBRANCH   1  63
TORSDOF 13
ENDMDL
MODEL 3
REMARK VINA RESULT:     -11.6      4.319      7.707
REMARK SMILES O=C(NCCCNC(=O)c1cc(-c2ccn(C(F)F)c(=O)c2)ccc1O)c1ccc(-c2c3nc(c(-c4c(F)cccc4F)c4ccc([nH]4)c(-c4c(F)cccc4F)c4nc(c(-c5c(F)cccc5F)c5ccc2[nH]5)C=C4)C=C3)cc1
REMARK SMILES IDX 5 1 4 2 3 3 1 4 2 5 27 7 28 8 80 9 29 10 79 11 30 12 31 13
REMARK SMILES IDX 32 14 73 15 33 16 78 17 72 18 74 19 34 20 77 21 71 22 70 23
REMARK SMILES IDX 35 25 61 26 44 27 60 28 45 29 48 30 59 31 75 32 46 33 47 34
REMARK SMILES IDX 58 36 76 37 49 38 36 39 37 40 42 41 38 42 39 43 41 44 43 45
REMARK SMILES IDX 40 46 62 47 63 48 68 49 64 50 65 51 67 52 69 53 66 54 50 55
REMARK SMILES IDX 51 56 56 57 52 58 53 59 55 60 57 61 54 62 6 63 7 64 8 65
REMARK SMILES IDX 9 67 10 68 11 69 25 70 12 71 24 72 23 73 26 74 13 76 14 77
REMARK SMILES IDX 22 78 15 79 20 80 16 81 21 82 17 83 18 84 19 85
REMARK H PARENT 3 6 74 24 48 35 7 66 26 75
REMARK Flexibility Score: inf
ROOT
ATOM      1  C   UNL A   1      31.893  28.372  26.293  1.00  0.00     0.042 C 
ENDROOT
BRANCH   1   2
ATOM      2  C   UNL A   1      33.002  29.326  25.879  1.00  0.00     0.118 C 
BRANCH   2   3
ATOM      3  N   UNL A   1      32.770  30.691  26.326  1.00  0.00    -0.352 N 
ATOM      4  O   UNL A   1      32.923  32.537  27.590  1.00  0.00    -0.269 OA
ATOM      5  C   UNL A   1      33.427  31.466  27.248  1.00  0.00     0.251 C 
ATOM      6  H   UNL A   1      32.008  31.137  25.890  1.00  0.00     0.163 HD
BRANCH   5   7
ATOM      7  C   UNL A   1      34.715  31.045  27.845  1.00  0.00     0.039 A 
ATOM      8  C   UNL A   1      34.832  29.739  28.330  1.00  0.00     0.014 A 
ATOM      9  C   UNL A   1      35.778  31.935  28.013  1.00  0.00     0.014 A 
ATOM     10  C   UNL A   1      36.010  29.327  28.960  1.00  0.00     0.010 A 
ATOM     11  C   UNL A   1      36.992  31.491  28.529  1.00  0.00     0.010 A 
ATOM     12  C   UNL A   1      37.104  30.199  29.057  1.00  0.00    -0.014 A 
BRANCH  12  13
ATOM     13  C   UNL A   1      38.323  29.821  29.819  1.00  0.00     0.031 A 
ATOM     14  C   UNL A   1      38.531  30.365  31.210  1.00  0.00     0.074 A 
ATOM     15  C   UNL A   1      39.244  29.004  29.271  1.00  0.00     0.049 A 
ATOM     16  N   UNL A   1      39.536  30.188  32.031  1.00  0.00    -0.248 NA
ATOM     17  C   UNL A   1      37.481  31.253  31.738  1.00  0.00     0.031 C 
ATOM     18  C   UNL A   1      39.188  28.444  27.920  1.00  0.00     0.029 A 
ATOM     19  N   UNL A   1      40.410  28.503  29.792  1.00  0.00    -0.354 N 
ATOM     20  C   UNL A   1      39.241  30.949  33.156  1.00  0.00     0.074 A 
ATOM     21  C   UNL A   1      38.010  31.655  32.882  1.00  0.00     0.031 C 
ATOM     22  C   UNL A   1      40.254  27.649  27.731  1.00  0.00     0.029 A 
ATOM     23  C   UNL A   1      41.081  27.666  28.934  1.00  0.00     0.049 A 
ATOM     24  H   UNL A   1      40.735  28.722  30.694  1.00  0.00     0.167 HD
ATOM     25  C   UNL A   1      39.905  31.024  34.335  1.00  0.00     0.037 A 
ATOM     26  C   UNL A   1      42.229  26.987  29.107  1.00  0.00     0.037 A 
ATOM     27  C   UNL A   1      41.116  30.305  34.625  1.00  0.00     0.049 A 
ATOM     28  C   UNL A   1      42.948  27.083  30.424  1.00  0.00     0.074 A 
ATOM     29  C   UNL A   1      41.863  30.298  35.790  1.00  0.00     0.029 A 
ATOM     30  N   UNL A   1      41.750  29.449  33.738  1.00  0.00    -0.354 N 
ATOM     31  N   UNL A   1      42.636  27.776  31.493  1.00  0.00    -0.248 NA
ATOM     32  C   UNL A   1      44.176  26.287  30.562  1.00  0.00     0.031 C 
ATOM     33  C   UNL A   1      42.964  29.455  35.598  1.00  0.00     0.029 A 
ATOM     34  C   UNL A   1      42.879  28.908  34.328  1.00  0.00     0.049 A 
ATOM     35  H   UNL A   1      41.443  29.256  32.822  1.00  0.00     0.167 HD
ATOM     36  C   UNL A   1      43.611  27.480  32.437  1.00  0.00     0.074 A 
ATOM     37  C   UNL A   1      44.509  26.524  31.822  1.00  0.00     0.031 C 
ATOM     38  C   UNL A   1      43.757  27.955  33.698  1.00  0.00     0.037 A 
BRANCH  25  39
ATOM     39  C   UNL A   1      39.309  31.904  35.395  1.00  0.00     0.057 A 
ATOM     40  C   UNL A   1      39.644  33.261  35.482  1.00  0.00     0.134 A 
ATOM     41  C   UNL A   1      38.386  31.407  36.327  1.00  0.00     0.134 A 
ATOM     42  F   UNL A   1      40.523  33.803  34.626  1.00  0.00    -0.206 F 
ATOM     43  C   UNL A   1      39.074  34.092  36.449  1.00  0.00     0.040 A 
ATOM     44  C   UNL A   1      37.788  32.235  37.279  1.00  0.00     0.040 A 
ATOM     45  F   UNL A   1      38.007  30.120  36.288  1.00  0.00    -0.206 F 
ATOM     46  C   UNL A   1      38.135  33.581  37.344  1.00  0.00     0.006 A 
ENDBRANCH  25  39
BRANCH  26  47
ATOM     47  C   UNL A   1      42.763  26.126  28.020  1.00  0.00     0.057 A 
ATOM     48  C   UNL A   1      42.347  24.799  27.868  1.00  0.00     0.134 A 
ATOM     49  C   UNL A   1      43.670  26.630  27.080  1.00  0.00     0.134 A 
ATOM     50  F   UNL A   1      41.486  24.255  28.741  1.00  0.00    -0.206 F 
ATOM     51  C   UNL A   1      42.809  24.005  26.818  1.00  0.00     0.040 A 
ATOM     52  C   UNL A   1      44.120  25.855  26.009  1.00  0.00     0.040 A 
ATOM     53  F   UNL A   1      44.090  27.901  27.162  1.00  0.00    -0.206 F 
ATOM     54  C   UNL A   1      43.689  24.537  25.877  1.00  0.00     0.006 A 
ENDBRANCH  26  47
BRANCH  38  55
ATOM     55  C   UNL A   1      44.908  27.416  34.495  1.00  0.00     0.057 A 
ATOM     56  C   UNL A   1      44.753  26.271  35.286  1.00  0.00     0.134 A 
ATOM     57  C   UNL A   1      46.171  28.023  34.475  1.00  0.00     0.134 A 
ATOM     58  F   UNL A   1      43.567  25.647  35.356  1.00  0.00    -0.206 F 
ATOM     59  C   UNL A   1      45.815  25.741  36.017  1.00  0.00     0.040 A 
ATOM     60  C   UNL A   1      47.249  27.486  35.180  1.00  0.00     0.040 A 
ATOM     61  F   UNL A   1      46.388  29.115  33.727  1.00  0.00    -0.206 F 
ATOM     62  C   UNL A   1      47.071  26.342  35.957  1.00  0.00     0.006 A 
ENDBRANCH  38  55
ENDBRANCH  12  13
ENDBRANCH   5   7
ENDBRANCH   2   3
ENDBRANCH   1   2
BRANCH   1  63
ATOM     63  C   UNL A   1      32.025  26.974  25.713  1.00  0.00     0.118 C 
BRANCH  63  64
ATOM     64  N   UNL A   1      31.439  25.958  26.570  1.00  0.00    -0.352 N 
ATOM     65  C   UNL A   1      31.533  24.592  26.489  1.00  0.00     0.255 C 
ATOM     66  H   UNL A   1      30.897  26.298  27.317  1.00  0.00     0.163 HD
ATOM     67  O   UNL A   1      30.870  23.888  27.251  1.00  0.00    -0.269 OA
BRANCH  65  68
ATOM     68  C   UNL A   1      32.362  23.952  25.447  1.00  0.00     0.082 A 
ATOM     69  C   UNL A   1      33.689  23.649  25.781  1.00  0.00     0.026 A 
ATOM     70  C   UNL A   1      31.888  23.688  24.156  1.00  0.00     0.128 A 
ATOM     71  C   UNL A   1      34.524  23.029  24.846  1.00  0.00    -0.017 A 
ATOM     72  C   UNL A   1      32.702  23.039  23.232  1.00  0.00     0.047 A 
ATOM     73  C   UNL A   1      34.012  22.705  23.581  1.00  0.00     0.012 A 
BRANCH  70  74
ATOM     74  O   UNL A   1      30.627  24.065  23.785  1.00  0.00    -0.507 OA
ATOM     75  H   UNL A   1      30.348  24.952  23.907  1.00  0.00     0.293 HD
ENDBRANCH  70  74
BRANCH  71  76
ATOM     76  C   UNL A   1      35.941  22.746  25.138  1.00  0.00    -0.011 A 
ATOM     77  C   UNL A   1      36.529  21.446  24.878  1.00  0.00     0.027 A 
ATOM     78  C   UNL A   1      36.699  23.703  25.701  1.00  0.00     0.080 A 
ATOM     79  C   UNL A   1      37.788  21.180  25.239  1.00  0.00     0.095 A 
ATOM     80  C   UNL A   1      38.109  23.426  26.096  1.00  0.00     0.255 A 
ATOM     81  N   UNL A   1      38.569  22.142  25.851  1.00  0.00    -0.258 N 
ATOM     82  O   UNL A   1      38.758  24.328  26.622  1.00  0.00    -0.269 OA
BRANCH  81  83
ATOM     83  C   UNL A   1      39.906  21.828  26.282  1.00  0.00     0.451 C 
ATOM     84  F   UNL A   1      40.026  21.920  27.627  1.00  0.00    -0.185 F 
ATOM     85  F   UNL A   1      40.249  20.569  25.912  1.00  0.00    -0.185 F 
ENDBRANCH  81  83
ENDBRANCH  71  76
ENDBRANCH  65  68
ENDBRANCH  63  64
ENDBRANCH   1  63
TORSDOF 13
ENDMDL
