MODEL 1
REMARK VINA RESULT:      -9.1      0.000      0.000
REMARK SMILES C[C@@H](C(=O)NCCCNC(=O)c1ccc(-c2c3nc(c(-c4c(F)cccc4F)c4ccc([nH]4)c(-c4c(F)cccc4F)c4nc(c(-c5c(F)cccc5F)c5ccc2[nH]5)C=C4)C=C3)cc1)c1ccc(NC2CCCC2)cc1F
REMARK SMILES IDX 6 1 5 2 3 3 4 4 2 6 1 7 66 8 67 9 77 10 68 11 76 12 78 13
REMARK SMILES IDX 69 14 70 15 71 17 72 18 75 19 73 20 74 21 7 22 8 23 9 24
REMARK SMILES IDX 10 25 11 27 12 28 13 29 65 30 14 31 64 32 15 33 16 34 17 35
REMARK SMILES IDX 58 36 18 37 63 38 57 39 59 40 19 41 62 42 56 43 55 44 20 46
REMARK SMILES IDX 46 47 29 48 45 49 30 50 33 51 44 52 60 53 31 54 32 55 43 57
REMARK SMILES IDX 61 58 34 59 21 60 22 61 27 62 23 63 24 64 26 65 28 66 25 67
REMARK SMILES IDX 47 68 48 69 53 70 49 71 50 72 52 73 54 74 51 75 35 76 36 77
REMARK SMILES IDX 41 78 37 79 38 80 40 81 42 82 39 83
REMARK H PARENT 5 5 70 16 9 26 59 45 33 56
REMARK Flexibility Score: inf
ROOT
ATOM      1  C   UNL A   1      34.155  34.186  33.118  1.00  0.00     0.117 C 
ENDROOT
BRANCH   1   2
ATOM      2  N   UNL A   1      35.498  34.724  33.023  1.00  0.00    -0.356 N 
ATOM      3  C   UNL A   1      36.627  34.398  33.718  1.00  0.00     0.227 C 
ATOM      4  O   UNL A   1      37.578  35.177  33.626  1.00  0.00    -0.274 OA
ATOM      5  H   UNL A   1      35.614  35.435  32.351  1.00  0.00     0.163 HD
BRANCH   3   6
ATOM      6  C   UNL A   1      36.670  33.109  34.560  1.00  0.00     0.108 C 
ATOM      7  C   UNL A   1      36.700  33.460  36.054  1.00  0.00     0.023 C 
BRANCH   6   8
ATOM      8  C   UNL A   1      37.817  32.198  34.137  1.00  0.00     0.000 A 
ATOM      9  C   UNL A   1      39.144  32.413  34.517  1.00  0.00     0.009 A 
ATOM     10  C   UNL A   1      37.563  31.081  33.336  1.00  0.00     0.129 A 
ATOM     11  C   UNL A   1      40.163  31.550  34.101  1.00  0.00     0.026 A 
ATOM     12  C   UNL A   1      38.588  30.242  32.890  1.00  0.00     0.065 A 
ATOM     13  F   UNL A   1      36.300  30.790  32.984  1.00  0.00    -0.207 F 
ATOM     14  C   UNL A   1      39.921  30.470  33.253  1.00  0.00     0.037 A 
BRANCH  14  15
ATOM     15  N   UNL A   1      40.901  29.614  32.797  1.00  0.00    -0.382 N 
ATOM     16  H   UNL A   1      40.907  29.455  31.826  1.00  0.00     0.160 HD
BRANCH  15  17
ATOM     17  C   UNL A   1      41.929  28.914  33.554  1.00  0.00     0.079 C 
ATOM     18  C   UNL A   1      42.735  29.797  34.505  1.00  0.00     0.025 C 
ATOM     19  C   UNL A   1      41.397  27.735  34.375  1.00  0.00     0.025 C 
ATOM     20  C   UNL A   1      43.208  28.830  35.581  1.00  0.00     0.002 C 
ATOM     21  C   UNL A   1      42.066  27.837  35.744  1.00  0.00     0.002 C 
ENDBRANCH  15  17
ENDBRANCH  14  15
ENDBRANCH   6   8
ENDBRANCH   3   6
ENDBRANCH   1   2
BRANCH   1  22
ATOM     22  C   UNL A   1      33.121  35.189  32.603  1.00  0.00     0.042 C 
BRANCH  22  23
ATOM     23  C   UNL A   1      33.506  35.867  31.292  1.00  0.00     0.118 C 
BRANCH  23  24
ATOM     24  N   UNL A   1      32.794  35.313  30.156  1.00  0.00    -0.352 N 
ATOM     25  C   UNL A   1      33.241  34.482  29.162  1.00  0.00     0.251 C 
ATOM     26  H   UNL A   1      31.847  35.574  30.088  1.00  0.00     0.163 HD
ATOM     27  O   UNL A   1      32.522  34.278  28.183  1.00  0.00    -0.269 OA
BRANCH  25  28
ATOM     28  C   UNL A   1      34.570  33.835  29.238  1.00  0.00     0.039 A 
ATOM     29  C   UNL A   1      34.719  32.723  30.073  1.00  0.00     0.014 A 
ATOM     30  C   UNL A   1      35.684  34.350  28.566  1.00  0.00     0.014 A 
ATOM     31  C   UNL A   1      35.970  32.123  30.225  1.00  0.00     0.010 A 
ATOM     32  C   UNL A   1      36.919  33.708  28.662  1.00  0.00     0.010 A 
ATOM     33  C   UNL A   1      37.080  32.608  29.517  1.00  0.00    -0.014 A 
BRANCH  33  34
ATOM     34  C   UNL A   1      38.426  32.016  29.720  1.00  0.00     0.031 A 
ATOM     35  C   UNL A   1      39.487  32.794  30.450  1.00  0.00     0.074 A 
ATOM     36  C   UNL A   1      38.704  30.792  29.232  1.00  0.00     0.049 A 
ATOM     37  N   UNL A   1      40.725  32.461  30.714  1.00  0.00    -0.248 NA
ATOM     38  C   UNL A   1      39.113  34.136  30.926  1.00  0.00     0.031 C 
ATOM     39  C   UNL A   1      37.781  29.957  28.465  1.00  0.00     0.029 A 
ATOM     40  N   UNL A   1      39.851  30.042  29.308  1.00  0.00    -0.354 N 
ATOM     41  C   UNL A   1      41.279  33.555  31.367  1.00  0.00     0.074 A 
ATOM     42  C   UNL A   1      40.260  34.580  31.415  1.00  0.00     0.031 C 
ATOM     43  C   UNL A   1      38.390  28.800  28.158  1.00  0.00     0.029 A 
ATOM     44  C   UNL A   1      39.750  28.821  28.689  1.00  0.00     0.049 A 
ATOM     45  H   UNL A   1      40.667  30.350  29.763  1.00  0.00     0.167 HD
ATOM     46  C   UNL A   1      42.516  33.687  31.904  1.00  0.00     0.037 A 
ATOM     47  C   UNL A   1      40.651  27.829  28.571  1.00  0.00     0.037 A 
ATOM     48  C   UNL A   1      43.522  32.657  31.884  1.00  0.00     0.049 A 
ATOM     49  C   UNL A   1      42.001  27.977  29.214  1.00  0.00     0.074 A 
ATOM     50  C   UNL A   1      44.794  32.680  32.429  1.00  0.00     0.029 A 
ATOM     51  N   UNL A   1      43.361  31.413  31.294  1.00  0.00    -0.354 N 
ATOM     52  N   UNL A   1      42.494  28.997  29.873  1.00  0.00    -0.248 NA
ATOM     53  C   UNL A   1      42.912  26.828  29.114  1.00  0.00     0.031 C 
ATOM     54  C   UNL A   1      45.410  31.454  32.150  1.00  0.00     0.029 A 
ATOM     55  C   UNL A   1      44.509  30.659  31.461  1.00  0.00     0.049 A 
ATOM     56  H   UNL A   1      42.549  31.111  30.825  1.00  0.00     0.167 HD
ATOM     57  C   UNL A   1      43.759  28.606  30.289  1.00  0.00     0.074 A 
ATOM     58  C   UNL A   1      43.954  27.249  29.818  1.00  0.00     0.031 C 
ATOM     59  C   UNL A   1      44.679  29.306  30.997  1.00  0.00     0.037 A 
BRANCH  46  60
ATOM     60  C   UNL A   1      42.839  34.994  32.565  1.00  0.00     0.057 A 
ATOM     61  C   UNL A   1      42.548  35.227  33.916  1.00  0.00     0.134 A 
ATOM     62  C   UNL A   1      43.451  36.030  31.848  1.00  0.00     0.134 A 
ATOM     63  F   UNL A   1      41.946  34.281  34.654  1.00  0.00    -0.206 F 
ATOM     64  C   UNL A   1      42.823  36.454  34.522  1.00  0.00     0.040 A 
ATOM     65  C   UNL A   1      43.756  37.252  32.450  1.00  0.00     0.040 A 
ATOM     66  F   UNL A   1      43.762  35.872  30.552  1.00  0.00    -0.206 F 
ATOM     67  C   UNL A   1      43.434  37.470  33.789  1.00  0.00     0.006 A 
ENDBRANCH  46  60
BRANCH  47  68
ATOM     68  C   UNL A   1      40.285  26.586  27.850  1.00  0.00     0.057 A 
ATOM     69  C   UNL A   1      39.460  25.624  28.443  1.00  0.00     0.134 A 
ATOM     70  C   UNL A   1      40.742  26.334  26.551  1.00  0.00     0.134 A 
ATOM     71  F   UNL A   1      39.005  25.803  29.691  1.00  0.00    -0.206 F 
ATOM     72  C   UNL A   1      39.113  24.448  27.776  1.00  0.00     0.040 A 
ATOM     73  C   UNL A   1      40.387  25.173  25.865  1.00  0.00     0.040 A 
ATOM     74  F   UNL A   1      41.529  27.223  25.927  1.00  0.00    -0.206 F 
ATOM     75  C   UNL A   1      39.575  24.222  26.480  1.00  0.00     0.006 A 
ENDBRANCH  47  68
BRANCH  59  76
ATOM     76  C   UNL A   1      45.959  28.604  31.336  1.00  0.00     0.057 A 
ATOM     77  C   UNL A   1      46.071  27.771  32.455  1.00  0.00     0.134 A 
ATOM     78  C   UNL A   1      47.084  28.741  30.513  1.00  0.00     0.134 A 
ATOM     79  F   UNL A   1      45.032  27.609  33.288  1.00  0.00    -0.206 F 
ATOM     80  C   UNL A   1      47.265  27.116  32.759  1.00  0.00     0.040 A 
ATOM     81  C   UNL A   1      48.277  28.074  30.794  1.00  0.00     0.040 A 
ATOM     82  F   UNL A   1      47.039  29.519  29.422  1.00  0.00    -0.206 F 
ATOM     83  C   UNL A   1      48.371  27.263  31.923  1.00  0.00     0.006 A 
ENDBRANCH  59  76
ENDBRANCH  33  34
ENDBRANCH  25  28
ENDBRANCH  23  24
ENDBRANCH  22  23
ENDBRANCH   1  22
TORSDOF 13
ENDMDL
MODEL 2
REMARK VINA RESULT:      -8.9      3.918      6.686
REMARK SMILES C[C@@H](C(=O)NCCCNC(=O)c1ccc(-c2c3nc(c(-c4c(F)cccc4F)c4ccc([nH]4)c(-c4c(F)cccc4F)c4nc(c(-c5c(F)cccc5F)c5ccc2[nH]5)C=C4)C=C3)cc1)c1ccc(NC2CCCC2)cc1F
REMARK SMILES IDX 6 1 5 2 3 3 4 4 2 6 1 7 66 8 67 9 77 10 68 11 76 12 78 13
REMARK SMILES IDX 69 14 70 15 71 17 72 18 75 19 73 20 74 21 7 22 8 23 9 24
REMARK SMILES IDX 10 25 11 27 12 28 13 29 65 30 14 31 64 32 15 33 16 34 17 35
REMARK SMILES IDX 58 36 18 37 63 38 57 39 59 40 19 41 62 42 56 43 55 44 20 46
REMARK SMILES IDX 46 47 29 48 45 49 30 50 33 51 44 52 60 53 31 54 32 55 43 57
REMARK SMILES IDX 61 58 34 59 21 60 22 61 27 62 23 63 24 64 26 65 28 66 25 67
REMARK SMILES IDX 47 68 48 69 53 70 49 71 50 72 52 73 54 74 51 75 35 76 36 77
REMARK SMILES IDX 41 78 37 79 38 80 40 81 42 82 39 83
REMARK H PARENT 5 5 70 16 9 26 59 45 33 56
REMARK Flexibility Score: inf
ROOT
ATOM      1  C   UNL A   1      31.288  30.906  26.531  1.00  0.00     0.117 C 
ENDROOT
BRANCH   1   2
ATOM      2  N   UNL A   1      31.857  30.338  25.325  1.00  0.00    -0.356 N 
ATOM      3  C   UNL A   1      32.837  29.400  25.173  1.00  0.00     0.227 C 
ATOM      4  O   UNL A   1      33.315  29.276  24.043  1.00  0.00    -0.274 OA
ATOM      5  H   UNL A   1      31.479  30.684  24.484  1.00  0.00     0.163 HD
BRANCH   3   6
ATOM      6  C   UNL A   1      33.290  28.554  26.378  1.00  0.00     0.108 C 
ATOM      7  C   UNL A   1      34.761  28.847  26.700  1.00  0.00     0.023 C 
BRANCH   6   8
ATOM      8  C   UNL A   1      33.009  27.071  26.162  1.00  0.00     0.000 A 
ATOM      9  C   UNL A   1      33.983  26.162  25.739  1.00  0.00     0.009 A 
ATOM     10  C   UNL A   1      31.729  26.561  26.397  1.00  0.00     0.129 A 
ATOM     11  C   UNL A   1      33.677  24.811  25.552  1.00  0.00     0.026 A 
ATOM     12  C   UNL A   1      31.417  25.217  26.173  1.00  0.00     0.065 A 
ATOM     13  F   UNL A   1      30.765  27.373  26.858  1.00  0.00    -0.207 F 
ATOM     14  C   UNL A   1      32.387  24.311  25.728  1.00  0.00     0.037 A 
BRANCH  14  15
ATOM     15  N   UNL A   1      32.038  22.993  25.526  1.00  0.00    -0.382 N 
ATOM     16  H   UNL A   1      31.238  22.686  26.012  1.00  0.00     0.160 HD
BRANCH  15  17
ATOM     17  C   UNL A   1      32.689  21.991  24.694  1.00  0.00     0.079 C 
ATOM     18  C   UNL A   1      32.297  20.548  25.008  1.00  0.00     0.025 C 
ATOM     19  C   UNL A   1      32.473  22.199  23.192  1.00  0.00     0.025 C 
ATOM     20  C   UNL A   1      32.530  19.817  23.693  1.00  0.00     0.002 C 
ATOM     21  C   UNL A   1      32.153  20.823  22.615  1.00  0.00     0.002 C 
ENDBRANCH  15  17
ENDBRANCH  14  15
ENDBRANCH   6   8
ENDBRANCH   3   6
ENDBRANCH   1   2
BRANCH   1  22
ATOM     22  C   UNL A   1      31.419  32.430  26.539  1.00  0.00     0.042 C 
BRANCH  22  23
ATOM     23  C   UNL A   1      32.701  32.944  27.185  1.00  0.00     0.118 C 
BRANCH  23  24
ATOM     24  N   UNL A   1      32.520  34.236  27.818  1.00  0.00    -0.352 N 
ATOM     25  C   UNL A   1      33.196  34.800  28.869  1.00  0.00     0.251 C 
ATOM     26  H   UNL A   1      31.803  34.793  27.436  1.00  0.00     0.163 HD
ATOM     27  O   UNL A   1      32.761  35.835  29.374  1.00  0.00    -0.269 OA
BRANCH  25  28
ATOM     28  C   UNL A   1      34.430  34.186  29.410  1.00  0.00     0.039 A 
ATOM     29  C   UNL A   1      35.641  34.453  28.763  1.00  0.00     0.014 A 
ATOM     30  C   UNL A   1      34.403  33.295  30.488  1.00  0.00     0.014 A 
ATOM     31  C   UNL A   1      36.818  33.841  29.200  1.00  0.00     0.010 A 
ATOM     32  C   UNL A   1      35.588  32.740  30.969  1.00  0.00     0.010 A 
ATOM     33  C   UNL A   1      36.802  32.983  30.310  1.00  0.00    -0.014 A 
BRANCH  33  34
ATOM     34  C   UNL A   1      38.036  32.282  30.743  1.00  0.00     0.031 A 
ATOM     35  C   UNL A   1      38.852  32.830  31.883  1.00  0.00     0.074 A 
ATOM     36  C   UNL A   1      38.438  31.168  30.103  1.00  0.00     0.049 A 
ATOM     37  N   UNL A   1      39.966  32.376  32.397  1.00  0.00    -0.248 NA
ATOM     38  C   UNL A   1      38.362  34.068  32.510  1.00  0.00     0.031 C 
ATOM     39  C   UNL A   1      37.763  30.562  28.955  1.00  0.00     0.029 A 
ATOM     40  N   UNL A   1      39.515  30.349  30.329  1.00  0.00    -0.354 N 
ATOM     41  C   UNL A   1      40.318  33.280  33.393  1.00  0.00     0.074 A 
ATOM     42  C   UNL A   1      39.328  34.334  33.376  1.00  0.00     0.031 C 
ATOM     43  C   UNL A   1      38.432  29.456  28.589  1.00  0.00     0.029 A 
ATOM     44  C   UNL A   1      39.589  29.287  29.463  1.00  0.00     0.049 A 
ATOM     45  H   UNL A   1      40.173  30.509  31.044  1.00  0.00     0.167 HD
ATOM     46  C   UNL A   1      41.356  33.225  34.262  1.00  0.00     0.037 A 
ATOM     47  C   UNL A   1      40.486  28.286  29.388  1.00  0.00     0.037 A 
ATOM     48  C   UNL A   1      42.325  32.162  34.300  1.00  0.00     0.049 A 
ATOM     49  C   UNL A   1      41.602  28.219  30.392  1.00  0.00     0.074 A 
ATOM     50  C   UNL A   1      43.394  31.996  35.164  1.00  0.00     0.029 A 
ATOM     51  N   UNL A   1      42.333  31.075  33.440  1.00  0.00    -0.354 N 
ATOM     52  N   UNL A   1      41.894  29.053  31.360  1.00  0.00    -0.248 NA
ATOM     53  C   UNL A   1      42.503  27.061  30.304  1.00  0.00     0.031 C 
ATOM     54  C   UNL A   1      44.061  30.817  34.811  1.00  0.00     0.029 A 
ATOM     55  C   UNL A   1      43.387  30.234  33.751  1.00  0.00     0.049 A 
ATOM     56  H   UNL A   1      41.684  30.924  32.714  1.00  0.00     0.167 HD
ATOM     57  C   UNL A   1      42.991  28.510  32.013  1.00  0.00     0.074 A 
ATOM     58  C   UNL A   1      43.307  27.267  31.338  1.00  0.00     0.031 C 
ATOM     59  C   UNL A   1      43.677  28.995  33.076  1.00  0.00     0.037 A 
BRANCH  46  60
ATOM     60  C   UNL A   1      41.484  34.350  35.246  1.00  0.00     0.057 A 
ATOM     61  C   UNL A   1      42.218  35.507  34.950  1.00  0.00     0.134 A 
ATOM     62  C   UNL A   1      40.864  34.282  36.500  1.00  0.00     0.134 A 
ATOM     63  F   UNL A   1      42.849  35.627  33.771  1.00  0.00    -0.206 F 
ATOM     64  C   UNL A   1      42.359  36.540  35.877  1.00  0.00     0.040 A 
ATOM     65  C   UNL A   1      40.976  35.321  37.426  1.00  0.00     0.040 A 
ATOM     66  F   UNL A   1      40.143  33.205  36.846  1.00  0.00    -0.206 F 
ATOM     67  C   UNL A   1      41.733  36.450  37.119  1.00  0.00     0.006 A 
ENDBRANCH  46  60
BRANCH  47  68
ATOM     68  C   UNL A   1      40.334  27.239  28.349  1.00  0.00     0.057 A 
ATOM     69  C   UNL A   1      39.532  26.114  28.571  1.00  0.00     0.134 A 
ATOM     70  C   UNL A   1      40.977  27.341  27.111  1.00  0.00     0.134 A 
ATOM     71  F   UNL A   1      38.904  25.954  29.745  1.00  0.00    -0.206 F 
ATOM     72  C   UNL A   1      39.385  25.119  27.602  1.00  0.00     0.040 A 
ATOM     73  C   UNL A   1      40.823  26.365  26.126  1.00  0.00     0.040 A 
ATOM     74  F   UNL A   1      41.752  28.401  26.836  1.00  0.00    -0.206 F 
ATOM     75  C   UNL A   1      40.030  25.247  26.373  1.00  0.00     0.006 A 
ENDBRANCH  47  68
BRANCH  59  76
ATOM     76  C   UNL A   1      44.811  28.163  33.596  1.00  0.00     0.057 A 
ATOM     77  C   UNL A   1      44.614  27.164  34.557  1.00  0.00     0.134 A 
ATOM     78  C   UNL A   1      46.109  28.344  33.104  1.00  0.00     0.134 A 
ATOM     79  F   UNL A   1      43.395  26.951  35.075  1.00  0.00    -0.206 F 
ATOM     80  C   UNL A   1      45.674  26.389  35.029  1.00  0.00     0.040 A 
ATOM     81  C   UNL A   1      47.173  27.561  33.552  1.00  0.00     0.040 A 
ATOM     82  F   UNL A   1      46.362  29.279  32.177  1.00  0.00    -0.206 F 
ATOM     83  C   UNL A   1      46.958  26.584  34.522  1.00  0.00     0.006 A 
ENDBRANCH  59  76
ENDBRANCH  33  34
ENDBRANCH  25  28
ENDBRANCH  23  24
ENDBRANCH  22  23
ENDBRANCH   1  22
TORSDOF 13
ENDMDL
MODEL 3
REMARK VINA RESULT:      -8.9      4.019      6.984
REMARK SMILES C[C@@H](C(=O)NCCCNC(=O)c1ccc(-c2c3nc(c(-c4c(F)cccc4F)c4ccc([nH]4)c(-c4c(F)cccc4F)c4nc(c(-c5c(F)cccc5F)c5ccc2[nH]5)C=C4)C=C3)cc1)c1ccc(NC2CCCC2)cc1F
REMARK SMILES IDX 6 1 5 2 3 3 4 4 2 6 1 7 66 8 67 9 77 10 68 11 76 12 78 13
REMARK SMILES IDX 69 14 70 15 71 17 72 18 75 19 73 20 74 21 7 22 8 23 9 24
REMARK SMILES IDX 10 25 11 27 12 28 13 29 65 30 14 31 64 32 15 33 16 34 17 35
REMARK SMILES IDX 58 36 18 37 63 38 57 39 59 40 19 41 62 42 56 43 55 44 20 46
REMARK SMILES IDX 46 47 29 48 45 49 30 50 33 51 44 52 60 53 31 54 32 55 43 57
REMARK SMILES IDX 61 58 34 59 21 60 22 61 27 62 23 63 24 64 26 65 28 66 25 67
REMARK SMILES IDX 47 68 48 69 53 70 49 71 50 72 52 73 54 74 51 75 35 76 36 77
REMARK SMILES IDX 41 78 37 79 38 80 40 81 42 82 39 83
REMARK H PARENT 5 5 70 16 9 26 59 45 33 56
REMARK Flexibility Score: inf
ROOT
ATOM      1  C   UNL A   1      31.174  30.958  26.444  1.00  0.00     0.117 C 
ENDROOT
BRANCH   1   2
ATOM      2  N   UNL A   1      31.783  30.372  25.266  1.00  0.00    -0.356 N 
ATOM      3  C   UNL A   1      32.775  29.441  25.160  1.00  0.00     0.227 C 
ATOM      4  O   UNL A   1      33.286  29.300  24.047  1.00  0.00    -0.274 OA
ATOM      5  H   UNL A   1      31.425  30.697  24.407  1.00  0.00     0.163 HD
BRANCH   3   6
ATOM      6  C   UNL A   1      33.202  28.625  26.394  1.00  0.00     0.108 C 
ATOM      7  C   UNL A   1      34.655  28.953  26.763  1.00  0.00     0.023 C 
BRANCH   6   8
ATOM      8  C   UNL A   1      32.959  27.132  26.194  1.00  0.00     0.000 A 
ATOM      9  C   UNL A   1      33.953  26.246  25.768  1.00  0.00     0.009 A 
ATOM     10  C   UNL A   1      31.695  26.590  26.447  1.00  0.00     0.129 A 
ATOM     11  C   UNL A   1      33.680  24.885  25.596  1.00  0.00     0.026 A 
ATOM     12  C   UNL A   1      31.417  25.237  26.237  1.00  0.00     0.065 A 
ATOM     13  F   UNL A   1      30.715  27.380  26.912  1.00  0.00    -0.207 F 
ATOM     14  C   UNL A   1      32.406  24.353  25.790  1.00  0.00     0.037 A 
BRANCH  14  15
ATOM     15  N   UNL A   1      32.090  23.024  25.603  1.00  0.00    -0.382 N 
ATOM     16  H   UNL A   1      31.344  22.685  26.148  1.00  0.00     0.160 HD
BRANCH  15  17
ATOM     17  C   UNL A   1      32.708  22.054  24.711  1.00  0.00     0.079 C 
ATOM     18  C   UNL A   1      32.327  20.600  24.986  1.00  0.00     0.025 C 
ATOM     19  C   UNL A   1      32.435  22.317  23.227  1.00  0.00     0.025 C 
ATOM     20  C   UNL A   1      32.508  19.917  23.638  1.00  0.00     0.002 C 
ATOM     21  C   UNL A   1      32.092  20.962  22.613  1.00  0.00     0.002 C 
ENDBRANCH  15  17
ENDBRANCH  14  15
ENDBRANCH   6   8
ENDBRANCH   3   6
ENDBRANCH   1   2
BRANCH   1  22
ATOM     22  C   UNL A   1      31.409  32.469  26.493  1.00  0.00     0.042 C 
BRANCH  22  23
ATOM     23  C   UNL A   1      32.684  32.879  27.222  1.00  0.00     0.118 C 
BRANCH  23  24
ATOM     24  N   UNL A   1      32.612  34.233  27.739  1.00  0.00    -0.352 N 
ATOM     25  C   UNL A   1      33.313  34.820  28.760  1.00  0.00     0.251 C 
ATOM     26  H   UNL A   1      31.961  34.819  27.288  1.00  0.00     0.163 HD
ATOM     27  O   UNL A   1      32.966  35.930  29.163  1.00  0.00    -0.269 OA
BRANCH  25  28
ATOM     28  C   UNL A   1      34.469  34.142  29.390  1.00  0.00     0.039 A 
ATOM     29  C   UNL A   1      35.753  34.473  28.946  1.00  0.00     0.014 A 
ATOM     30  C   UNL A   1      34.305  33.136  30.348  1.00  0.00     0.014 A 
ATOM     31  C   UNL A   1      36.866  33.810  29.467  1.00  0.00     0.010 A 
ATOM     32  C   UNL A   1      35.421  32.524  30.919  1.00  0.00     0.010 A 
ATOM     33  C   UNL A   1      36.709  32.833  30.461  1.00  0.00    -0.014 A 
BRANCH  33  34
ATOM     34  C   UNL A   1      37.881  32.081  30.975  1.00  0.00     0.031 A 
ATOM     35  C   UNL A   1      38.428  32.384  32.344  1.00  0.00     0.074 A 
ATOM     36  C   UNL A   1      38.468  31.143  30.209  1.00  0.00     0.049 A 
ATOM     37  N   UNL A   1      39.450  31.854  32.964  1.00  0.00    -0.248 NA
ATOM     38  C   UNL A   1      37.749  33.445  33.107  1.00  0.00     0.031 C 
ATOM     39  C   UNL A   1      38.066  30.788  28.848  1.00  0.00     0.029 A 
ATOM     40  N   UNL A   1      39.534  30.318  30.469  1.00  0.00    -0.354 N 
ATOM     41  C   UNL A   1      39.547  32.525  34.177  1.00  0.00     0.074 A 
ATOM     42  C   UNL A   1      38.512  33.536  34.184  1.00  0.00     0.031 C 
ATOM     43  C   UNL A   1      38.862  29.804  28.399  1.00  0.00     0.029 A 
ATOM     44  C   UNL A   1      39.840  29.473  29.432  1.00  0.00     0.049 A 
ATOM     45  H   UNL A   1      40.031  30.332  31.318  1.00  0.00     0.167 HD
ATOM     46  C   UNL A   1      40.402  32.304  35.205  1.00  0.00     0.037 A 
ATOM     47  C   UNL A   1      40.797  28.532  29.329  1.00  0.00     0.037 A 
ATOM     48  C   UNL A   1      41.412  31.279  35.212  1.00  0.00     0.049 A 
ATOM     49  C   UNL A   1      41.703  28.271  30.499  1.00  0.00     0.074 A 
ATOM     50  C   UNL A   1      42.305  30.952  36.218  1.00  0.00     0.029 A 
ATOM     51  N   UNL A   1      41.654  30.407  34.162  1.00  0.00    -0.354 N 
ATOM     52  N   UNL A   1      41.750  28.880  31.660  1.00  0.00    -0.248 NA
ATOM     53  C   UNL A   1      42.677  27.180  30.352  1.00  0.00     0.031 C 
ATOM     54  C   UNL A   1      43.102  29.893  35.766  1.00  0.00     0.029 A 
ATOM     55  C   UNL A   1      42.681  29.542  34.494  1.00  0.00     0.049 A 
ATOM     56  H   UNL A   1      41.167  30.404  33.306  1.00  0.00     0.167 HD
ATOM     57  C   UNL A   1      42.736  28.231  32.389  1.00  0.00     0.074 A 
ATOM     58  C   UNL A   1      43.255  27.173  31.546  1.00  0.00     0.031 C 
ATOM     59  C   UNL A   1      43.174  28.487  33.646  1.00  0.00     0.037 A 
BRANCH  46  60
ATOM     60  C   UNL A   1      40.266  33.189  36.409  1.00  0.00     0.057 A 
ATOM     61  C   UNL A   1      39.316  32.933  37.407  1.00  0.00     0.134 A 
ATOM     62  C   UNL A   1      41.095  34.305  36.577  1.00  0.00     0.134 A 
ATOM     63  F   UNL A   1      38.481  31.888  37.297  1.00  0.00    -0.206 F 
ATOM     64  C   UNL A   1      39.173  33.773  38.512  1.00  0.00     0.040 A 
ATOM     65  C   UNL A   1      40.979  35.138  37.691  1.00  0.00     0.040 A 
ATOM     66  F   UNL A   1      42.029  34.605  35.661  1.00  0.00    -0.206 F 
ATOM     67  C   UNL A   1      40.010  34.878  38.659  1.00  0.00     0.006 A 
ENDBRANCH  46  60
BRANCH  47  68
ATOM     68  C   UNL A   1      40.913  27.735  28.085  1.00  0.00     0.057 A 
ATOM     69  C   UNL A   1      41.683  28.187  27.007  1.00  0.00     0.134 A 
ATOM     70  C   UNL A   1      40.268  26.501  27.946  1.00  0.00     0.134 A 
ATOM     71  F   UNL A   1      42.311  29.370  27.077  1.00  0.00    -0.206 F 
ATOM     72  C   UNL A   1      41.796  27.447  25.829  1.00  0.00     0.040 A 
ATOM     73  C   UNL A   1      40.389  25.741  26.783  1.00  0.00     0.040 A 
ATOM     74  F   UNL A   1      39.524  26.010  28.949  1.00  0.00    -0.206 F 
ATOM     75  C   UNL A   1      41.150  26.217  25.717  1.00  0.00     0.006 A 
ENDBRANCH  47  68
BRANCH  59  76
ATOM     76  C   UNL A   1      44.239  27.586  34.196  1.00  0.00     0.057 A 
ATOM     77  C   UNL A   1      43.929  26.378  34.832  1.00  0.00     0.134 A 
ATOM     78  C   UNL A   1      45.592  27.919  34.057  1.00  0.00     0.134 A 
ATOM     79  F   UNL A   1      42.650  26.010  35.006  1.00  0.00    -0.206 F 
ATOM     80  C   UNL A   1      44.927  25.542  35.333  1.00  0.00     0.040 A 
ATOM     81  C   UNL A   1      46.600  27.080  34.535  1.00  0.00     0.040 A 
ATOM     82  F   UNL A   1      45.955  29.058  33.451  1.00  0.00    -0.206 F 
ATOM     83  C   UNL A   1      46.268  25.891  35.181  1.00  0.00     0.006 A 
ENDBRANCH  59  76
ENDBRANCH  33  34
ENDBRANCH  25  28
ENDBRANCH  23  24
ENDBRANCH  22  23
ENDBRANCH   1  22
TORSDOF 13
ENDMDL
