MODEL 1
REMARK VINA RESULT:      -9.1      0.000      0.000
REMARK SMILES CCCCCCNC(=O)Oc1cccc(-c2ccc([C@@H](C)C(=O)NCCCNC(=O)c3ccc(-c4c5nc(c(-c6c(F)cccc6F)c6ccc([nH]6)c(-c6c(F)cccc6F)c6nc(c(-c7c(F)cccc7F)c7ccc4[nH]7)C=C6)C=C5)cc3)cc2F)c1
REMARK SMILES IDX 16 1 17 2 18 3 19 4 85 5 86 6 87 7 15 8 11 9 12 10 88 11
REMARK SMILES IDX 13 12 14 13 10 14 8 15 7 16 9 18 6 19 5 20 4 21 3 22 2 23
REMARK SMILES IDX 1 24 20 25 21 26 22 27 23 28 24 29 25 31 26 32 27 33 28 34
REMARK SMILES IDX 29 35 30 37 31 38 32 39 84 40 33 41 83 42 34 43 35 44 36 45
REMARK SMILES IDX 77 46 37 47 82 48 76 49 78 50 38 51 81 52 75 53 74 54 39 56
REMARK SMILES IDX 65 57 48 58 64 59 49 60 52 61 63 62 79 63 50 64 51 65 62 67
REMARK SMILES IDX 80 68 53 69 40 70 41 71 46 72 42 73 43 74 45 75 47 76 44 77
REMARK SMILES IDX 66 78 67 79 72 80 68 81 69 82 71 83 73 84 70 85 54 86 55 87
REMARK SMILES IDX 60 88 56 89 57 90 59 91 61 92 58 93
REMARK H PARENT 7 17 24 30 28 36 78 55 52 66
REMARK Flexibility Score: inf
ROOT
ATOM      1  C   UNL A   1      39.815  30.241  33.678  1.00  0.00     0.018 A 
ATOM      2  C   UNL A   1      38.562  29.728  33.302  1.00  0.00     0.012 A 
ATOM      3  C   UNL A   1      37.498  30.560  32.931  1.00  0.00     0.005 A 
ATOM      4  C   UNL A   1      37.615  31.951  32.991  1.00  0.00    -0.033 A 
ATOM      5  C   UNL A   1      38.860  32.479  33.357  1.00  0.00     0.044 A 
ATOM      6  C   UNL A   1      39.936  31.641  33.669  1.00  0.00     0.131 A 
ATOM      7  F   UNL A   1      41.108  32.229  33.954  1.00  0.00    -0.206 F 
ENDROOT
BRANCH   1   8
ATOM      8  C   UNL A   1      40.925  29.335  34.061  1.00  0.00    -0.012 A 
ATOM      9  C   UNL A   1      42.022  27.850  35.651  1.00  0.00     0.133 A 
ATOM     10  C   UNL A   1      43.053  27.588  34.755  1.00  0.00     0.047 A 
ATOM     11  C   UNL A   1      40.970  28.708  35.318  1.00  0.00     0.056 A 
ATOM     12  C   UNL A   1      43.027  28.187  33.504  1.00  0.00     0.004 A 
ATOM     13  C   UNL A   1      41.983  29.056  33.168  1.00  0.00     0.009 A 
BRANCH   9  14
ATOM     14  O   UNL A   1      42.166  27.335  36.948  1.00  0.00    -0.410 OA
BRANCH  14  15
ATOM     15  C   UNL A   1      41.649  26.079  37.228  1.00  0.00     0.412 C 
ATOM     16  N   UNL A   1      42.618  25.177  37.580  1.00  0.00    -0.321 N 
ATOM     17  H   UNL A   1      42.320  24.257  37.760  1.00  0.00     0.167 HD
ATOM     18  O   UNL A   1      40.471  25.754  37.173  1.00  0.00    -0.224 OA
BRANCH  16  19
ATOM     19  C   UNL A   1      44.036  25.442  37.715  1.00  0.00     0.119 C 
BRANCH  19  20
ATOM     20  C   UNL A   1      44.818  25.011  36.475  1.00  0.00     0.021 C 
BRANCH  20  21
ATOM     21  C   UNL A   1      44.273  23.759  35.776  1.00  0.00     0.002 C 
BRANCH  21  22
ATOM     22  C   UNL A   1      43.710  23.981  34.369  1.00  0.00    -0.000 C 
BRANCH  22  23
ATOM     23  C   UNL A   1      44.750  24.056  33.247  1.00  0.00    -0.003 C 
ATOM     24  C   UNL A   1      44.229  23.554  31.910  1.00  0.00     0.004 C 
ENDBRANCH  22  23
ENDBRANCH  21  22
ENDBRANCH  20  21
ENDBRANCH  19  20
ENDBRANCH  16  19
ENDBRANCH  14  15
ENDBRANCH   9  14
ENDBRANCH   1   8
BRANCH   4  25
ATOM     25  C   UNL A   1      36.455  32.890  32.704  1.00  0.00     0.105 C 
ATOM     26  C   UNL A   1      35.457  33.073  33.848  1.00  0.00     0.023 C 
BRANCH  25  27
ATOM     27  C   UNL A   1      36.876  34.193  32.007  1.00  0.00     0.227 C 
ATOM     28  O   UNL A   1      36.962  35.239  32.662  1.00  0.00    -0.274 OA
ATOM     29  N   UNL A   1      37.177  34.290  30.684  1.00  0.00    -0.356 N 
ATOM     30  H   UNL A   1      37.489  35.182  30.410  1.00  0.00     0.163 HD
BRANCH  29  31
ATOM     31  C   UNL A   1      37.125  33.327  29.602  1.00  0.00     0.117 C 
BRANCH  31  32
ATOM     32  C   UNL A   1      35.765  33.311  28.906  1.00  0.00     0.042 C 
BRANCH  32  33
ATOM     33  C   UNL A   1      34.726  32.440  29.602  1.00  0.00     0.118 C 
BRANCH  33  34
ATOM     34  N   UNL A   1      34.149  31.449  28.704  1.00  0.00    -0.352 N 
ATOM     35  C   UNL A   1      34.738  30.431  27.996  1.00  0.00     0.251 C 
ATOM     36  H   UNL A   1      33.174  31.520  28.586  1.00  0.00     0.163 HD
ATOM     37  O   UNL A   1      34.083  29.850  27.133  1.00  0.00    -0.269 OA
BRANCH  35  38
ATOM     38  C   UNL A   1      36.142  30.027  28.240  1.00  0.00     0.039 A 
ATOM     39  C   UNL A   1      36.477  29.480  29.485  1.00  0.00     0.014 A 
ATOM     40  C   UNL A   1      37.143  30.237  27.288  1.00  0.00     0.014 A 
ATOM     41  C   UNL A   1      37.795  29.100  29.752  1.00  0.00     0.010 A 
ATOM     42  C   UNL A   1      38.440  29.784  27.526  1.00  0.00     0.010 A 
ATOM     43  C   UNL A   1      38.783  29.222  28.764  1.00  0.00    -0.014 A 
BRANCH  43  44
ATOM     44  C   UNL A   1      40.182  28.789  29.010  1.00  0.00     0.031 A 
ATOM     45  C   UNL A   1      41.167  29.735  29.641  1.00  0.00     0.074 A 
ATOM     46  C   UNL A   1      40.585  27.568  28.609  1.00  0.00     0.049 A 
ATOM     47  N   UNL A   1      42.449  29.576  29.854  1.00  0.00    -0.248 NA
ATOM     48  C   UNL A   1      40.647  31.046  30.063  1.00  0.00     0.031 C 
ATOM     49  C   UNL A   1      39.740  26.572  27.949  1.00  0.00     0.029 A 
ATOM     50  N   UNL A   1      41.814  26.962  28.685  1.00  0.00    -0.354 N 
ATOM     51  C   UNL A   1      42.891  30.769  30.413  1.00  0.00     0.074 A 
ATOM     52  C   UNL A   1      41.751  31.660  30.463  1.00  0.00     0.031 C 
ATOM     53  C   UNL A   1      40.469  25.473  27.698  1.00  0.00     0.029 A 
ATOM     54  C   UNL A   1      41.840  25.700  28.143  1.00  0.00     0.049 A 
ATOM     55  H   UNL A   1      42.602  27.392  29.090  1.00  0.00     0.167 HD
ATOM     56  C   UNL A   1      44.128  31.088  30.864  1.00  0.00     0.037 A 
ATOM     57  C   UNL A   1      42.857  24.828  28.011  1.00  0.00     0.037 A 
ATOM     58  C   UNL A   1      45.254  30.191  30.841  1.00  0.00     0.049 A 
ATOM     59  C   UNL A   1      44.222  25.205  28.516  1.00  0.00     0.074 A 
ATOM     60  C   UNL A   1      46.532  30.400  31.327  1.00  0.00     0.029 A 
ATOM     61  N   UNL A   1      45.234  28.915  30.302  1.00  0.00    -0.354 N 
ATOM     62  N   UNL A   1      44.610  26.315  29.096  1.00  0.00    -0.248 NA
ATOM     63  C   UNL A   1      45.288  24.207  28.353  1.00  0.00     0.031 C 
ATOM     64  C   UNL A   1      47.297  29.261  31.050  1.00  0.00     0.029 A 
ATOM     65  C   UNL A   1      46.482  28.328  30.429  1.00  0.00     0.049 A 
ATOM     66  H   UNL A   1      44.448  28.487  29.890  1.00  0.00     0.167 HD
ATOM     67  C   UNL A   1      45.956  26.139  29.388  1.00  0.00     0.074 A 
ATOM     68  C   UNL A   1      46.314  24.812  28.935  1.00  0.00     0.031 C 
ATOM     69  C   UNL A   1      46.819  27.002  29.980  1.00  0.00     0.037 A 
BRANCH  56  70
ATOM     70  C   UNL A   1      44.325  32.466  31.426  1.00  0.00     0.057 A 
ATOM     71  C   UNL A   1      44.605  33.565  30.603  1.00  0.00     0.134 A 
ATOM     72  C   UNL A   1      44.209  32.704  32.801  1.00  0.00     0.134 A 
ATOM     73  F   UNL A   1      44.741  33.404  29.277  1.00  0.00    -0.206 F 
ATOM     74  C   UNL A   1      44.789  34.844  31.128  1.00  0.00     0.040 A 
ATOM     75  C   UNL A   1      44.366  33.984  33.336  1.00  0.00     0.040 A 
ATOM     76  F   UNL A   1      43.936  31.698  33.647  1.00  0.00    -0.206 F 
ATOM     77  C   UNL A   1      44.664  35.058  32.500  1.00  0.00     0.006 A 
ENDBRANCH  56  70
BRANCH  57  78
ATOM     78  C   UNL A   1      42.619  23.499  27.395  1.00  0.00     0.057 A 
ATOM     79  C   UNL A   1      42.185  22.416  28.167  1.00  0.00     0.134 A 
ATOM     80  C   UNL A   1      42.819  23.278  26.028  1.00  0.00     0.134 A 
ATOM     81  F   UNL A   1      41.995  22.562  29.487  1.00  0.00    -0.206 F 
ATOM     82  C   UNL A   1      41.973  21.155  27.606  1.00  0.00     0.040 A 
ATOM     83  C   UNL A   1      42.589  22.029  25.448  1.00  0.00     0.040 A 
ATOM     84  F   UNL A   1      43.230  24.277  25.233  1.00  0.00    -0.206 F 
ATOM     85  C   UNL A   1      42.170  20.962  26.240  1.00  0.00     0.006 A 
ENDBRANCH  57  78
BRANCH  69  86
ATOM     86  C   UNL A   1      48.221  26.521  30.205  1.00  0.00     0.057 A 
ATOM     87  C   UNL A   1      48.582  25.809  31.355  1.00  0.00     0.134 A 
ATOM     88  C   UNL A   1      49.212  26.739  29.239  1.00  0.00     0.134 A 
ATOM     89  F   UNL A   1      47.682  25.579  32.323  1.00  0.00    -0.206 F 
ATOM     90  C   UNL A   1      49.885  25.347  31.547  1.00  0.00     0.040 A 
ATOM     91  C   UNL A   1      50.512  26.261  29.409  1.00  0.00     0.040 A 
ATOM     92  F   UNL A   1      48.929  27.408  28.112  1.00  0.00    -0.206 F 
ATOM     93  C   UNL A   1      50.853  25.567  30.567  1.00  0.00     0.006 A 
ENDBRANCH  69  86
ENDBRANCH  43  44
ENDBRANCH  35  38
ENDBRANCH  33  34
ENDBRANCH  32  33
ENDBRANCH  31  32
ENDBRANCH  29  31
ENDBRANCH  25  27
ENDBRANCH   4  25
TORSDOF 19
ENDMDL
MODEL 2
REMARK VINA RESULT:      -8.9      3.479      9.343
REMARK SMILES CCCCCCNC(=O)Oc1cccc(-c2ccc([C@@H](C)C(=O)NCCCNC(=O)c3ccc(-c4c5nc(c(-c6c(F)cccc6F)c6ccc([nH]6)c(-c6c(F)cccc6F)c6nc(c(-c7c(F)cccc7F)c7ccc4[nH]7)C=C6)C=C5)cc3)cc2F)c1
REMARK SMILES IDX 16 1 17 2 18 3 19 4 85 5 86 6 87 7 15 8 11 9 12 10 88 11
REMARK SMILES IDX 13 12 14 13 10 14 8 15 7 16 9 18 6 19 5 20 4 21 3 22 2 23
REMARK SMILES IDX 1 24 20 25 21 26 22 27 23 28 24 29 25 31 26 32 27 33 28 34
REMARK SMILES IDX 29 35 30 37 31 38 32 39 84 40 33 41 83 42 34 43 35 44 36 45
REMARK SMILES IDX 77 46 37 47 82 48 76 49 78 50 38 51 81 52 75 53 74 54 39 56
REMARK SMILES IDX 65 57 48 58 64 59 49 60 52 61 63 62 79 63 50 64 51 65 62 67
REMARK SMILES IDX 80 68 53 69 40 70 41 71 46 72 42 73 43 74 45 75 47 76 44 77
REMARK SMILES IDX 66 78 67 79 72 80 68 81 69 82 71 83 73 84 70 85 54 86 55 87
REMARK SMILES IDX 60 88 56 89 57 90 59 91 61 92 58 93
REMARK H PARENT 7 17 24 30 28 36 78 55 52 66
REMARK Flexibility Score: inf
ROOT
ATOM      1  C   UNL A   1      40.183  26.400  28.195  1.00  0.00     0.018 A 
ATOM      2  C   UNL A   1      41.526  26.299  28.599  1.00  0.00     0.012 A 
ATOM      3  C   UNL A   1      42.324  25.201  28.256  1.00  0.00     0.005 A 
ATOM      4  C   UNL A   1      41.796  24.115  27.555  1.00  0.00    -0.033 A 
ATOM      5  C   UNL A   1      40.461  24.203  27.139  1.00  0.00     0.044 A 
ATOM      6  C   UNL A   1      39.686  25.330  27.434  1.00  0.00     0.131 A 
ATOM      7  F   UNL A   1      38.435  25.358  26.949  1.00  0.00    -0.206 F 
ENDROOT
BRANCH   1   8
ATOM      8  C   UNL A   1      39.363  27.578  28.570  1.00  0.00    -0.012 A 
ATOM      9  C   UNL A   1      37.963  28.795  30.149  1.00  0.00     0.133 A 
ATOM     10  C   UNL A   1      37.818  29.857  29.264  1.00  0.00     0.047 A 
ATOM     11  C   UNL A   1      38.722  27.669  29.817  1.00  0.00     0.056 A 
ATOM     12  C   UNL A   1      38.448  29.796  28.029  1.00  0.00     0.004 A 
ATOM     13  C   UNL A   1      39.200  28.667  27.685  1.00  0.00     0.009 A 
BRANCH   9  14
ATOM     14  O   UNL A   1      37.195  28.841  31.323  1.00  0.00    -0.410 OA
BRANCH  14  15
ATOM     15  C   UNL A   1      37.814  28.579  32.536  1.00  0.00     0.412 C 
ATOM     16  N   UNL A   1      38.121  29.720  33.228  1.00  0.00    -0.321 N 
ATOM     17  H   UNL A   1      38.593  29.605  34.084  1.00  0.00     0.167 HD
ATOM     18  O   UNL A   1      38.087  27.474  32.983  1.00  0.00    -0.224 OA
BRANCH  16  19
ATOM     19  C   UNL A   1      37.823  31.080  32.826  1.00  0.00     0.119 C 
BRANCH  19  20
ATOM     20  C   UNL A   1      39.069  31.818  32.338  1.00  0.00     0.021 C 
BRANCH  20  21
ATOM     21  C   UNL A   1      38.803  33.212  31.756  1.00  0.00     0.002 C 
BRANCH  21  22
ATOM     22  C   UNL A   1      38.806  33.301  30.227  1.00  0.00    -0.000 C 
BRANCH  22  23
ATOM     23  C   UNL A   1      37.532  33.872  29.599  1.00  0.00    -0.003 C 
ATOM     24  C   UNL A   1      36.280  33.086  29.957  1.00  0.00     0.004 C 
ENDBRANCH  22  23
ENDBRANCH  21  22
ENDBRANCH  20  21
ENDBRANCH  19  20
ENDBRANCH  16  19
ENDBRANCH  14  15
ENDBRANCH   9  14
ENDBRANCH   1   8
BRANCH   4  25
ATOM     25  C   UNL A   1      42.594  22.856  27.257  1.00  0.00     0.105 C 
ATOM     26  C   UNL A   1      42.502  21.753  28.312  1.00  0.00     0.023 C 
BRANCH  25  27
ATOM     27  C   UNL A   1      42.456  22.368  25.807  1.00  0.00     0.227 C 
ATOM     28  O   UNL A   1      41.723  21.405  25.550  1.00  0.00    -0.274 OA
ATOM     29  N   UNL A   1      43.093  22.934  24.746  1.00  0.00    -0.356 N 
ATOM     30  H   UNL A   1      42.847  22.541  23.877  1.00  0.00     0.163 HD
BRANCH  29  31
ATOM     31  C   UNL A   1      44.065  24.005  24.653  1.00  0.00     0.117 C 
BRANCH  31  32
ATOM     32  C   UNL A   1      45.495  23.508  24.853  1.00  0.00     0.042 C 
BRANCH  32  33
ATOM     33  C   UNL A   1      46.409  24.515  25.539  1.00  0.00     0.118 C 
BRANCH  33  34
ATOM     34  N   UNL A   1      46.805  25.596  24.647  1.00  0.00    -0.352 N 
ATOM     35  C   UNL A   1      46.535  26.941  24.692  1.00  0.00     0.251 C 
ATOM     36  H   UNL A   1      47.360  25.315  23.883  1.00  0.00     0.163 HD
ATOM     37  O   UNL A   1      46.796  27.634  23.711  1.00  0.00    -0.269 OA
BRANCH  35  38
ATOM     38  C   UNL A   1      45.927  27.571  25.888  1.00  0.00     0.039 A 
ATOM     39  C   UNL A   1      46.771  28.026  26.908  1.00  0.00     0.014 A 
ATOM     40  C   UNL A   1      44.542  27.660  26.047  1.00  0.00     0.014 A 
ATOM     41  C   UNL A   1      46.230  28.614  28.055  1.00  0.00     0.010 A 
ATOM     42  C   UNL A   1      44.007  28.317  27.154  1.00  0.00     0.010 A 
ATOM     43  C   UNL A   1      44.843  28.791  28.175  1.00  0.00    -0.014 A 
BRANCH  43  44
ATOM     44  C   UNL A   1      44.247  29.448  29.366  1.00  0.00     0.031 A 
ATOM     45  C   UNL A   1      43.942  30.921  29.346  1.00  0.00     0.074 A 
ATOM     46  C   UNL A   1      44.038  28.734  30.489  1.00  0.00     0.049 A 
ATOM     47  N   UNL A   1      43.506  31.691  30.310  1.00  0.00    -0.248 NA
ATOM     48  C   UNL A   1      44.186  31.629  28.078  1.00  0.00     0.031 C 
ATOM     49  C   UNL A   1      44.329  27.309  30.652  1.00  0.00     0.029 A 
ATOM     50  N   UNL A   1      43.545  29.115  31.712  1.00  0.00    -0.354 N 
ATOM     51  C   UNL A   1      43.444  32.972  29.775  1.00  0.00     0.074 A 
ATOM     52  C   UNL A   1      43.932  32.884  28.415  1.00  0.00     0.031 C 
ATOM     53  C   UNL A   1      43.992  26.931  31.896  1.00  0.00     0.029 A 
ATOM     54  C   UNL A   1      43.498  28.093  32.628  1.00  0.00     0.049 A 
ATOM     55  H   UNL A   1      43.254  30.033  31.913  1.00  0.00     0.167 HD
ATOM     56  C   UNL A   1      43.002  34.113  30.354  1.00  0.00     0.037 A 
ATOM     57  C   UNL A   1      43.109  28.094  33.917  1.00  0.00     0.037 A 
ATOM     58  C   UNL A   1      42.491  34.193  31.698  1.00  0.00     0.049 A 
ATOM     59  C   UNL A   1      42.626  29.374  34.540  1.00  0.00     0.074 A 
ATOM     60  C   UNL A   1      41.965  35.291  32.356  1.00  0.00     0.029 A 
ATOM     61  N   UNL A   1      42.441  33.132  32.587  1.00  0.00    -0.354 N 
ATOM     62  N   UNL A   1      42.518  30.564  34.003  1.00  0.00    -0.248 NA
ATOM     63  C   UNL A   1      42.205  29.308  35.947  1.00  0.00     0.031 C 
ATOM     64  C   UNL A   1      41.630  34.901  33.658  1.00  0.00     0.029 A 
ATOM     65  C   UNL A   1      41.908  33.550  33.794  1.00  0.00     0.049 A 
ATOM     66  H   UNL A   1      42.740  32.214  32.389  1.00  0.00     0.167 HD
ATOM     67  C   UNL A   1      41.995  31.383  34.996  1.00  0.00     0.074 A 
ATOM     68  C   UNL A   1      41.795  30.550  36.163  1.00  0.00     0.031 C 
ATOM     69  C   UNL A   1      41.707  32.706  34.944  1.00  0.00     0.037 A 
BRANCH  56  70
ATOM     70  C   UNL A   1      43.050  35.369  29.533  1.00  0.00     0.057 A 
ATOM     71  C   UNL A   1      41.975  35.765  28.727  1.00  0.00     0.134 A 
ATOM     72  C   UNL A   1      44.171  36.207  29.570  1.00  0.00     0.134 A 
ATOM     73  F   UNL A   1      40.875  35.000  28.638  1.00  0.00    -0.206 F 
ATOM     74  C   UNL A   1      42.024  36.932  27.964  1.00  0.00     0.040 A 
ATOM     75  C   UNL A   1      44.222  37.392  28.831  1.00  0.00     0.040 A 
ATOM     76  F   UNL A   1      45.234  35.893  30.326  1.00  0.00    -0.206 F 
ATOM     77  C   UNL A   1      43.149  37.753  28.020  1.00  0.00     0.006 A 
ENDBRANCH  56  70
BRANCH  57  78
ATOM     78  C   UNL A   1      43.137  26.834  34.701  1.00  0.00     0.057 A 
ATOM     79  C   UNL A   1      41.975  26.076  34.885  1.00  0.00     0.134 A 
ATOM     80  C   UNL A   1      44.317  26.359  35.285  1.00  0.00     0.134 A 
ATOM     81  F   UNL A   1      40.811  26.490  34.366  1.00  0.00    -0.206 F 
ATOM     82  C   UNL A   1      41.981  24.897  35.633  1.00  0.00     0.040 A 
ATOM     83  C   UNL A   1      44.343  25.170  36.017  1.00  0.00     0.040 A 
ATOM     84  F   UNL A   1      45.465  27.038  35.142  1.00  0.00    -0.206 F 
ATOM     85  C   UNL A   1      43.171  24.439  36.198  1.00  0.00     0.006 A 
ENDBRANCH  57  78
BRANCH  69  86
ATOM     86  C   UNL A   1      41.109  33.326  36.172  1.00  0.00     0.057 A 
ATOM     87  C   UNL A   1      39.726  33.348  36.389  1.00  0.00     0.134 A 
ATOM     88  C   UNL A   1      41.931  33.869  37.168  1.00  0.00     0.134 A 
ATOM     89  F   UNL A   1      38.885  32.856  35.466  1.00  0.00    -0.206 F 
ATOM     90  C   UNL A   1      39.179  33.908  37.545  1.00  0.00     0.040 A 
ATOM     91  C   UNL A   1      41.397  34.409  38.338  1.00  0.00     0.040 A 
ATOM     92  F   UNL A   1      43.264  33.871  37.024  1.00  0.00    -0.206 F 
ATOM     93  C   UNL A   1      40.017  34.434  38.527  1.00  0.00     0.006 A 
ENDBRANCH  69  86
ENDBRANCH  43  44
ENDBRANCH  35  38
ENDBRANCH  33  34
ENDBRANCH  32  33
ENDBRANCH  31  32
ENDBRANCH  29  31
ENDBRANCH  25  27
ENDBRANCH   4  25
TORSDOF 19
ENDMDL
MODEL 3
REMARK VINA RESULT:      -8.7      4.043      9.356
REMARK SMILES CCCCCCNC(=O)Oc1cccc(-c2ccc([C@@H](C)C(=O)NCCCNC(=O)c3ccc(-c4c5nc(c(-c6c(F)cccc6F)c6ccc([nH]6)c(-c6c(F)cccc6F)c6nc(c(-c7c(F)cccc7F)c7ccc4[nH]7)C=C6)C=C5)cc3)cc2F)c1
REMARK SMILES IDX 16 1 17 2 18 3 19 4 85 5 86 6 87 7 15 8 11 9 12 10 88 11
REMARK SMILES IDX 13 12 14 13 10 14 8 15 7 16 9 18 6 19 5 20 4 21 3 22 2 23
REMARK SMILES IDX 1 24 20 25 21 26 22 27 23 28 24 29 25 31 26 32 27 33 28 34
REMARK SMILES IDX 29 35 30 37 31 38 32 39 84 40 33 41 83 42 34 43 35 44 36 45
REMARK SMILES IDX 77 46 37 47 82 48 76 49 78 50 38 51 81 52 75 53 74 54 39 56
REMARK SMILES IDX 65 57 48 58 64 59 49 60 52 61 63 62 79 63 50 64 51 65 62 67
REMARK SMILES IDX 80 68 53 69 40 70 41 71 46 72 42 73 43 74 45 75 47 76 44 77
REMARK SMILES IDX 66 78 67 79 72 80 68 81 69 82 71 83 73 84 70 85 54 86 55 87
REMARK SMILES IDX 60 88 56 89 57 90 59 91 61 92 58 93
REMARK H PARENT 7 17 24 30 28 36 78 55 52 66
REMARK Flexibility Score: inf
ROOT
ATOM      1  C   UNL A   1      36.391  23.183  25.434  1.00  0.00     0.018 A 
ATOM      2  C   UNL A   1      35.309  23.167  26.332  1.00  0.00     0.012 A 
ATOM      3  C   UNL A   1      33.984  23.309  25.902  1.00  0.00     0.005 A 
ATOM      4  C   UNL A   1      33.682  23.551  24.559  1.00  0.00    -0.033 A 
ATOM      5  C   UNL A   1      34.749  23.563  23.651  1.00  0.00     0.044 A 
ATOM      6  C   UNL A   1      36.065  23.362  24.080  1.00  0.00     0.131 A 
ATOM      7  F   UNL A   1      37.019  23.333  23.136  1.00  0.00    -0.206 F 
ENDROOT
BRANCH   1   8
ATOM      8  C   UNL A   1      37.784  23.025  25.918  1.00  0.00    -0.012 A 
ATOM      9  C   UNL A   1      39.830  21.726  26.161  1.00  0.00     0.133 A 
ATOM     10  C   UNL A   1      40.457  22.765  26.840  1.00  0.00     0.047 A 
ATOM     11  C   UNL A   1      38.515  21.845  25.703  1.00  0.00     0.056 A 
ATOM     12  C   UNL A   1      39.759  23.944  27.059  1.00  0.00     0.004 A 
ATOM     13  C   UNL A   1      38.438  24.066  26.613  1.00  0.00     0.009 A 
BRANCH   9  14
ATOM     14  O   UNL A   1      40.524  20.508  26.089  1.00  0.00    -0.410 OA
BRANCH  14  15
ATOM     15  C   UNL A   1      41.244  20.083  27.195  1.00  0.00     0.412 C 
ATOM     16  N   UNL A   1      42.579  19.935  26.930  1.00  0.00    -0.321 N 
ATOM     17  H   UNL A   1      43.141  19.603  27.666  1.00  0.00     0.167 HD
ATOM     18  O   UNL A   1      40.787  19.843  28.305  1.00  0.00    -0.224 OA
BRANCH  16  19
ATOM     19  C   UNL A   1      43.247  20.217  25.675  1.00  0.00     0.119 C 
BRANCH  19  20
ATOM     20  C   UNL A   1      44.042  21.520  25.732  1.00  0.00     0.021 C 
BRANCH  20  21
ATOM     21  C   UNL A   1      44.703  21.926  24.408  1.00  0.00     0.002 C 
BRANCH  21  22
ATOM     22  C   UNL A   1      46.160  22.388  24.512  1.00  0.00    -0.000 C 
BRANCH  22  23
ATOM     23  C   UNL A   1      46.366  23.903  24.584  1.00  0.00    -0.003 C 
ATOM     24  C   UNL A   1      46.992  24.363  25.892  1.00  0.00     0.004 C 
ENDBRANCH  22  23
ENDBRANCH  21  22
ENDBRANCH  20  21
ENDBRANCH  19  20
ENDBRANCH  16  19
ENDBRANCH  14  15
ENDBRANCH   9  14
ENDBRANCH   1   8
BRANCH   4  25
ATOM     25  C   UNL A   1      32.271  23.821  24.065  1.00  0.00     0.105 C 
ATOM     26  C   UNL A   1      31.495  22.594  23.586  1.00  0.00     0.023 C 
BRANCH  25  27
ATOM     27  C   UNL A   1      31.472  24.770  24.972  1.00  0.00     0.227 C 
ATOM     28  O   UNL A   1      30.376  24.412  25.421  1.00  0.00    -0.274 OA
ATOM     29  N   UNL A   1      31.891  26.012  25.337  1.00  0.00    -0.356 N 
ATOM     30  H   UNL A   1      31.291  26.464  25.972  1.00  0.00     0.163 HD
BRANCH  29  31
ATOM     31  C   UNL A   1      33.054  26.794  24.966  1.00  0.00     0.117 C 
BRANCH  31  32
ATOM     32  C   UNL A   1      32.675  28.104  24.279  1.00  0.00     0.042 C 
BRANCH  32  33
ATOM     33  C   UNL A   1      33.495  29.303  24.740  1.00  0.00     0.118 C 
BRANCH  33  34
ATOM     34  N   UNL A   1      32.690  30.272  25.470  1.00  0.00    -0.352 N 
ATOM     35  C   UNL A   1      32.874  30.842  26.705  1.00  0.00     0.251 C 
ATOM     36  H   UNL A   1      31.877  30.568  24.999  1.00  0.00     0.163 HD
ATOM     37  O   UNL A   1      31.952  31.476  27.212  1.00  0.00    -0.269 OA
BRANCH  35  38
ATOM     38  C   UNL A   1      34.153  30.700  27.442  1.00  0.00     0.039 A 
ATOM     39  C   UNL A   1      34.949  31.837  27.629  1.00  0.00     0.014 A 
ATOM     40  C   UNL A   1      34.607  29.459  27.892  1.00  0.00     0.014 A 
ATOM     41  C   UNL A   1      36.166  31.736  28.309  1.00  0.00     0.010 A 
ATOM     42  C   UNL A   1      35.781  29.373  28.639  1.00  0.00     0.010 A 
ATOM     43  C   UNL A   1      36.579  30.508  28.846  1.00  0.00    -0.014 A 
BRANCH  43  44
ATOM     44  C   UNL A   1      37.849  30.383  29.606  1.00  0.00     0.031 A 
ATOM     45  C   UNL A   1      39.018  29.646  29.010  1.00  0.00     0.074 A 
ATOM     46  C   UNL A   1      37.931  30.874  30.857  1.00  0.00     0.049 A 
ATOM     47  N   UNL A   1      40.174  29.354  29.548  1.00  0.00    -0.248 NA
ATOM     48  C   UNL A   1      38.854  29.149  27.633  1.00  0.00     0.031 C 
ATOM     49  C   UNL A   1      36.857  31.572  31.564  1.00  0.00     0.029 A 
ATOM     50  N   UNL A   1      38.963  30.849  31.762  1.00  0.00    -0.354 N 
ATOM     51  C   UNL A   1      40.865  28.623  28.589  1.00  0.00     0.074 A 
ATOM     52  C   UNL A   1      39.981  28.477  27.452  1.00  0.00     0.031 C 
ATOM     53  C   UNL A   1      37.290  31.926  32.785  1.00  0.00     0.029 A 
ATOM     54  C   UNL A   1      38.658  31.446  32.960  1.00  0.00     0.049 A 
ATOM     55  H   UNL A   1      39.838  30.441  31.570  1.00  0.00     0.167 HD
ATOM     56  C   UNL A   1      42.128  28.136  28.640  1.00  0.00     0.037 A 
ATOM     57  C   UNL A   1      39.395  31.584  34.078  1.00  0.00     0.037 A 
ATOM     58  C   UNL A   1      43.017  28.308  29.759  1.00  0.00     0.049 A 
ATOM     59  C   UNL A   1      40.793  31.033  34.113  1.00  0.00     0.074 A 
ATOM     60  C   UNL A   1      44.334  27.902  29.884  1.00  0.00     0.029 A 
ATOM     61  N   UNL A   1      42.677  28.936  30.947  1.00  0.00    -0.354 N 
ATOM     62  N   UNL A   1      41.453  30.396  33.176  1.00  0.00    -0.248 NA
ATOM     63  C   UNL A   1      41.550  31.224  35.358  1.00  0.00     0.031 C 
ATOM     64  C   UNL A   1      44.781  28.256  31.162  1.00  0.00     0.029 A 
ATOM     65  C   UNL A   1      43.754  28.917  31.817  1.00  0.00     0.049 A 
ATOM     66  H   UNL A   1      41.799  29.338  31.143  1.00  0.00     0.167 HD
ATOM     67  C   UNL A   1      42.708  30.132  33.708  1.00  0.00     0.074 A 
ATOM     68  C   UNL A   1      42.722  30.691  35.044  1.00  0.00     0.031 C 
ATOM     69  C   UNL A   1      43.755  29.486  33.140  1.00  0.00     0.037 A 
BRANCH  56  70
ATOM     70  C   UNL A   1      42.624  27.374  27.445  1.00  0.00     0.057 A 
ATOM     71  C   UNL A   1      42.684  25.974  27.437  1.00  0.00     0.134 A 
ATOM     72  C   UNL A   1      43.021  28.043  26.282  1.00  0.00     0.134 A 
ATOM     73  F   UNL A   1      42.330  25.272  28.525  1.00  0.00    -0.206 F 
ATOM     74  C   UNL A   1      43.147  25.268  26.326  1.00  0.00     0.040 A 
ATOM     75  C   UNL A   1      43.462  27.348  25.153  1.00  0.00     0.040 A 
ATOM     76  F   UNL A   1      42.983  29.383  26.218  1.00  0.00    -0.206 F 
ATOM     77  C   UNL A   1      43.533  25.956  25.176  1.00  0.00     0.006 A 
ENDBRANCH  56  70
BRANCH  57  78
ATOM     78  C   UNL A   1      38.833  32.298  35.253  1.00  0.00     0.057 A 
ATOM     79  C   UNL A   1      38.238  31.593  36.305  1.00  0.00     0.134 A 
ATOM     80  C   UNL A   1      38.875  33.693  35.352  1.00  0.00     0.134 A 
ATOM     81  F   UNL A   1      38.151  30.255  36.256  1.00  0.00    -0.206 F 
ATOM     82  C   UNL A   1      37.690  32.249  37.408  1.00  0.00     0.040 A 
ATOM     83  C   UNL A   1      38.352  34.362  36.461  1.00  0.00     0.040 A 
ATOM     84  F   UNL A   1      39.436  34.425  34.380  1.00  0.00    -0.206 F 
ATOM     85  C   UNL A   1      37.752  33.640  37.490  1.00  0.00     0.006 A 
ENDBRANCH  57  78
BRANCH  69  86
ATOM     86  C   UNL A   1      45.015  29.382  33.947  1.00  0.00     0.057 A 
ATOM     87  C   UNL A   1      46.009  30.366  33.893  1.00  0.00     0.134 A 
ATOM     88  C   UNL A   1      45.216  28.304  34.818  1.00  0.00     0.134 A 
ATOM     89  F   UNL A   1      45.882  31.417  33.068  1.00  0.00    -0.206 F 
ATOM     90  C   UNL A   1      47.170  30.272  34.663  1.00  0.00     0.040 A 
ATOM     91  C   UNL A   1      46.359  28.211  35.611  1.00  0.00     0.040 A 
ATOM     92  F   UNL A   1      44.297  27.332  34.922  1.00  0.00    -0.206 F 
ATOM     93  C   UNL A   1      47.343  29.194  35.531  1.00  0.00     0.006 A 
ENDBRANCH  69  86
ENDBRANCH  43  44
ENDBRANCH  35  38
ENDBRANCH  33  34
ENDBRANCH  32  33
ENDBRANCH  31  32
ENDBRANCH  29  31
ENDBRANCH  25  27
ENDBRANCH   4  25
TORSDOF 19
ENDMDL
