MODEL 1
REMARK VINA RESULT:     -10.0      0.000      0.000
REMARK SMILES COC[C@@H](C)CC(=O)N1CC(CC(=O)NCCCNC(=O)c2ccc(-c3c4nc(c(-c5c(F)cccc5F)c5ccc([nH]5)c(-c5c(F)cccc5F)c5nc(c(-c6c(F)cccc6F)c6ccc3[nH]6)C=C5)C=C4)cc2)C1
REMARK SMILES IDX 13 1 14 2 15 3 12 5 11 6 7 7 8 8 9 9 10 10 76 11 6 12 4 13
REMARK SMILES IDX 5 14 3 15 2 16 1 17 16 18 17 19 18 20 19 21 20 22 21 24
REMARK SMILES IDX 22 25 23 26 75 27 24 28 74 29 25 30 26 31 27 32 68 33 28 34
REMARK SMILES IDX 73 35 67 36 69 37 29 38 72 39 66 40 65 41 30 43 56 44 39 45
REMARK SMILES IDX 55 46 40 47 43 48 54 49 70 50 41 51 42 52 53 54 71 55 44 56
REMARK SMILES IDX 31 57 32 58 37 59 33 60 34 61 36 62 38 63 35 64 57 65 58 66
REMARK SMILES IDX 63 67 59 68 60 69 62 70 64 71 61 72 45 73 46 74 51 75 47 76
REMARK SMILES IDX 48 77 50 78 52 79 49 80
REMARK H PARENT 15 4 19 23 69 42 43 53
REMARK Flexibility Score: inf
ROOT
ATOM      1  C   UNL A   1      35.417  22.924  23.915  1.00  0.00     0.220 C 
ATOM      2  O   UNL A   1      35.030  23.392  22.842  1.00  0.00    -0.275 OA
ATOM      3  N   UNL A   1      35.375  21.570  24.065  1.00  0.00    -0.356 N 
ATOM      4  H   UNL A   1      35.077  21.084  23.262  1.00  0.00     0.163 HD
ENDROOT
BRANCH   1   5
ATOM      5  C   UNL A   1      35.875  23.847  25.032  1.00  0.00     0.107 C 
BRANCH   5   6
ATOM      6  C   UNL A   1      34.713  24.322  25.900  1.00  0.00     0.037 C 
ATOM      7  C   UNL A   1      31.692  25.716  25.939  1.00  0.00     0.222 C 
ATOM      8  O   UNL A   1      31.076  25.320  26.926  1.00  0.00    -0.275 OA
ATOM      9  N   UNL A   1      32.817  25.084  25.459  1.00  0.00    -0.342 N 
ATOM     10  C   UNL A   1      33.301  23.733  25.745  1.00  0.00     0.125 C 
ATOM     11  C   UNL A   1      34.147  25.653  25.428  1.00  0.00     0.125 C 
BRANCH   7  12
ATOM     12  C   UNL A   1      31.148  26.837  25.050  1.00  0.00     0.106 C 
BRANCH  12  13
ATOM     13  C   UNL A   1      31.743  28.255  25.180  1.00  0.00     0.021 C 
ATOM     14  C   UNL A   1      31.693  28.697  26.650  1.00  0.00     0.010 C 
BRANCH  13  15
ATOM     15  C   UNL A   1      30.994  29.264  24.299  1.00  0.00     0.163 C 
BRANCH  15  16
ATOM     16  O   UNL A   1      30.762  28.822  22.968  1.00  0.00    -0.384 OA
ATOM     17  C   UNL A   1      29.909  29.686  22.232  1.00  0.00     0.194 C 
ENDBRANCH  15  16
ENDBRANCH  13  15
ENDBRANCH  12  13
ENDBRANCH   7  12
ENDBRANCH   5   6
ENDBRANCH   1   5
BRANCH   3  18
ATOM     18  C   UNL A   1      35.688  20.714  25.199  1.00  0.00     0.117 C 
BRANCH  18  19
ATOM     19  C   UNL A   1      36.939  19.870  24.953  1.00  0.00     0.042 C 
BRANCH  19  20
ATOM     20  C   UNL A   1      38.272  20.539  25.266  1.00  0.00     0.118 C 
BRANCH  20  21
ATOM     21  N   UNL A   1      39.359  19.590  25.442  1.00  0.00    -0.352 N 
ATOM     22  C   UNL A   1      40.629  19.738  25.952  1.00  0.00     0.251 C 
ATOM     23  H   UNL A   1      39.148  18.676  25.142  1.00  0.00     0.163 HD
ATOM     24  O   UNL A   1      41.405  18.792  25.854  1.00  0.00    -0.269 OA
BRANCH  22  25
ATOM     25  C   UNL A   1      41.108  21.001  26.579  1.00  0.00     0.039 A 
ATOM     26  C   UNL A   1      41.644  21.991  25.741  1.00  0.00     0.014 A 
ATOM     27  C   UNL A   1      41.094  21.224  27.957  1.00  0.00     0.014 A 
ATOM     28  C   UNL A   1      42.085  23.214  26.267  1.00  0.00     0.010 A 
ATOM     29  C   UNL A   1      41.475  22.466  28.478  1.00  0.00     0.010 A 
ATOM     30  C   UNL A   1      41.977  23.474  27.639  1.00  0.00    -0.014 A 
BRANCH  30  31
ATOM     31  C   UNL A   1      42.426  24.769  28.221  1.00  0.00     0.031 A 
ATOM     32  C   UNL A   1      41.433  25.876  28.444  1.00  0.00     0.074 A 
ATOM     33  C   UNL A   1      43.727  24.981  28.498  1.00  0.00     0.049 A 
ATOM     34  N   UNL A   1      41.632  27.092  28.888  1.00  0.00    -0.248 NA
ATOM     35  C   UNL A   1      40.031  25.585  28.105  1.00  0.00     0.031 C 
ATOM     36  C   UNL A   1      44.804  24.015  28.287  1.00  0.00     0.029 A 
ATOM     37  N   UNL A   1      44.369  26.088  28.998  1.00  0.00    -0.354 N 
ATOM     38  C   UNL A   1      40.390  27.713  28.865  1.00  0.00     0.074 A 
ATOM     39  C   UNL A   1      39.450  26.755  28.326  1.00  0.00     0.031 C 
ATOM     40  C   UNL A   1      45.973  24.569  28.654  1.00  0.00     0.029 A 
ATOM     41  C   UNL A   1      45.732  25.938  29.103  1.00  0.00     0.049 A 
ATOM     42  H   UNL A   1      43.897  26.913  29.257  1.00  0.00     0.167 HD
ATOM     43  C   UNL A   1      40.058  28.961  29.273  1.00  0.00     0.037 A 
ATOM     44  C   UNL A   1      46.681  26.806  29.503  1.00  0.00     0.037 A 
ATOM     45  C   UNL A   1      40.981  29.909  29.837  1.00  0.00     0.049 A 
ATOM     46  C   UNL A   1      46.285  28.187  29.953  1.00  0.00     0.074 A 
ATOM     47  C   UNL A   1      40.717  31.168  30.350  1.00  0.00     0.029 A 
ATOM     48  N   UNL A   1      42.347  29.708  29.955  1.00  0.00    -0.354 N 
ATOM     49  N   UNL A   1      45.092  28.727  30.009  1.00  0.00    -0.248 NA
ATOM     50  C   UNL A   1      47.367  29.075  30.403  1.00  0.00     0.031 C 
ATOM     51  C   UNL A   1      41.930  31.744  30.743  1.00  0.00     0.029 A 
ATOM     52  C   UNL A   1      42.943  30.828  30.512  1.00  0.00     0.049 A 
ATOM     53  H   UNL A   1      42.823  28.890  29.683  1.00  0.00     0.167 HD
ATOM     54  C   UNL A   1      45.277  30.003  30.526  1.00  0.00     0.074 A 
ATOM     55  C   UNL A   1      46.695  30.154  30.779  1.00  0.00     0.031 C 
ATOM     56  C   UNL A   1      44.353  30.963  30.771  1.00  0.00     0.037 A 
BRANCH  43  57
ATOM     57  C   UNL A   1      38.623  29.374  29.128  1.00  0.00     0.057 A 
ATOM     58  C   UNL A   1      38.084  29.742  27.889  1.00  0.00     0.134 A 
ATOM     59  C   UNL A   1      37.762  29.364  30.232  1.00  0.00     0.134 A 
ATOM     60  F   UNL A   1      38.860  29.783  26.794  1.00  0.00    -0.206 F 
ATOM     61  C   UNL A   1      36.744  30.108  27.757  1.00  0.00     0.040 A 
ATOM     62  C   UNL A   1      36.414  29.705  30.108  1.00  0.00     0.040 A 
ATOM     63  F   UNL A   1      38.214  29.015  31.446  1.00  0.00    -0.206 F 
ATOM     64  C   UNL A   1      35.904  30.085  28.868  1.00  0.00     0.006 A 
ENDBRANCH  43  57
BRANCH  44  65
ATOM     65  C   UNL A   1      48.109  26.399  29.511  1.00  0.00     0.057 A 
ATOM     66  C   UNL A   1      48.923  26.595  28.391  1.00  0.00     0.134 A 
ATOM     67  C   UNL A   1      48.684  25.775  30.625  1.00  0.00     0.134 A 
ATOM     68  F   UNL A   1      48.424  27.165  27.284  1.00  0.00    -0.206 F 
ATOM     69  C   UNL A   1      50.252  26.166  28.367  1.00  0.00     0.040 A 
ATOM     70  C   UNL A   1      50.017  25.364  30.626  1.00  0.00     0.040 A 
ATOM     71  F   UNL A   1      47.956  25.561  31.731  1.00  0.00    -0.206 F 
ATOM     72  C   UNL A   1      50.803  25.551  29.490  1.00  0.00     0.006 A 
ENDBRANCH  44  65
BRANCH  56  73
ATOM     73  C   UNL A   1      44.834  32.249  31.376  1.00  0.00     0.057 A 
ATOM     74  C   UNL A   1      44.926  32.426  32.763  1.00  0.00     0.134 A 
ATOM     75  C   UNL A   1      45.252  33.307  30.560  1.00  0.00     0.134 A 
ATOM     76  F   UNL A   1      44.529  31.454  33.599  1.00  0.00    -0.206 F 
ATOM     77  C   UNL A   1      45.401  33.616  33.315  1.00  0.00     0.040 A 
ATOM     78  C   UNL A   1      45.751  34.493  31.101  1.00  0.00     0.040 A 
ATOM     79  F   UNL A   1      45.197  33.200  29.224  1.00  0.00    -0.206 F 
ATOM     80  C   UNL A   1      45.822  34.651  32.483  1.00  0.00     0.006 A 
ENDBRANCH  56  73
ENDBRANCH  30  31
ENDBRANCH  22  25
ENDBRANCH  20  21
ENDBRANCH  19  20
ENDBRANCH  18  19
ENDBRANCH   3  18
TORSDOF 15
ENDMDL
MODEL 2
REMARK VINA RESULT:      -9.9      3.947      9.325
REMARK SMILES COC[C@@H](C)CC(=O)N1CC(CC(=O)NCCCNC(=O)c2ccc(-c3c4nc(c(-c5c(F)cccc5F)c5ccc([nH]5)c(-c5c(F)cccc5F)c5nc(c(-c6c(F)cccc6F)c6ccc3[nH]6)C=C5)C=C4)cc2)C1
REMARK SMILES IDX 13 1 14 2 15 3 12 5 11 6 7 7 8 8 9 9 10 10 76 11 6 12 4 13
REMARK SMILES IDX 5 14 3 15 2 16 1 17 16 18 17 19 18 20 19 21 20 22 21 24
REMARK SMILES IDX 22 25 23 26 75 27 24 28 74 29 25 30 26 31 27 32 68 33 28 34
REMARK SMILES IDX 73 35 67 36 69 37 29 38 72 39 66 40 65 41 30 43 56 44 39 45
REMARK SMILES IDX 55 46 40 47 43 48 54 49 70 50 41 51 42 52 53 54 71 55 44 56
REMARK SMILES IDX 31 57 32 58 37 59 33 60 34 61 36 62 38 63 35 64 57 65 58 66
REMARK SMILES IDX 63 67 59 68 60 69 62 70 64 71 61 72 45 73 46 74 51 75 47 76
REMARK SMILES IDX 48 77 50 78 52 79 49 80
REMARK H PARENT 15 4 19 23 69 42 43 53
REMARK Flexibility Score: inf
ROOT
ATOM      1  C   UNL A   1      30.261  29.099  23.285  1.00  0.00     0.220 C 
ATOM      2  O   UNL A   1      29.908  29.341  22.129  1.00  0.00    -0.275 OA
ATOM      3  N   UNL A   1      30.731  30.139  24.031  1.00  0.00    -0.356 N 
ATOM      4  H   UNL A   1      30.694  31.011  23.577  1.00  0.00     0.163 HD
ENDROOT
BRANCH   1   5
ATOM      5  C   UNL A   1      30.212  27.677  23.821  1.00  0.00     0.107 C 
BRANCH   5   6
ATOM      6  C   UNL A   1      31.497  26.907  23.529  1.00  0.00     0.037 C 
ATOM      7  C   UNL A   1      32.812  24.013  22.549  1.00  0.00     0.222 C 
ATOM      8  O   UNL A   1      33.892  24.223  22.001  1.00  0.00    -0.275 OA
ATOM      9  N   UNL A   1      31.878  25.001  22.760  1.00  0.00    -0.342 N 
ATOM     10  C   UNL A   1      31.784  26.321  22.136  1.00  0.00     0.125 C 
ATOM     11  C   UNL A   1      31.445  25.481  24.055  1.00  0.00     0.125 C 
BRANCH   7  12
ATOM     12  C   UNL A   1      32.340  22.593  22.872  1.00  0.00     0.106 C 
BRANCH  12  13
ATOM     13  C   UNL A   1      33.148  21.743  23.877  1.00  0.00     0.021 C 
ATOM     14  C   UNL A   1      32.535  20.338  23.966  1.00  0.00     0.010 C 
BRANCH  13  15
ATOM     15  C   UNL A   1      33.181  22.394  25.266  1.00  0.00     0.163 C 
BRANCH  15  16
ATOM     16  O   UNL A   1      34.379  23.106  25.552  1.00  0.00    -0.384 OA
ATOM     17  C   UNL A   1      35.493  22.257  25.785  1.00  0.00     0.194 C 
ENDBRANCH  15  16
ENDBRANCH  13  15
ENDBRANCH  12  13
ENDBRANCH   7  12
ENDBRANCH   5   6
ENDBRANCH   1   5
BRANCH   3  18
ATOM     18  C   UNL A   1      31.279  30.191  25.379  1.00  0.00     0.117 C 
BRANCH  18  19
ATOM     19  C   UNL A   1      31.113  31.571  26.014  1.00  0.00     0.042 C 
BRANCH  19  20
ATOM     20  C   UNL A   1      32.272  32.056  26.877  1.00  0.00     0.118 C 
BRANCH  20  21
ATOM     21  N   UNL A   1      32.153  33.454  27.256  1.00  0.00    -0.352 N 
ATOM     22  C   UNL A   1      32.899  34.238  28.108  1.00  0.00     0.251 C 
ATOM     23  H   UNL A   1      31.404  33.926  26.826  1.00  0.00     0.163 HD
ATOM     24  O   UNL A   1      32.491  35.368  28.360  1.00  0.00    -0.269 OA
BRANCH  22  25
ATOM     25  C   UNL A   1      34.152  33.761  28.758  1.00  0.00     0.039 A 
ATOM     26  C   UNL A   1      34.036  32.869  29.836  1.00  0.00     0.014 A 
ATOM     27  C   UNL A   1      35.423  34.196  28.382  1.00  0.00     0.014 A 
ATOM     28  C   UNL A   1      35.178  32.361  30.472  1.00  0.00     0.010 A 
ATOM     29  C   UNL A   1      36.565  33.643  28.973  1.00  0.00     0.010 A 
ATOM     30  C   UNL A   1      36.456  32.722  30.026  1.00  0.00    -0.014 A 
BRANCH  30  31
ATOM     31  C   UNL A   1      37.683  32.187  30.676  1.00  0.00     0.031 A 
ATOM     32  C   UNL A   1      38.357  30.964  30.116  1.00  0.00     0.074 A 
ATOM     33  C   UNL A   1      38.168  32.755  31.797  1.00  0.00     0.049 A 
ATOM     34  N   UNL A   1      39.401  30.313  30.566  1.00  0.00    -0.248 NA
ATOM     35  C   UNL A   1      37.767  30.383  28.900  1.00  0.00     0.031 C 
ATOM     36  C   UNL A   1      37.590  33.914  32.475  1.00  0.00     0.029 A 
ATOM     37  N   UNL A   1      39.248  32.420  32.578  1.00  0.00    -0.354 N 
ATOM     38  C   UNL A   1      39.581  29.241  29.702  1.00  0.00     0.074 A 
ATOM     39  C   UNL A   1      38.516  29.304  28.724  1.00  0.00     0.031 C 
ATOM     40  C   UNL A   1      38.318  34.195  33.570  1.00  0.00     0.029 A 
ATOM     41  C   UNL A   1      39.401  33.221  33.685  1.00  0.00     0.049 A 
ATOM     42  H   UNL A   1      39.856  31.675  32.365  1.00  0.00     0.167 HD
ATOM     43  C   UNL A   1      40.555  28.300  29.708  1.00  0.00     0.037 A 
ATOM     44  C   UNL A   1      40.302  33.171  34.686  1.00  0.00     0.037 A 
ATOM     45  C   UNL A   1      41.633  28.247  30.659  1.00  0.00     0.049 A 
ATOM     46  C   UNL A   1      41.375  32.116  34.668  1.00  0.00     0.074 A 
ATOM     47  C   UNL A   1      42.708  27.376  30.694  1.00  0.00     0.029 A 
ATOM     48  N   UNL A   1      41.770  29.095  31.746  1.00  0.00    -0.354 N 
ATOM     49  N   UNL A   1      41.584  31.164  33.793  1.00  0.00    -0.248 NA
ATOM     50  C   UNL A   1      42.343  32.135  35.776  1.00  0.00     0.031 C 
ATOM     51  C   UNL A   1      43.475  27.671  31.827  1.00  0.00     0.029 A 
ATOM     52  C   UNL A   1      42.899  28.753  32.472  1.00  0.00     0.049 A 
ATOM     53  H   UNL A   1      41.156  29.832  31.969  1.00  0.00     0.167 HD
ATOM     54  C   UNL A   1      42.720  30.492  34.226  1.00  0.00     0.074 A 
ATOM     55  C   UNL A   1      43.163  31.150  35.436  1.00  0.00     0.031 C 
ATOM     56  C   UNL A   1      43.340  29.423  33.668  1.00  0.00     0.037 A 
BRANCH  43  57
ATOM     57  C   UNL A   1      40.501  27.245  28.644  1.00  0.00     0.057 A 
ATOM     58  C   UNL A   1      39.657  26.132  28.750  1.00  0.00     0.134 A 
ATOM     59  C   UNL A   1      41.270  27.365  27.480  1.00  0.00     0.134 A 
ATOM     60  F   UNL A   1      38.903  25.953  29.847  1.00  0.00    -0.206 F 
ATOM     61  C   UNL A   1      39.598  25.163  27.748  1.00  0.00     0.040 A 
ATOM     62  C   UNL A   1      41.202  26.415  26.460  1.00  0.00     0.040 A 
ATOM     63  F   UNL A   1      42.093  28.411  27.312  1.00  0.00    -0.206 F 
ATOM     64  C   UNL A   1      40.368  25.306  26.596  1.00  0.00     0.006 A 
ENDBRANCH  43  57
BRANCH  44  65
ATOM     65  C   UNL A   1      40.244  34.160  35.792  1.00  0.00     0.057 A 
ATOM     66  C   UNL A   1      39.540  33.885  36.970  1.00  0.00     0.134 A 
ATOM     67  C   UNL A   1      40.860  35.412  35.685  1.00  0.00     0.134 A 
ATOM     68  F   UNL A   1      38.909  32.712  37.121  1.00  0.00    -0.206 F 
ATOM     69  C   UNL A   1      39.432  34.828  37.994  1.00  0.00     0.040 A 
ATOM     70  C   UNL A   1      40.781  36.355  36.711  1.00  0.00     0.040 A 
ATOM     71  F   UNL A   1      41.551  35.735  34.582  1.00  0.00    -0.206 F 
ATOM     72  C   UNL A   1      40.058  36.067  37.867  1.00  0.00     0.006 A 
ENDBRANCH  44  65
BRANCH  56  73
ATOM     73  C   UNL A   1      44.586  28.920  34.336  1.00  0.00     0.057 A 
ATOM     74  C   UNL A   1      45.850  29.443  34.032  1.00  0.00     0.134 A 
ATOM     75  C   UNL A   1      44.514  27.932  35.325  1.00  0.00     0.134 A 
ATOM     76  F   UNL A   1      45.987  30.383  33.084  1.00  0.00    -0.206 F 
ATOM     77  C   UNL A   1      47.000  28.988  34.679  1.00  0.00     0.040 A 
ATOM     78  C   UNL A   1      45.655  27.486  35.994  1.00  0.00     0.040 A 
ATOM     79  F   UNL A   1      43.334  27.395  35.668  1.00  0.00    -0.206 F 
ATOM     80  C   UNL A   1      46.904  28.011  35.668  1.00  0.00     0.006 A 
ENDBRANCH  56  73
ENDBRANCH  30  31
ENDBRANCH  22  25
ENDBRANCH  20  21
ENDBRANCH  19  20
ENDBRANCH  18  19
ENDBRANCH   3  18
TORSDOF 15
ENDMDL
MODEL 3
REMARK VINA RESULT:      -9.8      4.322      7.474
REMARK SMILES COC[C@@H](C)CC(=O)N1CC(CC(=O)NCCCNC(=O)c2ccc(-c3c4nc(c(-c5c(F)cccc5F)c5ccc([nH]5)c(-c5c(F)cccc5F)c5nc(c(-c6c(F)cccc6F)c6ccc3[nH]6)C=C5)C=C4)cc2)C1
REMARK SMILES IDX 13 1 14 2 15 3 12 5 11 6 7 7 8 8 9 9 10 10 76 11 6 12 4 13
REMARK SMILES IDX 5 14 3 15 2 16 1 17 16 18 17 19 18 20 19 21 20 22 21 24
REMARK SMILES IDX 22 25 23 26 75 27 24 28 74 29 25 30 26 31 27 32 68 33 28 34
REMARK SMILES IDX 73 35 67 36 69 37 29 38 72 39 66 40 65 41 30 43 56 44 39 45
REMARK SMILES IDX 55 46 40 47 43 48 54 49 70 50 41 51 42 52 53 54 71 55 44 56
REMARK SMILES IDX 31 57 32 58 37 59 33 60 34 61 36 62 38 63 35 64 57 65 58 66
REMARK SMILES IDX 63 67 59 68 60 69 62 70 64 71 61 72 45 73 46 74 51 75 47 76
REMARK SMILES IDX 48 77 50 78 52 79 49 80
REMARK H PARENT 15 4 19 23 69 42 43 53
REMARK Flexibility Score: inf
ROOT
ATOM      1  C   UNL A   1      30.553  25.560  26.100  1.00  0.00     0.220 C 
ATOM      2  O   UNL A   1      29.537  24.990  26.502  1.00  0.00    -0.275 OA
ATOM      3  N   UNL A   1      31.069  26.554  26.879  1.00  0.00    -0.356 N 
ATOM      4  H   UNL A   1      30.594  26.686  27.730  1.00  0.00     0.163 HD
ENDROOT
BRANCH   1   5
ATOM      5  C   UNL A   1      31.163  25.186  24.759  1.00  0.00     0.107 C 
BRANCH   5   6
ATOM      6  C   UNL A   1      30.692  26.104  23.635  1.00  0.00     0.037 C 
ATOM      7  C   UNL A   1      30.098  29.243  22.707  1.00  0.00     0.222 C 
ATOM      8  O   UNL A   1      30.252  29.343  21.492  1.00  0.00    -0.275 OA
ATOM      9  N   UNL A   1      30.584  28.182  23.436  1.00  0.00    -0.342 N 
ATOM     10  C   UNL A   1      31.603  27.201  23.059  1.00  0.00     0.125 C 
ATOM     11  C   UNL A   1      29.776  27.209  24.139  1.00  0.00     0.125 C 
BRANCH   7  12
ATOM     12  C   UNL A   1      29.514  30.389  23.537  1.00  0.00     0.106 C 
BRANCH  12  13
ATOM     13  C   UNL A   1      27.992  30.644  23.500  1.00  0.00     0.021 C 
ATOM     14  C   UNL A   1      27.291  29.454  22.828  1.00  0.00     0.010 C 
BRANCH  13  15
ATOM     15  C   UNL A   1      27.656  31.943  22.755  1.00  0.00     0.163 C 
BRANCH  15  16
ATOM     16  O   UNL A   1      28.580  32.289  21.731  1.00  0.00    -0.384 OA
ATOM     17  C   UNL A   1      28.030  32.197  20.426  1.00  0.00     0.194 C 
ENDBRANCH  15  16
ENDBRANCH  13  15
ENDBRANCH  12  13
ENDBRANCH   7  12
ENDBRANCH   5   6
ENDBRANCH   1   5
BRANCH   3  18
ATOM     18  C   UNL A   1      32.194  27.455  26.676  1.00  0.00     0.117 C 
BRANCH  18  19
ATOM     19  C   UNL A   1      31.781  28.922  26.785  1.00  0.00     0.042 C 
BRANCH  19  20
ATOM     20  C   UNL A   1      32.512  29.895  25.866  1.00  0.00     0.118 C 
BRANCH  20  21
ATOM     21  N   UNL A   1      32.407  31.277  26.301  1.00  0.00    -0.352 N 
ATOM     22  C   UNL A   1      33.130  32.005  27.220  1.00  0.00     0.251 C 
ATOM     23  H   UNL A   1      31.690  31.786  25.858  1.00  0.00     0.163 HD
ATOM     24  O   UNL A   1      32.737  33.132  27.503  1.00  0.00    -0.269 OA
BRANCH  22  25
ATOM     25  C   UNL A   1      34.339  31.469  27.906  1.00  0.00     0.039 A 
ATOM     26  C   UNL A   1      35.425  32.336  28.102  1.00  0.00     0.014 A 
ATOM     27  C   UNL A   1      34.460  30.140  28.315  1.00  0.00     0.014 A 
ATOM     28  C   UNL A   1      36.580  31.900  28.767  1.00  0.00     0.010 A 
ATOM     29  C   UNL A   1      35.585  29.719  29.034  1.00  0.00     0.010 A 
ATOM     30  C   UNL A   1      36.658  30.593  29.265  1.00  0.00    -0.014 A 
BRANCH  30  31
ATOM     31  C   UNL A   1      37.868  30.110  29.986  1.00  0.00     0.031 A 
ATOM     32  C   UNL A   1      38.135  30.564  31.395  1.00  0.00     0.074 A 
ATOM     33  C   UNL A   1      38.760  29.311  29.368  1.00  0.00     0.049 A 
ATOM     34  N   UNL A   1      39.155  30.300  32.172  1.00  0.00    -0.248 NA
ATOM     35  C   UNL A   1      37.129  31.449  32.005  1.00  0.00     0.031 C 
ATOM     36  C   UNL A   1      38.654  28.832  27.991  1.00  0.00     0.029 A 
ATOM     37  N   UNL A   1      39.945  28.777  29.813  1.00  0.00    -0.354 N 
ATOM     38  C   UNL A   1      38.924  30.997  33.351  1.00  0.00     0.074 A 
ATOM     39  C   UNL A   1      37.688  31.728  33.174  1.00  0.00     0.031 C 
ATOM     40  C   UNL A   1      39.727  28.077  27.701  1.00  0.00     0.029 A 
ATOM     41  C   UNL A   1      40.611  28.037  28.864  1.00  0.00     0.049 A 
ATOM     42  H   UNL A   1      40.288  28.912  30.727  1.00  0.00     0.167 HD
ATOM     43  C   UNL A   1      39.663  31.014  34.486  1.00  0.00     0.037 A 
ATOM     44  C   UNL A   1      41.801  27.408  28.918  1.00  0.00     0.037 A 
ATOM     45  C   UNL A   1      40.878  30.268  34.680  1.00  0.00     0.049 A 
ATOM     46  C   UNL A   1      42.602  27.440  30.192  1.00  0.00     0.074 A 
ATOM     47  C   UNL A   1      41.650  30.163  35.825  1.00  0.00     0.029 A 
ATOM     48  N   UNL A   1      41.502  29.506  33.706  1.00  0.00    -0.354 N 
ATOM     49  N   UNL A   1      42.324  28.032  31.328  1.00  0.00    -0.248 NA
ATOM     50  C   UNL A   1      43.879  26.711  30.192  1.00  0.00     0.031 C 
ATOM     51  C   UNL A   1      42.764  29.368  35.530  1.00  0.00     0.029 A 
ATOM     52  C   UNL A   1      42.662  28.945  34.215  1.00  0.00     0.049 A 
ATOM     53  H   UNL A   1      41.169  29.381  32.787  1.00  0.00     0.167 HD
ATOM     54  C   UNL A   1      43.373  27.721  32.184  1.00  0.00     0.074 A 
ATOM     55  C   UNL A   1      44.288  26.881  31.442  1.00  0.00     0.031 C 
ATOM     56  C   UNL A   1      43.560  28.099  33.473  1.00  0.00     0.037 A 
BRANCH  43  57
ATOM     57  C   UNL A   1      39.172  31.868  35.616  1.00  0.00     0.057 A 
ATOM     58  C   UNL A   1      39.553  33.210  35.746  1.00  0.00     0.134 A 
ATOM     59  C   UNL A   1      38.275  31.355  36.561  1.00  0.00     0.134 A 
ATOM     60  F   UNL A   1      40.419  33.757  34.878  1.00  0.00    -0.206 F 
ATOM     61  C   UNL A   1      39.078  34.005  36.789  1.00  0.00     0.040 A 
ATOM     62  C   UNL A   1      37.774  32.147  37.596  1.00  0.00     0.040 A 
ATOM     63  F   UNL A   1      37.865  30.080  36.490  1.00  0.00    -0.206 F 
ATOM     64  C   UNL A   1      38.181  33.475  37.715  1.00  0.00     0.006 A 
ENDBRANCH  43  57
BRANCH  44  65
ATOM     65  C   UNL A   1      42.313  26.677  27.732  1.00  0.00     0.057 A 
ATOM     66  C   UNL A   1      43.055  27.332  26.744  1.00  0.00     0.134 A 
ATOM     67  C   UNL A   1      42.045  25.316  27.542  1.00  0.00     0.134 A 
ATOM     68  F   UNL A   1      43.324  28.641  26.858  1.00  0.00    -0.206 F 
ATOM     69  C   UNL A   1      43.495  26.668  25.597  1.00  0.00     0.040 A 
ATOM     70  C   UNL A   1      42.499  24.633  26.412  1.00  0.00     0.040 A 
ATOM     71  F   UNL A   1      41.340  24.631  28.454  1.00  0.00    -0.206 F 
ATOM     72  C   UNL A   1      43.220  25.312  25.431  1.00  0.00     0.006 A 
ENDBRANCH  44  65
BRANCH  56  73
ATOM     73  C   UNL A   1      44.778  27.579  34.177  1.00  0.00     0.057 A 
ATOM     74  C   UNL A   1      45.981  28.296  34.202  1.00  0.00     0.134 A 
ATOM     75  C   UNL A   1      44.732  26.366  34.875  1.00  0.00     0.134 A 
ATOM     76  F   UNL A   1      46.093  29.458  33.541  1.00  0.00    -0.206 F 
ATOM     77  C   UNL A   1      47.100  27.816  34.883  1.00  0.00     0.040 A 
ATOM     78  C   UNL A   1      45.838  25.887  35.579  1.00  0.00     0.040 A 
ATOM     79  F   UNL A   1      43.608  25.634  34.897  1.00  0.00    -0.206 F 
ATOM     80  C   UNL A   1      47.029  26.611  35.580  1.00  0.00     0.006 A 
ENDBRANCH  56  73
ENDBRANCH  30  31
ENDBRANCH  22  25
ENDBRANCH  20  21
ENDBRANCH  19  20
ENDBRANCH  18  19
ENDBRANCH   3  18
TORSDOF 15
ENDMDL
