MODEL 1
REMARK VINA RESULT:     -12.8      0.000      0.000
REMARK SMILES COc1ccc(-c2cc(Cl)cc3c2O[C@@H](C(F)(F)F)C(C(=O)NCCCNC(=O)c2ccc(-c4c5nc(c(-c6c(F)cccc6F)c6ccc([nH]6)c(-c6c(F)cccc6F)c6nc(c(-c7c(F)cccc7F)c7ccc4[nH]7)C=C6)C=C5)cc2)=C3)cc1C
REMARK SMILES IDX 25 1 24 2 23 3 21 4 22 5 20 7 7 8 8 9 13 10 9 11 12 12 14 13
REMARK SMILES IDX 10 14 11 15 84 16 15 17 6 18 3 19 4 20 86 21 5 22 85 23
REMARK SMILES IDX 87 24 2 25 1 26 16 27 17 28 18 29 19 30 26 31 27 32 28 33
REMARK SMILES IDX 29 35 30 36 31 37 83 38 32 39 82 40 33 41 34 42 35 43 76 44
REMARK SMILES IDX 36 45 81 46 75 47 77 48 37 49 80 50 74 51 73 52 38 54 64 55
REMARK SMILES IDX 47 56 63 57 48 58 51 59 62 60 78 61 49 62 50 63 61 65 79 66
REMARK SMILES IDX 52 67 39 68 40 69 45 70 41 71 42 72 44 73 46 74 43 75 65 76
REMARK SMILES IDX 66 77 71 78 67 79 68 80 70 81 72 82 69 83 53 84 54 85 59 86
REMARK SMILES IDX 55 87 56 88 58 89 60 90 57 91
REMARK H PARENT 23 6 27 34 77 53 51 64
REMARK Flexibility Score: inf
ROOT
ATOM      1  C   UNL A   1      33.647  29.167  25.532  1.00  0.00     0.042 C 
ENDROOT
BRANCH   1   2
ATOM      2  C   UNL A   1      32.751  28.113  24.889  1.00  0.00     0.118 C 
BRANCH   2   3
ATOM      3  N   UNL A   1      33.462  26.917  24.479  1.00  0.00    -0.352 N 
ATOM      4  C   UNL A   1      33.113  25.883  23.660  1.00  0.00     0.251 C 
ATOM      5  O   UNL A   1      34.029  25.376  23.006  1.00  0.00    -0.270 OA
ATOM      6  H   UNL A   1      34.364  26.835  24.863  1.00  0.00     0.163 HD
BRANCH   4   7
ATOM      7  C   UNL A   1      31.709  25.275  23.616  1.00  0.00     0.067 C 
ATOM      8  C   UNL A   1      33.599  21.991  24.983  1.00  0.00     0.026 A 
ATOM      9  C   UNL A   1      33.300  20.718  24.456  1.00  0.00     0.033 A 
ATOM     10  C   UNL A   1      32.732  23.014  24.604  1.00  0.00     0.135 A 
ATOM     11  C   UNL A   1      32.425  20.584  23.375  1.00  0.00     0.042 A 
ATOM     12  C   UNL A   1      32.103  22.958  23.331  1.00  0.00     0.019 A 
ATOM     13  O   UNL A   1      32.344  24.009  25.530  1.00  0.00    -0.475 OA
ATOM     14  Cl  UNL A   1      32.121  19.022  22.722  1.00  0.00    -0.084 Cl
ATOM     15  C   UNL A   1      31.903  21.714  22.744  1.00  0.00     0.032 A 
ATOM     16  C   UNL A   1      31.637  24.255  22.717  1.00  0.00     0.025 C 
ATOM     17  C   UNL A   1      31.213  24.736  24.951  1.00  0.00     0.314 C 
BRANCH   8  18
ATOM     18  C   UNL A   1      35.054  22.264  25.157  1.00  0.00    -0.014 A 
ATOM     19  C   UNL A   1      37.831  22.413  25.718  1.00  0.00     0.121 A 
ATOM     20  C   UNL A   1      36.971  23.493  25.977  1.00  0.00     0.047 A 
ATOM     21  C   UNL A   1      37.322  21.238  25.163  1.00  0.00    -0.008 A 
ATOM     22  C   UNL A   1      35.592  23.425  25.701  1.00  0.00     0.013 A 
ATOM     23  C   UNL A   1      35.953  21.206  24.848  1.00  0.00     0.016 A 
ATOM     24  C   UNL A   1      38.134  19.995  24.937  1.00  0.00     0.048 C 
BRANCH  19  25
ATOM     25  O   UNL A   1      39.116  22.560  26.169  1.00  0.00    -0.496 OA
ATOM     26  C   UNL A   1      39.366  23.778  26.867  1.00  0.00     0.278 C 
ENDBRANCH  19  25
ENDBRANCH   8  18
BRANCH  17  27
ATOM     27  C   UNL A   1      30.305  25.650  25.781  1.00  0.00     0.429 C 
ATOM     28  F   UNL A   1      29.404  24.907  26.482  1.00  0.00    -0.167 F 
ATOM     29  F   UNL A   1      30.962  26.400  26.680  1.00  0.00    -0.167 F 
ATOM     30  F   UNL A   1      29.552  26.470  25.007  1.00  0.00    -0.167 F 
ENDBRANCH  17  27
ENDBRANCH   4   7
ENDBRANCH   2   3
ENDBRANCH   1   2
BRANCH   1  31
ATOM     31  C   UNL A   1      33.101  29.736  26.836  1.00  0.00     0.118 C 
BRANCH  31  32
ATOM     32  N   UNL A   1      33.662  31.051  27.176  1.00  0.00    -0.352 N 
ATOM     33  C   UNL A   1      34.927  31.382  27.658  1.00  0.00     0.251 C 
ATOM     34  H   UNL A   1      33.053  31.812  27.042  1.00  0.00     0.163 HD
ATOM     35  O   UNL A   1      35.285  32.530  27.743  1.00  0.00    -0.269 OA
BRANCH  33  36
ATOM     36  C   UNL A   1      35.868  30.272  27.940  1.00  0.00     0.039 A 
ATOM     37  C   UNL A   1      35.862  29.734  29.230  1.00  0.00     0.014 A 
ATOM     38  C   UNL A   1      36.932  30.061  27.075  1.00  0.00     0.014 A 
ATOM     39  C   UNL A   1      37.059  29.272  29.761  1.00  0.00     0.010 A 
ATOM     40  C   UNL A   1      38.144  29.729  27.638  1.00  0.00     0.010 A 
ATOM     41  C   UNL A   1      38.218  29.424  29.005  1.00  0.00    -0.014 A 
BRANCH  41  42
ATOM     42  C   UNL A   1      39.555  29.456  29.590  1.00  0.00     0.031 A 
ATOM     43  C   UNL A   1      40.407  28.253  29.544  1.00  0.00     0.074 A 
ATOM     44  C   UNL A   1      40.051  30.632  30.039  1.00  0.00     0.049 A 
ATOM     45  N   UNL A   1      41.482  28.091  30.234  1.00  0.00    -0.248 NA
ATOM     46  C   UNL A   1      40.064  27.088  28.742  1.00  0.00     0.031 C 
ATOM     47  C   UNL A   1      41.446  30.958  30.321  1.00  0.00     0.029 A 
ATOM     48  N   UNL A   1      39.331  31.728  30.543  1.00  0.00    -0.354 N 
ATOM     49  C   UNL A   1      42.114  26.955  29.780  1.00  0.00     0.074 A 
ATOM     50  C   UNL A   1      41.151  26.331  28.905  1.00  0.00     0.031 C 
ATOM     51  C   UNL A   1      41.486  31.988  31.180  1.00  0.00     0.029 A 
ATOM     52  C   UNL A   1      40.120  32.256  31.590  1.00  0.00     0.049 A 
ATOM     53  H   UNL A   1      38.458  32.059  30.232  1.00  0.00     0.167 HD
ATOM     54  C   UNL A   1      43.423  26.757  30.112  1.00  0.00     0.037 A 
ATOM     55  C   UNL A   1      39.690  32.263  32.884  1.00  0.00     0.037 A 
ATOM     56  C   UNL A   1      43.848  27.733  31.121  1.00  0.00     0.049 A 
ATOM     57  C   UNL A   1      40.594  31.505  33.829  1.00  0.00     0.074 A 
ATOM     58  C   UNL A   1      44.558  28.921  31.053  1.00  0.00     0.029 A 
ATOM     59  N   UNL A   1      43.264  27.698  32.385  1.00  0.00    -0.354 N 
ATOM     60  N   UNL A   1      41.455  30.605  33.444  1.00  0.00    -0.248 NA
ATOM     61  C   UNL A   1      40.592  31.690  35.277  1.00  0.00     0.031 C 
ATOM     62  C   UNL A   1      44.345  29.630  32.263  1.00  0.00     0.029 A 
ATOM     63  C   UNL A   1      43.525  28.865  33.076  1.00  0.00     0.049 A 
ATOM     64  H   UNL A   1      42.736  26.945  32.736  1.00  0.00     0.167 HD
ATOM     65  C   UNL A   1      42.088  30.074  34.538  1.00  0.00     0.074 A 
ATOM     66  C   UNL A   1      41.529  30.805  35.661  1.00  0.00     0.031 C 
ATOM     67  C   UNL A   1      43.006  29.069  34.423  1.00  0.00     0.037 A 
BRANCH  54  68
ATOM     68  C   UNL A   1      44.391  25.874  29.340  1.00  0.00     0.057 A 
ATOM     69  C   UNL A   1      45.171  26.414  28.294  1.00  0.00     0.134 A 
ATOM     70  C   UNL A   1      44.553  24.486  29.499  1.00  0.00     0.134 A 
ATOM     71  F   UNL A   1      45.222  27.731  28.060  1.00  0.00    -0.206 F 
ATOM     72  C   UNL A   1      45.947  25.629  27.427  1.00  0.00     0.040 A 
ATOM     73  C   UNL A   1      45.291  23.684  28.616  1.00  0.00     0.040 A 
ATOM     74  F   UNL A   1      44.063  23.827  30.551  1.00  0.00    -0.206 F 
ATOM     75  C   UNL A   1      45.982  24.252  27.563  1.00  0.00     0.006 A 
ENDBRANCH  54  68
BRANCH  55  76
ATOM     76  C   UNL A   1      38.215  32.380  33.011  1.00  0.00     0.057 A 
ATOM     77  C   UNL A   1      37.631  33.651  32.869  1.00  0.00     0.134 A 
ATOM     78  C   UNL A   1      37.373  31.273  32.869  1.00  0.00     0.134 A 
ATOM     79  F   UNL A   1      38.385  34.756  32.998  1.00  0.00    -0.206 F 
ATOM     80  C   UNL A   1      36.300  33.814  32.478  1.00  0.00     0.040 A 
ATOM     81  C   UNL A   1      36.032  31.426  32.492  1.00  0.00     0.040 A 
ATOM     82  F   UNL A   1      37.859  30.029  32.969  1.00  0.00    -0.206 F 
ATOM     83  C   UNL A   1      35.506  32.696  32.253  1.00  0.00     0.006 A 
ENDBRANCH  55  76
BRANCH  67  84
ATOM     84  C   UNL A   1      43.561  28.231  35.553  1.00  0.00     0.057 A 
ATOM     85  C   UNL A   1      44.771  28.490  36.214  1.00  0.00     0.134 A 
ATOM     86  C   UNL A   1      42.785  27.195  36.124  1.00  0.00     0.134 A 
ATOM     87  F   UNL A   1      45.561  29.514  35.864  1.00  0.00    -0.206 F 
ATOM     88  C   UNL A   1      45.204  27.742  37.318  1.00  0.00     0.040 A 
ATOM     89  C   UNL A   1      43.180  26.480  37.259  1.00  0.00     0.040 A 
ATOM     90  F   UNL A   1      41.592  26.846  35.620  1.00  0.00    -0.206 F 
ATOM     91  C   UNL A   1      44.403  26.742  37.854  1.00  0.00     0.006 A 
ENDBRANCH  67  84
ENDBRANCH  41  42
ENDBRANCH  33  36
ENDBRANCH  31  32
ENDBRANCH   1  31
TORSDOF 13
ENDMDL
MODEL 2
REMARK VINA RESULT:     -12.5      1.720      2.446
REMARK SMILES COc1ccc(-c2cc(Cl)cc3c2O[C@@H](C(F)(F)F)C(C(=O)NCCCNC(=O)c2ccc(-c4c5nc(c(-c6c(F)cccc6F)c6ccc([nH]6)c(-c6c(F)cccc6F)c6nc(c(-c7c(F)cccc7F)c7ccc4[nH]7)C=C6)C=C5)cc2)=C3)cc1C
REMARK SMILES IDX 25 1 24 2 23 3 21 4 22 5 20 7 7 8 8 9 13 10 9 11 12 12 14 13
REMARK SMILES IDX 10 14 11 15 84 16 15 17 6 18 3 19 4 20 86 21 5 22 85 23
REMARK SMILES IDX 87 24 2 25 1 26 16 27 17 28 18 29 19 30 26 31 27 32 28 33
REMARK SMILES IDX 29 35 30 36 31 37 83 38 32 39 82 40 33 41 34 42 35 43 76 44
REMARK SMILES IDX 36 45 81 46 75 47 77 48 37 49 80 50 74 51 73 52 38 54 64 55
REMARK SMILES IDX 47 56 63 57 48 58 51 59 62 60 78 61 49 62 50 63 61 65 79 66
REMARK SMILES IDX 52 67 39 68 40 69 45 70 41 71 42 72 44 73 46 74 43 75 65 76
REMARK SMILES IDX 66 77 71 78 67 79 68 80 70 81 72 82 69 83 53 84 54 85 59 86
REMARK SMILES IDX 55 87 56 88 58 89 60 90 57 91
REMARK H PARENT 23 6 27 34 77 53 51 64
REMARK Flexibility Score: inf
ROOT
ATOM      1  C   UNL A   1      34.424  27.941  26.837  1.00  0.00     0.042 C 
ENDROOT
BRANCH   1   2
ATOM      2  C   UNL A   1      33.644  27.772  25.536  1.00  0.00     0.118 C 
BRANCH   2   3
ATOM      3  N   UNL A   1      34.163  26.723  24.679  1.00  0.00    -0.352 N 
ATOM      4  C   UNL A   1      33.597  26.009  23.663  1.00  0.00     0.251 C 
ATOM      5  O   UNL A   1      34.352  25.679  22.745  1.00  0.00    -0.270 OA
ATOM      6  H   UNL A   1      35.099  26.480  24.865  1.00  0.00     0.163 HD
BRANCH   4   7
ATOM      7  C   UNL A   1      32.147  25.520  23.680  1.00  0.00     0.067 C 
ATOM      8  C   UNL A   1      33.806  22.118  25.057  1.00  0.00     0.026 A 
ATOM      9  C   UNL A   1      33.385  20.864  24.570  1.00  0.00     0.033 A 
ATOM     10  C   UNL A   1      33.014  23.202  24.685  1.00  0.00     0.135 A 
ATOM     11  C   UNL A   1      32.464  20.782  23.522  1.00  0.00     0.042 A 
ATOM     12  C   UNL A   1      32.338  23.173  23.435  1.00  0.00     0.019 A 
ATOM     13  O   UNL A   1      32.742  24.243  25.600  1.00  0.00    -0.475 OA
ATOM     14  Cl  UNL A   1      32.010  19.238  22.915  1.00  0.00    -0.084 Cl
ATOM     15  C   UNL A   1      32.016  21.939  22.883  1.00  0.00     0.032 A 
ATOM     16  C   UNL A   1      31.959  24.492  22.807  1.00  0.00     0.025 C 
ATOM     17  C   UNL A   1      31.655  25.051  25.042  1.00  0.00     0.314 C 
BRANCH   8  18
ATOM     18  C   UNL A   1      35.284  22.272  25.177  1.00  0.00    -0.014 A 
ATOM     19  C   UNL A   1      38.081  22.202  25.643  1.00  0.00     0.121 A 
ATOM     20  C   UNL A   1      37.323  23.356  25.900  1.00  0.00     0.047 A 
ATOM     21  C   UNL A   1      37.458  21.060  25.137  1.00  0.00    -0.008 A 
ATOM     22  C   UNL A   1      35.935  23.397  25.671  1.00  0.00     0.013 A 
ATOM     23  C   UNL A   1      36.081  21.136  24.868  1.00  0.00     0.016 A 
ATOM     24  C   UNL A   1      38.156  19.748  24.919  1.00  0.00     0.048 C 
BRANCH  19  25
ATOM     25  O   UNL A   1      39.389  22.252  26.048  1.00  0.00    -0.496 OA
ATOM     26  C   UNL A   1      39.687  23.299  26.969  1.00  0.00     0.278 C 
ENDBRANCH  19  25
ENDBRANCH   8  18
BRANCH  17  27
ATOM     27  C   UNL A   1      30.856  26.053  25.882  1.00  0.00     0.429 C 
ATOM     28  F   UNL A   1      31.508  26.317  27.048  1.00  0.00    -0.167 F 
ATOM     29  F   UNL A   1      30.661  27.236  25.278  1.00  0.00    -0.167 F 
ATOM     30  F   UNL A   1      29.651  25.563  26.262  1.00  0.00    -0.167 F 
ENDBRANCH  17  27
ENDBRANCH   4   7
ENDBRANCH   2   3
ENDBRANCH   1   2
BRANCH   1  31
ATOM     31  C   UNL A   1      34.828  29.379  27.137  1.00  0.00     0.118 C 
BRANCH  31  32
ATOM     32  N   UNL A   1      33.731  30.340  26.963  1.00  0.00    -0.352 N 
ATOM     33  C   UNL A   1      33.568  31.614  27.502  1.00  0.00     0.251 C 
ATOM     34  H   UNL A   1      33.002  30.039  26.374  1.00  0.00     0.163 HD
ATOM     35  O   UNL A   1      32.679  32.341  27.138  1.00  0.00    -0.269 OA
BRANCH  33  36
ATOM     36  C   UNL A   1      34.604  32.098  28.446  1.00  0.00     0.039 A 
ATOM     37  C   UNL A   1      35.572  32.975  27.946  1.00  0.00     0.014 A 
ATOM     38  C   UNL A   1      34.797  31.413  29.637  1.00  0.00     0.014 A 
ATOM     39  C   UNL A   1      36.858  32.906  28.466  1.00  0.00     0.010 A 
ATOM     40  C   UNL A   1      36.096  31.247  30.064  1.00  0.00     0.010 A 
ATOM     41  C   UNL A   1      37.136  31.926  29.415  1.00  0.00    -0.014 A 
BRANCH  41  42
ATOM     42  C   UNL A   1      38.480  31.419  29.669  1.00  0.00     0.031 A 
ATOM     43  C   UNL A   1      38.919  30.155  29.050  1.00  0.00     0.074 A 
ATOM     44  C   UNL A   1      39.358  32.190  30.353  1.00  0.00     0.049 A 
ATOM     45  N   UNL A   1      39.971  29.497  29.394  1.00  0.00    -0.248 NA
ATOM     46  C   UNL A   1      38.147  29.490  28.010  1.00  0.00     0.031 C 
ATOM     47  C   UNL A   1      40.810  32.046  30.410  1.00  0.00     0.029 A 
ATOM     48  N   UNL A   1      39.067  33.156  31.330  1.00  0.00    -0.354 N 
ATOM     49  C   UNL A   1      40.172  28.497  28.469  1.00  0.00     0.074 A 
ATOM     50  C   UNL A   1      38.968  28.492  27.675  1.00  0.00     0.031 C 
ATOM     51  C   UNL A   1      41.261  32.639  31.525  1.00  0.00     0.029 A 
ATOM     52  C   UNL A   1      40.099  33.052  32.290  1.00  0.00     0.049 A 
ATOM     53  H   UNL A   1      38.304  33.776  31.344  1.00  0.00     0.167 HD
ATOM     54  C   UNL A   1      41.392  27.885  28.421  1.00  0.00     0.037 A 
ATOM     55  C   UNL A   1      39.851  32.678  33.578  1.00  0.00     0.037 A 
ATOM     56  C   UNL A   1      42.209  28.284  29.573  1.00  0.00     0.049 A 
ATOM     57  C   UNL A   1      40.593  31.432  34.003  1.00  0.00     0.074 A 
ATOM     58  C   UNL A   1      43.230  29.206  29.738  1.00  0.00     0.029 A 
ATOM     59  N   UNL A   1      41.799  27.920  30.853  1.00  0.00    -0.354 N 
ATOM     60  N   UNL A   1      41.091  30.563  33.167  1.00  0.00    -0.248 NA
ATOM     61  C   UNL A   1      40.822  31.059  35.396  1.00  0.00     0.031 C 
ATOM     62  C   UNL A   1      43.388  29.442  31.128  1.00  0.00     0.029 A 
ATOM     63  C   UNL A   1      42.481  28.648  31.808  1.00  0.00     0.049 A 
ATOM     64  H   UNL A   1      41.116  27.239  31.049  1.00  0.00     0.167 HD
ATOM     65  C   UNL A   1      41.662  29.529  33.863  1.00  0.00     0.074 A 
ATOM     66  C   UNL A   1      41.489  29.899  35.256  1.00  0.00     0.031 C 
ATOM     67  C   UNL A   1      42.215  28.452  33.228  1.00  0.00     0.037 A 
BRANCH  54  68
ATOM     68  C   UNL A   1      41.948  27.150  27.213  1.00  0.00     0.057 A 
ATOM     69  C   UNL A   1      42.404  25.819  27.333  1.00  0.00     0.134 A 
ATOM     70  C   UNL A   1      42.151  27.697  25.932  1.00  0.00     0.134 A 
ATOM     71  F   UNL A   1      42.207  25.105  28.448  1.00  0.00    -0.206 F 
ATOM     72  C   UNL A   1      43.091  25.144  26.313  1.00  0.00     0.040 A 
ATOM     73  C   UNL A   1      42.871  27.050  24.917  1.00  0.00     0.040 A 
ATOM     74  F   UNL A   1      41.613  28.859  25.560  1.00  0.00    -0.206 F 
ATOM     75  C   UNL A   1      43.359  25.772  25.108  1.00  0.00     0.006 A 
ENDBRANCH  54  68
BRANCH  55  76
ATOM     76  C   UNL A   1      38.507  33.087  34.058  1.00  0.00     0.057 A 
ATOM     77  C   UNL A   1      38.252  34.457  34.247  1.00  0.00     0.134 A 
ATOM     78  C   UNL A   1      37.398  32.242  33.951  1.00  0.00     0.134 A 
ATOM     79  F   UNL A   1      39.274  35.321  34.361  1.00  0.00    -0.206 F 
ATOM     80  C   UNL A   1      36.958  34.981  34.203  1.00  0.00     0.040 A 
ATOM     81  C   UNL A   1      36.095  32.756  33.921  1.00  0.00     0.040 A 
ATOM     82  F   UNL A   1      37.559  30.927  33.749  1.00  0.00    -0.206 F 
ATOM     83  C   UNL A   1      35.877  34.131  34.003  1.00  0.00     0.006 A 
ENDBRANCH  55  76
BRANCH  67  84
ATOM     84  C   UNL A   1      42.625  27.148  33.875  1.00  0.00     0.057 A 
ATOM     85  C   UNL A   1      41.749  26.285  34.550  1.00  0.00     0.134 A 
ATOM     86  C   UNL A   1      43.932  26.638  33.691  1.00  0.00     0.134 A 
ATOM     87  F   UNL A   1      40.449  26.576  34.700  1.00  0.00    -0.206 F 
ATOM     88  C   UNL A   1      42.153  25.041  35.055  1.00  0.00     0.040 A 
ATOM     89  C   UNL A   1      44.330  25.375  34.140  1.00  0.00     0.040 A 
ATOM     90  F   UNL A   1      44.877  27.334  33.042  1.00  0.00    -0.206 F 
ATOM     91  C   UNL A   1      43.442  24.575  34.840  1.00  0.00     0.006 A 
ENDBRANCH  67  84
ENDBRANCH  41  42
ENDBRANCH  33  36
ENDBRANCH  31  32
ENDBRANCH   1  31
TORSDOF 13
ENDMDL
MODEL 3
REMARK VINA RESULT:     -12.3      3.333      8.510
REMARK SMILES COc1ccc(-c2cc(Cl)cc3c2O[C@@H](C(F)(F)F)C(C(=O)NCCCNC(=O)c2ccc(-c4c5nc(c(-c6c(F)cccc6F)c6ccc([nH]6)c(-c6c(F)cccc6F)c6nc(c(-c7c(F)cccc7F)c7ccc4[nH]7)C=C6)C=C5)cc2)=C3)cc1C
REMARK SMILES IDX 25 1 24 2 23 3 21 4 22 5 20 7 7 8 8 9 13 10 9 11 12 12 14 13
REMARK SMILES IDX 10 14 11 15 84 16 15 17 6 18 3 19 4 20 86 21 5 22 85 23
REMARK SMILES IDX 87 24 2 25 1 26 16 27 17 28 18 29 19 30 26 31 27 32 28 33
REMARK SMILES IDX 29 35 30 36 31 37 83 38 32 39 82 40 33 41 34 42 35 43 76 44
REMARK SMILES IDX 36 45 81 46 75 47 77 48 37 49 80 50 74 51 73 52 38 54 64 55
REMARK SMILES IDX 47 56 63 57 48 58 51 59 62 60 78 61 49 62 50 63 61 65 79 66
REMARK SMILES IDX 52 67 39 68 40 69 45 70 41 71 42 72 44 73 46 74 43 75 65 76
REMARK SMILES IDX 66 77 71 78 67 79 68 80 70 81 72 82 69 83 53 84 54 85 59 86
REMARK SMILES IDX 55 87 56 88 58 89 60 90 57 91
REMARK H PARENT 23 6 27 34 77 53 51 64
REMARK Flexibility Score: inf
ROOT
ATOM      1  C   UNL A   1      37.340  24.158  25.855  1.00  0.00     0.042 C 
ENDROOT
BRANCH   1   2
ATOM      2  C   UNL A   1      36.048  23.375  26.066  1.00  0.00     0.118 C 
BRANCH   2   3
ATOM      3  N   UNL A   1      34.934  24.198  26.501  1.00  0.00    -0.352 N 
ATOM      4  C   UNL A   1      33.584  24.039  26.391  1.00  0.00     0.251 C 
ATOM      5  O   UNL A   1      32.907  24.486  27.322  1.00  0.00    -0.270 OA
ATOM      6  H   UNL A   1      35.203  25.025  26.961  1.00  0.00     0.163 HD
BRANCH   4   7
ATOM      7  C   UNL A   1      32.899  23.459  25.152  1.00  0.00     0.067 C 
ATOM      8  C   UNL A   1      31.890  27.303  24.491  1.00  0.00     0.026 A 
ATOM      9  C   UNL A   1      30.589  27.642  24.071  1.00  0.00     0.033 A 
ATOM     10  C   UNL A   1      32.191  25.942  24.467  1.00  0.00     0.135 A 
ATOM     11  C   UNL A   1      29.592  26.665  23.983  1.00  0.00     0.042 A 
ATOM     12  C   UNL A   1      31.156  24.996  24.697  1.00  0.00     0.019 A 
ATOM     13  O   UNL A   1      33.465  25.493  24.053  1.00  0.00    -0.475 OA
ATOM     14  Cl  UNL A   1      28.001  27.121  23.517  1.00  0.00    -0.084 Cl
ATOM     15  C   UNL A   1      29.848  25.357  24.394  1.00  0.00     0.032 A 
ATOM     16  C   UNL A   1      31.549  23.630  25.204  1.00  0.00     0.025 C 
ATOM     17  C   UNL A   1      33.377  24.049  23.833  1.00  0.00     0.314 C 
BRANCH   8  18
ATOM     18  C   UNL A   1      32.443  28.176  25.564  1.00  0.00    -0.014 A 
ATOM     19  C   UNL A   1      33.472  30.159  27.313  1.00  0.00     0.121 A 
ATOM     20  C   UNL A   1      34.138  28.938  27.115  1.00  0.00     0.047 A 
ATOM     21  C   UNL A   1      32.271  30.411  26.648  1.00  0.00    -0.008 A 
ATOM     22  C   UNL A   1      33.633  27.951  26.249  1.00  0.00     0.013 A 
ATOM     23  C   UNL A   1      31.756  29.393  25.827  1.00  0.00     0.016 A 
ATOM     24  C   UNL A   1      31.531  31.716  26.715  1.00  0.00     0.048 C 
BRANCH  19  25
ATOM     25  O   UNL A   1      34.147  31.085  28.064  1.00  0.00    -0.496 OA
ATOM     26  C   UNL A   1      35.500  31.299  27.670  1.00  0.00     0.278 C 
ENDBRANCH  19  25
ENDBRANCH   8  18
BRANCH  17  27
ATOM     27  C   UNL A   1      34.442  23.264  23.060  1.00  0.00     0.429 C 
ATOM     28  F   UNL A   1      34.695  22.077  23.680  1.00  0.00    -0.167 F 
ATOM     29  F   UNL A   1      34.094  22.967  21.798  1.00  0.00    -0.167 F 
ATOM     30  F   UNL A   1      35.638  23.903  23.035  1.00  0.00    -0.167 F 
ENDBRANCH  17  27
ENDBRANCH   4   7
ENDBRANCH   2   3
ENDBRANCH   1   2
BRANCH   1  31
ATOM     31  C   UNL A   1      38.543  23.583  26.593  1.00  0.00     0.118 C 
BRANCH  31  32
ATOM     32  N   UNL A   1      38.818  22.181  26.253  1.00  0.00    -0.352 N 
ATOM     33  C   UNL A   1      40.008  21.461  26.334  1.00  0.00     0.251 C 
ATOM     34  H   UNL A   1      38.044  21.673  25.918  1.00  0.00     0.163 HD
ATOM     35  O   UNL A   1      40.034  20.269  26.160  1.00  0.00    -0.269 OA
BRANCH  33  36
ATOM     36  C   UNL A   1      41.223  22.190  26.772  1.00  0.00     0.039 A 
ATOM     37  C   UNL A   1      41.639  22.012  28.094  1.00  0.00     0.014 A 
ATOM     38  C   UNL A   1      41.671  23.260  26.012  1.00  0.00     0.014 A 
ATOM     39  C   UNL A   1      42.235  23.082  28.750  1.00  0.00     0.010 A 
ATOM     40  C   UNL A   1      42.139  24.363  26.691  1.00  0.00     0.010 A 
ATOM     41  C   UNL A   1      42.332  24.297  28.078  1.00  0.00    -0.014 A 
BRANCH  41  42
ATOM     42  C   UNL A   1      42.458  25.579  28.763  1.00  0.00     0.031 A 
ATOM     43  C   UNL A   1      41.300  26.489  28.841  1.00  0.00     0.074 A 
ATOM     44  C   UNL A   1      43.595  25.855  29.443  1.00  0.00     0.049 A 
ATOM     45  N   UNL A   1      41.362  27.727  29.193  1.00  0.00    -0.248 NA
ATOM     46  C   UNL A   1      39.958  26.074  28.456  1.00  0.00     0.031 C 
ATOM     47  C   UNL A   1      43.793  26.883  30.462  1.00  0.00     0.029 A 
ATOM     48  N   UNL A   1      44.889  25.376  29.178  1.00  0.00    -0.354 N 
ATOM     49  C   UNL A   1      40.076  28.192  29.350  1.00  0.00     0.074 A 
ATOM     50  C   UNL A   1      39.245  27.146  28.806  1.00  0.00     0.031 C 
ATOM     51  C   UNL A   1      45.101  27.174  30.535  1.00  0.00     0.029 A 
ATOM     52  C   UNL A   1      45.760  26.451  29.464  1.00  0.00     0.049 A 
ATOM     53  H   UNL A   1      45.136  24.479  28.859  1.00  0.00     0.167 HD
ATOM     54  C   UNL A   1      39.881  29.355  30.037  1.00  0.00     0.037 A 
ATOM     55  C   UNL A   1      46.527  27.033  28.498  1.00  0.00     0.037 A 
ATOM     56  C   UNL A   1      41.163  30.023  30.287  1.00  0.00     0.049 A 
ATOM     57  C   UNL A   1      46.260  28.511  28.319  1.00  0.00     0.074 A 
ATOM     58  C   UNL A   1      41.998  30.090  31.391  1.00  0.00     0.029 A 
ATOM     59  N   UNL A   1      41.903  30.494  29.206  1.00  0.00    -0.354 N 
ATOM     60  N   UNL A   1      45.170  29.105  28.717  1.00  0.00    -0.248 NA
ATOM     61  C   UNL A   1      47.190  29.429  27.668  1.00  0.00     0.031 C 
ATOM     62  C   UNL A   1      43.268  30.546  30.953  1.00  0.00     0.029 A 
ATOM     63  C   UNL A   1      43.199  30.779  29.589  1.00  0.00     0.049 A 
ATOM     64  H   UNL A   1      41.551  30.608  28.294  1.00  0.00     0.167 HD
ATOM     65  C   UNL A   1      45.215  30.430  28.371  1.00  0.00     0.074 A 
ATOM     66  C   UNL A   1      46.511  30.590  27.737  1.00  0.00     0.031 C 
ATOM     67  C   UNL A   1      44.172  31.277  28.625  1.00  0.00     0.037 A 
BRANCH  54  68
ATOM     68  C   UNL A   1      38.581  29.755  30.717  1.00  0.00     0.057 A 
ATOM     69  C   UNL A   1      37.958  30.982  30.401  1.00  0.00     0.134 A 
ATOM     70  C   UNL A   1      37.930  29.045  31.742  1.00  0.00     0.134 A 
ATOM     71  F   UNL A   1      38.379  31.746  29.386  1.00  0.00    -0.206 F 
ATOM     72  C   UNL A   1      36.863  31.496  31.113  1.00  0.00     0.040 A 
ATOM     73  C   UNL A   1      36.861  29.563  32.488  1.00  0.00     0.040 A 
ATOM     74  F   UNL A   1      38.242  27.784  32.044  1.00  0.00    -0.206 F 
ATOM     75  C   UNL A   1      36.330  30.802  32.186  1.00  0.00     0.006 A 
ENDBRANCH  54  68
BRANCH  55  76
ATOM     76  C   UNL A   1      46.928  26.093  27.421  1.00  0.00     0.057 A 
ATOM     77  C   UNL A   1      46.131  26.021  26.266  1.00  0.00     0.134 A 
ATOM     78  C   UNL A   1      48.229  25.589  27.330  1.00  0.00     0.134 A 
ATOM     79  F   UNL A   1      44.871  26.484  26.288  1.00  0.00    -0.206 F 
ATOM     80  C   UNL A   1      46.643  25.587  25.040  1.00  0.00     0.040 A 
ATOM     81  C   UNL A   1      48.748  25.137  26.110  1.00  0.00     0.040 A 
ATOM     82  F   UNL A   1      49.057  25.641  28.383  1.00  0.00    -0.206 F 
ATOM     83  C   UNL A   1      47.968  25.177  24.954  1.00  0.00     0.006 A 
ENDBRANCH  55  76
BRANCH  67  84
ATOM     84  C   UNL A   1      43.994  32.669  28.061  1.00  0.00     0.057 A 
ATOM     85  C   UNL A   1      44.029  33.846  28.823  1.00  0.00     0.134 A 
ATOM     86  C   UNL A   1      43.932  32.872  26.662  1.00  0.00     0.134 A 
ATOM     87  F   UNL A   1      44.203  33.820  30.152  1.00  0.00    -0.206 F 
ATOM     88  C   UNL A   1      43.951  35.122  28.247  1.00  0.00     0.040 A 
ATOM     89  C   UNL A   1      43.912  34.141  26.074  1.00  0.00     0.040 A 
ATOM     90  F   UNL A   1      43.917  31.845  25.799  1.00  0.00    -0.206 F 
ATOM     91  C   UNL A   1      43.905  35.274  26.869  1.00  0.00     0.006 A 
ENDBRANCH  67  84
ENDBRANCH  41  42
ENDBRANCH  33  36
ENDBRANCH  31  32
ENDBRANCH   1  31
TORSDOF 13
ENDMDL
