MODEL 1
REMARK VINA RESULT:     -11.9      0.000      0.000
REMARK SMILES Cc1nn(C)c2c1nc(SCC(=O)NCCCNC(=O)c1ccc(-c3c4nc(c(-c5c(F)cccc5F)c5ccc([nH]5)c(-c5c(F)cccc5F)c5nc(c(-c6c(F)cccc6F)c6ccc3[nH]6)C=C5)C=C4)cc1)n2[C@H]1CC[N@@H+](C)C1
REMARK SMILES IDX 15 1 14 2 12 3 13 4 11 6 10 7 9 8 1 9 2 10 3 11 7 12 4 13
REMARK SMILES IDX 6 14 8 15 5 16 75 17 76 18 77 19 81 20 78 21 79 22 80 23
REMARK SMILES IDX 16 25 17 26 18 27 19 28 20 30 21 31 22 32 74 33 23 34 73 35
REMARK SMILES IDX 24 36 25 37 26 38 67 39 27 40 72 41 66 42 68 43 28 44 71 45
REMARK SMILES IDX 65 46 64 47 29 49 55 50 38 51 54 52 39 53 42 54 53 55 69 56
REMARK SMILES IDX 40 57 41 58 52 60 70 61 43 62 30 63 31 64 36 65 32 66 33 67
REMARK SMILES IDX 35 68 37 69 34 70 56 71 57 72 62 73 58 74 59 75 61 76 63 77
REMARK SMILES IDX 60 78 44 79 45 80 50 81 46 82 47 83 49 84 51 85 48 86
REMARK H PARENT 14 5 79 24 18 29 68 48 42 59
REMARK Flexibility Score: inf
ROOT
ATOM      1  C   UNL A   1      40.841  19.953  27.086  1.00  0.00     0.117 C 
ENDROOT
BRANCH   1   2
ATOM      2  N   UNL A   1      40.406  21.340  26.973  1.00  0.00    -0.355 N 
ATOM      3  C   UNL A   1      39.363  21.910  26.297  1.00  0.00     0.230 C 
ATOM      4  O   UNL A   1      39.191  23.121  26.458  1.00  0.00    -0.274 OA
ATOM      5  H   UNL A   1      40.963  21.980  27.471  1.00  0.00     0.163 HD
BRANCH   3   6
ATOM      6  C   UNL A   1      38.365  21.083  25.516  1.00  0.00     0.178 C 
BRANCH   6   7
ATOM      7  S   UNL A   1      37.314  22.020  24.411  1.00  0.00    -0.078 SA
BRANCH   7   8
ATOM      8  C   UNL A   1      35.686  21.492  24.696  1.00  0.00     0.171 A 
ATOM      9  C   UNL A   1      32.709  18.129  25.375  1.00  0.00     0.071 C 
ATOM     10  C   UNL A   1      32.823  19.598  25.277  1.00  0.00     0.087 A 
ATOM     11  N   UNL A   1      31.720  20.366  25.369  1.00  0.00    -0.174 NA
ATOM     12  C   UNL A   1      33.942  20.406  25.069  1.00  0.00     0.132 A 
ATOM     13  N   UNL A   1      32.173  21.638  25.215  1.00  0.00    -0.250 N 
ATOM     14  C   UNL A   1      33.511  21.685  24.962  1.00  0.00     0.159 A 
ATOM     15  N   UNL A   1      35.277  20.259  24.919  1.00  0.00    -0.219 NA
ATOM     16  C   UNL A   1      31.217  22.701  25.397  1.00  0.00     0.176 C 
ATOM     17  N   UNL A   1      34.622  22.406  24.630  1.00  0.00    -0.295 N 
BRANCH  17  18
ATOM     18  C   UNL A   1      34.769  23.773  24.154  1.00  0.00     0.152 C 
ATOM     19  C   UNL A   1      33.955  24.041  22.867  1.00  0.00     0.093 C 
ATOM     20  C   UNL A   1      34.351  24.918  25.076  1.00  0.00     0.288 C 
ATOM     21  C   UNL A   1      33.097  25.254  23.169  1.00  0.00     0.264 C 
ATOM     22  N   UNL A   1      33.906  25.970  24.155  1.00  0.00    -0.336 N 
ATOM     23  C   UNL A   1      33.129  27.001  24.834  1.00  0.00     0.332 C 
ATOM     24  H   UNL A   1      34.688  26.471  23.735  1.00  0.00     0.347 HD
ENDBRANCH  17  18
ENDBRANCH   7   8
ENDBRANCH   6   7
ENDBRANCH   3   6
ENDBRANCH   1   2
BRANCH   1  25
ATOM     25  C   UNL A   1      41.698  19.491  25.901  1.00  0.00     0.042 C 
BRANCH  25  26
ATOM     26  C   UNL A   1      43.118  19.108  26.293  1.00  0.00     0.118 C 
BRANCH  26  27
ATOM     27  N   UNL A   1      44.035  18.989  25.153  1.00  0.00    -0.352 N 
ATOM     28  C   UNL A   1      44.525  20.007  24.359  1.00  0.00     0.251 C 
ATOM     29  H   UNL A   1      44.334  18.079  24.928  1.00  0.00     0.163 HD
ATOM     30  O   UNL A   1      44.983  19.776  23.237  1.00  0.00    -0.269 OA
BRANCH  28  31
ATOM     31  C   UNL A   1      44.506  21.382  24.879  1.00  0.00     0.039 A 
ATOM     32  C   UNL A   1      43.521  22.309  24.523  1.00  0.00     0.014 A 
ATOM     33  C   UNL A   1      45.494  21.711  25.800  1.00  0.00     0.014 A 
ATOM     34  C   UNL A   1      43.494  23.543  25.173  1.00  0.00     0.010 A 
ATOM     35  C   UNL A   1      45.348  22.829  26.570  1.00  0.00     0.010 A 
ATOM     36  C   UNL A   1      44.404  23.785  26.213  1.00  0.00    -0.014 A 
BRANCH  36  37
ATOM     37  C   UNL A   1      44.333  24.979  27.047  1.00  0.00     0.031 A 
ATOM     38  C   UNL A   1      45.394  25.983  26.763  1.00  0.00     0.074 A 
ATOM     39  C   UNL A   1      43.224  25.260  27.771  1.00  0.00     0.049 A 
ATOM     40  N   UNL A   1      46.340  26.385  27.546  1.00  0.00    -0.248 NA
ATOM     41  C   UNL A   1      45.518  26.490  25.384  1.00  0.00     0.031 C 
ATOM     42  C   UNL A   1      41.974  24.487  27.843  1.00  0.00     0.029 A 
ATOM     43  N   UNL A   1      42.916  26.372  28.490  1.00  0.00    -0.354 N 
ATOM     44  C   UNL A   1      47.022  27.377  26.841  1.00  0.00     0.074 A 
ATOM     45  C   UNL A   1      46.629  27.225  25.468  1.00  0.00     0.031 C 
ATOM     46  C   UNL A   1      40.986  25.260  28.341  1.00  0.00     0.029 A 
ATOM     47  C   UNL A   1      41.560  26.512  28.787  1.00  0.00     0.049 A 
ATOM     48  H   UNL A   1      43.594  27.025  28.779  1.00  0.00     0.167 HD
ATOM     49  C   UNL A   1      47.602  28.422  27.497  1.00  0.00     0.037 A 
ATOM     50  C   UNL A   1      40.956  27.599  29.331  1.00  0.00     0.037 A 
ATOM     51  C   UNL A   1      47.739  28.120  28.904  1.00  0.00     0.049 A 
ATOM     52  C   UNL A   1      42.022  28.424  29.950  1.00  0.00     0.074 A 
ATOM     53  C   UNL A   1      48.363  27.132  29.641  1.00  0.00     0.029 A 
ATOM     54  N   UNL A   1      46.841  28.709  29.761  1.00  0.00    -0.354 N 
ATOM     55  N   UNL A   1      42.712  28.052  30.992  1.00  0.00    -0.248 NA
ATOM     56  C   UNL A   1      42.641  29.445  29.120  1.00  0.00     0.031 C 
ATOM     57  C   UNL A   1      47.474  26.864  30.726  1.00  0.00     0.029 A 
ATOM     58  C   UNL A   1      46.403  27.754  30.637  1.00  0.00     0.049 A 
ATOM     59  H   UNL A   1      46.560  29.652  29.746  1.00  0.00     0.167 HD
ATOM     60  C   UNL A   1      44.012  28.443  30.707  1.00  0.00     0.074 A 
ATOM     61  C   UNL A   1      43.892  29.371  29.582  1.00  0.00     0.031 C 
ATOM     62  C   UNL A   1      45.076  27.746  31.207  1.00  0.00     0.037 A 
BRANCH  49  63
ATOM     63  C   UNL A   1      47.611  29.859  26.998  1.00  0.00     0.057 A 
ATOM     64  C   UNL A   1      48.804  30.602  27.128  1.00  0.00     0.134 A 
ATOM     65  C   UNL A   1      46.467  30.635  26.718  1.00  0.00     0.134 A 
ATOM     66  F   UNL A   1      49.976  29.991  27.359  1.00  0.00    -0.206 F 
ATOM     67  C   UNL A   1      48.826  32.001  27.135  1.00  0.00     0.040 A 
ATOM     68  C   UNL A   1      46.488  32.033  26.677  1.00  0.00     0.040 A 
ATOM     69  F   UNL A   1      45.250  30.109  26.554  1.00  0.00    -0.206 F 
ATOM     70  C   UNL A   1      47.659  32.723  26.932  1.00  0.00     0.006 A 
ENDBRANCH  49  63
BRANCH  50  71
ATOM     71  C   UNL A   1      39.592  28.128  29.097  1.00  0.00     0.057 A 
ATOM     72  C   UNL A   1      38.645  28.176  30.131  1.00  0.00     0.134 A 
ATOM     73  C   UNL A   1      39.276  28.860  27.939  1.00  0.00     0.134 A 
ATOM     74  F   UNL A   1      38.873  27.543  31.291  1.00  0.00    -0.206 F 
ATOM     75  C   UNL A   1      37.468  28.932  30.033  1.00  0.00     0.040 A 
ATOM     76  C   UNL A   1      38.102  29.613  27.826  1.00  0.00     0.040 A 
ATOM     77  F   UNL A   1      40.138  28.942  26.917  1.00  0.00    -0.206 F 
ATOM     78  C   UNL A   1      37.199  29.664  28.880  1.00  0.00     0.006 A 
ENDBRANCH  50  71
BRANCH  62  79
ATOM     79  C   UNL A   1      44.810  26.726  32.280  1.00  0.00     0.057 A 
ATOM     80  C   UNL A   1      44.560  25.366  32.040  1.00  0.00     0.134 A 
ATOM     81  C   UNL A   1      44.970  27.111  33.615  1.00  0.00     0.134 A 
ATOM     82  F   UNL A   1      44.486  24.882  30.795  1.00  0.00    -0.206 F 
ATOM     83  C   UNL A   1      44.438  24.442  33.082  1.00  0.00     0.040 A 
ATOM     84  C   UNL A   1      44.883  26.194  34.663  1.00  0.00     0.040 A 
ATOM     85  F   UNL A   1      45.265  28.386  33.918  1.00  0.00    -0.206 F 
ATOM     86  C   UNL A   1      44.607  24.855  34.400  1.00  0.00     0.006 A 
ENDBRANCH  62  79
ENDBRANCH  36  37
ENDBRANCH  28  31
ENDBRANCH  26  27
ENDBRANCH  25  26
ENDBRANCH   1  25
TORSDOF 13
ENDMDL
MODEL 2
REMARK VINA RESULT:     -11.3      2.217      6.394
REMARK SMILES Cc1nn(C)c2c1nc(SCC(=O)NCCCNC(=O)c1ccc(-c3c4nc(c(-c5c(F)cccc5F)c5ccc([nH]5)c(-c5c(F)cccc5F)c5nc(c(-c6c(F)cccc6F)c6ccc3[nH]6)C=C5)C=C4)cc1)n2[C@H]1CC[N@@H+](C)C1
REMARK SMILES IDX 15 1 14 2 12 3 13 4 11 6 10 7 9 8 1 9 2 10 3 11 7 12 4 13
REMARK SMILES IDX 6 14 8 15 5 16 75 17 76 18 77 19 81 20 78 21 79 22 80 23
REMARK SMILES IDX 16 25 17 26 18 27 19 28 20 30 21 31 22 32 74 33 23 34 73 35
REMARK SMILES IDX 24 36 25 37 26 38 67 39 27 40 72 41 66 42 68 43 28 44 71 45
REMARK SMILES IDX 65 46 64 47 29 49 55 50 38 51 54 52 39 53 42 54 53 55 69 56
REMARK SMILES IDX 40 57 41 58 52 60 70 61 43 62 30 63 31 64 36 65 32 66 33 67
REMARK SMILES IDX 35 68 37 69 34 70 56 71 57 72 62 73 58 74 59 75 61 76 63 77
REMARK SMILES IDX 60 78 44 79 45 80 50 81 46 82 47 83 49 84 51 85 48 86
REMARK H PARENT 14 5 79 24 18 29 68 48 42 59
REMARK Flexibility Score: inf
ROOT
ATOM      1  C   UNL A   1      37.404  21.244  24.992  1.00  0.00     0.117 C 
ENDROOT
BRANCH   1   2
ATOM      2  N   UNL A   1      36.047  20.893  24.593  1.00  0.00    -0.355 N 
ATOM      3  C   UNL A   1      34.843  21.484  24.859  1.00  0.00     0.230 C 
ATOM      4  O   UNL A   1      33.851  21.001  24.305  1.00  0.00    -0.274 OA
ATOM      5  H   UNL A   1      35.986  20.087  24.032  1.00  0.00     0.163 HD
BRANCH   3   6
ATOM      6  C   UNL A   1      34.736  22.763  25.661  1.00  0.00     0.178 C 
BRANCH   6   7
ATOM      7  S   UNL A   1      35.498  24.193  24.901  1.00  0.00    -0.078 SA
BRANCH   7   8
ATOM      8  C   UNL A   1      34.329  24.866  23.810  1.00  0.00     0.171 A 
ATOM      9  C   UNL A   1      32.567  25.160  19.633  1.00  0.00     0.071 C 
ATOM     10  C   UNL A   1      32.414  25.662  21.013  1.00  0.00     0.087 A 
ATOM     11  N   UNL A   1      31.464  26.576  21.295  1.00  0.00    -0.174 NA
ATOM     12  C   UNL A   1      33.134  25.360  22.170  1.00  0.00     0.132 A 
ATOM     13  N   UNL A   1      31.614  26.829  22.622  1.00  0.00    -0.250 N 
ATOM     14  C   UNL A   1      32.667  26.154  23.163  1.00  0.00     0.159 A 
ATOM     15  N   UNL A   1      34.151  24.551  22.542  1.00  0.00    -0.219 NA
ATOM     16  C   UNL A   1      30.637  27.689  23.240  1.00  0.00     0.176 C 
ATOM     17  N   UNL A   1      33.491  25.913  24.224  1.00  0.00    -0.295 N 
BRANCH  17  18
ATOM     18  C   UNL A   1      33.654  26.616  25.488  1.00  0.00     0.152 C 
ATOM     19  C   UNL A   1      33.991  28.112  25.294  1.00  0.00     0.093 C 
ATOM     20  C   UNL A   1      32.479  26.648  26.465  1.00  0.00     0.288 C 
ATOM     21  C   UNL A   1      32.959  28.874  26.101  1.00  0.00     0.264 C 
ATOM     22  N   UNL A   1      32.636  27.927  27.167  1.00  0.00    -0.336 N 
ATOM     23  C   UNL A   1      31.422  28.316  27.875  1.00  0.00     0.332 C 
ATOM     24  H   UNL A   1      33.354  27.884  27.890  1.00  0.00     0.347 HD
ENDBRANCH  17  18
ENDBRANCH   7   8
ENDBRANCH   6   7
ENDBRANCH   3   6
ENDBRANCH   1   2
BRANCH   1  25
ATOM     25  C   UNL A   1      38.383  20.067  24.899  1.00  0.00     0.042 C 
BRANCH  25  26
ATOM     26  C   UNL A   1      39.253  19.902  26.137  1.00  0.00     0.118 C 
BRANCH  26  27
ATOM     27  N   UNL A   1      40.437  19.063  25.920  1.00  0.00    -0.352 N 
ATOM     28  C   UNL A   1      41.755  19.470  25.850  1.00  0.00     0.251 C 
ATOM     29  H   UNL A   1      40.273  18.098  25.812  1.00  0.00     0.163 HD
ATOM     30  O   UNL A   1      42.613  18.762  25.318  1.00  0.00    -0.269 OA
BRANCH  28  31
ATOM     31  C   UNL A   1      42.127  20.766  26.437  1.00  0.00     0.039 A 
ATOM     32  C   UNL A   1      42.511  21.863  25.659  1.00  0.00     0.014 A 
ATOM     33  C   UNL A   1      42.027  20.873  27.819  1.00  0.00     0.014 A 
ATOM     34  C   UNL A   1      42.707  23.094  26.284  1.00  0.00     0.010 A 
ATOM     35  C   UNL A   1      42.024  22.110  28.397  1.00  0.00     0.010 A 
ATOM     36  C   UNL A   1      42.441  23.210  27.656  1.00  0.00    -0.014 A 
BRANCH  36  37
ATOM     37  C   UNL A   1      42.462  24.495  28.347  1.00  0.00     0.031 A 
ATOM     38  C   UNL A   1      41.218  25.296  28.180  1.00  0.00     0.074 A 
ATOM     39  C   UNL A   1      43.394  24.764  29.292  1.00  0.00     0.049 A 
ATOM     40  N   UNL A   1      41.081  26.441  27.599  1.00  0.00    -0.248 NA
ATOM     41  C   UNL A   1      39.938  24.677  28.569  1.00  0.00     0.031 C 
ATOM     42  C   UNL A   1      44.470  23.884  29.774  1.00  0.00     0.029 A 
ATOM     43  N   UNL A   1      43.497  25.829  30.130  1.00  0.00    -0.354 N 
ATOM     44  C   UNL A   1      39.744  26.797  27.771  1.00  0.00     0.074 A 
ATOM     45  C   UNL A   1      39.061  25.592  28.151  1.00  0.00     0.031 C 
ATOM     46  C   UNL A   1      44.936  24.336  30.957  1.00  0.00     0.029 A 
ATOM     47  C   UNL A   1      44.327  25.621  31.232  1.00  0.00     0.049 A 
ATOM     48  H   UNL A   1      43.025  26.679  29.972  1.00  0.00     0.167 HD
ATOM     49  C   UNL A   1      39.383  28.107  27.887  1.00  0.00     0.037 A 
ATOM     50  C   UNL A   1      44.471  26.438  32.305  1.00  0.00     0.037 A 
ATOM     51  C   UNL A   1      40.447  28.966  27.419  1.00  0.00     0.049 A 
ATOM     52  C   UNL A   1      43.947  27.769  31.913  1.00  0.00     0.074 A 
ATOM     53  C   UNL A   1      41.138  29.119  26.232  1.00  0.00     0.029 A 
ATOM     54  N   UNL A   1      41.210  29.593  28.374  1.00  0.00    -0.354 N 
ATOM     55  N   UNL A   1      44.508  28.533  31.018  1.00  0.00    -0.248 NA
ATOM     56  C   UNL A   1      42.539  28.031  32.167  1.00  0.00     0.031 C 
ATOM     57  C   UNL A   1      42.485  29.392  26.622  1.00  0.00     0.029 A 
ATOM     58  C   UNL A   1      42.524  29.470  28.014  1.00  0.00     0.049 A 
ATOM     59  H   UNL A   1      40.871  30.050  29.177  1.00  0.00     0.167 HD
ATOM     60  C   UNL A   1      43.450  29.051  30.287  1.00  0.00     0.074 A 
ATOM     61  C   UNL A   1      42.260  28.776  31.094  1.00  0.00     0.031 C 
ATOM     62  C   UNL A   1      43.604  29.376  28.969  1.00  0.00     0.037 A 
BRANCH  49  63
ATOM     63  C   UNL A   1      38.310  28.629  28.830  1.00  0.00     0.057 A 
ATOM     64  C   UNL A   1      37.443  29.638  28.361  1.00  0.00     0.134 A 
ATOM     65  C   UNL A   1      38.293  28.448  30.229  1.00  0.00     0.134 A 
ATOM     66  F   UNL A   1      37.329  29.895  27.048  1.00  0.00    -0.206 F 
ATOM     67  C   UNL A   1      36.743  30.494  29.219  1.00  0.00     0.040 A 
ATOM     68  C   UNL A   1      37.560  29.268  31.093  1.00  0.00     0.040 A 
ATOM     69  F   UNL A   1      39.040  27.536  30.857  1.00  0.00    -0.206 F 
ATOM     70  C   UNL A   1      36.819  30.324  30.594  1.00  0.00     0.006 A 
ENDBRANCH  49  63
BRANCH  50  71
ATOM     71  C   UNL A   1      44.740  26.088  33.720  1.00  0.00     0.057 A 
ATOM     72  C   UNL A   1      45.582  26.879  34.516  1.00  0.00     0.134 A 
ATOM     73  C   UNL A   1      43.958  25.141  34.404  1.00  0.00     0.134 A 
ATOM     74  F   UNL A   1      46.339  27.837  33.962  1.00  0.00    -0.206 F 
ATOM     75  C   UNL A   1      45.623  26.757  35.912  1.00  0.00     0.040 A 
ATOM     76  C   UNL A   1      43.993  25.005  35.797  1.00  0.00     0.040 A 
ATOM     77  F   UNL A   1      43.067  24.381  33.753  1.00  0.00    -0.206 F 
ATOM     78  C   UNL A   1      44.816  25.825  36.559  1.00  0.00     0.006 A 
ENDBRANCH  50  71
BRANCH  62  79
ATOM     79  C   UNL A   1      45.001  29.416  28.411  1.00  0.00     0.057 A 
ATOM     80  C   UNL A   1      45.636  28.335  27.780  1.00  0.00     0.134 A 
ATOM     81  C   UNL A   1      45.665  30.646  28.374  1.00  0.00     0.134 A 
ATOM     82  F   UNL A   1      45.041  27.141  27.679  1.00  0.00    -0.206 F 
ATOM     83  C   UNL A   1      46.890  28.465  27.176  1.00  0.00     0.040 A 
ATOM     84  C   UNL A   1      46.901  30.798  27.745  1.00  0.00     0.040 A 
ATOM     85  F   UNL A   1      45.093  31.737  28.908  1.00  0.00    -0.206 F 
ATOM     86  C   UNL A   1      47.524  29.703  27.151  1.00  0.00     0.006 A 
ENDBRANCH  62  79
ENDBRANCH  36  37
ENDBRANCH  28  31
ENDBRANCH  26  27
ENDBRANCH  25  26
ENDBRANCH   1  25
TORSDOF 13
ENDMDL
MODEL 3
REMARK VINA RESULT:     -11.2      4.426      9.780
REMARK SMILES Cc1nn(C)c2c1nc(SCC(=O)NCCCNC(=O)c1ccc(-c3c4nc(c(-c5c(F)cccc5F)c5ccc([nH]5)c(-c5c(F)cccc5F)c5nc(c(-c6c(F)cccc6F)c6ccc3[nH]6)C=C5)C=C4)cc1)n2[C@H]1CC[N@@H+](C)C1
REMARK SMILES IDX 15 1 14 2 12 3 13 4 11 6 10 7 9 8 1 9 2 10 3 11 7 12 4 13
REMARK SMILES IDX 6 14 8 15 5 16 75 17 76 18 77 19 81 20 78 21 79 22 80 23
REMARK SMILES IDX 16 25 17 26 18 27 19 28 20 30 21 31 22 32 74 33 23 34 73 35
REMARK SMILES IDX 24 36 25 37 26 38 67 39 27 40 72 41 66 42 68 43 28 44 71 45
REMARK SMILES IDX 65 46 64 47 29 49 55 50 38 51 54 52 39 53 42 54 53 55 69 56
REMARK SMILES IDX 40 57 41 58 52 60 70 61 43 62 30 63 31 64 36 65 32 66 33 67
REMARK SMILES IDX 35 68 37 69 34 70 56 71 57 72 62 73 58 74 59 75 61 76 63 77
REMARK SMILES IDX 60 78 44 79 45 80 50 81 46 82 47 83 49 84 51 85 48 86
REMARK H PARENT 14 5 79 24 18 29 68 48 42 59
REMARK Flexibility Score: inf
ROOT
ATOM      1  C   UNL A   1      32.994  33.728  28.017  1.00  0.00     0.117 C 
ENDROOT
BRANCH   1   2
ATOM      2  N   UNL A   1      34.197  32.904  27.979  1.00  0.00    -0.355 N 
ATOM      3  C   UNL A   1      34.377  31.576  27.709  1.00  0.00     0.230 C 
ATOM      4  O   UNL A   1      35.542  31.170  27.667  1.00  0.00    -0.274 OA
ATOM      5  H   UNL A   1      35.027  33.391  28.184  1.00  0.00     0.163 HD
BRANCH   3   6
ATOM      6  C   UNL A   1      33.227  30.672  27.320  1.00  0.00     0.178 C 
BRANCH   6   7
ATOM      7  S   UNL A   1      33.696  28.996  26.905  1.00  0.00    -0.078 SA
BRANCH   7   8
ATOM      8  C   UNL A   1      32.822  28.569  25.469  1.00  0.00     0.171 A 
ATOM      9  C   UNL A   1      30.030  29.731  22.079  1.00  0.00     0.071 C 
ATOM     10  C   UNL A   1      30.815  28.606  22.624  1.00  0.00     0.087 A 
ATOM     11  N   UNL A   1      30.765  27.399  22.026  1.00  0.00    -0.174 NA
ATOM     12  C   UNL A   1      31.650  28.543  23.741  1.00  0.00     0.132 A 
ATOM     13  N   UNL A   1      31.568  26.607  22.784  1.00  0.00    -0.250 N 
ATOM     14  C   UNL A   1      32.063  27.260  23.872  1.00  0.00     0.159 A 
ATOM     15  N   UNL A   1      32.108  29.372  24.704  1.00  0.00    -0.219 NA
ATOM     16  C   UNL A   1      31.811  25.269  22.305  1.00  0.00     0.176 C 
ATOM     17  N   UNL A   1      32.761  27.232  25.045  1.00  0.00    -0.295 N 
BRANCH  17  18
ATOM     18  C   UNL A   1      33.247  26.117  25.844  1.00  0.00     0.152 C 
ATOM     19  C   UNL A   1      32.106  25.187  26.317  1.00  0.00     0.093 C 
ATOM     20  C   UNL A   1      34.248  25.148  25.216  1.00  0.00     0.288 C 
ATOM     21  C   UNL A   1      32.498  23.794  25.870  1.00  0.00     0.264 C 
ATOM     22  N   UNL A   1      33.959  23.866  25.870  1.00  0.00    -0.336 N 
ATOM     23  C   UNL A   1      34.549  22.741  25.155  1.00  0.00     0.332 C 
ATOM     24  H   UNL A   1      34.358  23.814  26.807  1.00  0.00     0.347 HD
ENDBRANCH  17  18
ENDBRANCH   7   8
ENDBRANCH   6   7
ENDBRANCH   3   6
ENDBRANCH   1   2
BRANCH   1  25
ATOM     25  C   UNL A   1      33.198  35.057  28.756  1.00  0.00     0.042 C 
BRANCH  25  26
ATOM     26  C   UNL A   1      34.358  35.031  29.741  1.00  0.00     0.118 C 
BRANCH  26  27
ATOM     27  N   UNL A   1      34.015  35.550  31.071  1.00  0.00    -0.352 N 
ATOM     28  C   UNL A   1      34.342  35.004  32.297  1.00  0.00     0.251 C 
ATOM     29  H   UNL A   1      33.491  36.383  31.091  1.00  0.00     0.163 HD
ATOM     30  O   UNL A   1      33.716  35.306  33.315  1.00  0.00    -0.269 OA
BRANCH  28  31
ATOM     31  C   UNL A   1      35.466  34.060  32.373  1.00  0.00     0.039 A 
ATOM     32  C   UNL A   1      35.299  32.678  32.233  1.00  0.00     0.014 A 
ATOM     33  C   UNL A   1      36.730  34.612  32.538  1.00  0.00     0.014 A 
ATOM     34  C   UNL A   1      36.433  31.867  32.173  1.00  0.00     0.010 A 
ATOM     35  C   UNL A   1      37.834  33.849  32.281  1.00  0.00     0.010 A 
ATOM     36  C   UNL A   1      37.700  32.469  32.179  1.00  0.00    -0.014 A 
BRANCH  36  37
ATOM     37  C   UNL A   1      38.924  31.707  31.955  1.00  0.00     0.031 A 
ATOM     38  C   UNL A   1      39.637  31.322  33.204  1.00  0.00     0.074 A 
ATOM     39  C   UNL A   1      39.189  31.150  30.750  1.00  0.00     0.049 A 
ATOM     40  N   UNL A   1      40.811  31.692  33.597  1.00  0.00    -0.248 NA
ATOM     41  C   UNL A   1      38.892  30.554  34.219  1.00  0.00     0.031 C 
ATOM     42  C   UNL A   1      38.360  31.191  29.536  1.00  0.00     0.029 A 
ATOM     43  N   UNL A   1      40.190  30.306  30.386  1.00  0.00    -0.354 N 
ATOM     44  C   UNL A   1      41.047  31.003  34.787  1.00  0.00     0.074 A 
ATOM     45  C   UNL A   1      39.767  30.524  35.226  1.00  0.00     0.031 C 
ATOM     46  C   UNL A   1      38.752  30.223  28.680  1.00  0.00     0.029 A 
ATOM     47  C   UNL A   1      39.961  29.614  29.197  1.00  0.00     0.049 A 
ATOM     48  H   UNL A   1      41.011  30.191  30.918  1.00  0.00     0.167 HD
ATOM     49  C   UNL A   1      42.312  30.630  35.134  1.00  0.00     0.037 A 
ATOM     50  C   UNL A   1      40.699  28.593  28.696  1.00  0.00     0.037 A 
ATOM     51  C   UNL A   1      43.285  31.367  34.359  1.00  0.00     0.049 A 
ATOM     52  C   UNL A   1      42.012  28.626  29.385  1.00  0.00     0.074 A 
ATOM     53  C   UNL A   1      43.584  32.703  34.169  1.00  0.00     0.029 A 
ATOM     54  N   UNL A   1      43.892  30.702  33.322  1.00  0.00    -0.354 N 
ATOM     55  N   UNL A   1      42.886  29.582  29.232  1.00  0.00    -0.248 NA
ATOM     56  C   UNL A   1      42.144  27.846  30.605  1.00  0.00     0.031 C 
ATOM     57  C   UNL A   1      43.929  32.811  32.787  1.00  0.00     0.029 A 
ATOM     58  C   UNL A   1      43.900  31.531  32.234  1.00  0.00     0.049 A 
ATOM     59  H   UNL A   1      44.257  29.788  33.355  1.00  0.00     0.167 HD
ATOM     60  C   UNL A   1      43.376  29.814  30.508  1.00  0.00     0.074 A 
ATOM     61  C   UNL A   1      42.947  28.659  31.297  1.00  0.00     0.031 C 
ATOM     62  C   UNL A   1      43.815  31.057  30.872  1.00  0.00     0.037 A 
BRANCH  49  63
ATOM     63  C   UNL A   1      42.673  29.309  35.797  1.00  0.00     0.057 A 
ATOM     64  C   UNL A   1      43.650  29.320  36.815  1.00  0.00     0.134 A 
ATOM     65  C   UNL A   1      42.378  28.030  35.284  1.00  0.00     0.134 A 
ATOM     66  F   UNL A   1      44.005  30.465  37.419  1.00  0.00    -0.206 F 
ATOM     67  C   UNL A   1      44.378  28.181  37.177  1.00  0.00     0.040 A 
ATOM     68  C   UNL A   1      43.067  26.877  35.673  1.00  0.00     0.040 A 
ATOM     69  F   UNL A   1      41.475  27.818  34.322  1.00  0.00    -0.206 F 
ATOM     70  C   UNL A   1      44.102  26.956  36.587  1.00  0.00     0.006 A 
ENDBRANCH  49  63
BRANCH  50  71
ATOM     71  C   UNL A   1      40.261  27.420  27.903  1.00  0.00     0.057 A 
ATOM     72  C   UNL A   1      40.808  27.153  26.639  1.00  0.00     0.134 A 
ATOM     73  C   UNL A   1      39.511  26.381  28.480  1.00  0.00     0.134 A 
ATOM     74  F   UNL A   1      41.572  28.066  26.022  1.00  0.00    -0.206 F 
ATOM     75  C   UNL A   1      40.646  25.915  26.000  1.00  0.00     0.040 A 
ATOM     76  C   UNL A   1      39.337  25.142  27.851  1.00  0.00     0.040 A 
ATOM     77  F   UNL A   1      39.002  26.500  29.714  1.00  0.00    -0.206 F 
ATOM     78  C   UNL A   1      39.918  24.900  26.613  1.00  0.00     0.006 A 
ENDBRANCH  50  71
BRANCH  62  79
ATOM     79  C   UNL A   1      44.006  32.083  29.789  1.00  0.00     0.057 A 
ATOM     80  C   UNL A   1      43.046  33.036  29.418  1.00  0.00     0.134 A 
ATOM     81  C   UNL A   1      45.273  32.205  29.209  1.00  0.00     0.134 A 
ATOM     82  F   UNL A   1      41.835  33.061  29.987  1.00  0.00    -0.206 F 
ATOM     83  C   UNL A   1      43.324  34.040  28.486  1.00  0.00     0.040 A 
ATOM     84  C   UNL A   1      45.574  33.223  28.303  1.00  0.00     0.040 A 
ATOM     85  F   UNL A   1      46.258  31.362  29.557  1.00  0.00    -0.206 F 
ATOM     86  C   UNL A   1      44.595  34.140  27.930  1.00  0.00     0.006 A 
ENDBRANCH  62  79
ENDBRANCH  36  37
ENDBRANCH  28  31
ENDBRANCH  26  27
ENDBRANCH  25  26
ENDBRANCH   1  25
TORSDOF 13
ENDMDL
