MODEL 1
REMARK VINA RESULT:     -12.5      0.000      0.000
REMARK SMILES C[C@H](C(=O)NCCCNC(=O)c1ccc(-c2c3nc(c(-c4c(F)cccc4F)c4ccc([nH]4)c(-c4c(F)cccc4F)c4nc(c(-c5c(F)cccc5F)c5ccc2[nH]5)C=C4)C=C3)cc1)c1ccc2c(c1)[nH]c1ccc(Cl)cc12
REMARK SMILES IDX 7 1 6 2 5 3 3 4 4 5 2 7 1 8 66 9 67 10 71 11 68 12 70 13
REMARK SMILES IDX 69 14 72 15 79 16 73 17 78 19 74 20 76 21 75 22 77 23 8 24
REMARK SMILES IDX 9 25 10 26 11 28 12 29 13 30 65 31 14 32 64 33 15 34 16 35
REMARK SMILES IDX 17 36 58 37 18 38 63 39 57 40 59 41 19 42 62 43 56 44 55 45
REMARK SMILES IDX 20 47 46 48 29 49 45 50 30 51 33 52 44 53 60 54 31 55 32 56
REMARK SMILES IDX 43 58 61 59 34 60 21 61 22 62 27 63 23 64 24 65 26 66 28 67
REMARK SMILES IDX 25 68 47 69 48 70 53 71 49 72 50 73 52 74 54 75 51 76 35 77
REMARK SMILES IDX 36 78 41 79 37 80 38 81 40 82 42 83 39 84
REMARK H PARENT 5 6 72 18 9 27 59 46 33 57
REMARK Flexibility Score: inf
ROOT
ATOM      1  C   UNL A   1      31.288  31.864  26.501  1.00  0.00     0.042 C 
ENDROOT
BRANCH   1   2
ATOM      2  C   UNL A   1      31.387  30.404  26.066  1.00  0.00     0.117 C 
BRANCH   2   3
ATOM      3  N   UNL A   1      31.323  30.241  24.626  1.00  0.00    -0.356 N 
ATOM      4  C   UNL A   1      30.953  29.154  23.884  1.00  0.00     0.227 C 
ATOM      5  O   UNL A   1      30.982  29.265  22.656  1.00  0.00    -0.274 OA
ATOM      6  H   UNL A   1      31.585  31.033  24.104  1.00  0.00     0.163 HD
BRANCH   4   7
ATOM      7  C   UNL A   1      30.550  27.848  24.582  1.00  0.00     0.105 C 
ATOM      8  C   UNL A   1      29.438  27.145  23.795  1.00  0.00     0.023 C 
BRANCH   7   9
ATOM      9  C   UNL A   1      31.753  26.934  24.772  1.00  0.00    -0.034 A 
ATOM     10  C   UNL A   1      32.506  26.989  25.952  1.00  0.00     0.005 A 
ATOM     11  C   UNL A   1      32.129  26.042  23.751  1.00  0.00     0.031 A 
ATOM     12  C   UNL A   1      33.645  26.189  26.126  1.00  0.00     0.011 A 
ATOM     13  C   UNL A   1      33.274  25.262  23.937  1.00  0.00     0.047 A 
ATOM     14  C   UNL A   1      34.046  25.314  25.095  1.00  0.00     0.007 A 
ATOM     15  N   UNL A   1      33.863  24.349  23.096  1.00  0.00    -0.355 N 
ATOM     16  C   UNL A   1      35.140  24.407  24.919  1.00  0.00     0.009 A 
ATOM     17  C   UNL A   1      35.013  23.839  23.652  1.00  0.00     0.047 A 
ATOM     18  H   UNL A   1      33.510  24.094  22.214  1.00  0.00     0.167 HD
ATOM     19  C   UNL A   1      36.241  24.032  25.717  1.00  0.00     0.031 A 
ATOM     20  C   UNL A   1      35.937  22.929  23.126  1.00  0.00     0.028 A 
ATOM     21  C   UNL A   1      37.171  23.121  25.205  1.00  0.00     0.041 A 
ATOM     22  C   UNL A   1      37.028  22.583  23.928  1.00  0.00     0.022 A 
ATOM     23  Cl  UNL A   1      38.523  22.663  26.170  1.00  0.00    -0.084 Cl
ENDBRANCH   7   9
ENDBRANCH   4   7
ENDBRANCH   2   3
ENDBRANCH   1   2
BRANCH   1  24
ATOM     24  C   UNL A   1      32.623  32.527  26.833  1.00  0.00     0.118 C 
BRANCH  24  25
ATOM     25  N   UNL A   1      32.469  33.827  27.470  1.00  0.00    -0.352 N 
ATOM     26  C   UNL A   1      33.139  34.410  28.515  1.00  0.00     0.251 C 
ATOM     27  H   UNL A   1      31.758  34.387  27.082  1.00  0.00     0.163 HD
ATOM     28  O   UNL A   1      32.710  35.465  28.976  1.00  0.00    -0.269 OA
BRANCH  26  29
ATOM     29  C   UNL A   1      34.350  33.798  29.112  1.00  0.00     0.039 A 
ATOM     30  C   UNL A   1      34.176  32.744  30.017  1.00  0.00     0.014 A 
ATOM     31  C   UNL A   1      35.637  34.281  28.858  1.00  0.00     0.014 A 
ATOM     32  C   UNL A   1      35.286  32.144  30.618  1.00  0.00     0.010 A 
ATOM     33  C   UNL A   1      36.749  33.637  29.405  1.00  0.00     0.010 A 
ATOM     34  C   UNL A   1      36.586  32.565  30.294  1.00  0.00    -0.014 A 
BRANCH  34  35
ATOM     35  C   UNL A   1      37.766  31.871  30.872  1.00  0.00     0.031 A 
ATOM     36  C   UNL A   1      38.254  32.194  32.258  1.00  0.00     0.074 A 
ATOM     37  C   UNL A   1      38.420  30.958  30.129  1.00  0.00     0.049 A 
ATOM     38  N   UNL A   1      39.251  31.668  32.925  1.00  0.00    -0.248 NA
ATOM     39  C   UNL A   1      37.546  33.261  32.980  1.00  0.00     0.031 C 
ATOM     40  C   UNL A   1      38.086  30.595  28.750  1.00  0.00     0.029 A 
ATOM     41  N   UNL A   1      39.499  30.164  30.429  1.00  0.00    -0.354 N 
ATOM     42  C   UNL A   1      39.293  32.340  34.140  1.00  0.00     0.074 A 
ATOM     43  C   UNL A   1      38.254  33.347  34.097  1.00  0.00     0.031 C 
ATOM     44  C   UNL A   1      38.920  29.629  28.336  1.00  0.00     0.029 A 
ATOM     45  C   UNL A   1      39.862  29.321  29.407  1.00  0.00     0.049 A 
ATOM     46  H   UNL A   1      39.968  30.197  31.295  1.00  0.00     0.167 HD
ATOM     47  C   UNL A   1      40.106  32.125  35.201  1.00  0.00     0.037 A 
ATOM     48  C   UNL A   1      40.837  28.396  29.343  1.00  0.00     0.037 A 
ATOM     49  C   UNL A   1      41.128  31.110  35.253  1.00  0.00     0.049 A 
ATOM     50  C   UNL A   1      41.712  28.162  30.541  1.00  0.00     0.074 A 
ATOM     51  C   UNL A   1      41.962  30.776  36.307  1.00  0.00     0.029 A 
ATOM     52  N   UNL A   1      41.456  30.267  34.203  1.00  0.00    -0.354 N 
ATOM     53  N   UNL A   1      41.689  28.754  31.710  1.00  0.00    -0.248 NA
ATOM     54  C   UNL A   1      42.743  27.122  30.413  1.00  0.00     0.031 C 
ATOM     55  C   UNL A   1      42.818  29.754  35.883  1.00  0.00     0.029 A 
ATOM     56  C   UNL A   1      42.492  29.426  34.577  1.00  0.00     0.049 A 
ATOM     57  H   UNL A   1      41.019  30.265  33.320  1.00  0.00     0.167 HD
ATOM     58  C   UNL A   1      42.687  28.149  32.463  1.00  0.00     0.074 A 
ATOM     59  C   UNL A   1      43.281  27.127  31.624  1.00  0.00     0.031 C 
ATOM     60  C   UNL A   1      43.078  28.417  33.732  1.00  0.00     0.037 A 
BRANCH  47  61
ATOM     61  C   UNL A   1      39.918  33.003  36.405  1.00  0.00     0.057 A 
ATOM     62  C   UNL A   1      40.673  34.168  36.591  1.00  0.00     0.134 A 
ATOM     63  C   UNL A   1      38.946  32.702  37.367  1.00  0.00     0.134 A 
ATOM     64  F   UNL A   1      41.626  34.508  35.711  1.00  0.00    -0.206 F 
ATOM     65  C   UNL A   1      40.486  34.990  37.704  1.00  0.00     0.040 A 
ATOM     66  C   UNL A   1      38.734  33.529  38.472  1.00  0.00     0.040 A 
ATOM     67  F   UNL A   1      38.183  31.606  37.246  1.00  0.00    -0.206 F 
ATOM     68  C   UNL A   1      39.509  34.674  38.646  1.00  0.00     0.006 A 
ENDBRANCH  47  61
BRANCH  48  69
ATOM     69  C   UNL A   1      41.015  27.593  28.109  1.00  0.00     0.057 A 
ATOM     70  C   UNL A   1      41.878  28.017  27.092  1.00  0.00     0.134 A 
ATOM     71  C   UNL A   1      40.330  26.388  27.916  1.00  0.00     0.134 A 
ATOM     72  F   UNL A   1      42.547  29.172  27.213  1.00  0.00    -0.206 F 
ATOM     73  C   UNL A   1      42.041  27.281  25.918  1.00  0.00     0.040 A 
ATOM     74  C   UNL A   1      40.501  25.629  26.757  1.00  0.00     0.040 A 
ATOM     75  F   UNL A   1      39.495  25.926  28.858  1.00  0.00    -0.206 F 
ATOM     76  C   UNL A   1      41.354  26.080  25.751  1.00  0.00     0.006 A 
ENDBRANCH  48  69
BRANCH  60  77
ATOM     77  C   UNL A   1      44.190  27.580  34.291  1.00  0.00     0.057 A 
ATOM     78  C   UNL A   1      45.530  27.978  34.199  1.00  0.00     0.134 A 
ATOM     79  C   UNL A   1      43.918  26.366  34.936  1.00  0.00     0.134 A 
ATOM     80  F   UNL A   1      45.858  29.123  33.580  1.00  0.00    -0.206 F 
ATOM     81  C   UNL A   1      46.563  27.186  34.702  1.00  0.00     0.040 A 
ATOM     82  C   UNL A   1      44.940  25.578  35.465  1.00  0.00     0.040 A 
ATOM     83  F   UNL A   1      42.656  25.931  35.063  1.00  0.00    -0.206 F 
ATOM     84  C   UNL A   1      46.268  25.982  35.342  1.00  0.00     0.006 A 
ENDBRANCH  60  77
ENDBRANCH  34  35
ENDBRANCH  26  29
ENDBRANCH  24  25
ENDBRANCH   1  24
TORSDOF 11
ENDMDL
MODEL 2
REMARK VINA RESULT:     -12.5      5.134     10.113
REMARK SMILES C[C@H](C(=O)NCCCNC(=O)c1ccc(-c2c3nc(c(-c4c(F)cccc4F)c4ccc([nH]4)c(-c4c(F)cccc4F)c4nc(c(-c5c(F)cccc5F)c5ccc2[nH]5)C=C4)C=C3)cc1)c1ccc2c(c1)[nH]c1ccc(Cl)cc12
REMARK SMILES IDX 7 1 6 2 5 3 3 4 4 5 2 7 1 8 66 9 67 10 71 11 68 12 70 13
REMARK SMILES IDX 69 14 72 15 79 16 73 17 78 19 74 20 76 21 75 22 77 23 8 24
REMARK SMILES IDX 9 25 10 26 11 28 12 29 13 30 65 31 14 32 64 33 15 34 16 35
REMARK SMILES IDX 17 36 58 37 18 38 63 39 57 40 59 41 19 42 62 43 56 44 55 45
REMARK SMILES IDX 20 47 46 48 29 49 45 50 30 51 33 52 44 53 60 54 31 55 32 56
REMARK SMILES IDX 43 58 61 59 34 60 21 61 22 62 27 63 23 64 24 65 26 66 28 67
REMARK SMILES IDX 25 68 47 69 48 70 53 71 49 72 50 73 52 74 54 75 51 76 35 77
REMARK SMILES IDX 36 78 41 79 37 80 38 81 40 82 42 83 39 84
REMARK H PARENT 5 6 72 18 9 27 59 46 33 57
REMARK Flexibility Score: inf
ROOT
ATOM      1  C   UNL A   1      37.765  19.413  24.871  1.00  0.00     0.042 C 
ENDROOT
BRANCH   1   2
ATOM      2  C   UNL A   1      36.623  20.401  24.643  1.00  0.00     0.117 C 
BRANCH   2   3
ATOM      3  N   UNL A   1      35.421  20.051  25.377  1.00  0.00    -0.356 N 
ATOM      4  C   UNL A   1      34.124  20.422  25.159  1.00  0.00     0.227 C 
ATOM      5  O   UNL A   1      33.269  19.986  25.933  1.00  0.00    -0.274 OA
ATOM      6  H   UNL A   1      35.562  19.456  26.149  1.00  0.00     0.163 HD
BRANCH   4   7
ATOM      7  C   UNL A   1      33.780  21.371  24.003  1.00  0.00     0.105 C 
ATOM      8  C   UNL A   1      32.456  20.958  23.352  1.00  0.00     0.023 C 
BRANCH   7   9
ATOM      9  C   UNL A   1      33.732  22.818  24.478  1.00  0.00    -0.034 A 
ATOM     10  C   UNL A   1      34.887  23.612  24.449  1.00  0.00     0.005 A 
ATOM     11  C   UNL A   1      32.531  23.359  24.970  1.00  0.00     0.031 A 
ATOM     12  C   UNL A   1      34.874  24.931  24.926  1.00  0.00     0.011 A 
ATOM     13  C   UNL A   1      32.540  24.672  25.451  1.00  0.00     0.047 A 
ATOM     14  C   UNL A   1      33.680  25.471  25.448  1.00  0.00     0.007 A 
ATOM     15  N   UNL A   1      31.524  25.414  26.003  1.00  0.00    -0.355 N 
ATOM     16  C   UNL A   1      33.322  26.728  26.035  1.00  0.00     0.009 A 
ATOM     17  C   UNL A   1      31.977  26.652  26.394  1.00  0.00     0.047 A 
ATOM     18  H   UNL A   1      30.596  25.101  26.104  1.00  0.00     0.167 HD
ATOM     19  C   UNL A   1      34.027  27.917  26.312  1.00  0.00     0.031 A 
ATOM     20  C   UNL A   1      31.297  27.695  27.035  1.00  0.00     0.028 A 
ATOM     21  C   UNL A   1      33.360  28.969  26.950  1.00  0.00     0.041 A 
ATOM     22  C   UNL A   1      32.019  28.859  27.313  1.00  0.00     0.022 A 
ATOM     23  Cl  UNL A   1      34.215  30.423  27.299  1.00  0.00    -0.084 Cl
ENDBRANCH   7   9
ENDBRANCH   4   7
ENDBRANCH   2   3
ENDBRANCH   1   2
BRANCH   1  24
ATOM     24  C   UNL A   1      38.899  19.934  25.750  1.00  0.00     0.118 C 
BRANCH  24  25
ATOM     25  N   UNL A   1      40.061  19.056  25.758  1.00  0.00    -0.352 N 
ATOM     26  C   UNL A   1      41.393  19.315  25.956  1.00  0.00     0.251 C 
ATOM     27  H   UNL A   1      39.853  18.108  25.594  1.00  0.00     0.163 HD
ATOM     28  O   UNL A   1      42.206  18.417  25.753  1.00  0.00    -0.269 OA
BRANCH  26  29
ATOM     29  C   UNL A   1      41.879  20.647  26.390  1.00  0.00     0.039 A 
ATOM     30  C   UNL A   1      42.150  21.602  25.403  1.00  0.00     0.014 A 
ATOM     31  C   UNL A   1      42.138  20.951  27.729  1.00  0.00     0.014 A 
ATOM     32  C   UNL A   1      42.625  22.867  25.760  1.00  0.00     0.010 A 
ATOM     33  C   UNL A   1      42.545  22.237  28.092  1.00  0.00     0.010 A 
ATOM     34  C   UNL A   1      42.798  23.207  27.111  1.00  0.00    -0.014 A 
BRANCH  34  35
ATOM     35  C   UNL A   1      43.223  24.579  27.492  1.00  0.00     0.031 A 
ATOM     36  C   UNL A   1      44.667  24.994  27.409  1.00  0.00     0.074 A 
ATOM     37  C   UNL A   1      42.302  25.452  27.942  1.00  0.00     0.049 A 
ATOM     38  N   UNL A   1      45.208  26.157  27.678  1.00  0.00    -0.248 NA
ATOM     39  C   UNL A   1      45.632  23.966  26.991  1.00  0.00     0.031 C 
ATOM     40  C   UNL A   1      40.879  25.157  28.127  1.00  0.00     0.029 A 
ATOM     41  N   UNL A   1      42.421  26.765  28.321  1.00  0.00    -0.354 N 
ATOM     42  C   UNL A   1      46.572  26.000  27.467  1.00  0.00     0.074 A 
ATOM     43  C   UNL A   1      46.782  24.616  27.098  1.00  0.00     0.031 C 
ATOM     44  C   UNL A   1      40.253  26.265  28.552  1.00  0.00     0.029 A 
ATOM     45  C   UNL A   1      41.230  27.340  28.694  1.00  0.00     0.049 A 
ATOM     46  H   UNL A   1      43.279  27.249  28.327  1.00  0.00     0.167 HD
ATOM     47  C   UNL A   1      47.556  26.926  27.552  1.00  0.00     0.037 A 
ATOM     48  C   UNL A   1      40.953  28.594  29.096  1.00  0.00     0.037 A 
ATOM     49  C   UNL A   1      47.346  28.308  27.900  1.00  0.00     0.049 A 
ATOM     50  C   UNL A   1      42.059  29.608  29.161  1.00  0.00     0.074 A 
ATOM     51  C   UNL A   1      48.273  29.337  27.953  1.00  0.00     0.029 A 
ATOM     52  N   UNL A   1      46.123  28.855  28.258  1.00  0.00    -0.354 N 
ATOM     53  N   UNL A   1      43.331  29.463  28.885  1.00  0.00    -0.248 NA
ATOM     54  C   UNL A   1      41.686  30.966  29.585  1.00  0.00     0.031 C 
ATOM     55  C   UNL A   1      47.616  30.497  28.377  1.00  0.00     0.029 A 
ATOM     56  C   UNL A   1      46.275  30.201  28.550  1.00  0.00     0.049 A 
ATOM     57  H   UNL A   1      45.273  28.361  28.299  1.00  0.00     0.167 HD
ATOM     58  C   UNL A   1      43.909  30.711  29.083  1.00  0.00     0.074 A 
ATOM     59  C   UNL A   1      42.841  31.606  29.480  1.00  0.00     0.031 C 
ATOM     60  C   UNL A   1      45.205  31.080  28.951  1.00  0.00     0.037 A 
BRANCH  47  61
ATOM     61  C   UNL A   1      48.956  26.476  27.253  1.00  0.00     0.057 A 
ATOM     62  C   UNL A   1      49.816  26.023  28.263  1.00  0.00     0.134 A 
ATOM     63  C   UNL A   1      49.439  26.457  25.938  1.00  0.00     0.134 A 
ATOM     64  F   UNL A   1      49.418  26.024  29.544  1.00  0.00    -0.206 F 
ATOM     65  C   UNL A   1      51.113  25.591  27.980  1.00  0.00     0.040 A 
ATOM     66  C   UNL A   1      50.726  26.005  25.640  1.00  0.00     0.040 A 
ATOM     67  F   UNL A   1      48.666  26.869  24.922  1.00  0.00    -0.206 F 
ATOM     68  C   UNL A   1      51.569  25.576  26.663  1.00  0.00     0.006 A 
ENDBRANCH  47  61
BRANCH  48  69
ATOM     69  C   UNL A   1      39.560  28.972  29.432  1.00  0.00     0.057 A 
ATOM     70  C   UNL A   1      38.692  29.471  28.453  1.00  0.00     0.134 A 
ATOM     71  C   UNL A   1      39.061  28.844  30.733  1.00  0.00     0.134 A 
ATOM     72  F   UNL A   1      39.120  29.633  27.193  1.00  0.00    -0.206 F 
ATOM     73  C   UNL A   1      37.384  29.847  28.758  1.00  0.00     0.040 A 
ATOM     74  C   UNL A   1      37.747  29.194  31.048  1.00  0.00     0.040 A 
ATOM     75  F   UNL A   1      39.841  28.364  31.713  1.00  0.00    -0.206 F 
ATOM     76  C   UNL A   1      36.907  29.704  30.060  1.00  0.00     0.006 A 
ENDBRANCH  48  69
BRANCH  60  77
ATOM     77  C   UNL A   1      45.533  32.519  29.224  1.00  0.00     0.057 A 
ATOM     78  C   UNL A   1      45.913  32.958  30.499  1.00  0.00     0.134 A 
ATOM     79  C   UNL A   1      45.475  33.473  28.201  1.00  0.00     0.134 A 
ATOM     80  F   UNL A   1      45.972  32.095  31.525  1.00  0.00    -0.206 F 
ATOM     81  C   UNL A   1      46.196  34.301  30.754  1.00  0.00     0.040 A 
ATOM     82  C   UNL A   1      45.780  34.814  28.437  1.00  0.00     0.040 A 
ATOM     83  F   UNL A   1      45.125  33.117  26.956  1.00  0.00    -0.206 F 
ATOM     84  C   UNL A   1      46.134  35.233  29.718  1.00  0.00     0.006 A 
ENDBRANCH  60  77
ENDBRANCH  34  35
ENDBRANCH  26  29
ENDBRANCH  24  25
ENDBRANCH   1  24
TORSDOF 11
ENDMDL
MODEL 3
REMARK VINA RESULT:     -12.4      0.323      1.352
REMARK SMILES C[C@H](C(=O)NCCCNC(=O)c1ccc(-c2c3nc(c(-c4c(F)cccc4F)c4ccc([nH]4)c(-c4c(F)cccc4F)c4nc(c(-c5c(F)cccc5F)c5ccc2[nH]5)C=C4)C=C3)cc1)c1ccc2c(c1)[nH]c1ccc(Cl)cc12
REMARK SMILES IDX 7 1 6 2 5 3 3 4 4 5 2 7 1 8 66 9 67 10 71 11 68 12 70 13
REMARK SMILES IDX 69 14 72 15 79 16 73 17 78 19 74 20 76 21 75 22 77 23 8 24
REMARK SMILES IDX 9 25 10 26 11 28 12 29 13 30 65 31 14 32 64 33 15 34 16 35
REMARK SMILES IDX 17 36 58 37 18 38 63 39 57 40 59 41 19 42 62 43 56 44 55 45
REMARK SMILES IDX 20 47 46 48 29 49 45 50 30 51 33 52 44 53 60 54 31 55 32 56
REMARK SMILES IDX 43 58 61 59 34 60 21 61 22 62 27 63 23 64 24 65 26 66 28 67
REMARK SMILES IDX 25 68 47 69 48 70 53 71 49 72 50 73 52 74 54 75 51 76 35 77
REMARK SMILES IDX 36 78 41 79 37 80 38 81 40 82 42 83 39 84
REMARK H PARENT 5 6 72 18 9 27 59 46 33 57
REMARK Flexibility Score: inf
ROOT
ATOM      1  C   UNL A   1      31.318  31.865  26.475  1.00  0.00     0.042 C 
ENDROOT
BRANCH   1   2
ATOM      2  C   UNL A   1      31.397  30.406  26.032  1.00  0.00     0.117 C 
BRANCH   2   3
ATOM      3  N   UNL A   1      31.349  30.253  24.590  1.00  0.00    -0.356 N 
ATOM      4  C   UNL A   1      30.979  29.175  23.836  1.00  0.00     0.227 C 
ATOM      5  O   UNL A   1      31.024  29.293  22.610  1.00  0.00    -0.274 OA
ATOM      6  H   UNL A   1      31.624  31.047  24.076  1.00  0.00     0.163 HD
BRANCH   4   7
ATOM      7  C   UNL A   1      30.556  27.867  24.520  1.00  0.00     0.105 C 
ATOM      8  C   UNL A   1      29.445  27.182  23.719  1.00  0.00     0.023 C 
BRANCH   7   9
ATOM      9  C   UNL A   1      31.748  26.939  24.714  1.00  0.00    -0.034 A 
ATOM     10  C   UNL A   1      32.503  26.991  25.893  1.00  0.00     0.005 A 
ATOM     11  C   UNL A   1      32.113  26.039  23.696  1.00  0.00     0.031 A 
ATOM     12  C   UNL A   1      33.633  26.178  26.069  1.00  0.00     0.011 A 
ATOM     13  C   UNL A   1      33.248  25.245  23.885  1.00  0.00     0.047 A 
ATOM     14  C   UNL A   1      34.022  25.294  25.042  1.00  0.00     0.007 A 
ATOM     15  N   UNL A   1      33.826  24.322  23.047  1.00  0.00    -0.355 N 
ATOM     16  C   UNL A   1      35.105  24.372  24.870  1.00  0.00     0.009 A 
ATOM     17  C   UNL A   1      34.970  23.800  23.605  1.00  0.00     0.047 A 
ATOM     18  H   UNL A   1      33.468  24.067  22.167  1.00  0.00     0.167 HD
ATOM     19  C   UNL A   1      36.202  23.988  25.668  1.00  0.00     0.031 A 
ATOM     20  C   UNL A   1      35.882  22.876  23.082  1.00  0.00     0.028 A 
ATOM     21  C   UNL A   1      37.121  23.063  25.160  1.00  0.00     0.041 A 
ATOM     22  C   UNL A   1      36.970  22.521  23.885  1.00  0.00     0.022 A 
ATOM     23  Cl  UNL A   1      38.468  22.593  26.125  1.00  0.00    -0.084 Cl
ENDBRANCH   7   9
ENDBRANCH   4   7
ENDBRANCH   2   3
ENDBRANCH   1   2
BRANCH   1  24
ATOM     24  C   UNL A   1      32.650  32.479  26.900  1.00  0.00     0.118 C 
BRANCH  24  25
ATOM     25  N   UNL A   1      32.498  33.777  27.544  1.00  0.00    -0.352 N 
ATOM     26  C   UNL A   1      33.193  34.369  28.567  1.00  0.00     0.251 C 
ATOM     27  H   UNL A   1      31.766  34.326  27.180  1.00  0.00     0.163 HD
ATOM     28  O   UNL A   1      32.764  35.416  29.044  1.00  0.00    -0.269 OA
BRANCH  26  29
ATOM     29  C   UNL A   1      34.432  33.774  29.123  1.00  0.00     0.039 A 
ATOM     30  C   UNL A   1      34.303  32.740  30.058  1.00  0.00     0.014 A 
ATOM     31  C   UNL A   1      35.704  34.255  28.801  1.00  0.00     0.014 A 
ATOM     32  C   UNL A   1      35.441  32.157  30.623  1.00  0.00     0.010 A 
ATOM     33  C   UNL A   1      36.842  33.627  29.312  1.00  0.00     0.010 A 
ATOM     34  C   UNL A   1      36.723  32.575  30.232  1.00  0.00    -0.014 A 
BRANCH  34  35
ATOM     35  C   UNL A   1      37.931  31.898  30.772  1.00  0.00     0.031 A 
ATOM     36  C   UNL A   1      38.484  32.261  32.122  1.00  0.00     0.074 A 
ATOM     37  C   UNL A   1      38.550  30.963  30.025  1.00  0.00     0.049 A 
ATOM     38  N   UNL A   1      39.514  31.754  32.756  1.00  0.00    -0.248 NA
ATOM     39  C   UNL A   1      37.811  33.349  32.847  1.00  0.00     0.031 C 
ATOM     40  C   UNL A   1      38.150  30.561  28.675  1.00  0.00     0.029 A 
ATOM     41  N   UNL A   1      39.643  30.179  30.295  1.00  0.00    -0.354 N 
ATOM     42  C   UNL A   1      39.613  32.461  33.947  1.00  0.00     0.074 A 
ATOM     43  C   UNL A   1      38.572  33.467  33.926  1.00  0.00     0.031 C 
ATOM     44  C   UNL A   1      38.965  29.583  28.249  1.00  0.00     0.029 A 
ATOM     45  C   UNL A   1      39.957  29.307  29.282  1.00  0.00     0.049 A 
ATOM     46  H   UNL A   1      40.153  30.237  31.136  1.00  0.00     0.167 HD
ATOM     47  C   UNL A   1      40.477  32.278  34.974  1.00  0.00     0.037 A 
ATOM     48  C   UNL A   1      40.930  28.380  29.197  1.00  0.00     0.037 A 
ATOM     49  C   UNL A   1      41.502  31.265  35.005  1.00  0.00     0.049 A 
ATOM     50  C   UNL A   1      41.862  28.181  30.358  1.00  0.00     0.074 A 
ATOM     51  C   UNL A   1      42.386  30.961  36.027  1.00  0.00     0.029 A 
ATOM     52  N   UNL A   1      41.780  30.391  33.965  1.00  0.00    -0.354 N 
ATOM     53  N   UNL A   1      41.894  28.807  31.508  1.00  0.00    -0.248 NA
ATOM     54  C   UNL A   1      42.887  27.138  30.211  1.00  0.00     0.031 C 
ATOM     55  C   UNL A   1      43.222  29.928  35.592  1.00  0.00     0.029 A 
ATOM     56  C   UNL A   1      42.834  29.561  34.314  1.00  0.00     0.049 A 
ATOM     57  H   UNL A   1      41.301  30.364  33.105  1.00  0.00     0.167 HD
ATOM     58  C   UNL A   1      42.929  28.223  32.230  1.00  0.00     0.074 A 
ATOM     59  C   UNL A   1      43.482  27.178  31.394  1.00  0.00     0.031 C 
ATOM     60  C   UNL A   1      43.380  28.528  33.470  1.00  0.00     0.037 A 
BRANCH  47  61
ATOM     61  C   UNL A   1      40.346  33.189  36.159  1.00  0.00     0.057 A 
ATOM     62  C   UNL A   1      39.450  32.917  37.201  1.00  0.00     0.134 A 
ATOM     63  C   UNL A   1      41.150  34.330  36.279  1.00  0.00     0.134 A 
ATOM     64  F   UNL A   1      38.645  31.846  37.142  1.00  0.00    -0.206 F 
ATOM     65  C   UNL A   1      39.340  33.760  38.309  1.00  0.00     0.040 A 
ATOM     66  C   UNL A   1      41.066  35.167  37.394  1.00  0.00     0.040 A 
ATOM     67  F   UNL A   1      42.035  34.645  35.322  1.00  0.00    -0.206 F 
ATOM     68  C   UNL A   1      40.155  34.886  38.410  1.00  0.00     0.006 A 
ENDBRANCH  47  61
BRANCH  48  69
ATOM     69  C   UNL A   1      41.049  27.542  27.980  1.00  0.00     0.057 A 
ATOM     70  C   UNL A   1      40.388  26.312  27.885  1.00  0.00     0.134 A 
ATOM     71  C   UNL A   1      41.821  27.947  26.885  1.00  0.00     0.134 A 
ATOM     72  F   UNL A   1      39.648  25.863  28.910  1.00  0.00    -0.206 F 
ATOM     73  C   UNL A   1      40.504  25.505  26.753  1.00  0.00     0.040 A 
ATOM     74  C   UNL A   1      41.928  27.161  25.737  1.00  0.00     0.040 A 
ATOM     75  F   UNL A   1      42.471  29.120  26.913  1.00  0.00    -0.206 F 
ATOM     76  C   UNL A   1      41.273  25.932  25.672  1.00  0.00     0.006 A 
ENDBRANCH  48  69
BRANCH  60  77
ATOM     77  C   UNL A   1      44.519  27.708  33.999  1.00  0.00     0.057 A 
ATOM     78  C   UNL A   1      45.852  28.108  33.839  1.00  0.00     0.134 A 
ATOM     79  C   UNL A   1      44.281  26.509  34.683  1.00  0.00     0.134 A 
ATOM     80  F   UNL A   1      46.147  29.239  33.180  1.00  0.00    -0.206 F 
ATOM     81  C   UNL A   1      46.909  27.330  34.314  1.00  0.00     0.040 A 
ATOM     82  C   UNL A   1      45.328  25.736  35.184  1.00  0.00     0.040 A 
ATOM     83  F   UNL A   1      43.026  26.072  34.876  1.00  0.00    -0.206 F 
ATOM     84  C   UNL A   1      46.647  26.141  34.994  1.00  0.00     0.006 A 
ENDBRANCH  60  77
ENDBRANCH  34  35
ENDBRANCH  26  29
ENDBRANCH  24  25
ENDBRANCH   1  24
TORSDOF 11
ENDMDL
