MODEL 1
REMARK VINA RESULT:     -10.9      0.000      0.000
REMARK SMILES C[C@@H](C(=O)NCCCNC(=O)c1ccc(-c2c3nc(c(-c4c(F)cccc4F)c4ccc([nH]4)c(-c4c(F)cccc4F)c4nc(c(-c5c(F)cccc5F)c5ccc2[nH]5)C=C4)C=C3)cc1)c1ccc(O[C@H]2CCCC2=O)cc1F
REMARK SMILES IDX 6 1 5 2 3 3 4 4 2 6 1 7 66 8 67 9 78 10 68 11 77 12 79 13
REMARK SMILES IDX 69 14 70 15 71 16 72 17 75 18 73 19 74 20 76 21 7 22 8 23
REMARK SMILES IDX 9 24 10 25 11 27 12 28 13 29 65 30 14 31 64 32 15 33 16 34
REMARK SMILES IDX 17 35 58 36 18 37 63 38 57 39 59 40 19 41 62 42 56 43 55 44
REMARK SMILES IDX 20 46 46 47 29 48 45 49 30 50 33 51 44 52 60 53 31 54 32 55
REMARK SMILES IDX 43 57 61 58 34 59 21 60 22 61 27 62 23 63 24 64 26 65 28 66
REMARK SMILES IDX 25 67 47 68 48 69 53 70 49 71 50 72 52 73 54 74 51 75 35 76
REMARK SMILES IDX 36 77 41 78 37 79 38 80 40 81 42 82 39 83
REMARK H PARENT 5 5 9 26 59 45 33 56
REMARK Flexibility Score: inf
ROOT
ATOM      1  C   UNL A   1      33.279  34.618  28.905  1.00  0.00     0.117 C 
ENDROOT
BRANCH   1   2
ATOM      2  N   UNL A   1      33.492  35.899  29.552  1.00  0.00    -0.356 N 
ATOM      3  C   UNL A   1      33.042  36.359  30.759  1.00  0.00     0.227 C 
ATOM      4  O   UNL A   1      33.043  37.580  30.925  1.00  0.00    -0.274 OA
ATOM      5  H   UNL A   1      34.045  36.536  29.045  1.00  0.00     0.163 HD
BRANCH   3   6
ATOM      6  C   UNL A   1      32.554  35.363  31.826  1.00  0.00     0.108 C 
ATOM      7  C   UNL A   1      31.559  36.097  32.735  1.00  0.00     0.023 C 
BRANCH   6   8
ATOM      8  C   UNL A   1      33.703  34.704  32.596  1.00  0.00     0.000 A 
ATOM      9  C   UNL A   1      34.082  33.371  32.393  1.00  0.00     0.011 A 
ATOM     10  C   UNL A   1      34.449  35.439  33.527  1.00  0.00     0.130 A 
ATOM     11  C   UNL A   1      35.107  32.794  33.149  1.00  0.00     0.047 A 
ATOM     12  C   UNL A   1      35.454  34.858  34.305  1.00  0.00     0.086 A 
ATOM     13  F   UNL A   1      34.219  36.752  33.686  1.00  0.00    -0.207 F 
ATOM     14  C   UNL A   1      35.785  33.524  34.128  1.00  0.00     0.123 A 
BRANCH  14  15
ATOM     15  O   UNL A   1      36.731  32.803  34.788  1.00  0.00    -0.483 OA
BRANCH  15  16
ATOM     16  C   UNL A   1      37.774  32.138  34.121  1.00  0.00     0.239 C 
ATOM     17  C   UNL A   1      38.755  33.082  33.412  1.00  0.00     0.054 C 
ATOM     18  C   UNL A   1      38.675  31.086  34.761  1.00  0.00     0.173 C 
ATOM     19  C   UNL A   1      40.162  32.662  33.833  1.00  0.00     0.012 C 
ATOM     20  C   UNL A   1      40.086  31.202  34.253  1.00  0.00     0.080 C 
ATOM     21  O   UNL A   1      38.301  30.208  35.527  1.00  0.00    -0.296 OA
ENDBRANCH  15  16
ENDBRANCH  14  15
ENDBRANCH   6   8
ENDBRANCH   3   6
ENDBRANCH   1   2
BRANCH   1  22
ATOM     22  C   UNL A   1      34.606  34.005  28.450  1.00  0.00     0.042 C 
BRANCH  22  23
ATOM     23  C   UNL A   1      34.963  32.691  29.139  1.00  0.00     0.118 C 
BRANCH  23  24
ATOM     24  N   UNL A   1      34.230  31.560  28.599  1.00  0.00    -0.352 N 
ATOM     25  C   UNL A   1      34.692  30.351  28.150  1.00  0.00     0.251 C 
ATOM     26  H   UNL A   1      33.254  31.680  28.548  1.00  0.00     0.163 HD
ATOM     27  O   UNL A   1      33.918  29.590  27.565  1.00  0.00    -0.269 OA
BRANCH  25  28
ATOM     28  C   UNL A   1      36.105  29.949  28.339  1.00  0.00     0.039 A 
ATOM     29  C   UNL A   1      36.483  29.406  29.572  1.00  0.00     0.014 A 
ATOM     30  C   UNL A   1      37.069  30.153  27.347  1.00  0.00     0.014 A 
ATOM     31  C   UNL A   1      37.811  29.036  29.796  1.00  0.00     0.010 A 
ATOM     32  C   UNL A   1      38.382  29.723  27.548  1.00  0.00     0.010 A 
ATOM     33  C   UNL A   1      38.770  29.175  28.780  1.00  0.00    -0.014 A 
BRANCH  33  34
ATOM     34  C   UNL A   1      40.183  28.778  29.008  1.00  0.00     0.031 A 
ATOM     35  C   UNL A   1      41.133  29.717  29.700  1.00  0.00     0.074 A 
ATOM     36  C   UNL A   1      40.625  27.587  28.559  1.00  0.00     0.049 A 
ATOM     37  N   UNL A   1      42.406  29.562  29.962  1.00  0.00    -0.248 NA
ATOM     38  C   UNL A   1      40.584  31.010  30.139  1.00  0.00     0.031 C 
ATOM     39  C   UNL A   1      39.819  26.604  27.834  1.00  0.00     0.029 A 
ATOM     40  N   UNL A   1      41.865  27.005  28.644  1.00  0.00    -0.354 N 
ATOM     41  C   UNL A   1      42.813  30.740  30.574  1.00  0.00     0.074 A 
ATOM     42  C   UNL A   1      41.664  31.618  30.608  1.00  0.00     0.031 C 
ATOM     43  C   UNL A   1      40.579  25.530  27.560  1.00  0.00     0.029 A 
ATOM     44  C   UNL A   1      41.929  25.761  28.065  1.00  0.00     0.049 A 
ATOM     45  H   UNL A   1      42.634  27.437  29.078  1.00  0.00     0.167 HD
ATOM     46  C   UNL A   1      44.028  31.057  31.083  1.00  0.00     0.037 A 
ATOM     47  C   UNL A   1      42.960  24.902  27.954  1.00  0.00     0.037 A 
ATOM     48  C   UNL A   1      45.166  30.174  31.081  1.00  0.00     0.049 A 
ATOM     49  C   UNL A   1      44.293  25.268  28.544  1.00  0.00     0.074 A 
ATOM     50  C   UNL A   1      46.421  30.381  31.626  1.00  0.00     0.029 A 
ATOM     51  N   UNL A   1      45.182  28.911  30.508  1.00  0.00    -0.354 N 
ATOM     52  N   UNL A   1      44.646  26.361  29.176  1.00  0.00    -0.248 NA
ATOM     53  C   UNL A   1      45.369  24.276  28.413  1.00  0.00     0.031 C 
ATOM     54  C   UNL A   1      47.208  29.257  31.355  1.00  0.00     0.029 A 
ATOM     55  C   UNL A   1      46.430  28.333  30.675  1.00  0.00     0.049 A 
ATOM     56  H   UNL A   1      44.420  28.488  30.050  1.00  0.00     0.167 HD
ATOM     57  C   UNL A   1      45.972  26.177  29.542  1.00  0.00     0.074 A 
ATOM     58  C   UNL A   1      46.359  24.863  29.071  1.00  0.00     0.031 C 
ATOM     59  C   UNL A   1      46.796  27.021  30.209  1.00  0.00     0.037 A 
BRANCH  46  60
ATOM     60  C   UNL A   1      44.189  32.419  31.690  1.00  0.00     0.057 A 
ATOM     61  C   UNL A   1      44.621  33.517  30.934  1.00  0.00     0.134 A 
ATOM     62  C   UNL A   1      43.879  32.644  33.037  1.00  0.00     0.134 A 
ATOM     63  F   UNL A   1      44.945  33.366  29.641  1.00  0.00    -0.206 F 
ATOM     64  C   UNL A   1      44.765  34.784  31.504  1.00  0.00     0.040 A 
ATOM     65  C   UNL A   1      43.996  33.911  33.612  1.00  0.00     0.040 A 
ATOM     66  F   UNL A   1      43.454  31.638  33.815  1.00  0.00    -0.206 F 
ATOM     67  C   UNL A   1      44.446  34.984  32.845  1.00  0.00     0.006 A 
ENDBRANCH  46  60
BRANCH  47  68
ATOM     68  C   UNL A   1      42.766  23.594  27.283  1.00  0.00     0.057 A 
ATOM     69  C   UNL A   1      42.336  22.474  28.004  1.00  0.00     0.134 A 
ATOM     70  C   UNL A   1      43.007  23.429  25.915  1.00  0.00     0.134 A 
ATOM     71  F   UNL A   1      42.107  22.567  29.322  1.00  0.00    -0.206 F 
ATOM     72  C   UNL A   1      42.170  21.230  27.392  1.00  0.00     0.040 A 
ATOM     73  C   UNL A   1      42.824  22.197  25.285  1.00  0.00     0.040 A 
ATOM     74  F   UNL A   1      43.415  24.467  25.169  1.00  0.00    -0.206 F 
ATOM     75  C   UNL A   1      42.411  21.091  26.027  1.00  0.00     0.006 A 
ENDBRANCH  47  68
BRANCH  59  76
ATOM     76  C   UNL A   1      48.184  26.534  30.500  1.00  0.00     0.057 A 
ATOM     77  C   UNL A   1      49.251  26.774  29.625  1.00  0.00     0.134 A 
ATOM     78  C   UNL A   1      48.461  25.842  31.686  1.00  0.00     0.134 A 
ATOM     79  F   UNL A   1      49.047  27.419  28.467  1.00  0.00    -0.206 F 
ATOM     80  C   UNL A   1      50.540  26.324  29.909  1.00  0.00     0.040 A 
ATOM     81  C   UNL A   1      49.752  25.406  31.992  1.00  0.00     0.040 A 
ATOM     82  F   UNL A   1      47.485  25.586  32.570  1.00  0.00    -0.206 F 
ATOM     83  C   UNL A   1      50.795  25.643  31.098  1.00  0.00     0.006 A 
ENDBRANCH  59  76
ENDBRANCH  33  34
ENDBRANCH  25  28
ENDBRANCH  23  24
ENDBRANCH  22  23
ENDBRANCH   1  22
TORSDOF 13
ENDMDL
MODEL 2
REMARK VINA RESULT:     -10.7      4.378      7.776
REMARK SMILES C[C@@H](C(=O)NCCCNC(=O)c1ccc(-c2c3nc(c(-c4c(F)cccc4F)c4ccc([nH]4)c(-c4c(F)cccc4F)c4nc(c(-c5c(F)cccc5F)c5ccc2[nH]5)C=C4)C=C3)cc1)c1ccc(O[C@H]2CCCC2=O)cc1F
REMARK SMILES IDX 6 1 5 2 3 3 4 4 2 6 1 7 66 8 67 9 78 10 68 11 77 12 79 13
REMARK SMILES IDX 69 14 70 15 71 16 72 17 75 18 73 19 74 20 76 21 7 22 8 23
REMARK SMILES IDX 9 24 10 25 11 27 12 28 13 29 65 30 14 31 64 32 15 33 16 34
REMARK SMILES IDX 17 35 58 36 18 37 63 38 57 39 59 40 19 41 62 42 56 43 55 44
REMARK SMILES IDX 20 46 46 47 29 48 45 49 30 50 33 51 44 52 60 53 31 54 32 55
REMARK SMILES IDX 43 57 61 58 34 59 21 60 22 61 27 62 23 63 24 64 26 65 28 66
REMARK SMILES IDX 25 67 47 68 48 69 53 70 49 71 50 72 52 73 54 74 51 75 35 76
REMARK SMILES IDX 36 77 41 78 37 79 38 80 40 81 42 82 39 83
REMARK H PARENT 5 5 9 26 59 45 33 56
REMARK Flexibility Score: inf
ROOT
ATOM      1  C   UNL A   1      31.065  30.915  26.385  1.00  0.00     0.117 C 
ENDROOT
BRANCH   1   2
ATOM      2  N   UNL A   1      31.705  30.317  25.228  1.00  0.00    -0.356 N 
ATOM      3  C   UNL A   1      32.793  29.491  25.155  1.00  0.00     0.227 C 
ATOM      4  O   UNL A   1      33.360  29.413  24.064  1.00  0.00    -0.274 OA
ATOM      5  H   UNL A   1      31.294  30.541  24.362  1.00  0.00     0.163 HD
BRANCH   3   6
ATOM      6  C   UNL A   1      33.258  28.723  26.405  1.00  0.00     0.108 C 
ATOM      7  C   UNL A   1      34.709  29.132  26.695  1.00  0.00     0.023 C 
BRANCH   6   8
ATOM      8  C   UNL A   1      33.072  27.209  26.278  1.00  0.00     0.000 A 
ATOM      9  C   UNL A   1      34.103  26.351  25.872  1.00  0.00     0.011 A 
ATOM     10  C   UNL A   1      31.845  26.613  26.600  1.00  0.00     0.130 A 
ATOM     11  C   UNL A   1      33.878  24.979  25.726  1.00  0.00     0.047 A 
ATOM     12  C   UNL A   1      31.608  25.246  26.426  1.00  0.00     0.086 A 
ATOM     13  F   UNL A   1      30.850  27.358  27.107  1.00  0.00    -0.207 F 
ATOM     14  C   UNL A   1      32.625  24.418  25.977  1.00  0.00     0.123 A 
BRANCH  14  15
ATOM     15  O   UNL A   1      32.573  23.077  25.757  1.00  0.00    -0.483 OA
BRANCH  15  16
ATOM     16  C   UNL A   1      32.863  22.507  24.506  1.00  0.00     0.239 C 
ATOM     17  C   UNL A   1      33.287  21.034  24.581  1.00  0.00     0.054 C 
ATOM     18  C   UNL A   1      31.932  22.559  23.298  1.00  0.00     0.173 C 
ATOM     19  C   UNL A   1      32.443  20.274  23.560  1.00  0.00     0.012 C 
ATOM     20  C   UNL A   1      31.997  21.280  22.510  1.00  0.00     0.080 C 
ATOM     21  O   UNL A   1      31.274  23.533  22.955  1.00  0.00    -0.296 OA
ENDBRANCH  15  16
ENDBRANCH  14  15
ENDBRANCH   6   8
ENDBRANCH   3   6
ENDBRANCH   1   2
BRANCH   1  22
ATOM     22  C   UNL A   1      31.309  32.425  26.429  1.00  0.00     0.042 C 
BRANCH  22  23
ATOM     23  C   UNL A   1      32.631  32.834  27.072  1.00  0.00     0.118 C 
BRANCH  23  24
ATOM     24  N   UNL A   1      32.559  34.130  27.723  1.00  0.00    -0.352 N 
ATOM     25  C   UNL A   1      33.309  34.635  28.751  1.00  0.00     0.251 C 
ATOM     26  H   UNL A   1      31.867  34.736  27.372  1.00  0.00     0.163 HD
ATOM     27  O   UNL A   1      32.971  35.697  29.277  1.00  0.00    -0.269 OA
BRANCH  25  28
ATOM     28  C   UNL A   1      34.506  33.922  29.253  1.00  0.00     0.039 A 
ATOM     29  C   UNL A   1      34.326  32.889  30.181  1.00  0.00     0.014 A 
ATOM     30  C   UNL A   1      35.800  34.291  28.872  1.00  0.00     0.014 A 
ATOM     31  C   UNL A   1      35.432  32.209  30.695  1.00  0.00     0.010 A 
ATOM     32  C   UNL A   1      36.900  33.568  29.336  1.00  0.00     0.010 A 
ATOM     33  C   UNL A   1      36.728  32.530  30.264  1.00  0.00    -0.014 A 
BRANCH  33  34
ATOM     34  C   UNL A   1      37.909  31.807  30.801  1.00  0.00     0.031 A 
ATOM     35  C   UNL A   1      38.458  32.151  32.159  1.00  0.00     0.074 A 
ATOM     36  C   UNL A   1      38.515  30.864  30.052  1.00  0.00     0.049 A 
ATOM     37  N   UNL A   1      39.496  31.653  32.783  1.00  0.00    -0.248 NA
ATOM     38  C   UNL A   1      37.759  33.208  32.907  1.00  0.00     0.031 C 
ATOM     39  C   UNL A   1      38.111  30.467  28.703  1.00  0.00     0.029 A 
ATOM     40  N   UNL A   1      39.604  30.073  30.321  1.00  0.00    -0.354 N 
ATOM     41  C   UNL A   1      39.586  32.349  33.982  1.00  0.00     0.074 A 
ATOM     42  C   UNL A   1      38.524  33.332  33.981  1.00  0.00     0.031 C 
ATOM     43  C   UNL A   1      38.927  29.491  28.270  1.00  0.00     0.029 A 
ATOM     44  C   UNL A   1      39.926  29.213  29.299  1.00  0.00     0.049 A 
ATOM     45  H   UNL A   1      40.106  30.117  31.166  1.00  0.00     0.167 HD
ATOM     46  C   UNL A   1      40.459  32.172  35.002  1.00  0.00     0.037 A 
ATOM     47  C   UNL A   1      40.913  28.304  29.202  1.00  0.00     0.037 A 
ATOM     48  C   UNL A   1      41.496  31.173  35.021  1.00  0.00     0.049 A 
ATOM     49  C   UNL A   1      41.857  28.112  30.356  1.00  0.00     0.074 A 
ATOM     50  C   UNL A   1      42.391  30.876  36.034  1.00  0.00     0.029 A 
ATOM     51  N   UNL A   1      41.772  30.304  33.976  1.00  0.00    -0.354 N 
ATOM     52  N   UNL A   1      41.891  28.735  31.509  1.00  0.00    -0.248 NA
ATOM     53  C   UNL A   1      42.896  27.085  30.197  1.00  0.00     0.031 C 
ATOM     54  C   UNL A   1      43.231  29.849  35.590  1.00  0.00     0.029 A 
ATOM     55  C   UNL A   1      42.833  29.479  34.315  1.00  0.00     0.049 A 
ATOM     56  H   UNL A   1      41.287  30.277  33.120  1.00  0.00     0.167 HD
ATOM     57  C   UNL A   1      42.931  28.156  32.222  1.00  0.00     0.074 A 
ATOM     58  C   UNL A   1      43.498  27.126  31.377  1.00  0.00     0.031 C 
ATOM     59  C   UNL A   1      43.378  28.452  33.468  1.00  0.00     0.037 A 
BRANCH  46  60
ATOM     60  C   UNL A   1      40.327  33.079  36.189  1.00  0.00     0.057 A 
ATOM     61  C   UNL A   1      39.432  32.805  37.231  1.00  0.00     0.134 A 
ATOM     62  C   UNL A   1      41.125  34.224  36.308  1.00  0.00     0.134 A 
ATOM     63  F   UNL A   1      38.630  31.731  37.173  1.00  0.00    -0.206 F 
ATOM     64  C   UNL A   1      39.315  33.651  38.336  1.00  0.00     0.040 A 
ATOM     65  C   UNL A   1      41.035  35.065  37.419  1.00  0.00     0.040 A 
ATOM     66  F   UNL A   1      42.008  34.542  35.349  1.00  0.00    -0.206 F 
ATOM     67  C   UNL A   1      40.124  34.782  38.434  1.00  0.00     0.006 A 
ENDBRANCH  46  60
BRANCH  47  68
ATOM     68  C   UNL A   1      41.041  27.478  27.977  1.00  0.00     0.057 A 
ATOM     69  C   UNL A   1      41.800  27.921  26.887  1.00  0.00     0.134 A 
ATOM     70  C   UNL A   1      40.408  26.236  27.862  1.00  0.00     0.134 A 
ATOM     71  F   UNL A   1      42.414  29.112  26.932  1.00  0.00    -0.206 F 
ATOM     72  C   UNL A   1      41.911  27.165  25.719  1.00  0.00     0.040 A 
ATOM     73  C   UNL A   1      40.528  25.459  26.708  1.00  0.00     0.040 A 
ATOM     74  F   UNL A   1      39.672  25.754  28.875  1.00  0.00    -0.206 F 
ATOM     75  C   UNL A   1      41.277  25.928  25.630  1.00  0.00     0.006 A 
ENDBRANCH  47  68
BRANCH  59  76
ATOM     76  C   UNL A   1      44.510  27.627  34.002  1.00  0.00     0.057 A 
ATOM     77  C   UNL A   1      44.292  26.414  34.665  1.00  0.00     0.134 A 
ATOM     78  C   UNL A   1      45.837  28.039  33.823  1.00  0.00     0.134 A 
ATOM     79  F   UNL A   1      43.044  25.972  34.881  1.00  0.00    -0.206 F 
ATOM     80  C   UNL A   1      45.353  25.649  35.152  1.00  0.00     0.040 A 
ATOM     81  C   UNL A   1      46.908  27.271  34.285  1.00  0.00     0.040 A 
ATOM     82  F   UNL A   1      46.114  29.188  33.188  1.00  0.00    -0.206 F 
ATOM     83  C   UNL A   1      46.666  26.075  34.956  1.00  0.00     0.006 A 
ENDBRANCH  59  76
ENDBRANCH  33  34
ENDBRANCH  25  28
ENDBRANCH  23  24
ENDBRANCH  22  23
ENDBRANCH   1  22
TORSDOF 13
ENDMDL
MODEL 3
REMARK VINA RESULT:     -10.7      4.398     10.425
REMARK SMILES C[C@@H](C(=O)NCCCNC(=O)c1ccc(-c2c3nc(c(-c4c(F)cccc4F)c4ccc([nH]4)c(-c4c(F)cccc4F)c4nc(c(-c5c(F)cccc5F)c5ccc2[nH]5)C=C4)C=C3)cc1)c1ccc(O[C@H]2CCCC2=O)cc1F
REMARK SMILES IDX 6 1 5 2 3 3 4 4 2 6 1 7 66 8 67 9 78 10 68 11 77 12 79 13
REMARK SMILES IDX 69 14 70 15 71 16 72 17 75 18 73 19 74 20 76 21 7 22 8 23
REMARK SMILES IDX 9 24 10 25 11 27 12 28 13 29 65 30 14 31 64 32 15 33 16 34
REMARK SMILES IDX 17 35 58 36 18 37 63 38 57 39 59 40 19 41 62 42 56 43 55 44
REMARK SMILES IDX 20 46 46 47 29 48 45 49 30 50 33 51 44 52 60 53 31 54 32 55
REMARK SMILES IDX 43 57 61 58 34 59 21 60 22 61 27 62 23 63 24 64 26 65 28 66
REMARK SMILES IDX 25 67 47 68 48 69 53 70 49 71 50 72 52 73 54 74 51 75 35 76
REMARK SMILES IDX 36 77 41 78 37 79 38 80 40 81 42 82 39 83
REMARK H PARENT 5 5 9 26 59 45 33 56
REMARK Flexibility Score: inf
ROOT
ATOM      1  C   UNL A   1      37.326  20.121  24.450  1.00  0.00     0.117 C 
ENDROOT
BRANCH   1   2
ATOM      2  N   UNL A   1      36.186  20.500  25.264  1.00  0.00    -0.356 N 
ATOM      3  C   UNL A   1      35.854  21.714  25.799  1.00  0.00     0.227 C 
ATOM      4  O   UNL A   1      35.056  21.709  26.738  1.00  0.00    -0.274 OA
ATOM      5  H   UNL A   1      35.555  19.771  25.463  1.00  0.00     0.163 HD
BRANCH   3   6
ATOM      6  C   UNL A   1      36.481  23.000  25.231  1.00  0.00     0.108 C 
ATOM      7  C   UNL A   1      37.374  23.608  26.321  1.00  0.00     0.023 C 
BRANCH   6   8
ATOM      8  C   UNL A   1      35.439  23.981  24.687  1.00  0.00     0.000 A 
ATOM      9  C   UNL A   1      34.978  25.080  25.425  1.00  0.00     0.011 A 
ATOM     10  C   UNL A   1      34.923  23.827  23.394  1.00  0.00     0.130 A 
ATOM     11  C   UNL A   1      33.992  25.926  24.908  1.00  0.00     0.047 A 
ATOM     12  C   UNL A   1      33.916  24.653  22.886  1.00  0.00     0.086 A 
ATOM     13  F   UNL A   1      35.406  22.867  22.588  1.00  0.00    -0.207 F 
ATOM     14  C   UNL A   1      33.435  25.707  23.647  1.00  0.00     0.123 A 
BRANCH  14  15
ATOM     15  O   UNL A   1      32.470  26.606  23.313  1.00  0.00    -0.483 OA
BRANCH  15  16
ATOM     16  C   UNL A   1      31.233  26.664  23.976  1.00  0.00     0.239 C 
ATOM     17  C   UNL A   1      30.538  28.028  23.869  1.00  0.00     0.054 C 
ATOM     18  C   UNL A   1      30.101  25.660  23.780  1.00  0.00     0.173 C 
ATOM     19  C   UNL A   1      29.102  27.764  23.423  1.00  0.00     0.012 C 
ATOM     20  C   UNL A   1      28.760  26.340  23.833  1.00  0.00     0.080 C 
ATOM     21  O   UNL A   1      30.242  24.449  23.673  1.00  0.00    -0.296 OA
ENDBRANCH  15  16
ENDBRANCH  14  15
ENDBRANCH   6   8
ENDBRANCH   3   6
ENDBRANCH   1   2
BRANCH   1  22
ATOM     22  C   UNL A   1      38.239  19.148  25.201  1.00  0.00     0.042 C 
BRANCH  22  23
ATOM     23  C   UNL A   1      39.371  19.815  25.976  1.00  0.00     0.118 C 
BRANCH  23  24
ATOM     24  N   UNL A   1      40.635  19.114  25.834  1.00  0.00    -0.352 N 
ATOM     25  C   UNL A   1      41.914  19.584  25.962  1.00  0.00     0.251 C 
ATOM     26  H   UNL A   1      40.560  18.158  25.612  1.00  0.00     0.163 HD
ATOM     27  O   UNL A   1      42.856  18.863  25.628  1.00  0.00    -0.269 OA
BRANCH  25  28
ATOM     28  C   UNL A   1      42.187  20.946  26.478  1.00  0.00     0.039 A 
ATOM     29  C   UNL A   1      42.125  21.158  27.861  1.00  0.00     0.014 A 
ATOM     30  C   UNL A   1      42.441  22.022  25.623  1.00  0.00     0.014 A 
ATOM     31  C   UNL A   1      42.353  22.433  28.383  1.00  0.00     0.010 A 
ATOM     32  C   UNL A   1      42.733  23.281  26.150  1.00  0.00     0.010 A 
ATOM     33  C   UNL A   1      42.676  23.503  27.535  1.00  0.00    -0.014 A 
BRANCH  33  34
ATOM     34  C   UNL A   1      42.927  24.860  28.083  1.00  0.00     0.031 A 
ATOM     35  C   UNL A   1      44.317  25.273  28.483  1.00  0.00     0.074 A 
ATOM     36  C   UNL A   1      41.898  25.712  28.260  1.00  0.00     0.049 A 
ATOM     37  N   UNL A   1      44.727  26.400  29.008  1.00  0.00    -0.248 NA
ATOM     38  C   UNL A   1      45.385  24.280  28.286  1.00  0.00     0.031 C 
ATOM     39  C   UNL A   1      40.497  25.421  27.955  1.00  0.00     0.029 A 
ATOM     40  N   UNL A   1      41.874  26.996  28.743  1.00  0.00    -0.354 N 
ATOM     41  C   UNL A   1      46.091  26.244  29.222  1.00  0.00     0.074 A 
ATOM     42  C   UNL A   1      46.433  24.899  28.810  1.00  0.00     0.031 C 
ATOM     43  C   UNL A   1      39.752  26.503  28.237  1.00  0.00     0.029 A 
ATOM     44  C   UNL A   1      40.618  27.552  28.767  1.00  0.00     0.049 A 
ATOM     45  H   UNL A   1      42.680  27.473  29.044  1.00  0.00     0.167 HD
ATOM     46  C   UNL A   1      46.984  27.144  29.697  1.00  0.00     0.037 A 
ATOM     47  C   UNL A   1      40.210  28.770  29.170  1.00  0.00     0.037 A 
ATOM     48  C   UNL A   1      46.655  28.493  30.077  1.00  0.00     0.049 A 
ATOM     49  C   UNL A   1      41.224  29.759  29.674  1.00  0.00     0.074 A 
ATOM     50  C   UNL A   1      47.501  29.499  30.512  1.00  0.00     0.029 A 
ATOM     51  N   UNL A   1      45.375  29.026  30.061  1.00  0.00    -0.354 N 
ATOM     52  N   UNL A   1      42.520  29.618  29.811  1.00  0.00    -0.248 NA
ATOM     53  C   UNL A   1      40.718  31.080  30.072  1.00  0.00     0.031 C 
ATOM     54  C   UNL A   1      46.728  30.632  30.791  1.00  0.00     0.029 A 
ATOM     55  C   UNL A   1      45.406  30.343  30.492  1.00  0.00     0.049 A 
ATOM     56  H   UNL A   1      44.564  28.541  29.785  1.00  0.00     0.167 HD
ATOM     57  C   UNL A   1      42.987  30.838  30.282  1.00  0.00     0.074 A 
ATOM     58  C   UNL A   1      41.837  31.711  30.398  1.00  0.00     0.031 C 
ATOM     59  C   UNL A   1      44.255  31.201  30.591  1.00  0.00     0.037 A 
BRANCH  46  60
ATOM     60  C   UNL A   1      48.411  26.698  29.830  1.00  0.00     0.057 A 
ATOM     61  C   UNL A   1      48.886  26.088  30.998  1.00  0.00     0.134 A 
ATOM     62  C   UNL A   1      49.311  26.852  28.768  1.00  0.00     0.134 A 
ATOM     63  F   UNL A   1      48.078  25.922  32.055  1.00  0.00    -0.206 F 
ATOM     64  C   UNL A   1      50.214  25.671  31.114  1.00  0.00     0.040 A 
ATOM     65  C   UNL A   1      50.634  26.418  28.864  1.00  0.00     0.040 A 
ATOM     66  F   UNL A   1      48.918  27.423  27.620  1.00  0.00    -0.206 F 
ATOM     67  C   UNL A   1      51.090  25.830  30.042  1.00  0.00     0.006 A 
ENDBRANCH  46  60
BRANCH  47  68
ATOM     68  C   UNL A   1      38.777  29.138  29.081  1.00  0.00     0.057 A 
ATOM     69  C   UNL A   1      38.220  29.572  27.872  1.00  0.00     0.134 A 
ATOM     70  C   UNL A   1      37.933  29.071  30.194  1.00  0.00     0.134 A 
ATOM     71  F   UNL A   1      38.984  29.676  26.775  1.00  0.00    -0.206 F 
ATOM     72  C   UNL A   1      36.878  29.944  27.777  1.00  0.00     0.040 A 
ATOM     73  C   UNL A   1      36.584  29.418  30.109  1.00  0.00     0.040 A 
ATOM     74  F   UNL A   1      38.407  28.656  31.379  1.00  0.00    -0.206 F 
ATOM     75  C   UNL A   1      36.055  29.863  28.899  1.00  0.00     0.006 A 
ENDBRANCH  47  68
BRANCH  59  76
ATOM     76  C   UNL A   1      44.469  32.613  31.049  1.00  0.00     0.057 A 
ATOM     77  C   UNL A   1      44.444  32.963  32.405  1.00  0.00     0.134 A 
ATOM     78  C   UNL A   1      44.733  33.629  30.122  1.00  0.00     0.134 A 
ATOM     79  F   UNL A   1      44.182  32.038  33.340  1.00  0.00    -0.206 F 
ATOM     80  C   UNL A   1      44.652  34.278  32.821  1.00  0.00     0.040 A 
ATOM     81  C   UNL A   1      44.966  34.945  30.527  1.00  0.00     0.040 A 
ATOM     82  F   UNL A   1      44.779  33.359  28.808  1.00  0.00    -0.206 F 
ATOM     83  C   UNL A   1      44.920  35.272  31.881  1.00  0.00     0.006 A 
ENDBRANCH  59  76
ENDBRANCH  33  34
ENDBRANCH  25  28
ENDBRANCH  23  24
ENDBRANCH  22  23
ENDBRANCH   1  22
TORSDOF 13
ENDMDL
