MODEL 1
REMARK VINA RESULT:     -13.7      0.000      0.000
REMARK SMILES Cc1cccc(-n2ncc(C(=O)Nc3cccc(C(=O)NCCCNC(=O)c4ccc(-c5c6nc(c(-c7c(F)cccc7F)c7ccc([nH]7)c(-c7c(F)cccc7F)c7nc(c(-c8c(F)cccc8F)c8ccc5[nH]8)C=C7)C=C6)cc4)c3C)c2C)c1
REMARK SMILES IDX 22 1 21 2 19 3 20 4 18 6 14 7 15 8 82 9 16 10 83 11 17 12
REMARK SMILES IDX 13 13 11 14 12 15 10 17 7 18 8 19 84 20 9 21 85 22 6 23 1 24
REMARK SMILES IDX 2 25 3 26 86 27 4 28 5 29 23 30 24 31 25 32 26 33 27 35
REMARK SMILES IDX 28 36 29 37 81 38 30 39 80 40 31 41 32 42 33 43 74 44 34 45
REMARK SMILES IDX 79 46 73 47 75 48 35 49 78 50 72 51 71 52 36 54 62 55 45 56
REMARK SMILES IDX 61 57 46 58 49 59 60 60 76 61 47 62 48 63 59 65 77 66 50 67
REMARK SMILES IDX 37 68 38 69 43 70 39 71 40 72 42 73 44 74 41 75 63 76 64 77
REMARK SMILES IDX 69 78 65 79 66 80 68 81 70 82 67 83 51 84 52 85 57 86 53 87
REMARK SMILES IDX 54 88 56 89 58 90 55 91
REMARK H PARENT 21 5 13 16 25 34 75 53 49 64
REMARK Flexibility Score: inf
ROOT
ATOM      1  C   UNL A   1      37.166  21.185  25.195  1.00  0.00     0.118 C 
ENDROOT
BRANCH   1   2
ATOM      2  N   UNL A   1      36.274  21.871  26.118  1.00  0.00    -0.352 N 
ATOM      3  C   UNL A   1      34.969  22.310  26.047  1.00  0.00     0.251 C 
ATOM      4  O   UNL A   1      34.563  22.866  27.065  1.00  0.00    -0.269 OA
ATOM      5  H   UNL A   1      36.696  22.066  26.985  1.00  0.00     0.163 HD
BRANCH   3   6
ATOM      6  C   UNL A   1      34.060  22.120  24.853  1.00  0.00     0.044 A 
ATOM      7  C   UNL A   1      33.120  22.859  22.727  1.00  0.00     0.045 A 
ATOM      8  C   UNL A   1      32.156  21.848  22.779  1.00  0.00     0.026 A 
ATOM      9  C   UNL A   1      34.153  22.947  23.697  1.00  0.00    -0.015 A 
ATOM     10  C   UNL A   1      32.154  20.956  23.832  1.00  0.00     0.003 A 
ATOM     11  C   UNL A   1      35.218  24.004  23.519  1.00  0.00     0.047 C 
ATOM     12  C   UNL A   1      33.084  21.110  24.855  1.00  0.00     0.014 A 
BRANCH   7  13
ATOM     13  N   UNL A   1      33.027  23.816  21.704  1.00  0.00    -0.322 N 
ATOM     14  C   UNL A   1      32.404  25.047  21.732  1.00  0.00     0.259 C 
ATOM     15  O   UNL A   1      32.135  25.582  20.656  1.00  0.00    -0.269 OA
ATOM     16  H   UNL A   1      33.463  23.578  20.854  1.00  0.00     0.170 HD
BRANCH  14  17
ATOM     17  C   UNL A   1      32.196  25.735  23.009  1.00  0.00     0.081 A 
ATOM     18  N   UNL A   1      32.360  27.173  24.713  1.00  0.00    -0.237 N 
ATOM     19  N   UNL A   1      31.547  26.185  25.163  1.00  0.00    -0.175 NA
ATOM     20  C   UNL A   1      32.871  26.870  23.457  1.00  0.00     0.054 A 
ATOM     21  C   UNL A   1      31.434  25.351  24.135  1.00  0.00     0.149 A 
ATOM     22  C   UNL A   1      34.027  27.563  22.823  1.00  0.00     0.068 C 
BRANCH  18  23
ATOM     23  C   UNL A   1      32.614  28.291  25.554  1.00  0.00     0.065 A 
ATOM     24  C   UNL A   1      31.028  31.689  26.229  1.00  0.00     0.044 C 
ATOM     25  C   UNL A   1      31.962  30.517  26.291  1.00  0.00    -0.049 A 
ATOM     26  C   UNL A   1      32.982  30.480  27.249  1.00  0.00     0.003 A 
ATOM     27  C   UNL A   1      31.802  29.430  25.424  1.00  0.00     0.031 A 
ATOM     28  C   UNL A   1      33.829  29.374  27.340  1.00  0.00     0.002 A 
ATOM     29  C   UNL A   1      33.645  28.277  26.498  1.00  0.00     0.028 A 
ENDBRANCH  18  23
ENDBRANCH  14  17
ENDBRANCH   7  13
ENDBRANCH   3   6
ENDBRANCH   1   2
BRANCH   1  30
ATOM     30  C   UNL A   1      38.631  21.442  25.549  1.00  0.00     0.042 C 
BRANCH  30  31
ATOM     31  C   UNL A   1      38.899  22.786  26.202  1.00  0.00     0.118 C 
BRANCH  31  32
ATOM     32  N   UNL A   1      40.280  22.949  26.651  1.00  0.00    -0.352 N 
ATOM     33  C   UNL A   1      40.920  24.092  27.104  1.00  0.00     0.251 C 
ATOM     34  H   UNL A   1      40.831  22.135  26.629  1.00  0.00     0.163 HD
ATOM     35  O   UNL A   1      42.078  24.049  27.482  1.00  0.00    -0.269 OA
BRANCH  33  36
ATOM     36  C   UNL A   1      40.123  25.330  27.266  1.00  0.00     0.039 A 
ATOM     37  C   UNL A   1      40.478  26.421  26.467  1.00  0.00     0.014 A 
ATOM     38  C   UNL A   1      39.291  25.495  28.370  1.00  0.00     0.014 A 
ATOM     39  C   UNL A   1      40.250  27.704  26.947  1.00  0.00     0.010 A 
ATOM     40  C   UNL A   1      39.163  26.761  28.901  1.00  0.00     0.010 A 
ATOM     41  C   UNL A   1      39.726  27.853  28.229  1.00  0.00    -0.014 A 
BRANCH  41  42
ATOM     42  C   UNL A   1      39.881  29.079  29.005  1.00  0.00     0.031 A 
ATOM     43  C   UNL A   1      38.853  30.133  28.948  1.00  0.00     0.074 A 
ATOM     44  C   UNL A   1      40.938  29.199  29.840  1.00  0.00     0.049 A 
ATOM     45  N   UNL A   1      39.032  31.347  29.348  1.00  0.00    -0.248 NA
ATOM     46  C   UNL A   1      37.548  29.919  28.337  1.00  0.00     0.031 C 
ATOM     47  C   UNL A   1      41.117  30.170  30.915  1.00  0.00     0.029 A 
ATOM     48  N   UNL A   1      42.192  28.579  29.719  1.00  0.00    -0.354 N 
ATOM     49  C   UNL A   1      37.813  31.985  29.319  1.00  0.00     0.074 A 
ATOM     50  C   UNL A   1      36.962  31.096  28.571  1.00  0.00     0.031 C 
ATOM     51  C   UNL A   1      42.428  30.302  31.166  1.00  0.00     0.029 A 
ATOM     52  C   UNL A   1      43.135  29.537  30.153  1.00  0.00     0.049 A 
ATOM     53  H   UNL A   1      42.377  27.666  29.398  1.00  0.00     0.167 HD
ATOM     54  C   UNL A   1      37.658  33.124  30.056  1.00  0.00     0.037 A 
ATOM     55  C   UNL A   1      44.079  30.050  29.314  1.00  0.00     0.037 A 
ATOM     56  C   UNL A   1      38.961  33.618  30.516  1.00  0.00     0.049 A 
ATOM     57  C   UNL A   1      44.030  31.553  29.175  1.00  0.00     0.074 A 
ATOM     58  C   UNL A   1      39.624  33.568  31.732  1.00  0.00     0.029 A 
ATOM     59  N   UNL A   1      39.901  34.029  29.574  1.00  0.00    -0.354 N 
ATOM     60  N   UNL A   1      42.987  32.278  29.470  1.00  0.00    -0.248 NA
ATOM     61  C   UNL A   1      45.141  32.354  28.670  1.00  0.00     0.031 C 
ATOM     62  C   UNL A   1      40.988  33.888  31.501  1.00  0.00     0.029 A 
ATOM     63  C   UNL A   1      41.148  34.160  30.154  1.00  0.00     0.049 A 
ATOM     64  H   UNL A   1      39.704  34.202  28.626  1.00  0.00     0.167 HD
ATOM     65  C   UNL A   1      43.247  33.595  29.188  1.00  0.00     0.074 A 
ATOM     66  C   UNL A   1      44.619  33.593  28.713  1.00  0.00     0.031 C 
ATOM     67  C   UNL A   1      42.300  34.565  29.357  1.00  0.00     0.037 A 
BRANCH  54  68
ATOM     68  C   UNL A   1      36.331  33.648  30.594  1.00  0.00     0.057 A 
ATOM     69  C   UNL A   1      35.380  34.212  29.715  1.00  0.00     0.134 A 
ATOM     70  C   UNL A   1      35.956  33.738  31.949  1.00  0.00     0.134 A 
ATOM     71  F   UNL A   1      35.528  34.154  28.385  1.00  0.00    -0.206 F 
ATOM     72  C   UNL A   1      34.223  34.881  30.150  1.00  0.00     0.040 A 
ATOM     73  C   UNL A   1      34.810  34.411  32.399  1.00  0.00     0.040 A 
ATOM     74  F   UNL A   1      36.650  33.164  32.930  1.00  0.00    -0.206 F 
ATOM     75  C   UNL A   1      33.944  35.002  31.500  1.00  0.00     0.006 A 
ENDBRANCH  54  68
BRANCH  55  76
ATOM     76  C   UNL A   1      44.500  29.108  28.244  1.00  0.00     0.057 A 
ATOM     77  C   UNL A   1      45.400  28.077  28.567  1.00  0.00     0.134 A 
ATOM     78  C   UNL A   1      43.786  28.978  27.051  1.00  0.00     0.134 A 
ATOM     79  F   UNL A   1      46.118  28.140  29.700  1.00  0.00    -0.206 F 
ATOM     80  C   UNL A   1      45.503  26.917  27.796  1.00  0.00     0.040 A 
ATOM     81  C   UNL A   1      43.889  27.825  26.264  1.00  0.00     0.040 A 
ATOM     82  F   UNL A   1      42.891  29.907  26.686  1.00  0.00    -0.206 F 
ATOM     83  C   UNL A   1      44.720  26.775  26.655  1.00  0.00     0.006 A 
ENDBRANCH  55  76
BRANCH  67  84
ATOM     84  C   UNL A   1      42.379  35.994  28.866  1.00  0.00     0.057 A 
ATOM     85  C   UNL A   1      43.102  37.017  29.500  1.00  0.00     0.134 A 
ATOM     86  C   UNL A   1      41.826  36.350  27.613  1.00  0.00     0.134 A 
ATOM     87  F   UNL A   1      43.779  36.802  30.635  1.00  0.00    -0.206 F 
ATOM     88  C   UNL A   1      43.220  38.306  28.958  1.00  0.00     0.040 A 
ATOM     89  C   UNL A   1      41.985  37.616  27.038  1.00  0.00     0.040 A 
ATOM     90  F   UNL A   1      41.128  35.475  26.875  1.00  0.00    -0.206 F 
ATOM     91  C   UNL A   1      42.671  38.607  27.718  1.00  0.00     0.006 A 
ENDBRANCH  67  84
ENDBRANCH  41  42
ENDBRANCH  33  36
ENDBRANCH  31  32
ENDBRANCH  30  31
ENDBRANCH   1  30
TORSDOF 13
ENDMDL
MODEL 2
REMARK VINA RESULT:     -13.6      3.709      9.314
REMARK SMILES Cc1cccc(-n2ncc(C(=O)Nc3cccc(C(=O)NCCCNC(=O)c4ccc(-c5c6nc(c(-c7c(F)cccc7F)c7ccc([nH]7)c(-c7c(F)cccc7F)c7nc(c(-c8c(F)cccc8F)c8ccc5[nH]8)C=C7)C=C6)cc4)c3C)c2C)c1
REMARK SMILES IDX 22 1 21 2 19 3 20 4 18 6 14 7 15 8 82 9 16 10 83 11 17 12
REMARK SMILES IDX 13 13 11 14 12 15 10 17 7 18 8 19 84 20 9 21 85 22 6 23 1 24
REMARK SMILES IDX 2 25 3 26 86 27 4 28 5 29 23 30 24 31 25 32 26 33 27 35
REMARK SMILES IDX 28 36 29 37 81 38 30 39 80 40 31 41 32 42 33 43 74 44 34 45
REMARK SMILES IDX 79 46 73 47 75 48 35 49 78 50 72 51 71 52 36 54 62 55 45 56
REMARK SMILES IDX 61 57 46 58 49 59 60 60 76 61 47 62 48 63 59 65 77 66 50 67
REMARK SMILES IDX 37 68 38 69 43 70 39 71 40 72 42 73 44 74 41 75 63 76 64 77
REMARK SMILES IDX 69 78 65 79 66 80 68 81 70 82 67 83 51 84 52 85 57 86 53 87
REMARK SMILES IDX 54 88 56 89 58 90 55 91
REMARK H PARENT 21 5 13 16 25 34 75 53 49 64
REMARK Flexibility Score: inf
ROOT
ATOM      1  C   UNL A   1      31.885  30.663  26.317  1.00  0.00     0.118 C 
ENDROOT
BRANCH   1   2
ATOM      2  N   UNL A   1      32.743  29.948  25.385  1.00  0.00    -0.352 N 
ATOM      3  C   UNL A   1      32.615  28.782  24.661  1.00  0.00     0.251 C 
ATOM      4  O   UNL A   1      33.592  28.501  23.969  1.00  0.00    -0.269 OA
ATOM      5  H   UNL A   1      33.608  30.395  25.240  1.00  0.00     0.163 HD
BRANCH   3   6
ATOM      6  C   UNL A   1      31.385  27.901  24.656  1.00  0.00     0.044 A 
ATOM      7  C   UNL A   1      30.046  26.073  25.559  1.00  0.00     0.045 A 
ATOM      8  C   UNL A   1      29.202  26.115  24.445  1.00  0.00     0.026 A 
ATOM      9  C   UNL A   1      31.080  27.029  25.740  1.00  0.00    -0.015 A 
ATOM     10  C   UNL A   1      29.414  27.057  23.459  1.00  0.00     0.003 A 
ATOM     11  C   UNL A   1      31.887  26.981  27.016  1.00  0.00     0.047 C 
ATOM     12  C   UNL A   1      30.501  27.919  23.565  1.00  0.00     0.014 A 
BRANCH   7  13
ATOM     13  N   UNL A   1      29.873  25.033  26.486  1.00  0.00    -0.322 N 
ATOM     14  C   UNL A   1      30.384  23.752  26.449  1.00  0.00     0.259 C 
ATOM     15  O   UNL A   1      29.850  22.898  27.157  1.00  0.00    -0.269 OA
ATOM     16  H   UNL A   1      29.313  25.247  27.267  1.00  0.00     0.170 HD
BRANCH  14  17
ATOM     17  C   UNL A   1      31.601  23.470  25.684  1.00  0.00     0.081 A 
ATOM     18  N   UNL A   1      33.712  22.985  25.128  1.00  0.00    -0.237 N 
ATOM     19  N   UNL A   1      33.111  23.329  23.962  1.00  0.00    -0.175 NA
ATOM     20  C   UNL A   1      32.860  23.179  26.209  1.00  0.00     0.054 A 
ATOM     21  C   UNL A   1      31.852  23.588  24.299  1.00  0.00     0.149 A 
ATOM     22  C   UNL A   1      33.293  23.215  27.634  1.00  0.00     0.068 C 
BRANCH  18  23
ATOM     23  C   UNL A   1      35.066  22.554  25.103  1.00  0.00     0.065 A 
ATOM     24  C   UNL A   1      36.934  19.242  24.862  1.00  0.00     0.044 C 
ATOM     25  C   UNL A   1      36.650  20.710  24.982  1.00  0.00    -0.049 A 
ATOM     26  C   UNL A   1      37.699  21.636  24.939  1.00  0.00     0.003 A 
ATOM     27  C   UNL A   1      35.335  21.176  25.095  1.00  0.00     0.031 A 
ATOM     28  C   UNL A   1      37.438  23.006  25.009  1.00  0.00     0.002 A 
ATOM     29  C   UNL A   1      36.124  23.468  25.086  1.00  0.00     0.028 A 
ENDBRANCH  18  23
ENDBRANCH  14  17
ENDBRANCH   7  13
ENDBRANCH   3   6
ENDBRANCH   1   2
BRANCH   1  30
ATOM     30  C   UNL A   1      32.707  31.537  27.266  1.00  0.00     0.042 C 
BRANCH  30  31
ATOM     31  C   UNL A   1      34.090  31.000  27.582  1.00  0.00     0.118 C 
BRANCH  31  32
ATOM     32  N   UNL A   1      34.797  31.777  28.598  1.00  0.00    -0.352 N 
ATOM     33  C   UNL A   1      35.940  31.446  29.310  1.00  0.00     0.251 C 
ATOM     34  H   UNL A   1      34.407  32.656  28.806  1.00  0.00     0.163 HD
ATOM     35  O   UNL A   1      36.428  32.233  30.104  1.00  0.00    -0.269 OA
BRANCH  33  36
ATOM     36  C   UNL A   1      36.641  30.186  28.974  1.00  0.00     0.039 A 
ATOM     37  C   UNL A   1      36.799  29.254  30.004  1.00  0.00     0.014 A 
ATOM     38  C   UNL A   1      37.377  30.080  27.797  1.00  0.00     0.014 A 
ATOM     39  C   UNL A   1      37.899  28.408  29.978  1.00  0.00     0.010 A 
ATOM     40  C   UNL A   1      38.529  29.323  27.820  1.00  0.00     0.010 A 
ATOM     41  C   UNL A   1      38.832  28.558  28.954  1.00  0.00    -0.014 A 
BRANCH  41  42
ATOM     42  C   UNL A   1      40.208  28.088  29.067  1.00  0.00     0.031 A 
ATOM     43  C   UNL A   1      40.575  26.735  28.613  1.00  0.00     0.074 A 
ATOM     44  C   UNL A   1      41.158  28.939  29.517  1.00  0.00     0.049 A 
ATOM     45  N   UNL A   1      41.668  26.129  28.935  1.00  0.00    -0.248 NA
ATOM     46  C   UNL A   1      39.676  25.907  27.820  1.00  0.00     0.031 C 
ATOM     47  C   UNL A   1      42.607  28.790  29.415  1.00  0.00     0.029 A 
ATOM     48  N   UNL A   1      40.981  30.032  30.381  1.00  0.00    -0.354 N 
ATOM     49  C   UNL A   1      41.753  24.981  28.183  1.00  0.00     0.074 A 
ATOM     50  C   UNL A   1      40.440  24.833  27.607  1.00  0.00     0.031 C 
ATOM     51  C   UNL A   1      43.187  29.531  30.371  1.00  0.00     0.029 A 
ATOM     52  C   UNL A   1      42.122  30.050  31.212  1.00  0.00     0.049 A 
ATOM     53  H   UNL A   1      40.219  30.656  30.403  1.00  0.00     0.167 HD
ATOM     54  C   UNL A   1      42.973  24.384  28.042  1.00  0.00     0.037 A 
ATOM     55  C   UNL A   1      42.035  29.857  32.559  1.00  0.00     0.037 A 
ATOM     56  C   UNL A   1      43.932  24.947  28.999  1.00  0.00     0.049 A 
ATOM     57  C   UNL A   1      42.850  28.693  33.069  1.00  0.00     0.074 A 
ATOM     58  C   UNL A   1      44.968  25.861  28.885  1.00  0.00     0.029 A 
ATOM     59  N   UNL A   1      43.704  24.782  30.363  1.00  0.00    -0.354 N 
ATOM     60  N   UNL A   1      43.273  27.714  32.317  1.00  0.00    -0.248 NA
ATOM     61  C   UNL A   1      43.231  28.524  34.469  1.00  0.00     0.031 C 
ATOM     62  C   UNL A   1      45.317  26.294  30.192  1.00  0.00     0.029 A 
ATOM     63  C   UNL A   1      44.514  25.624  31.099  1.00  0.00     0.049 A 
ATOM     64  H   UNL A   1      43.054  24.152  30.750  1.00  0.00     0.167 HD
ATOM     65  C   UNL A   1      43.939  26.796  33.088  1.00  0.00     0.074 A 
ATOM     66  C   UNL A   1      43.907  27.362  34.424  1.00  0.00     0.031 C 
ATOM     67  C   UNL A   1      44.442  25.642  32.555  1.00  0.00     0.037 A 
BRANCH  54  68
ATOM     68  C   UNL A   1      43.386  23.495  26.875  1.00  0.00     0.057 A 
ATOM     69  C   UNL A   1      43.021  22.130  26.857  1.00  0.00     0.134 A 
ATOM     70  C   UNL A   1      44.220  23.859  25.800  1.00  0.00     0.134 A 
ATOM     71  F   UNL A   1      42.172  21.615  27.756  1.00  0.00    -0.206 F 
ATOM     72  C   UNL A   1      43.516  21.207  25.920  1.00  0.00     0.040 A 
ATOM     73  C   UNL A   1      44.731  22.948  24.862  1.00  0.00     0.040 A 
ATOM     74  F   UNL A   1      44.582  25.119  25.561  1.00  0.00    -0.206 F 
ATOM     75  C   UNL A   1      44.393  21.610  24.929  1.00  0.00     0.006 A 
ENDBRANCH  54  68
BRANCH  55  76
ATOM     76  C   UNL A   1      40.751  30.321  33.146  1.00  0.00     0.057 A 
ATOM     77  C   UNL A   1      40.568  31.697  33.369  1.00  0.00     0.134 A 
ATOM     78  C   UNL A   1      39.608  29.518  33.150  1.00  0.00     0.134 A 
ATOM     79  F   UNL A   1      41.625  32.525  33.377  1.00  0.00    -0.206 F 
ATOM     80  C   UNL A   1      39.296  32.265  33.479  1.00  0.00     0.040 A 
ATOM     81  C   UNL A   1      38.329  30.075  33.271  1.00  0.00     0.040 A 
ATOM     82  F   UNL A   1      39.698  28.200  32.921  1.00  0.00    -0.206 F 
ATOM     83  C   UNL A   1      38.169  31.454  33.398  1.00  0.00     0.006 A 
ENDBRANCH  55  76
BRANCH  67  84
ATOM     84  C   UNL A   1      44.978  24.455  33.325  1.00  0.00     0.057 A 
ATOM     85  C   UNL A   1      44.305  23.232  33.476  1.00  0.00     0.134 A 
ATOM     86  C   UNL A   1      46.301  24.468  33.827  1.00  0.00     0.134 A 
ATOM     87  F   UNL A   1      43.090  23.027  32.952  1.00  0.00    -0.206 F 
ATOM     88  C   UNL A   1      44.882  22.128  34.123  1.00  0.00     0.040 A 
ATOM     89  C   UNL A   1      46.904  23.355  34.424  1.00  0.00     0.040 A 
ATOM     90  F   UNL A   1      47.081  25.555  33.736  1.00  0.00    -0.206 F 
ATOM     91  C   UNL A   1      46.189  22.182  34.589  1.00  0.00     0.006 A 
ENDBRANCH  67  84
ENDBRANCH  41  42
ENDBRANCH  33  36
ENDBRANCH  31  32
ENDBRANCH  30  31
ENDBRANCH   1  30
TORSDOF 13
ENDMDL
MODEL 3
REMARK VINA RESULT:     -12.8      2.376      3.948
REMARK SMILES Cc1cccc(-n2ncc(C(=O)Nc3cccc(C(=O)NCCCNC(=O)c4ccc(-c5c6nc(c(-c7c(F)cccc7F)c7ccc([nH]7)c(-c7c(F)cccc7F)c7nc(c(-c8c(F)cccc8F)c8ccc5[nH]8)C=C7)C=C6)cc4)c3C)c2C)c1
REMARK SMILES IDX 22 1 21 2 19 3 20 4 18 6 14 7 15 8 82 9 16 10 83 11 17 12
REMARK SMILES IDX 13 13 11 14 12 15 10 17 7 18 8 19 84 20 9 21 85 22 6 23 1 24
REMARK SMILES IDX 2 25 3 26 86 27 4 28 5 29 23 30 24 31 25 32 26 33 27 35
REMARK SMILES IDX 28 36 29 37 81 38 30 39 80 40 31 41 32 42 33 43 74 44 34 45
REMARK SMILES IDX 79 46 73 47 75 48 35 49 78 50 72 51 71 52 36 54 62 55 45 56
REMARK SMILES IDX 61 57 46 58 49 59 60 60 76 61 47 62 48 63 59 65 77 66 50 67
REMARK SMILES IDX 37 68 38 69 43 70 39 71 40 72 42 73 44 74 41 75 63 76 64 77
REMARK SMILES IDX 69 78 65 79 66 80 68 81 70 82 67 83 51 84 52 85 57 86 53 87
REMARK SMILES IDX 54 88 56 89 58 90 55 91
REMARK H PARENT 21 5 13 16 25 34 75 53 49 64
REMARK Flexibility Score: inf
ROOT
ATOM      1  C   UNL A   1      37.298  23.703  26.126  1.00  0.00     0.118 C 
ENDROOT
BRANCH   1   2
ATOM      2  N   UNL A   1      37.083  22.311  25.763  1.00  0.00    -0.352 N 
ATOM      3  C   UNL A   1      35.974  21.493  25.704  1.00  0.00     0.251 C 
ATOM      4  O   UNL A   1      36.210  20.341  25.344  1.00  0.00    -0.269 OA
ATOM      5  H   UNL A   1      37.912  21.850  25.502  1.00  0.00     0.163 HD
BRANCH   3   6
ATOM      6  C   UNL A   1      34.561  21.933  26.015  1.00  0.00     0.044 A 
ATOM      7  C   UNL A   1      32.356  22.722  25.334  1.00  0.00     0.045 A 
ATOM      8  C   UNL A   1      32.022  22.996  26.664  1.00  0.00     0.026 A 
ATOM      9  C   UNL A   1      33.579  22.087  24.995  1.00  0.00    -0.015 A 
ATOM     10  C   UNL A   1      32.923  22.714  27.670  1.00  0.00     0.003 A 
ATOM     11  C   UNL A   1      33.827  21.731  23.548  1.00  0.00     0.047 C 
ATOM     12  C   UNL A   1      34.176  22.207  27.337  1.00  0.00     0.014 A 
BRANCH   7  13
ATOM     13  N   UNL A   1      31.464  23.124  24.327  1.00  0.00    -0.322 N 
ATOM     14  C   UNL A   1      31.097  24.402  23.961  1.00  0.00     0.259 C 
ATOM     15  O   UNL A   1      30.064  24.541  23.306  1.00  0.00    -0.269 OA
ATOM     16  H   UNL A   1      31.043  22.396  23.814  1.00  0.00     0.170 HD
BRANCH  14  17
ATOM     17  C   UNL A   1      31.990  25.530  24.243  1.00  0.00     0.081 A 
ATOM     18  N   UNL A   1      32.892  27.370  25.139  1.00  0.00    -0.237 N 
ATOM     19  N   UNL A   1      33.627  27.122  24.027  1.00  0.00    -0.175 NA
ATOM     20  C   UNL A   1      31.815  26.497  25.233  1.00  0.00     0.054 A 
ATOM     21  C   UNL A   1      33.101  26.014  23.518  1.00  0.00     0.149 A 
ATOM     22  C   UNL A   1      30.642  26.691  26.132  1.00  0.00     0.068 C 
BRANCH  18  23
ATOM     23  C   UNL A   1      33.259  28.455  25.980  1.00  0.00     0.065 A 
ATOM     24  C   UNL A   1      36.228  29.403  28.171  1.00  0.00     0.044 C 
ATOM     25  C   UNL A   1      34.899  29.450  27.479  1.00  0.00    -0.049 A 
ATOM     26  C   UNL A   1      34.101  30.597  27.562  1.00  0.00     0.003 A 
ATOM     27  C   UNL A   1      34.456  28.368  26.709  1.00  0.00     0.031 A 
ATOM     28  C   UNL A   1      32.881  30.663  26.887  1.00  0.00     0.002 A 
ATOM     29  C   UNL A   1      32.459  29.597  26.092  1.00  0.00     0.028 A 
ENDBRANCH  18  23
ENDBRANCH  14  17
ENDBRANCH   7  13
ENDBRANCH   3   6
ENDBRANCH   1   2
BRANCH   1  30
ATOM     30  C   UNL A   1      38.791  24.024  26.223  1.00  0.00     0.042 C 
BRANCH  30  31
ATOM     31  C   UNL A   1      39.573  23.121  27.158  1.00  0.00     0.118 C 
BRANCH  31  32
ATOM     32  N   UNL A   1      40.146  21.952  26.494  1.00  0.00    -0.352 N 
ATOM     33  C   UNL A   1      41.479  21.633  26.286  1.00  0.00     0.251 C 
ATOM     34  H   UNL A   1      39.495  21.302  26.146  1.00  0.00     0.163 HD
ATOM     35  O   UNL A   1      41.791  20.588  25.741  1.00  0.00    -0.269 OA
BRANCH  33  36
ATOM     36  C   UNL A   1      42.515  22.511  26.876  1.00  0.00     0.039 A 
ATOM     37  C   UNL A   1      42.691  22.440  28.262  1.00  0.00     0.014 A 
ATOM     38  C   UNL A   1      43.047  23.567  26.143  1.00  0.00     0.014 A 
ATOM     39  C   UNL A   1      43.130  23.570  28.939  1.00  0.00     0.010 A 
ATOM     40  C   UNL A   1      43.376  24.724  26.819  1.00  0.00     0.010 A 
ATOM     41  C   UNL A   1      43.327  24.745  28.218  1.00  0.00    -0.014 A 
BRANCH  41  42
ATOM     42  C   UNL A   1      43.319  26.063  28.843  1.00  0.00     0.031 A 
ATOM     43  C   UNL A   1      42.074  26.849  28.915  1.00  0.00     0.074 A 
ATOM     44  C   UNL A   1      44.449  26.518  29.431  1.00  0.00     0.049 A 
ATOM     45  N   UNL A   1      42.024  28.113  29.170  1.00  0.00    -0.248 NA
ATOM     46  C   UNL A   1      40.771  26.276  28.605  1.00  0.00     0.031 C 
ATOM     47  C   UNL A   1      44.580  27.632  30.365  1.00  0.00     0.029 A 
ATOM     48  N   UNL A   1      45.772  26.179  29.105  1.00  0.00    -0.354 N 
ATOM     49  C   UNL A   1      40.703  28.457  29.341  1.00  0.00     0.074 A 
ATOM     50  C   UNL A   1      39.971  27.315  28.858  1.00  0.00     0.031 C 
ATOM     51  C   UNL A   1      45.844  28.080  30.330  1.00  0.00     0.029 A 
ATOM     52  C   UNL A   1      46.519  27.369  29.258  1.00  0.00     0.049 A 
ATOM     53  H   UNL A   1      46.110  25.297  28.828  1.00  0.00     0.167 HD
ATOM     54  C   UNL A   1      40.414  29.617  30.001  1.00  0.00     0.037 A 
ATOM     55  C   UNL A   1      47.143  27.967  28.204  1.00  0.00     0.037 A 
ATOM     56  C   UNL A   1      41.621  30.441  30.142  1.00  0.00     0.049 A 
ATOM     57  C   UNL A   1      46.709  29.392  27.958  1.00  0.00     0.074 A 
ATOM     58  C   UNL A   1      42.485  30.692  31.195  1.00  0.00     0.029 A 
ATOM     59  N   UNL A   1      42.247  30.927  28.997  1.00  0.00    -0.354 N 
ATOM     60  N   UNL A   1      45.593  29.901  28.402  1.00  0.00    -0.248 NA
ATOM     61  C   UNL A   1      47.483  30.349  27.172  1.00  0.00     0.031 C 
ATOM     62  C   UNL A   1      43.667  31.273  30.665  1.00  0.00     0.029 A 
ATOM     63  C   UNL A   1      43.509  31.402  29.295  1.00  0.00     0.049 A 
ATOM     64  H   UNL A   1      41.846  30.931  28.099  1.00  0.00     0.167 HD
ATOM     65  C   UNL A   1      45.473  31.196  27.968  1.00  0.00     0.074 A 
ATOM     66  C   UNL A   1      46.694  31.437  27.222  1.00  0.00     0.031 C 
ATOM     67  C   UNL A   1      44.366  31.947  28.250  1.00  0.00     0.037 A 
BRANCH  54  68
ATOM     68  C   UNL A   1      39.120  29.899  30.756  1.00  0.00     0.057 A 
ATOM     69  C   UNL A   1      38.438  31.121  30.566  1.00  0.00     0.134 A 
ATOM     70  C   UNL A   1      38.541  29.090  31.754  1.00  0.00     0.134 A 
ATOM     71  F   UNL A   1      38.797  31.988  29.611  1.00  0.00    -0.206 F 
ATOM     72  C   UNL A   1      37.351  31.532  31.357  1.00  0.00     0.040 A 
ATOM     73  C   UNL A   1      37.462  29.490  32.557  1.00  0.00     0.040 A 
ATOM     74  F   UNL A   1      38.955  27.849  32.007  1.00  0.00    -0.206 F 
ATOM     75  C   UNL A   1      36.871  30.725  32.373  1.00  0.00     0.006 A 
ENDBRANCH  54  68
BRANCH  55  76
ATOM     76  C   UNL A   1      47.578  27.015  27.150  1.00  0.00     0.057 A 
ATOM     77  C   UNL A   1      46.746  26.814  26.034  1.00  0.00     0.134 A 
ATOM     78  C   UNL A   1      48.905  26.592  27.038  1.00  0.00     0.134 A 
ATOM     79  F   UNL A   1      45.460  27.198  26.075  1.00  0.00    -0.206 F 
ATOM     80  C   UNL A   1      47.239  26.320  24.824  1.00  0.00     0.040 A 
ATOM     81  C   UNL A   1      49.407  26.085  25.833  1.00  0.00     0.040 A 
ATOM     82  F   UNL A   1      49.766  26.770  28.049  1.00  0.00    -0.206 F 
ATOM     83  C   UNL A   1      48.583  25.983  24.712  1.00  0.00     0.006 A 
ENDBRANCH  55  76
BRANCH  67  84
ATOM     84  C   UNL A   1      44.008  33.285  27.639  1.00  0.00     0.057 A 
ATOM     85  C   UNL A   1      43.772  33.501  26.273  1.00  0.00     0.134 A 
ATOM     86  C   UNL A   1      43.737  34.398  28.470  1.00  0.00     0.134 A 
ATOM     87  F   UNL A   1      43.873  32.513  25.376  1.00  0.00    -0.206 F 
ATOM     88  C   UNL A   1      43.354  34.741  25.766  1.00  0.00     0.040 A 
ATOM     89  C   UNL A   1      43.267  35.622  27.980  1.00  0.00     0.040 A 
ATOM     90  F   UNL A   1      43.890  34.341  29.801  1.00  0.00    -0.206 F 
ATOM     91  C   UNL A   1      43.088  35.803  26.620  1.00  0.00     0.006 A 
ENDBRANCH  67  84
ENDBRANCH  41  42
ENDBRANCH  33  36
ENDBRANCH  31  32
ENDBRANCH  30  31
ENDBRANCH   1  30
TORSDOF 13
ENDMDL
