MODEL 1
REMARK VINA RESULT:     -12.8      0.000      0.000
REMARK SMILES C=C(C)COc1ccc2nc(C)n(-c3cccc(C(=O)NCCCNC(=O)c4ccc(-c5c6nc(c(-c7c(F)cccc7F)c7ccc([nH]7)c(-c7c(F)cccc7F)c7nc(c(-c8c(F)cccc8F)c8ccc5[nH]8)C=C7)C=C6)cc4)c3)c(=O)c2c1
REMARK SMILES IDX 22 1 21 2 19 3 20 4 18 6 14 7 15 8 82 9 16 10 17 11 13 12
REMARK SMILES IDX 6 13 7 14 86 15 8 16 85 17 9 18 83 19 10 20 84 21 11 22
REMARK SMILES IDX 12 23 5 24 4 25 2 26 1 27 3 28 23 29 24 30 25 31 26 32 27 34
REMARK SMILES IDX 28 35 29 36 81 37 30 38 80 39 31 40 32 41 33 42 74 43 34 44
REMARK SMILES IDX 79 45 73 46 75 47 35 48 78 49 72 50 71 51 36 53 62 54 45 55
REMARK SMILES IDX 61 56 46 57 49 58 60 59 76 60 47 61 48 62 59 64 77 65 50 66
REMARK SMILES IDX 37 67 38 68 43 69 39 70 40 71 42 72 44 73 41 74 63 75 64 76
REMARK SMILES IDX 69 77 65 78 66 79 68 80 70 81 67 82 51 83 52 84 57 85 53 86
REMARK SMILES IDX 54 87 56 88 58 89 55 90
REMARK H PARENT 21 5 25 33 75 52 49 63
REMARK Flexibility Score: inf
ROOT
ATOM      1  C   UNL A   1      31.749  30.313  25.786  1.00  0.00     0.118 C 
ENDROOT
BRANCH   1   2
ATOM      2  N   UNL A   1      30.750  30.113  24.741  1.00  0.00    -0.352 N 
ATOM      3  C   UNL A   1      30.673  29.311  23.624  1.00  0.00     0.251 C 
ATOM      4  O   UNL A   1      29.662  29.409  22.928  1.00  0.00    -0.269 OA
ATOM      5  H   UNL A   1      29.952  30.678  24.861  1.00  0.00     0.163 HD
BRANCH   3   6
ATOM      6  C   UNL A   1      31.764  28.402  23.181  1.00  0.00     0.041 A 
ATOM      7  C   UNL A   1      32.922  26.272  23.286  1.00  0.00     0.051 A 
ATOM      8  C   UNL A   1      34.011  26.837  22.613  1.00  0.00     0.027 A 
ATOM      9  C   UNL A   1      31.753  27.030  23.413  1.00  0.00     0.040 A 
ATOM     10  C   UNL A   1      33.976  28.172  22.209  1.00  0.00     0.003 A 
ATOM     11  C   UNL A   1      32.876  28.964  22.538  1.00  0.00     0.014 A 
BRANCH   7  12
ATOM     12  N   UNL A   1      33.026  25.027  23.998  1.00  0.00    -0.264 N 
ATOM     13  C   UNL A   1      32.575  20.192  24.309  1.00  0.00     0.120 A 
ATOM     14  C   UNL A   1      32.914  20.293  25.657  1.00  0.00     0.049 A 
ATOM     15  C   UNL A   1      32.531  21.337  23.515  1.00  0.00     0.062 A 
ATOM     16  C   UNL A   1      33.152  21.541  26.227  1.00  0.00     0.033 A 
ATOM     17  C   UNL A   1      32.790  22.586  24.096  1.00  0.00     0.070 A 
ATOM     18  C   UNL A   1      33.089  22.693  25.449  1.00  0.00     0.078 A 
ATOM     19  C   UNL A   1      32.756  23.832  23.307  1.00  0.00     0.266 A 
ATOM     20  N   UNL A   1      33.294  23.917  26.075  1.00  0.00    -0.234 NA
ATOM     21  O   UNL A   1      32.494  23.742  22.108  1.00  0.00    -0.268 OA
ATOM     22  C   UNL A   1      33.231  25.004  25.374  1.00  0.00     0.113 A 
ATOM     23  C   UNL A   1      33.317  26.282  26.187  1.00  0.00     0.088 C 
BRANCH  13  24
ATOM     24  O   UNL A   1      32.375  18.977  23.709  1.00  0.00    -0.489 OA
BRANCH  24  25
ATOM     25  C   UNL A   1      32.453  17.876  24.632  1.00  0.00     0.260 C 
BRANCH  25  26
ATOM     26  C   UNL A   1      33.468  16.830  24.217  1.00  0.00    -0.043 C 
ATOM     27  C   UNL A   1      34.115  16.869  23.039  1.00  0.00     0.011 C 
ATOM     28  C   UNL A   1      33.755  15.765  25.237  1.00  0.00     0.042 C 
ENDBRANCH  25  26
ENDBRANCH  24  25
ENDBRANCH  13  24
ENDBRANCH   7  12
ENDBRANCH   3   6
ENDBRANCH   1   2
BRANCH   1  29
ATOM     29  C   UNL A   1      31.521  31.555  26.634  1.00  0.00     0.042 C 
BRANCH  29  30
ATOM     30  C   UNL A   1      32.789  32.285  27.041  1.00  0.00     0.118 C 
BRANCH  30  31
ATOM     31  N   UNL A   1      32.552  33.651  27.491  1.00  0.00    -0.352 N 
ATOM     32  C   UNL A   1      33.163  34.422  28.458  1.00  0.00     0.251 C 
ATOM     33  H   UNL A   1      31.820  34.109  27.018  1.00  0.00     0.163 HD
ATOM     34  O   UNL A   1      32.682  35.508  28.751  1.00  0.00    -0.269 OA
BRANCH  32  35
ATOM     35  C   UNL A   1      34.362  33.936  29.182  1.00  0.00     0.039 A 
ATOM     36  C   UNL A   1      35.638  34.388  28.863  1.00  0.00     0.014 A 
ATOM     37  C   UNL A   1      34.202  33.008  30.217  1.00  0.00     0.014 A 
ATOM     38  C   UNL A   1      36.753  33.747  29.392  1.00  0.00     0.010 A 
ATOM     39  C   UNL A   1      35.326  32.454  30.844  1.00  0.00     0.010 A 
ATOM     40  C   UNL A   1      36.614  32.767  30.386  1.00  0.00    -0.014 A 
BRANCH  40  41
ATOM     41  C   UNL A   1      37.829  32.081  30.907  1.00  0.00     0.031 A 
ATOM     42  C   UNL A   1      38.356  32.387  32.287  1.00  0.00     0.074 A 
ATOM     43  C   UNL A   1      38.420  31.125  30.165  1.00  0.00     0.049 A 
ATOM     44  N   UNL A   1      39.386  31.870  32.911  1.00  0.00    -0.248 NA
ATOM     45  C   UNL A   1      37.640  33.409  33.067  1.00  0.00     0.031 C 
ATOM     46  C   UNL A   1      38.008  30.727  28.816  1.00  0.00     0.029 A 
ATOM     47  N   UNL A   1      39.472  30.290  30.447  1.00  0.00    -0.354 N 
ATOM     48  C   UNL A   1      39.457  32.522  34.137  1.00  0.00     0.074 A 
ATOM     49  C   UNL A   1      38.384  33.491  34.160  1.00  0.00     0.031 C 
ATOM     50  C   UNL A   1      38.752  29.687  28.416  1.00  0.00     0.029 A 
ATOM     51  C   UNL A   1      39.742  29.390  29.445  1.00  0.00     0.049 A 
ATOM     52  H   UNL A   1      39.983  30.332  31.287  1.00  0.00     0.167 HD
ATOM     53  C   UNL A   1      40.327  32.324  35.156  1.00  0.00     0.037 A 
ATOM     54  C   UNL A   1      40.691  28.441  29.354  1.00  0.00     0.037 A 
ATOM     55  C   UNL A   1      41.376  31.337  35.149  1.00  0.00     0.049 A 
ATOM     56  C   UNL A   1      41.661  28.264  30.483  1.00  0.00     0.074 A 
ATOM     57  C   UNL A   1      42.289  31.040  36.147  1.00  0.00     0.029 A 
ATOM     58  N   UNL A   1      41.650  30.483  34.092  1.00  0.00    -0.354 N 
ATOM     59  N   UNL A   1      41.710  28.886  31.637  1.00  0.00    -0.248 NA
ATOM     60  C   UNL A   1      42.719  27.262  30.293  1.00  0.00     0.031 C 
ATOM     61  C   UNL A   1      43.142  30.034  35.678  1.00  0.00     0.029 A 
ATOM     62  C   UNL A   1      42.732  29.674  34.404  1.00  0.00     0.049 A 
ATOM     63  H   UNL A   1      41.151  30.455  33.244  1.00  0.00     0.167 HD
ATOM     64  C   UNL A   1      42.795  28.346  32.312  1.00  0.00     0.074 A 
ATOM     65  C   UNL A   1      43.360  27.327  31.450  1.00  0.00     0.031 C 
ATOM     66  C   UNL A   1      43.286  28.671  33.532  1.00  0.00     0.037 A 
BRANCH  53  67
ATOM     67  C   UNL A   1      40.195  33.209  36.363  1.00  0.00     0.057 A 
ATOM     68  C   UNL A   1      40.962  34.376  36.476  1.00  0.00     0.134 A 
ATOM     69  C   UNL A   1      39.336  32.896  37.423  1.00  0.00     0.134 A 
ATOM     70  F   UNL A   1      41.810  34.732  35.500  1.00  0.00    -0.206 F 
ATOM     71  C   UNL A   1      40.879  35.199  37.601  1.00  0.00     0.040 A 
ATOM     72  C   UNL A   1      39.226  33.724  38.543  1.00  0.00     0.040 A 
ATOM     73  F   UNL A   1      38.563  31.800  37.372  1.00  0.00    -0.206 F 
ATOM     74  C   UNL A   1      40.004  34.877  38.637  1.00  0.00     0.006 A 
ENDBRANCH  53  67
BRANCH  54  75
ATOM     75  C   UNL A   1      40.784  27.600  28.133  1.00  0.00     0.057 A 
ATOM     76  C   UNL A   1      41.520  28.017  27.017  1.00  0.00     0.134 A 
ATOM     77  C   UNL A   1      40.145  26.358  28.058  1.00  0.00     0.134 A 
ATOM     78  F   UNL A   1      42.152  29.200  27.026  1.00  0.00    -0.206 F 
ATOM     79  C   UNL A   1      41.608  27.235  25.866  1.00  0.00     0.040 A 
ATOM     80  C   UNL A   1      40.247  25.553  26.923  1.00  0.00     0.040 A 
ATOM     81  F   UNL A   1      39.442  25.895  29.103  1.00  0.00    -0.206 F 
ATOM     82  C   UNL A   1      40.976  25.994  25.820  1.00  0.00     0.006 A 
ENDBRANCH  54  75
BRANCH  66  83
ATOM     83  C   UNL A   1      44.483  27.901  34.006  1.00  0.00     0.057 A 
ATOM     84  C   UNL A   1      45.777  28.392  33.801  1.00  0.00     0.134 A 
ATOM     85  C   UNL A   1      44.352  26.669  34.662  1.00  0.00     0.134 A 
ATOM     86  F   UNL A   1      45.971  29.563  33.176  1.00  0.00    -0.206 F 
ATOM     87  C   UNL A   1      46.901  27.688  34.235  1.00  0.00     0.040 A 
ATOM     88  C   UNL A   1      45.467  25.968  35.122  1.00  0.00     0.040 A 
ATOM     89  F   UNL A   1      43.137  26.154  34.903  1.00  0.00    -0.206 F 
ATOM     90  C   UNL A   1      46.747  26.476  34.904  1.00  0.00     0.006 A 
ENDBRANCH  66  83
ENDBRANCH  40  41
ENDBRANCH  32  35
ENDBRANCH  30  31
ENDBRANCH  29  30
ENDBRANCH   1  29
TORSDOF 14
ENDMDL
MODEL 2
REMARK VINA RESULT:     -12.8      2.064      2.800
REMARK SMILES C=C(C)COc1ccc2nc(C)n(-c3cccc(C(=O)NCCCNC(=O)c4ccc(-c5c6nc(c(-c7c(F)cccc7F)c7ccc([nH]7)c(-c7c(F)cccc7F)c7nc(c(-c8c(F)cccc8F)c8ccc5[nH]8)C=C7)C=C6)cc4)c3)c(=O)c2c1
REMARK SMILES IDX 22 1 21 2 19 3 20 4 18 6 14 7 15 8 82 9 16 10 17 11 13 12
REMARK SMILES IDX 6 13 7 14 86 15 8 16 85 17 9 18 83 19 10 20 84 21 11 22
REMARK SMILES IDX 12 23 5 24 4 25 2 26 1 27 3 28 23 29 24 30 25 31 26 32 27 34
REMARK SMILES IDX 28 35 29 36 81 37 30 38 80 39 31 40 32 41 33 42 74 43 34 44
REMARK SMILES IDX 79 45 73 46 75 47 35 48 78 49 72 50 71 51 36 53 62 54 45 55
REMARK SMILES IDX 61 56 46 57 49 58 60 59 76 60 47 61 48 62 59 64 77 65 50 66
REMARK SMILES IDX 37 67 38 68 43 69 39 70 40 71 42 72 44 73 41 74 63 75 64 76
REMARK SMILES IDX 69 77 65 78 66 79 68 80 70 81 67 82 51 83 52 84 57 85 53 86
REMARK SMILES IDX 54 87 56 88 58 89 55 90
REMARK H PARENT 21 5 25 33 75 52 49 63
REMARK Flexibility Score: inf
ROOT
ATOM      1  C   UNL A   1      31.689  30.288  25.860  1.00  0.00     0.118 C 
ENDROOT
BRANCH   1   2
ATOM      2  N   UNL A   1      31.280  30.189  24.463  1.00  0.00    -0.352 N 
ATOM      3  C   UNL A   1      30.885  29.153  23.647  1.00  0.00     0.251 C 
ATOM      4  O   UNL A   1      30.619  29.427  22.476  1.00  0.00    -0.269 OA
ATOM      5  H   UNL A   1      31.288  31.058  23.999  1.00  0.00     0.163 HD
BRANCH   3   6
ATOM      6  C   UNL A   1      30.837  27.731  24.079  1.00  0.00     0.041 A 
ATOM      7  C   UNL A   1      31.906  25.576  24.398  1.00  0.00     0.051 A 
ATOM      8  C   UNL A   1      30.649  24.981  24.551  1.00  0.00     0.027 A 
ATOM      9  C   UNL A   1      31.977  26.971  24.324  1.00  0.00     0.040 A 
ATOM     10  C   UNL A   1      29.489  25.754  24.486  1.00  0.00     0.003 A 
ATOM     11  C   UNL A   1      29.583  27.116  24.199  1.00  0.00     0.014 A 
BRANCH   7  12
ATOM     12  N   UNL A   1      33.090  24.803  24.135  1.00  0.00    -0.264 N 
ATOM     13  C   UNL A   1      37.329  22.827  25.478  1.00  0.00     0.120 A 
ATOM     14  C   UNL A   1      37.509  22.426  24.156  1.00  0.00     0.049 A 
ATOM     15  C   UNL A   1      36.171  23.509  25.848  1.00  0.00     0.062 A 
ATOM     16  C   UNL A   1      36.562  22.756  23.190  1.00  0.00     0.033 A 
ATOM     17  C   UNL A   1      35.216  23.820  24.870  1.00  0.00     0.070 A 
ATOM     18  C   UNL A   1      35.412  23.455  23.543  1.00  0.00     0.078 A 
ATOM     19  C   UNL A   1      33.973  24.541  25.200  1.00  0.00     0.266 A 
ATOM     20  N   UNL A   1      34.518  23.796  22.534  1.00  0.00    -0.234 NA
ATOM     21  O   UNL A   1      33.793  24.863  26.374  1.00  0.00    -0.268 OA
ATOM     22  C   UNL A   1      33.446  24.455  22.836  1.00  0.00     0.113 A 
ATOM     23  C   UNL A   1      32.626  24.904  21.641  1.00  0.00     0.088 C 
BRANCH  13  24
ATOM     24  O   UNL A   1      38.222  22.484  26.459  1.00  0.00    -0.489 OA
BRANCH  24  25
ATOM     25  C   UNL A   1      39.301  21.665  25.974  1.00  0.00     0.260 C 
BRANCH  25  26
ATOM     26  C   UNL A   1      40.616  21.950  26.673  1.00  0.00    -0.043 C 
ATOM     27  C   UNL A   1      40.736  21.990  28.012  1.00  0.00     0.011 C 
ATOM     28  C   UNL A   1      41.804  22.129  25.771  1.00  0.00     0.042 C 
ENDBRANCH  25  26
ENDBRANCH  24  25
ENDBRANCH  13  24
ENDBRANCH   7  12
ENDBRANCH   3   6
ENDBRANCH   1   2
BRANCH   1  29
ATOM     29  C   UNL A   1      31.440  31.651  26.486  1.00  0.00     0.042 C 
BRANCH  29  30
ATOM     30  C   UNL A   1      32.668  32.304  27.095  1.00  0.00     0.118 C 
BRANCH  30  31
ATOM     31  N   UNL A   1      32.453  33.690  27.490  1.00  0.00    -0.352 N 
ATOM     32  C   UNL A   1      33.105  34.503  28.393  1.00  0.00     0.251 C 
ATOM     33  H   UNL A   1      31.703  34.128  27.027  1.00  0.00     0.163 HD
ATOM     34  O   UNL A   1      32.639  35.604  28.655  1.00  0.00    -0.269 OA
BRANCH  32  35
ATOM     35  C   UNL A   1      34.333  34.047  29.089  1.00  0.00     0.039 A 
ATOM     36  C   UNL A   1      35.600  34.392  28.630  1.00  0.00     0.014 A 
ATOM     37  C   UNL A   1      34.211  33.259  30.238  1.00  0.00     0.014 A 
ATOM     38  C   UNL A   1      36.723  33.763  29.157  1.00  0.00     0.010 A 
ATOM     39  C   UNL A   1      35.353  32.728  30.851  1.00  0.00     0.010 A 
ATOM     40  C   UNL A   1      36.616  32.918  30.271  1.00  0.00    -0.014 A 
BRANCH  40  41
ATOM     41  C   UNL A   1      37.836  32.239  30.789  1.00  0.00     0.031 A 
ATOM     42  C   UNL A   1      38.416  32.610  32.130  1.00  0.00     0.074 A 
ATOM     43  C   UNL A   1      38.384  31.230  30.082  1.00  0.00     0.049 A 
ATOM     44  N   UNL A   1      39.458  32.109  32.748  1.00  0.00    -0.248 NA
ATOM     45  C   UNL A   1      37.747  33.689  32.875  1.00  0.00     0.031 C 
ATOM     46  C   UNL A   1      37.918  30.766  28.773  1.00  0.00     0.029 A 
ATOM     47  N   UNL A   1      39.430  30.392  30.376  1.00  0.00    -0.354 N 
ATOM     48  C   UNL A   1      39.583  32.827  33.931  1.00  0.00     0.074 A 
ATOM     49  C   UNL A   1      38.529  33.817  33.936  1.00  0.00     0.031 C 
ATOM     50  C   UNL A   1      38.629  29.690  28.407  1.00  0.00     0.029 A 
ATOM     51  C   UNL A   1      39.649  29.432  29.418  1.00  0.00     0.049 A 
ATOM     52  H   UNL A   1      39.971  30.471  31.194  1.00  0.00     0.167 HD
ATOM     53  C   UNL A   1      40.486  32.669  34.930  1.00  0.00     0.037 A 
ATOM     54  C   UNL A   1      40.577  28.461  29.348  1.00  0.00     0.037 A 
ATOM     55  C   UNL A   1      41.516  31.663  34.944  1.00  0.00     0.049 A 
ATOM     56  C   UNL A   1      41.583  28.329  30.452  1.00  0.00     0.074 A 
ATOM     57  C   UNL A   1      42.458  31.404  35.925  1.00  0.00     0.029 A 
ATOM     58  N   UNL A   1      41.738  30.746  33.928  1.00  0.00    -0.354 N 
ATOM     59  N   UNL A   1      41.683  29.013  31.567  1.00  0.00    -0.248 NA
ATOM     60  C   UNL A   1      42.615  27.297  30.283  1.00  0.00     0.031 C 
ATOM     61  C   UNL A   1      43.275  30.357  35.485  1.00  0.00     0.029 A 
ATOM     62  C   UNL A   1      42.815  29.935  34.249  1.00  0.00     0.049 A 
ATOM     63  H   UNL A   1      41.208  30.681  33.101  1.00  0.00     0.167 HD
ATOM     64  C   UNL A   1      42.782  28.491  32.234  1.00  0.00     0.074 A 
ATOM     65  C   UNL A   1      43.298  27.414  31.413  1.00  0.00     0.031 C 
ATOM     66  C   UNL A   1      43.321  28.873  33.417  1.00  0.00     0.037 A 
BRANCH  53  67
ATOM     67  C   UNL A   1      40.412  33.623  36.089  1.00  0.00     0.057 A 
ATOM     68  C   UNL A   1      41.168  34.803  36.089  1.00  0.00     0.134 A 
ATOM     69  C   UNL A   1      39.619  33.365  37.213  1.00  0.00     0.134 A 
ATOM     70  F   UNL A   1      41.954  35.108  35.046  1.00  0.00    -0.206 F 
ATOM     71  C   UNL A   1      41.139  35.689  37.167  1.00  0.00     0.040 A 
ATOM     72  C   UNL A   1      39.562  34.257  38.288  1.00  0.00     0.040 A 
ATOM     73  F   UNL A   1      38.858  32.261  37.271  1.00  0.00    -0.206 F 
ATOM     74  C   UNL A   1      40.329  35.421  38.268  1.00  0.00     0.006 A 
ENDBRANCH  53  67
BRANCH  54  75
ATOM     75  C   UNL A   1      40.613  27.552  28.175  1.00  0.00     0.057 A 
ATOM     76  C   UNL A   1      41.346  27.874  27.026  1.00  0.00     0.134 A 
ATOM     77  C   UNL A   1      39.920  26.336  28.178  1.00  0.00     0.134 A 
ATOM     78  F   UNL A   1      42.028  29.027  26.960  1.00  0.00    -0.206 F 
ATOM     79  C   UNL A   1      41.380  27.027  25.919  1.00  0.00     0.040 A 
ATOM     80  C   UNL A   1      39.967  25.466  27.089  1.00  0.00     0.040 A 
ATOM     81  F   UNL A   1      39.217  25.962  29.258  1.00  0.00    -0.206 F 
ATOM     82  C   UNL A   1      40.695  25.815  25.952  1.00  0.00     0.006 A 
ENDBRANCH  54  75
BRANCH  66  83
ATOM     83  C   UNL A   1      44.519  28.108  33.893  1.00  0.00     0.057 A 
ATOM     84  C   UNL A   1      45.814  28.566  33.625  1.00  0.00     0.134 A 
ATOM     85  C   UNL A   1      44.389  26.913  34.613  1.00  0.00     0.134 A 
ATOM     86  F   UNL A   1      46.007  29.701  32.936  1.00  0.00    -0.206 F 
ATOM     87  C   UNL A   1      46.940  27.866  34.060  1.00  0.00     0.040 A 
ATOM     88  C   UNL A   1      45.507  26.216  35.074  1.00  0.00     0.040 A 
ATOM     89  F   UNL A   1      43.175  26.430  34.916  1.00  0.00    -0.206 F 
ATOM     90  C   UNL A   1      46.787  26.691  34.793  1.00  0.00     0.006 A 
ENDBRANCH  66  83
ENDBRANCH  40  41
ENDBRANCH  32  35
ENDBRANCH  30  31
ENDBRANCH  29  30
ENDBRANCH   1  29
TORSDOF 14
ENDMDL
MODEL 3
REMARK VINA RESULT:     -12.6      4.431      7.825
REMARK SMILES C=C(C)COc1ccc2nc(C)n(-c3cccc(C(=O)NCCCNC(=O)c4ccc(-c5c6nc(c(-c7c(F)cccc7F)c7ccc([nH]7)c(-c7c(F)cccc7F)c7nc(c(-c8c(F)cccc8F)c8ccc5[nH]8)C=C7)C=C6)cc4)c3)c(=O)c2c1
REMARK SMILES IDX 22 1 21 2 19 3 20 4 18 6 14 7 15 8 82 9 16 10 17 11 13 12
REMARK SMILES IDX 6 13 7 14 86 15 8 16 85 17 9 18 83 19 10 20 84 21 11 22
REMARK SMILES IDX 12 23 5 24 4 25 2 26 1 27 3 28 23 29 24 30 25 31 26 32 27 34
REMARK SMILES IDX 28 35 29 36 81 37 30 38 80 39 31 40 32 41 33 42 74 43 34 44
REMARK SMILES IDX 79 45 73 46 75 47 35 48 78 49 72 50 71 51 36 53 62 54 45 55
REMARK SMILES IDX 61 56 46 57 49 58 60 59 76 60 47 61 48 62 59 64 77 65 50 66
REMARK SMILES IDX 37 67 38 68 43 69 39 70 40 71 42 72 44 73 41 74 63 75 64 76
REMARK SMILES IDX 69 77 65 78 66 79 68 80 70 81 67 82 51 83 52 84 57 85 53 86
REMARK SMILES IDX 54 87 56 88 58 89 55 90
REMARK H PARENT 21 5 25 33 75 52 49 63
REMARK Flexibility Score: inf
ROOT
ATOM      1  C   UNL A   1      32.181  29.278  26.700  1.00  0.00     0.118 C 
ENDROOT
BRANCH   1   2
ATOM      2  N   UNL A   1      31.232  29.662  25.661  1.00  0.00    -0.352 N 
ATOM      3  C   UNL A   1      31.027  29.278  24.355  1.00  0.00     0.251 C 
ATOM      4  O   UNL A   1      30.118  29.835  23.738  1.00  0.00    -0.269 OA
ATOM      5  H   UNL A   1      30.594  30.351  25.960  1.00  0.00     0.163 HD
BRANCH   3   6
ATOM      6  C   UNL A   1      31.882  28.294  23.637  1.00  0.00     0.041 A 
ATOM      7  C   UNL A   1      32.888  26.093  23.460  1.00  0.00     0.051 A 
ATOM      8  C   UNL A   1      33.763  26.578  22.482  1.00  0.00     0.027 A 
ATOM      9  C   UNL A   1      31.857  26.928  23.902  1.00  0.00     0.040 A 
ATOM     10  C   UNL A   1      33.692  27.908  22.067  1.00  0.00     0.003 A 
ATOM     11  C   UNL A   1      32.787  28.775  22.681  1.00  0.00     0.014 A 
BRANCH   7  12
ATOM     12  N   UNL A   1      33.123  24.851  24.146  1.00  0.00    -0.264 N 
ATOM     13  C   UNL A   1      32.542  20.049  24.679  1.00  0.00     0.120 A 
ATOM     14  C   UNL A   1      33.238  20.145  25.883  1.00  0.00     0.049 A 
ATOM     15  C   UNL A   1      32.338  21.187  23.900  1.00  0.00     0.062 A 
ATOM     16  C   UNL A   1      33.682  21.383  26.338  1.00  0.00     0.033 A 
ATOM     17  C   UNL A   1      32.805  22.426  24.361  1.00  0.00     0.070 A 
ATOM     18  C   UNL A   1      33.465  22.530  25.579  1.00  0.00     0.078 A 
ATOM     19  C   UNL A   1      32.617  23.665  23.582  1.00  0.00     0.266 A 
ATOM     20  N   UNL A   1      33.891  23.748  26.098  1.00  0.00    -0.234 NA
ATOM     21  O   UNL A   1      32.036  23.578  22.501  1.00  0.00    -0.268 OA
ATOM     22  C   UNL A   1      33.691  24.830  25.415  1.00  0.00     0.113 A 
ATOM     23  C   UNL A   1      34.056  26.109  26.145  1.00  0.00     0.088 C 
BRANCH  13  24
ATOM     24  O   UNL A   1      32.128  18.841  24.184  1.00  0.00    -0.489 OA
BRANCH  24  25
ATOM     25  C   UNL A   1      32.399  17.746  25.078  1.00  0.00     0.260 C 
BRANCH  25  26
ATOM     26  C   UNL A   1      33.305  16.697  24.466  1.00  0.00    -0.043 C 
ATOM     27  C   UNL A   1      33.934  16.872  23.290  1.00  0.00     0.011 C 
ATOM     28  C   UNL A   1      33.510  15.457  25.290  1.00  0.00     0.042 C 
ENDBRANCH  25  26
ENDBRANCH  24  25
ENDBRANCH  13  24
ENDBRANCH   7  12
ENDBRANCH   3   6
ENDBRANCH   1   2
BRANCH   1  29
ATOM     29  C   UNL A   1      33.514  30.007  26.625  1.00  0.00     0.042 C 
BRANCH  29  30
ATOM     30  C   UNL A   1      34.561  29.515  27.609  1.00  0.00     0.118 C 
BRANCH  30  31
ATOM     31  N   UNL A   1      34.810  30.443  28.705  1.00  0.00    -0.352 N 
ATOM     32  C   UNL A   1      35.921  30.668  29.489  1.00  0.00     0.251 C 
ATOM     33  H   UNL A   1      34.041  31.017  28.927  1.00  0.00     0.163 HD
ATOM     34  O   UNL A   1      35.834  31.415  30.454  1.00  0.00    -0.269 OA
BRANCH  32  35
ATOM     35  C   UNL A   1      37.206  29.981  29.213  1.00  0.00     0.039 A 
ATOM     36  C   UNL A   1      37.908  29.319  30.214  1.00  0.00     0.014 A 
ATOM     37  C   UNL A   1      37.717  29.992  27.910  1.00  0.00     0.014 A 
ATOM     38  C   UNL A   1      39.210  28.891  29.982  1.00  0.00     0.010 A 
ATOM     39  C   UNL A   1      38.979  29.443  27.646  1.00  0.00     0.010 A 
ATOM     40  C   UNL A   1      39.767  28.951  28.696  1.00  0.00    -0.014 A 
BRANCH  40  41
ATOM     41  C   UNL A   1      41.175  28.511  28.492  1.00  0.00     0.031 A 
ATOM     42  C   UNL A   1      41.491  27.089  28.101  1.00  0.00     0.074 A 
ATOM     43  C   UNL A   1      42.172  29.413  28.585  1.00  0.00     0.049 A 
ATOM     44  N   UNL A   1      42.655  26.537  27.860  1.00  0.00    -0.248 NA
ATOM     45  C   UNL A   1      40.355  26.162  27.970  1.00  0.00     0.031 C 
ATOM     46  C   UNL A   1      42.004  30.822  28.950  1.00  0.00     0.029 A 
ATOM     47  N   UNL A   1      43.519  29.291  28.353  1.00  0.00    -0.354 N 
ATOM     48  C   UNL A   1      42.394  25.201  27.579  1.00  0.00     0.074 A 
ATOM     49  C   UNL A   1      40.965  25.016  27.706  1.00  0.00     0.031 C 
ATOM     50  C   UNL A   1      43.186  31.447  28.853  1.00  0.00     0.029 A 
ATOM     51  C   UNL A   1      44.209  30.471  28.492  1.00  0.00     0.049 A 
ATOM     52  H   UNL A   1      43.949  28.440  28.108  1.00  0.00     0.167 HD
ATOM     53  C   UNL A   1      43.262  24.219  27.235  1.00  0.00     0.037 A 
ATOM     54  C   UNL A   1      45.520  30.739  28.363  1.00  0.00     0.037 A 
ATOM     55  C   UNL A   1      44.681  24.407  27.075  1.00  0.00     0.049 A 
ATOM     56  C   UNL A   1      46.464  29.627  28.012  1.00  0.00     0.074 A 
ATOM     57  C   UNL A   1      45.639  23.481  26.699  1.00  0.00     0.029 A 
ATOM     58  N   UNL A   1      45.347  25.606  27.281  1.00  0.00    -0.354 N 
ATOM     59  N   UNL A   1      46.198  28.371  27.745  1.00  0.00    -0.248 NA
ATOM     60  C   UNL A   1      47.892  29.967  27.958  1.00  0.00     0.031 C 
ATOM     61  C   UNL A   1      46.889  24.109  26.716  1.00  0.00     0.029 A 
ATOM     62  C   UNL A   1      46.705  25.438  27.061  1.00  0.00     0.049 A 
ATOM     63  H   UNL A   1      44.918  26.452  27.544  1.00  0.00     0.167 HD
ATOM     64  C   UNL A   1      47.423  27.773  27.483  1.00  0.00     0.074 A 
ATOM     65  C   UNL A   1      48.429  28.810  27.596  1.00  0.00     0.031 C 
ATOM     66  C   UNL A   1      47.692  26.479  27.185  1.00  0.00     0.037 A 
BRANCH  53  67
ATOM     67  C   UNL A   1      42.703  22.841  27.025  1.00  0.00     0.057 A 
ATOM     68  C   UNL A   1      42.332  22.048  28.119  1.00  0.00     0.134 A 
ATOM     69  C   UNL A   1      42.556  22.286  25.748  1.00  0.00     0.134 A 
ATOM     70  F   UNL A   1      42.453  22.517  29.371  1.00  0.00    -0.206 F 
ATOM     71  C   UNL A   1      41.839  20.754  27.951  1.00  0.00     0.040 A 
ATOM     72  C   UNL A   1      42.039  21.000  25.565  1.00  0.00     0.040 A 
ATOM     73  F   UNL A   1      42.877  22.996  24.656  1.00  0.00    -0.206 F 
ATOM     74  C   UNL A   1      41.685  20.228  26.670  1.00  0.00     0.006 A 
ENDBRANCH  53  67
BRANCH  54  75
ATOM     75  C   UNL A   1      46.023  32.117  28.593  1.00  0.00     0.057 A 
ATOM     76  C   UNL A   1      46.096  33.048  27.550  1.00  0.00     0.134 A 
ATOM     77  C   UNL A   1      46.435  32.536  29.863  1.00  0.00     0.134 A 
ATOM     78  F   UNL A   1      45.719  32.706  26.309  1.00  0.00    -0.206 F 
ATOM     79  C   UNL A   1      46.572  34.343  27.757  1.00  0.00     0.040 A 
ATOM     80  C   UNL A   1      46.887  33.836  30.091  1.00  0.00     0.040 A 
ATOM     81  F   UNL A   1      46.369  31.695  30.906  1.00  0.00    -0.206 F 
ATOM     82  C   UNL A   1      46.961  34.742  29.034  1.00  0.00     0.006 A 
ENDBRANCH  54  75
BRANCH  66  83
ATOM     83  C   UNL A   1      49.130  26.126  26.945  1.00  0.00     0.057 A 
ATOM     84  C   UNL A   1      49.699  26.267  25.674  1.00  0.00     0.134 A 
ATOM     85  C   UNL A   1      49.950  25.641  27.974  1.00  0.00     0.134 A 
ATOM     86  F   UNL A   1      48.967  26.722  24.646  1.00  0.00    -0.206 F 
ATOM     87  C   UNL A   1      51.035  25.943  25.434  1.00  0.00     0.040 A 
ATOM     88  C   UNL A   1      51.293  25.337  27.751  1.00  0.00     0.040 A 
ATOM     89  F   UNL A   1      49.467  25.500  29.218  1.00  0.00    -0.206 F 
ATOM     90  C   UNL A   1      51.838  25.484  26.476  1.00  0.00     0.006 A 
ENDBRANCH  66  83
ENDBRANCH  40  41
ENDBRANCH  32  35
ENDBRANCH  30  31
ENDBRANCH  29  30
ENDBRANCH   1  29
TORSDOF 14
ENDMDL
