MODEL 1
REMARK VINA RESULT:     -13.1      0.000      0.000
REMARK SMILES Cc1cc(C)c2c(CCCC(=O)NCCCNC(=O)c3ccc(-c4c5nc(c(-c6c(F)cccc6F)c6ccc([nH]6)c(-c6c(F)cccc6F)c6nc(c(-c7c(F)cccc7F)c7ccc4[nH]7)C=C6)C=C5)cc3)c(-c3ccccn3)[nH]c2c1
REMARK SMILES IDX 14 1 13 2 11 3 12 4 10 6 9 7 8 8 7 9 1 10 2 11 3 12 83 13
REMARK SMILES IDX 4 14 82 15 5 16 6 17 81 18 74 19 75 21 76 22 80 23 77 24
REMARK SMILES IDX 79 25 78 26 15 27 16 28 17 29 18 30 19 32 20 33 21 34 73 35
REMARK SMILES IDX 22 36 72 37 23 38 24 39 25 40 66 41 26 42 71 43 65 44 67 45
REMARK SMILES IDX 27 46 70 47 64 48 63 49 28 51 54 52 37 53 53 54 38 55 41 56
REMARK SMILES IDX 52 57 68 58 39 59 40 60 51 62 69 63 42 64 29 65 30 66 35 67
REMARK SMILES IDX 31 68 32 69 34 70 36 71 33 72 55 73 56 74 61 75 57 76 58 77
REMARK SMILES IDX 60 78 62 79 59 80 43 81 44 82 49 83 45 84 46 85 48 86 50 87
REMARK SMILES IDX 47 88
REMARK H PARENT 13 5 81 20 17 31 67 50 41 61
REMARK Flexibility Score: inf
ROOT
ATOM      1  C   UNL A   1      39.261  24.043  27.092  1.00  0.00     0.117 C 
ENDROOT
BRANCH   1   2
ATOM      2  N   UNL A   1      39.331  22.639  26.791  1.00  0.00    -0.356 N 
ATOM      3  C   UNL A   1      38.629  21.910  25.833  1.00  0.00     0.220 C 
ATOM      4  O   UNL A   1      38.964  20.719  25.752  1.00  0.00    -0.275 OA
ATOM      5  H   UNL A   1      39.963  22.120  27.340  1.00  0.00     0.163 HD
BRANCH   3   6
ATOM      6  C   UNL A   1      37.501  22.443  24.799  1.00  0.00     0.100 C 
BRANCH   6   7
ATOM      7  C   UNL A   1      36.263  21.656  24.551  1.00  0.00     0.015 C 
BRANCH   7   8
ATOM      8  C   UNL A   1      35.527  21.659  25.831  1.00  0.00     0.039 C 
BRANCH   8   9
ATOM      9  C   UNL A   1      33.924  21.512  25.766  1.00  0.00    -0.013 A 
ATOM     10  C   UNL A   1      29.903  25.505  26.120  1.00  0.00     0.044 C 
ATOM     11  C   UNL A   1      31.002  24.508  25.938  1.00  0.00    -0.049 A 
ATOM     12  C   UNL A   1      32.320  24.955  26.039  1.00  0.00     0.007 A 
ATOM     13  C   UNL A   1      30.717  23.158  25.690  1.00  0.00     0.030 A 
ATOM     14  C   UNL A   1      33.399  24.078  25.906  1.00  0.00    -0.041 A 
ATOM     15  C   UNL A   1      31.792  22.276  25.588  1.00  0.00     0.047 A 
ATOM     16  C   UNL A   1      34.790  24.645  25.991  1.00  0.00     0.045 C 
ATOM     17  C   UNL A   1      33.109  22.695  25.754  1.00  0.00     0.006 A 
ATOM     18  N   UNL A   1      31.785  20.926  25.339  1.00  0.00    -0.353 N 
ATOM     19  C   UNL A   1      33.030  20.363  25.468  1.00  0.00     0.068 A 
ATOM     20  H   UNL A   1      30.977  20.418  25.095  1.00  0.00     0.167 HD
BRANCH  19  21
ATOM     21  C   UNL A   1      33.187  18.848  25.027  1.00  0.00     0.087 A 
ATOM     22  C   UNL A   1      34.368  18.316  24.510  1.00  0.00     0.030 A 
ATOM     23  N   UNL A   1      32.196  17.981  25.361  1.00  0.00    -0.255 NA
ATOM     24  C   UNL A   1      34.531  16.914  24.455  1.00  0.00     0.004 A 
ATOM     25  C   UNL A   1      32.447  16.640  25.483  1.00  0.00     0.112 A 
ATOM     26  C   UNL A   1      33.582  16.055  24.994  1.00  0.00     0.020 A 
ENDBRANCH  19  21
ENDBRANCH   8   9
ENDBRANCH   7   8
ENDBRANCH   6   7
ENDBRANCH   3   6
ENDBRANCH   1   2
BRANCH   1  27
ATOM     27  C   UNL A   1      40.302  24.935  26.509  1.00  0.00     0.042 C 
BRANCH  27  28
ATOM     28  C   UNL A   1      40.416  25.864  27.604  1.00  0.00     0.118 C 
BRANCH  28  29
ATOM     29  N   UNL A   1      40.027  27.190  27.198  1.00  0.00    -0.352 N 
ATOM     30  C   UNL A   1      39.537  28.112  28.071  1.00  0.00     0.251 C 
ATOM     31  H   UNL A   1      40.119  27.440  26.251  1.00  0.00     0.163 HD
ATOM     32  O   UNL A   1      39.100  29.175  27.652  1.00  0.00    -0.269 OA
BRANCH  30  33
ATOM     33  C   UNL A   1      39.780  27.748  29.525  1.00  0.00     0.039 A 
ATOM     34  C   UNL A   1      38.903  27.038  30.225  1.00  0.00     0.014 A 
ATOM     35  C   UNL A   1      40.418  28.714  30.391  1.00  0.00     0.014 A 
ATOM     36  C   UNL A   1      38.608  27.790  31.658  1.00  0.00     0.010 A 
ATOM     37  C   UNL A   1      40.449  29.019  31.773  1.00  0.00     0.010 A 
ATOM     38  C   UNL A   1      39.188  29.351  32.184  1.00  0.00    -0.014 A 
BRANCH  38  39
ATOM     39  C   UNL A   1      39.243  30.924  33.388  1.00  0.00     0.031 A 
ATOM     40  C   UNL A   1      37.789  31.237  32.012  1.00  0.00     0.074 A 
ATOM     41  C   UNL A   1      40.152  31.295  34.957  1.00  0.00     0.049 A 
ATOM     42  N   UNL A   1      37.989  31.501  30.678  1.00  0.00    -0.248 NA
ATOM     43  C   UNL A   1      36.108  30.600  31.366  1.00  0.00     0.031 C 
ATOM     44  C   UNL A   1      41.088  31.713  36.624  1.00  0.00     0.029 A 
ATOM     45  N   UNL A   1      40.380  32.942  35.638  1.00  0.00    -0.354 N 
ATOM     46  C   UNL A   1      36.771  32.207  30.265  1.00  0.00     0.074 A 
ATOM     47  C   UNL A   1      35.608  31.473  30.447  1.00  0.00     0.031 C 
ATOM     48  C   UNL A   1      40.968  32.531  37.873  1.00  0.00     0.029 A 
ATOM     49  C   UNL A   1      40.321  33.506  37.226  1.00  0.00     0.049 A 
ATOM     50  H   UNL A   1      40.573  33.635  34.967  1.00  0.00     0.167 HD
ATOM     51  C   UNL A   1      36.667  33.491  30.637  1.00  0.00     0.037 A 
ATOM     52  C   UNL A   1      39.682  34.534  37.897  1.00  0.00     0.037 A 
ATOM     53  C   UNL A   1      37.975  33.910  30.906  1.00  0.00     0.049 A 
ATOM     54  C   UNL A   1      39.165  34.946  36.619  1.00  0.00     0.074 A 
ATOM     55  C   UNL A   1      39.106  33.735  30.142  1.00  0.00     0.029 A 
ATOM     56  N   UNL A   1      38.340  33.860  32.205  1.00  0.00    -0.354 N 
ATOM     57  N   UNL A   1      39.936  35.409  35.657  1.00  0.00    -0.248 NA
ATOM     58  C   UNL A   1      37.961  34.206  36.284  1.00  0.00     0.031 C 
ATOM     59  C   UNL A   1      40.188  33.739  31.019  1.00  0.00     0.029 A 
ATOM     60  C   UNL A   1      39.692  33.888  32.296  1.00  0.00     0.049 A 
ATOM     61  H   UNL A   1      37.720  33.810  32.967  1.00  0.00     0.167 HD
ATOM     62  C   UNL A   1      39.494  34.734  34.521  1.00  0.00     0.074 A 
ATOM     63  C   UNL A   1      38.182  34.119  34.977  1.00  0.00     0.031 C 
ATOM     64  C   UNL A   1      40.324  34.240  33.510  1.00  0.00     0.037 A 
BRANCH  51  65
ATOM     65  C   UNL A   1      35.433  34.213  30.979  1.00  0.00     0.057 A 
ATOM     66  C   UNL A   1      34.801  34.714  29.857  1.00  0.00     0.134 A 
ATOM     67  C   UNL A   1      34.850  34.446  32.245  1.00  0.00     0.134 A 
ATOM     68  F   UNL A   1      35.323  34.490  28.642  1.00  0.00    -0.206 F 
ATOM     69  C   UNL A   1      33.624  35.423  29.956  1.00  0.00     0.040 A 
ATOM     70  C   UNL A   1      33.649  35.143  32.356  1.00  0.00     0.040 A 
ATOM     71  F   UNL A   1      35.404  34.004  33.387  1.00  0.00    -0.206 F 
ATOM     72  C   UNL A   1      33.044  35.635  31.204  1.00  0.00     0.006 A 
ENDBRANCH  51  65
BRANCH  52  73
ATOM     73  C   UNL A   1      38.903  34.442  39.249  1.00  0.00     0.057 A 
ATOM     74  C   UNL A   1      38.241  33.268  39.655  1.00  0.00     0.134 A 
ATOM     75  C   UNL A   1      39.026  35.414  40.278  1.00  0.00     0.134 A 
ATOM     76  F   UNL A   1      37.935  32.328  38.751  1.00  0.00    -0.206 F 
ATOM     77  C   UNL A   1      37.906  32.995  41.002  1.00  0.00     0.040 A 
ATOM     78  C   UNL A   1      38.706  35.157  41.632  1.00  0.00     0.040 A 
ATOM     79  F   UNL A   1      39.530  36.627  40.007  1.00  0.00    -0.206 F 
ATOM     80  C   UNL A   1      38.184  33.922  42.001  1.00  0.00     0.006 A 
ENDBRANCH  52  73
BRANCH  64  81
ATOM     81  C   UNL A   1      41.884  34.283  33.471  1.00  0.00     0.057 A 
ATOM     82  C   UNL A   1      42.825  33.235  33.218  1.00  0.00     0.134 A 
ATOM     83  C   UNL A   1      42.473  35.530  33.605  1.00  0.00     0.134 A 
ATOM     84  F   UNL A   1      42.486  31.996  32.866  1.00  0.00    -0.206 F 
ATOM     85  C   UNL A   1      44.202  33.358  33.357  1.00  0.00     0.040 A 
ATOM     86  C   UNL A   1      43.863  35.698  33.624  1.00  0.00     0.040 A 
ATOM     87  F   UNL A   1      41.703  36.625  33.671  1.00  0.00    -0.206 F 
ATOM     88  C   UNL A   1      44.729  34.611  33.547  1.00  0.00     0.006 A 
ENDBRANCH  64  81
ENDBRANCH  38  39
ENDBRANCH  30  33
ENDBRANCH  28  29
ENDBRANCH  27  28
ENDBRANCH   1  27
TORSDOF 14
ENDMDL
MODEL 2
REMARK VINA RESULT:     -12.9      7.126     13.024
REMARK SMILES Cc1cc(C)c2c(CCCC(=O)NCCCNC(=O)c3ccc(-c4c5nc(c(-c6c(F)cccc6F)c6ccc([nH]6)c(-c6c(F)cccc6F)c6nc(c(-c7c(F)cccc7F)c7ccc4[nH]7)C=C6)C=C5)cc3)c(-c3ccccn3)[nH]c2c1
REMARK SMILES IDX 14 1 13 2 11 3 12 4 10 6 9 7 8 8 7 9 1 10 2 11 3 12 83 13
REMARK SMILES IDX 4 14 82 15 5 16 6 17 81 18 74 19 75 21 76 22 80 23 77 24
REMARK SMILES IDX 79 25 78 26 15 27 16 28 17 29 18 30 19 32 20 33 21 34 73 35
REMARK SMILES IDX 22 36 72 37 23 38 24 39 25 40 66 41 26 42 71 43 65 44 67 45
REMARK SMILES IDX 27 46 70 47 64 48 63 49 28 51 54 52 37 53 53 54 38 55 41 56
REMARK SMILES IDX 52 57 68 58 39 59 40 60 51 62 69 63 42 64 29 65 30 66 35 67
REMARK SMILES IDX 31 68 32 69 34 70 36 71 33 72 55 73 56 74 61 75 57 76 58 77
REMARK SMILES IDX 60 78 62 79 59 80 43 81 44 82 49 83 45 84 46 85 48 86 50 87
REMARK SMILES IDX 47 88
REMARK H PARENT 13 5 81 20 17 31 67 50 41 61
REMARK Flexibility Score: inf
ROOT
ATOM      1  C   UNL A   1      35.985  30.611  28.989  1.00  0.00     0.117 C 
ENDROOT
BRANCH   1   2
ATOM      2  N   UNL A   1      35.006  31.585  28.589  1.00  0.00    -0.356 N 
ATOM      3  C   UNL A   1      33.906  31.431  27.747  1.00  0.00     0.220 C 
ATOM      4  O   UNL A   1      33.189  32.439  27.654  1.00  0.00    -0.275 OA
ATOM      5  H   UNL A   1      35.132  32.488  28.961  1.00  0.00     0.163 HD
BRANCH   3   6
ATOM      6  C   UNL A   1      33.435  30.100  26.951  1.00  0.00     0.100 C 
BRANCH   6   7
ATOM      7  C   UNL A   1      32.549  30.200  25.760  1.00  0.00     0.015 C 
BRANCH   7   8
ATOM      8  C   UNL A   1      31.788  28.935  25.724  1.00  0.00     0.039 C 
BRANCH   8   9
ATOM      9  C   UNL A   1      31.492  28.289  24.279  1.00  0.00    -0.013 A 
ATOM     10  C   UNL A   1      33.301  23.383  22.065  1.00  0.00     0.044 C 
ATOM     11  C   UNL A   1      32.778  24.615  22.730  1.00  0.00    -0.049 A 
ATOM     12  C   UNL A   1      33.219  24.904  24.022  1.00  0.00     0.007 A 
ATOM     13  C   UNL A   1      31.882  25.466  22.068  1.00  0.00     0.030 A 
ATOM     14  C   UNL A   1      32.795  26.051  24.698  1.00  0.00    -0.041 A 
ATOM     15  C   UNL A   1      31.482  26.628  22.729  1.00  0.00     0.047 A 
ATOM     16  C   UNL A   1      33.286  26.271  26.101  1.00  0.00     0.045 C 
ATOM     17  C   UNL A   1      31.965  26.964  23.990  1.00  0.00     0.006 A 
ATOM     18  N   UNL A   1      30.614  27.606  22.312  1.00  0.00    -0.353 N 
ATOM     19  C   UNL A   1      30.586  28.680  23.167  1.00  0.00     0.068 A 
ATOM     20  H   UNL A   1      30.073  27.546  21.492  1.00  0.00     0.167 HD
BRANCH  19  21
ATOM     21  C   UNL A   1      29.489  29.792  22.895  1.00  0.00     0.087 A 
ATOM     22  C   UNL A   1      29.306  30.908  23.710  1.00  0.00     0.030 A 
ATOM     23  N   UNL A   1      28.839  29.767  21.701  1.00  0.00    -0.255 NA
ATOM     24  C   UNL A   1      28.553  32.003  23.230  1.00  0.00     0.004 A 
ATOM     25  C   UNL A   1      28.284  30.906  21.180  1.00  0.00     0.112 A 
ATOM     26  C   UNL A   1      28.073  32.032  21.926  1.00  0.00     0.020 A 
ENDBRANCH  19  21
ENDBRANCH   8   9
ENDBRANCH   7   8
ENDBRANCH   6   7
ENDBRANCH   3   6
ENDBRANCH   1   2
BRANCH   1  27
ATOM     27  C   UNL A   1      36.816  29.979  27.927  1.00  0.00     0.042 C 
BRANCH  27  28
ATOM     28  C   UNL A   1      38.055  29.894  28.657  1.00  0.00     0.118 C 
BRANCH  28  29
ATOM     29  N   UNL A   1      38.376  28.527  28.973  1.00  0.00    -0.352 N 
ATOM     30  C   UNL A   1      39.429  27.871  28.414  1.00  0.00     0.251 C 
ATOM     31  H   UNL A   1      37.810  28.047  29.620  1.00  0.00     0.163 HD
ATOM     32  O   UNL A   1      39.577  26.673  28.617  1.00  0.00    -0.269 OA
BRANCH  30  33
ATOM     33  C   UNL A   1      40.419  28.798  27.731  1.00  0.00     0.039 A 
ATOM     34  C   UNL A   1      40.390  29.009  26.421  1.00  0.00     0.014 A 
ATOM     35  C   UNL A   1      41.788  28.822  28.193  1.00  0.00     0.014 A 
ATOM     36  C   UNL A   1      41.902  28.815  25.801  1.00  0.00     0.010 A 
ATOM     37  C   UNL A   1      43.065  29.123  27.663  1.00  0.00     0.010 A 
ATOM     38  C   UNL A   1      43.334  28.263  26.634  1.00  0.00    -0.014 A 
BRANCH  38  39
ATOM     39  C   UNL A   1      45.208  27.624  26.736  1.00  0.00     0.031 A 
ATOM     40  C   UNL A   1      44.022  26.032  26.331  1.00  0.00     0.074 A 
ATOM     41  C   UNL A   1      46.839  28.484  26.884  1.00  0.00     0.049 A 
ATOM     42  N   UNL A   1      43.143  25.441  27.208  1.00  0.00    -0.248 NA
ATOM     43  C   UNL A   1      42.835  25.276  25.040  1.00  0.00     0.031 C 
ATOM     44  C   UNL A   1      48.582  29.364  27.027  1.00  0.00     0.029 A 
ATOM     45  N   UNL A   1      48.368  27.690  27.394  1.00  0.00    -0.354 N 
ATOM     46  C   UNL A   1      42.995  24.072  26.701  1.00  0.00     0.074 A 
ATOM     47  C   UNL A   1      42.509  24.004  25.403  1.00  0.00     0.031 C 
ATOM     48  C   UNL A   1      50.027  29.187  26.675  1.00  0.00     0.029 A 
ATOM     49  C   UNL A   1      49.950  27.862  26.837  1.00  0.00     0.049 A 
ATOM     50  H   UNL A   1      48.263  27.042  28.127  1.00  0.00     0.167 HD
ATOM     51  C   UNL A   1      44.009  23.230  26.947  1.00  0.00     0.037 A 
ATOM     52  C   UNL A   1      50.959  27.011  26.418  1.00  0.00     0.037 A 
ATOM     53  C   UNL A   1      44.701  23.783  28.029  1.00  0.00     0.049 A 
ATOM     54  C   UNL A   1      50.078  25.924  26.754  1.00  0.00     0.074 A 
ATOM     55  C   UNL A   1      44.196  24.265  29.216  1.00  0.00     0.029 A 
ATOM     56  N   UNL A   1      45.777  24.530  27.704  1.00  0.00    -0.354 N 
ATOM     57  N   UNL A   1      49.715  25.662  27.992  1.00  0.00    -0.248 NA
ATOM     58  C   UNL A   1      49.168  25.637  25.659  1.00  0.00     0.031 C 
ATOM     59  C   UNL A   1      45.096  25.222  29.677  1.00  0.00     0.029 A 
ATOM     60  C   UNL A   1      46.112  25.322  28.752  1.00  0.00     0.049 A 
ATOM     61  H   UNL A   1      46.246  24.504  26.839  1.00  0.00     0.167 HD
ATOM     62  C   UNL A   1      48.339  25.456  27.899  1.00  0.00     0.074 A 
ATOM     63  C   UNL A   1      48.114  25.322  26.403  1.00  0.00     0.031 C 
ATOM     64  C   UNL A   1      47.399  25.900  28.835  1.00  0.00     0.037 A 
BRANCH  51  65
ATOM     65  C   UNL A   1      44.471  22.132  26.086  1.00  0.00     0.057 A 
ATOM     66  C   UNL A   1      43.638  21.031  26.162  1.00  0.00     0.134 A 
ATOM     67  C   UNL A   1      45.601  22.067  25.241  1.00  0.00     0.134 A 
ATOM     68  F   UNL A   1      42.547  21.074  26.941  1.00  0.00    -0.206 F 
ATOM     69  C   UNL A   1      43.890  19.892  25.430  1.00  0.00     0.040 A 
ATOM     70  C   UNL A   1      45.855  20.929  24.480  1.00  0.00     0.040 A 
ATOM     71  F   UNL A   1      46.469  23.086  25.117  1.00  0.00    -0.206 F 
ATOM     72  C   UNL A   1      44.996  19.839  24.585  1.00  0.00     0.006 A 
ENDBRANCH  51  65
BRANCH  52  73
ATOM     73  C   UNL A   1      51.846  27.152  25.139  1.00  0.00     0.057 A 
ATOM     74  C   UNL A   1      53.198  26.761  25.117  1.00  0.00     0.134 A 
ATOM     75  C   UNL A   1      51.307  27.419  23.851  1.00  0.00     0.134 A 
ATOM     76  F   UNL A   1      53.868  26.614  26.268  1.00  0.00    -0.206 F 
ATOM     77  C   UNL A   1      53.900  26.468  23.925  1.00  0.00     0.040 A 
ATOM     78  C   UNL A   1      51.990  27.123  22.647  1.00  0.00     0.040 A 
ATOM     79  F   UNL A   1      50.066  27.912  23.725  1.00  0.00    -0.206 F 
ATOM     80  C   UNL A   1      53.279  26.603  22.688  1.00  0.00     0.006 A 
ENDBRANCH  52  73
BRANCH  64  81
ATOM     81  C   UNL A   1      47.677  26.750  30.113  1.00  0.00     0.057 A 
ATOM     82  C   UNL A   1      47.085  27.981  30.543  1.00  0.00     0.134 A 
ATOM     83  C   UNL A   1      48.556  26.210  31.039  1.00  0.00     0.134 A 
ATOM     84  F   UNL A   1      46.075  28.583  29.918  1.00  0.00    -0.206 F 
ATOM     85  C   UNL A   1      47.518  28.728  31.632  1.00  0.00     0.040 A 
ATOM     86  C   UNL A   1      48.916  26.890  32.209  1.00  0.00     0.040 A 
ATOM     87  F   UNL A   1      49.048  24.979  30.846  1.00  0.00    -0.206 F 
ATOM     88  C   UNL A   1      48.435  28.168  32.485  1.00  0.00     0.006 A 
ENDBRANCH  64  81
ENDBRANCH  38  39
ENDBRANCH  30  33
ENDBRANCH  28  29
ENDBRANCH  27  28
ENDBRANCH   1  27
TORSDOF 14
ENDMDL
MODEL 3
REMARK VINA RESULT:     -12.8      6.657     12.869
REMARK SMILES Cc1cc(C)c2c(CCCC(=O)NCCCNC(=O)c3ccc(-c4c5nc(c(-c6c(F)cccc6F)c6ccc([nH]6)c(-c6c(F)cccc6F)c6nc(c(-c7c(F)cccc7F)c7ccc4[nH]7)C=C6)C=C5)cc3)c(-c3ccccn3)[nH]c2c1
REMARK SMILES IDX 14 1 13 2 11 3 12 4 10 6 9 7 8 8 7 9 1 10 2 11 3 12 83 13
REMARK SMILES IDX 4 14 82 15 5 16 6 17 81 18 74 19 75 21 76 22 80 23 77 24
REMARK SMILES IDX 79 25 78 26 15 27 16 28 17 29 18 30 19 32 20 33 21 34 73 35
REMARK SMILES IDX 22 36 72 37 23 38 24 39 25 40 66 41 26 42 71 43 65 44 67 45
REMARK SMILES IDX 27 46 70 47 64 48 63 49 28 51 54 52 37 53 53 54 38 55 41 56
REMARK SMILES IDX 52 57 68 58 39 59 40 60 51 62 69 63 42 64 29 65 30 66 35 67
REMARK SMILES IDX 31 68 32 69 34 70 36 71 33 72 55 73 56 74 61 75 57 76 58 77
REMARK SMILES IDX 60 78 62 79 59 80 43 81 44 82 49 83 45 84 46 85 48 86 50 87
REMARK SMILES IDX 47 88
REMARK H PARENT 13 5 81 20 17 31 67 50 41 61
REMARK Flexibility Score: inf
ROOT
ATOM      1  C   UNL A   1      34.558  31.052  27.611  1.00  0.00     0.117 C 
ENDROOT
BRANCH   1   2
ATOM      2  N   UNL A   1      33.932  32.314  27.899  1.00  0.00    -0.356 N 
ATOM      3  C   UNL A   1      32.717  32.817  27.437  1.00  0.00     0.220 C 
ATOM      4  O   UNL A   1      32.398  33.911  27.927  1.00  0.00    -0.275 OA
ATOM      5  H   UNL A   1      34.432  32.906  28.506  1.00  0.00     0.163 HD
BRANCH   3   6
ATOM      6  C   UNL A   1      31.673  32.123  26.409  1.00  0.00     0.100 C 
BRANCH   6   7
ATOM      7  C   UNL A   1      31.349  30.675  26.518  1.00  0.00     0.015 C 
BRANCH   7   8
ATOM      8  C   UNL A   1      31.983  30.037  25.347  1.00  0.00     0.039 C 
BRANCH   8   9
ATOM      9  C   UNL A   1      31.130  28.920  24.559  1.00  0.00    -0.013 A 
ATOM     10  C   UNL A   1      31.223  23.265  25.062  1.00  0.00     0.044 C 
ATOM     11  C   UNL A   1      31.171  24.759  25.038  1.00  0.00    -0.049 A 
ATOM     12  C   UNL A   1      32.045  25.463  25.867  1.00  0.00     0.007 A 
ATOM     13  C   UNL A   1      30.280  25.435  24.192  1.00  0.00     0.030 A 
ATOM     14  C   UNL A   1      32.072  26.859  25.880  1.00  0.00    -0.041 A 
ATOM     15  C   UNL A   1      30.327  26.829  24.181  1.00  0.00     0.047 A 
ATOM     16  C   UNL A   1      33.017  27.543  26.829  1.00  0.00     0.045 C 
ATOM     17  C   UNL A   1      31.240  27.543  24.952  1.00  0.00     0.006 A 
ATOM     18  N   UNL A   1      29.564  27.716  23.464  1.00  0.00    -0.353 N 
ATOM     19  C   UNL A   1      30.003  29.009  23.593  1.00  0.00     0.068 A 
ATOM     20  H   UNL A   1      28.788  27.454  22.918  1.00  0.00     0.167 HD
BRANCH  19  21
ATOM     21  C   UNL A   1      29.096  30.148  22.964  1.00  0.00     0.087 A 
ATOM     22  C   UNL A   1      28.932  31.407  23.540  1.00  0.00     0.030 A 
ATOM     23  N   UNL A   1      28.627  29.963  21.702  1.00  0.00    -0.255 NA
ATOM     24  C   UNL A   1      28.390  32.458  22.766  1.00  0.00     0.004 A 
ATOM     25  C   UNL A   1      28.290  31.032  20.914  1.00  0.00     0.112 A 
ATOM     26  C   UNL A   1      28.110  32.291  21.416  1.00  0.00     0.020 A 
ENDBRANCH  19  21
ENDBRANCH   8   9
ENDBRANCH   7   8
ENDBRANCH   6   7
ENDBRANCH   3   6
ENDBRANCH   1   2
BRANCH   1  27
ATOM     27  C   UNL A   1      35.490  30.487  28.626  1.00  0.00     0.042 C 
BRANCH  27  28
ATOM     28  C   UNL A   1      36.725  30.705  27.918  1.00  0.00     0.118 C 
BRANCH  28  29
ATOM     29  N   UNL A   1      37.770  31.119  28.818  1.00  0.00    -0.352 N 
ATOM     30  C   UNL A   1      38.813  30.313  29.154  1.00  0.00     0.251 C 
ATOM     31  H   UNL A   1      37.728  32.023  29.206  1.00  0.00     0.163 HD
ATOM     32  O   UNL A   1      39.600  30.665  30.023  1.00  0.00    -0.269 OA
BRANCH  30  33
ATOM     33  C   UNL A   1      38.964  29.113  28.236  1.00  0.00     0.039 A 
ATOM     34  C   UNL A   1      38.611  27.891  28.617  1.00  0.00     0.014 A 
ATOM     35  C   UNL A   1      40.121  29.034  27.372  1.00  0.00     0.014 A 
ATOM     36  C   UNL A   1      39.837  26.841  28.295  1.00  0.00     0.010 A 
ATOM     37  C   UNL A   1      40.887  28.025  26.742  1.00  0.00     0.010 A 
ATOM     38  C   UNL A   1      41.435  27.217  27.699  1.00  0.00    -0.014 A 
BRANCH  38  39
ATOM     39  C   UNL A   1      43.321  26.799  27.257  1.00  0.00     0.031 A 
ATOM     40  C   UNL A   1      42.263  25.072  27.193  1.00  0.00     0.074 A 
ATOM     41  C   UNL A   1      44.816  27.843  26.941  1.00  0.00     0.049 A 
ATOM     42  N   UNL A   1      41.745  24.407  28.278  1.00  0.00    -0.248 NA
ATOM     43  C   UNL A   1      40.855  24.154  26.286  1.00  0.00     0.031 C 
ATOM     44  C   UNL A   1      46.413  28.919  26.589  1.00  0.00     0.029 A 
ATOM     45  N   UNL A   1      46.508  27.241  26.987  1.00  0.00    -0.354 N 
ATOM     46  C   UNL A   1      41.620  23.018  27.822  1.00  0.00     0.074 A 
ATOM     47  C   UNL A   1      40.796  22.862  26.716  1.00  0.00     0.031 C 
ATOM     48  C   UNL A   1      47.708  28.900  25.839  1.00  0.00     0.029 A 
ATOM     49  C   UNL A   1      47.836  27.579  26.003  1.00  0.00     0.049 A 
ATOM     50  H   UNL A   1      46.693  26.604  27.714  1.00  0.00     0.167 HD
ATOM     51  C   UNL A   1      42.752  22.303  27.761  1.00  0.00     0.037 A 
ATOM     52  C   UNL A   1      48.775  26.839  25.306  1.00  0.00     0.037 A 
ATOM     53  C   UNL A   1      43.654  22.958  28.606  1.00  0.00     0.049 A 
ATOM     54  C   UNL A   1      48.160  25.667  25.870  1.00  0.00     0.074 A 
ATOM     55  C   UNL A   1      43.455  23.408  29.891  1.00  0.00     0.029 A 
ATOM     56  N   UNL A   1      44.499  23.815  27.995  1.00  0.00    -0.354 N 
ATOM     57  N   UNL A   1      48.196  25.396  27.158  1.00  0.00    -0.248 NA
ATOM     58  C   UNL A   1      47.016  25.251  25.077  1.00  0.00     0.031 C 
ATOM     59  C   UNL A   1      44.330  24.473  30.086  1.00  0.00     0.029 A 
ATOM     60  C   UNL A   1      45.024  24.665  28.910  1.00  0.00     0.049 A 
ATOM     61  H   UNL A   1      44.702  23.821  27.031  1.00  0.00     0.167 HD
ATOM     62  C   UNL A   1      46.885  25.032  27.459  1.00  0.00     0.074 A 
ATOM     63  C   UNL A   1      46.261  24.836  26.088  1.00  0.00     0.031 C 
ATOM     64  C   UNL A   1      46.205  25.388  28.628  1.00  0.00     0.037 A 
BRANCH  51  65
ATOM     65  C   UNL A   1      43.075  21.244  26.794  1.00  0.00     0.057 A 
ATOM     66  C   UNL A   1      42.474  20.044  27.123  1.00  0.00     0.134 A 
ATOM     67  C   UNL A   1      43.884  21.300  25.637  1.00  0.00     0.134 A 
ATOM     68  F   UNL A   1      41.686  19.969  28.206  1.00  0.00    -0.206 F 
ATOM     69  C   UNL A   1      42.646  18.921  26.345  1.00  0.00     0.040 A 
ATOM     70  C   UNL A   1      44.048  20.177  24.830  1.00  0.00     0.040 A 
ATOM     71  F   UNL A   1      44.514  22.422  25.251  1.00  0.00    -0.206 F 
ATOM     72  C   UNL A   1      43.429  18.985  25.196  1.00  0.00     0.006 A 
ENDBRANCH  51  65
BRANCH  52  73
ATOM     73  C   UNL A   1      49.240  27.049  23.829  1.00  0.00     0.057 A 
ATOM     74  C   UNL A   1      48.390  27.590  22.845  1.00  0.00     0.134 A 
ATOM     75  C   UNL A   1      50.601  26.972  23.429  1.00  0.00     0.134 A 
ATOM     76  F   UNL A   1      47.065  27.592  23.037  1.00  0.00    -0.206 F 
ATOM     77  C   UNL A   1      48.866  28.184  21.653  1.00  0.00     0.040 A 
ATOM     78  C   UNL A   1      51.098  27.569  22.246  1.00  0.00     0.040 A 
ATOM     79  F   UNL A   1      51.505  26.372  24.217  1.00  0.00    -0.206 F 
ATOM     80  C   UNL A   1      50.229  28.217  21.375  1.00  0.00     0.006 A 
ENDBRANCH  52  73
BRANCH  64  81
ATOM     81  C   UNL A   1      46.733  26.296  29.782  1.00  0.00     0.057 A 
ATOM     82  C   UNL A   1      46.099  27.390  30.453  1.00  0.00     0.134 A 
ATOM     83  C   UNL A   1      47.962  25.956  30.325  1.00  0.00     0.134 A 
ATOM     84  F   UNL A   1      44.840  27.770  30.238  1.00  0.00    -0.206 F 
ATOM     85  C   UNL A   1      46.725  28.225  31.370  1.00  0.00     0.040 A 
ATOM     86  C   UNL A   1      48.561  26.712  31.340  1.00  0.00     0.040 A 
ATOM     87  F   UNL A   1      48.585  24.845  29.912  1.00  0.00    -0.206 F 
ATOM     88  C   UNL A   1      47.968  27.872  31.832  1.00  0.00     0.006 A 
ENDBRANCH  64  81
ENDBRANCH  38  39
ENDBRANCH  30  33
ENDBRANCH  28  29
ENDBRANCH  27  28
ENDBRANCH   1  27
TORSDOF 14
ENDMDL
