MODEL 1
REMARK VINA RESULT:     -13.9      0.000      0.000
REMARK SMILES Cc1ccc(C(=O)NCCCNC(=O)c2ccc(-c3c4nc(c(-c5c(F)cccc5F)c5ccc([nH]5)c(-c5c(F)cccc5F)c5nc(c(-c6c(F)cccc6F)c6ccc3[nH]6)C=C5)C=C4)cc2)cc1NC(=O)Cc1ccc2ccccc2c1
REMARK SMILES IDX 9 1 8 2 6 3 7 4 5 6 1 7 2 8 3 9 70 10 4 11 69 12 71 13 72 14
REMARK SMILES IDX 73 16 74 17 75 18 76 19 84 20 77 21 83 22 78 23 82 24 79 25
REMARK SMILES IDX 81 26 80 27 10 28 11 29 12 30 13 31 14 33 15 34 16 35 68 36
REMARK SMILES IDX 17 37 67 38 18 39 19 40 20 41 61 42 21 43 66 44 60 45 62 46
REMARK SMILES IDX 22 47 65 48 59 49 58 50 23 52 49 53 32 54 48 55 33 56 36 57
REMARK SMILES IDX 47 58 63 59 34 60 35 61 46 63 64 64 37 65 24 66 25 67 30 68
REMARK SMILES IDX 26 69 27 70 29 71 31 72 28 73 50 74 51 75 56 76 52 77 53 78
REMARK SMILES IDX 55 79 57 80 54 81 38 82 39 83 44 84 40 85 41 86 43 87 45 88
REMARK SMILES IDX 42 89
REMARK H PARENT 8 5 71 15 12 32 62 51 36 62
REMARK Flexibility Score: inf
ROOT
ATOM      1  C   UNL A   1      34.000  31.486  28.158  1.00  0.00     0.118 C 
ENDROOT
BRANCH   1   2
ATOM      2  N   UNL A   1      32.879  31.514  27.240  1.00  0.00    -0.352 N 
ATOM      3  C   UNL A   1      32.203  30.596  26.479  1.00  0.00     0.251 C 
ATOM      4  O   UNL A   1      31.231  31.030  25.854  1.00  0.00    -0.269 OA
ATOM      5  H   UNL A   1      32.509  32.421  27.138  1.00  0.00     0.163 HD
BRANCH   3   6
ATOM      6  C   UNL A   1      32.561  29.153  26.307  1.00  0.00     0.041 A 
ATOM      7  C   UNL A   1      34.000  25.133  25.539  1.00  0.00     0.046 C 
ATOM      8  C   UNL A   1      33.428  26.486  25.882  1.00  0.00    -0.027 A 
ATOM      9  C   UNL A   1      34.238  27.586  25.531  1.00  0.00     0.006 A 
ATOM     10  C   UNL A   1      32.150  26.713  26.446  1.00  0.00     0.044 A 
ATOM     11  C   UNL A   1      33.821  28.894  25.762  1.00  0.00     0.014 A 
ATOM     12  C   UNL A   1      31.736  28.056  26.589  1.00  0.00     0.040 A 
BRANCH  10  13
ATOM     13  N   UNL A   1      31.368  25.587  26.851  1.00  0.00    -0.326 N 
ATOM     14  C   UNL A   1      30.539  24.678  26.209  1.00  0.00     0.228 C 
ATOM     15  H   UNL A   1      31.433  25.415  27.818  1.00  0.00     0.169 HD
ATOM     16  O   UNL A   1      29.941  23.853  26.898  1.00  0.00    -0.274 OA
BRANCH  14  17
ATOM     17  C   UNL A   1      30.423  24.743  24.718  1.00  0.00     0.135 C 
BRANCH  17  18
ATOM     18  C   UNL A   1      30.068  25.956  23.893  1.00  0.00    -0.038 A 
ATOM     19  C   UNL A   1      31.118  26.406  23.077  1.00  0.00     0.005 A 
ATOM     20  C   UNL A   1      28.892  26.713  23.908  1.00  0.00     0.013 A 
ATOM     21  C   UNL A   1      31.068  27.628  22.424  1.00  0.00     0.009 A 
ATOM     22  C   UNL A   1      28.811  27.952  23.204  1.00  0.00    -0.018 A 
ATOM     23  C   UNL A   1      29.955  28.445  22.543  1.00  0.00    -0.018 A 
ATOM     24  C   UNL A   1      27.645  28.737  23.124  1.00  0.00     0.009 A 
ATOM     25  C   UNL A   1      29.981  29.733  21.990  1.00  0.00     0.009 A 
ATOM     26  C   UNL A   1      27.652  29.990  22.490  1.00  0.00     0.001 A 
ATOM     27  C   UNL A   1      28.832  30.510  21.969  1.00  0.00     0.001 A 
ENDBRANCH  17  18
ENDBRANCH  14  17
ENDBRANCH  10  13
ENDBRANCH   3   6
ENDBRANCH   1   2
BRANCH   1  28
ATOM     28  C   UNL A   1      34.978  32.642  27.980  1.00  0.00     0.042 C 
BRANCH  28  29
ATOM     29  C   UNL A   1      36.435  32.212  28.174  1.00  0.00     0.118 C 
BRANCH  29  30
ATOM     30  N   UNL A   1      36.836  32.057  29.575  1.00  0.00    -0.352 N 
ATOM     31  C   UNL A   1      37.244  30.943  30.303  1.00  0.00     0.251 C 
ATOM     32  H   UNL A   1      36.814  32.892  30.096  1.00  0.00     0.163 HD
ATOM     33  O   UNL A   1      37.654  31.035  31.446  1.00  0.00    -0.269 OA
BRANCH  31  34
ATOM     34  C   UNL A   1      37.381  29.649  29.615  1.00  0.00     0.039 A 
ATOM     35  C   UNL A   1      37.721  28.602  30.478  1.00  0.00     0.014 A 
ATOM     36  C   UNL A   1      37.767  29.660  28.285  1.00  0.00     0.014 A 
ATOM     37  C   UNL A   1      38.805  27.819  30.138  1.00  0.00     0.010 A 
ATOM     38  C   UNL A   1      38.902  28.947  27.977  1.00  0.00     0.010 A 
ATOM     39  C   UNL A   1      39.473  28.116  28.949  1.00  0.00    -0.014 A 
BRANCH  39  40
ATOM     40  C   UNL A   1      40.794  27.582  28.678  1.00  0.00     0.031 A 
ATOM     41  C   UNL A   1      40.863  26.146  28.374  1.00  0.00     0.074 A 
ATOM     42  C   UNL A   1      41.926  28.303  28.839  1.00  0.00     0.049 A 
ATOM     43  N   UNL A   1      41.731  25.342  28.885  1.00  0.00    -0.248 NA
ATOM     44  C   UNL A   1      39.872  25.493  27.527  1.00  0.00     0.031 C 
ATOM     45  C   UNL A   1      43.283  27.832  28.573  1.00  0.00     0.029 A 
ATOM     46  N   UNL A   1      42.116  29.525  29.491  1.00  0.00    -0.354 N 
ATOM     47  C   UNL A   1      41.588  24.141  28.234  1.00  0.00     0.074 A 
ATOM     48  C   UNL A   1      40.369  24.257  27.466  1.00  0.00     0.031 C 
ATOM     49  C   UNL A   1      44.139  28.553  29.314  1.00  0.00     0.029 A 
ATOM     50  C   UNL A   1      43.352  29.441  30.157  1.00  0.00     0.049 A 
ATOM     51  H   UNL A   1      41.504  30.296  29.486  1.00  0.00     0.167 HD
ATOM     52  C   UNL A   1      42.591  23.221  28.275  1.00  0.00     0.037 A 
ATOM     53  C   UNL A   1      43.536  29.628  31.496  1.00  0.00     0.037 A 
ATOM     54  C   UNL A   1      43.731  23.713  29.040  1.00  0.00     0.049 A 
ATOM     55  C   UNL A   1      44.159  28.432  32.187  1.00  0.00     0.074 A 
ATOM     56  C   UNL A   1      44.881  24.380  28.644  1.00  0.00     0.029 A 
ATOM     57  N   UNL A   1      43.638  23.876  30.418  1.00  0.00    -0.354 N 
ATOM     58  N   UNL A   1      44.253  27.253  31.639  1.00  0.00    -0.248 NA
ATOM     59  C   UNL A   1      44.636  28.441  33.570  1.00  0.00     0.031 C 
ATOM     60  C   UNL A   1      45.459  24.981  29.786  1.00  0.00     0.029 A 
ATOM     61  C   UNL A   1      44.672  24.672  30.880  1.00  0.00     0.049 A 
ATOM     62  H   UNL A   1      42.936  23.481  30.984  1.00  0.00     0.167 HD
ATOM     63  C   UNL A   1      44.709  26.352  32.566  1.00  0.00     0.074 A 
ATOM     64  C   UNL A   1      44.973  27.150  33.747  1.00  0.00     0.031 C 
ATOM     65  C   UNL A   1      44.789  25.018  32.289  1.00  0.00     0.037 A 
BRANCH  52  66
ATOM     66  C   UNL A   1      42.641  22.086  27.286  1.00  0.00     0.057 A 
ATOM     67  C   UNL A   1      41.837  20.944  27.446  1.00  0.00     0.134 A 
ATOM     68  C   UNL A   1      43.534  22.029  26.201  1.00  0.00     0.134 A 
ATOM     69  F   UNL A   1      40.849  20.899  28.347  1.00  0.00    -0.206 F 
ATOM     70  C   UNL A   1      42.019  19.781  26.691  1.00  0.00     0.040 A 
ATOM     71  C   UNL A   1      43.770  20.853  25.476  1.00  0.00     0.040 A 
ATOM     72  F   UNL A   1      44.203  23.119  25.796  1.00  0.00    -0.206 F 
ATOM     73  C   UNL A   1      43.024  19.714  25.737  1.00  0.00     0.006 A 
ENDBRANCH  52  66
BRANCH  53  74
ATOM     74  C   UNL A   1      42.538  30.521  32.132  1.00  0.00     0.057 A 
ATOM     75  C   UNL A   1      41.407  29.950  32.734  1.00  0.00     0.134 A 
ATOM     76  C   UNL A   1      42.867  31.832  32.490  1.00  0.00     0.134 A 
ATOM     77  F   UNL A   1      41.027  28.704  32.412  1.00  0.00    -0.206 F 
ATOM     78  C   UNL A   1      40.714  30.602  33.756  1.00  0.00     0.040 A 
ATOM     79  C   UNL A   1      42.181  32.493  33.513  1.00  0.00     0.040 A 
ATOM     80  F   UNL A   1      43.935  32.438  31.954  1.00  0.00    -0.206 F 
ATOM     81  C   UNL A   1      41.131  31.861  34.178  1.00  0.00     0.006 A 
ENDBRANCH  53  74
BRANCH  65  82
ATOM     82  C   UNL A   1      45.067  23.931  33.292  1.00  0.00     0.057 A 
ATOM     83  C   UNL A   1      44.131  22.964  33.687  1.00  0.00     0.134 A 
ATOM     84  C   UNL A   1      46.373  23.746  33.799  1.00  0.00     0.134 A 
ATOM     85  F   UNL A   1      42.886  22.954  33.191  1.00  0.00    -0.206 F 
ATOM     86  C   UNL A   1      44.451  21.926  34.572  1.00  0.00     0.040 A 
ATOM     87  C   UNL A   1      46.716  22.686  34.643  1.00  0.00     0.040 A 
ATOM     88  F   UNL A   1      47.375  24.578  33.478  1.00  0.00    -0.206 F 
ATOM     89  C   UNL A   1      45.749  21.779  35.047  1.00  0.00     0.006 A 
ENDBRANCH  65  82
ENDBRANCH  39  40
ENDBRANCH  31  34
ENDBRANCH  29  30
ENDBRANCH  28  29
ENDBRANCH   1  28
TORSDOF 13
ENDMDL
MODEL 2
REMARK VINA RESULT:     -13.4      2.762      4.404
REMARK SMILES Cc1ccc(C(=O)NCCCNC(=O)c2ccc(-c3c4nc(c(-c5c(F)cccc5F)c5ccc([nH]5)c(-c5c(F)cccc5F)c5nc(c(-c6c(F)cccc6F)c6ccc3[nH]6)C=C5)C=C4)cc2)cc1NC(=O)Cc1ccc2ccccc2c1
REMARK SMILES IDX 9 1 8 2 6 3 7 4 5 6 1 7 2 8 3 9 70 10 4 11 69 12 71 13 72 14
REMARK SMILES IDX 73 16 74 17 75 18 76 19 84 20 77 21 83 22 78 23 82 24 79 25
REMARK SMILES IDX 81 26 80 27 10 28 11 29 12 30 13 31 14 33 15 34 16 35 68 36
REMARK SMILES IDX 17 37 67 38 18 39 19 40 20 41 61 42 21 43 66 44 60 45 62 46
REMARK SMILES IDX 22 47 65 48 59 49 58 50 23 52 49 53 32 54 48 55 33 56 36 57
REMARK SMILES IDX 47 58 63 59 34 60 35 61 46 63 64 64 37 65 24 66 25 67 30 68
REMARK SMILES IDX 26 69 27 70 29 71 31 72 28 73 50 74 51 75 56 76 52 77 53 78
REMARK SMILES IDX 55 79 57 80 54 81 38 82 39 83 44 84 40 85 41 86 43 87 45 88
REMARK SMILES IDX 42 89
REMARK H PARENT 8 5 71 15 12 32 62 51 36 62
REMARK Flexibility Score: inf
ROOT
ATOM      1  C   UNL A   1      34.475  30.925  27.992  1.00  0.00     0.118 C 
ENDROOT
BRANCH   1   2
ATOM      2  N   UNL A   1      33.312  31.197  27.169  1.00  0.00    -0.352 N 
ATOM      3  C   UNL A   1      32.381  30.447  26.499  1.00  0.00     0.251 C 
ATOM      4  O   UNL A   1      31.482  31.083  25.941  1.00  0.00    -0.269 OA
ATOM      5  H   UNL A   1      33.150  32.162  27.067  1.00  0.00     0.163 HD
BRANCH   3   6
ATOM      6  C   UNL A   1      32.386  28.957  26.347  1.00  0.00     0.041 A 
ATOM      7  C   UNL A   1      32.141  24.626  26.345  1.00  0.00     0.046 C 
ATOM      8  C   UNL A   1      32.262  26.126  26.238  1.00  0.00    -0.027 A 
ATOM      9  C   UNL A   1      31.523  26.857  27.191  1.00  0.00     0.006 A 
ATOM     10  C   UNL A   1      33.095  26.814  25.324  1.00  0.00     0.044 A 
ATOM     11  C   UNL A   1      31.566  28.248  27.228  1.00  0.00     0.014 A 
ATOM     12  C   UNL A   1      33.169  28.220  25.449  1.00  0.00     0.040 A 
BRANCH  10  13
ATOM     13  N   UNL A   1      33.790  26.062  24.327  1.00  0.00    -0.326 N 
ATOM     14  C   UNL A   1      33.423  25.336  23.203  1.00  0.00     0.228 C 
ATOM     15  H   UNL A   1      34.764  26.057  24.474  1.00  0.00     0.169 HD
ATOM     16  O   UNL A   1      34.303  24.727  22.595  1.00  0.00    -0.274 OA
BRANCH  14  17
ATOM     17  C   UNL A   1      31.986  25.338  22.787  1.00  0.00     0.135 C 
BRANCH  17  18
ATOM     18  C   UNL A   1      31.000  26.469  22.954  1.00  0.00    -0.038 A 
ATOM     19  C   UNL A   1      29.867  26.119  23.704  1.00  0.00     0.005 A 
ATOM     20  C   UNL A   1      31.036  27.753  22.398  1.00  0.00     0.013 A 
ATOM     21  C   UNL A   1      28.751  26.940  23.775  1.00  0.00     0.009 A 
ATOM     22  C   UNL A   1      29.910  28.625  22.501  1.00  0.00    -0.018 A 
ATOM     23  C   UNL A   1      28.730  28.157  23.115  1.00  0.00    -0.018 A 
ATOM     24  C   UNL A   1      29.894  29.948  22.021  1.00  0.00     0.009 A 
ATOM     25  C   UNL A   1      27.545  28.907  23.085  1.00  0.00     0.009 A 
ATOM     26  C   UNL A   1      28.728  30.729  22.073  1.00  0.00     0.001 A 
ATOM     27  C   UNL A   1      27.541  30.190  22.557  1.00  0.00     0.001 A 
ENDBRANCH  17  18
ENDBRANCH  14  17
ENDBRANCH  10  13
ENDBRANCH   3   6
ENDBRANCH   1   2
BRANCH   1  28
ATOM     28  C   UNL A   1      35.181  32.176  28.502  1.00  0.00     0.042 C 
BRANCH  28  29
ATOM     29  C   UNL A   1      35.567  32.069  29.980  1.00  0.00     0.118 C 
BRANCH  29  30
ATOM     30  N   UNL A   1      34.479  32.381  30.912  1.00  0.00    -0.352 N 
ATOM     31  C   UNL A   1      34.486  32.902  32.202  1.00  0.00     0.251 C 
ATOM     32  H   UNL A   1      33.580  32.186  30.561  1.00  0.00     0.163 HD
ATOM     33  O   UNL A   1      33.458  33.204  32.781  1.00  0.00    -0.269 OA
BRANCH  31  34
ATOM     34  C   UNL A   1      35.768  33.294  32.809  1.00  0.00     0.039 A 
ATOM     35  C   UNL A   1      36.498  34.189  32.019  1.00  0.00     0.014 A 
ATOM     36  C   UNL A   1      36.385  32.392  33.660  1.00  0.00     0.014 A 
ATOM     37  C   UNL A   1      37.813  33.874  31.744  1.00  0.00     0.010 A 
ATOM     38  C   UNL A   1      37.666  32.020  33.323  1.00  0.00     0.010 A 
ATOM     39  C   UNL A   1      38.326  32.695  32.289  1.00  0.00    -0.014 A 
BRANCH  39  40
ATOM     40  C   UNL A   1      39.561  32.118  31.797  1.00  0.00     0.031 A 
ATOM     41  C   UNL A   1      39.427  30.928  30.945  1.00  0.00     0.074 A 
ATOM     42  C   UNL A   1      40.782  32.533  32.206  1.00  0.00     0.049 A 
ATOM     43  N   UNL A   1      40.144  29.865  31.073  1.00  0.00    -0.248 NA
ATOM     44  C   UNL A   1      38.384  30.824  29.931  1.00  0.00     0.031 C 
ATOM     45  C   UNL A   1      42.063  32.006  31.743  1.00  0.00     0.029 A 
ATOM     46  N   UNL A   1      41.126  33.351  33.286  1.00  0.00    -0.354 N 
ATOM     47  C   UNL A   1      39.849  29.058  30.002  1.00  0.00     0.074 A 
ATOM     48  C   UNL A   1      38.693  29.655  29.372  1.00  0.00     0.031 C 
ATOM     49  C   UNL A   1      42.986  32.233  32.690  1.00  0.00     0.029 A 
ATOM     50  C   UNL A   1      42.307  32.822  33.834  1.00  0.00     0.049 A 
ATOM     51  H   UNL A   1      40.637  34.146  33.602  1.00  0.00     0.167 HD
ATOM     52  C   UNL A   1      40.702  28.056  29.650  1.00  0.00     0.037 A 
ATOM     53  C   UNL A   1      42.464  32.432  35.132  1.00  0.00     0.037 A 
ATOM     54  C   UNL A   1      41.871  28.023  30.521  1.00  0.00     0.049 A 
ATOM     55  C   UNL A   1      42.873  30.980  35.275  1.00  0.00     0.074 A 
ATOM     56  C   UNL A   1      43.122  28.608  30.397  1.00  0.00     0.029 A 
ATOM     57  N   UNL A   1      41.749  27.638  31.851  1.00  0.00    -0.354 N 
ATOM     58  N   UNL A   1      42.812  30.117  34.301  1.00  0.00    -0.248 NA
ATOM     59  C   UNL A   1      43.291  30.367  36.536  1.00  0.00     0.031 C 
ATOM     60  C   UNL A   1      43.738  28.611  31.669  1.00  0.00     0.029 A 
ATOM     61  C   UNL A   1      42.870  28.017  32.568  1.00  0.00     0.049 A 
ATOM     62  H   UNL A   1      40.973  27.163  32.230  1.00  0.00     0.167 HD
ATOM     63  C   UNL A   1      43.091  28.863  34.782  1.00  0.00     0.074 A 
ATOM     64  C   UNL A   1      43.423  29.077  36.177  1.00  0.00     0.031 C 
ATOM     65  C   UNL A   1      42.981  27.754  33.995  1.00  0.00     0.037 A 
BRANCH  52  66
ATOM     66  C   UNL A   1      40.622  27.414  28.289  1.00  0.00     0.057 A 
ATOM     67  C   UNL A   1      39.967  26.184  28.102  1.00  0.00     0.134 A 
ATOM     68  C   UNL A   1      41.253  27.924  27.142  1.00  0.00     0.134 A 
ATOM     69  F   UNL A   1      39.210  25.635  29.060  1.00  0.00    -0.206 F 
ATOM     70  C   UNL A   1      40.069  25.447  26.917  1.00  0.00     0.040 A 
ATOM     71  C   UNL A   1      41.415  27.173  25.970  1.00  0.00     0.040 A 
ATOM     72  F   UNL A   1      41.726  29.179  27.111  1.00  0.00    -0.206 F 
ATOM     73  C   UNL A   1      40.839  25.916  25.864  1.00  0.00     0.006 A 
ENDBRANCH  52  66
BRANCH  53  74
ATOM     74  C   UNL A   1      41.586  33.141  36.094  1.00  0.00     0.057 A 
ATOM     75  C   UNL A   1      41.978  34.406  36.559  1.00  0.00     0.134 A 
ATOM     76  C   UNL A   1      40.242  32.787  36.242  1.00  0.00     0.134 A 
ATOM     77  F   UNL A   1      43.259  34.792  36.467  1.00  0.00    -0.206 F 
ATOM     78  C   UNL A   1      41.045  35.336  37.022  1.00  0.00     0.040 A 
ATOM     79  C   UNL A   1      39.300  33.711  36.702  1.00  0.00     0.040 A 
ATOM     80  F   UNL A   1      39.800  31.595  35.819  1.00  0.00    -0.206 F 
ATOM     81  C   UNL A   1      39.694  35.003  37.052  1.00  0.00     0.006 A 
ENDBRANCH  53  74
BRANCH  65  82
ATOM     82  C   UNL A   1      43.054  26.329  34.476  1.00  0.00     0.057 A 
ATOM     83  C   UNL A   1      42.008  25.665  35.132  1.00  0.00     0.134 A 
ATOM     84  C   UNL A   1      44.171  25.525  34.156  1.00  0.00     0.134 A 
ATOM     85  F   UNL A   1      40.846  26.278  35.394  1.00  0.00    -0.206 F 
ATOM     86  C   UNL A   1      42.090  24.316  35.503  1.00  0.00     0.040 A 
ATOM     87  C   UNL A   1      44.243  24.165  34.476  1.00  0.00     0.040 A 
ATOM     88  F   UNL A   1      45.229  26.023  33.501  1.00  0.00    -0.206 F 
ATOM     89  C   UNL A   1      43.207  23.559  35.167  1.00  0.00     0.006 A 
ENDBRANCH  65  82
ENDBRANCH  39  40
ENDBRANCH  31  34
ENDBRANCH  29  30
ENDBRANCH  28  29
ENDBRANCH   1  28
TORSDOF 13
ENDMDL
MODEL 3
REMARK VINA RESULT:     -13.4      4.278      9.776
REMARK SMILES Cc1ccc(C(=O)NCCCNC(=O)c2ccc(-c3c4nc(c(-c5c(F)cccc5F)c5ccc([nH]5)c(-c5c(F)cccc5F)c5nc(c(-c6c(F)cccc6F)c6ccc3[nH]6)C=C5)C=C4)cc2)cc1NC(=O)Cc1ccc2ccccc2c1
REMARK SMILES IDX 9 1 8 2 6 3 7 4 5 6 1 7 2 8 3 9 70 10 4 11 69 12 71 13 72 14
REMARK SMILES IDX 73 16 74 17 75 18 76 19 84 20 77 21 83 22 78 23 82 24 79 25
REMARK SMILES IDX 81 26 80 27 10 28 11 29 12 30 13 31 14 33 15 34 16 35 68 36
REMARK SMILES IDX 17 37 67 38 18 39 19 40 20 41 61 42 21 43 66 44 60 45 62 46
REMARK SMILES IDX 22 47 65 48 59 49 58 50 23 52 49 53 32 54 48 55 33 56 36 57
REMARK SMILES IDX 47 58 63 59 34 60 35 61 46 63 64 64 37 65 24 66 25 67 30 68
REMARK SMILES IDX 26 69 27 70 29 71 31 72 28 73 50 74 51 75 56 76 52 77 53 78
REMARK SMILES IDX 55 79 57 80 54 81 38 82 39 83 44 84 40 85 41 86 43 87 45 88
REMARK SMILES IDX 42 89
REMARK H PARENT 8 5 71 15 12 32 62 51 36 62
REMARK Flexibility Score: inf
ROOT
ATOM      1  C   UNL A   1      39.364  22.343  26.253  1.00  0.00     0.118 C 
ENDROOT
BRANCH   1   2
ATOM      2  N   UNL A   1      38.666  21.201  25.698  1.00  0.00    -0.352 N 
ATOM      3  C   UNL A   1      37.475  20.991  25.051  1.00  0.00     0.251 C 
ATOM      4  O   UNL A   1      37.266  19.834  24.676  1.00  0.00    -0.269 OA
ATOM      5  H   UNL A   1      39.174  20.366  25.812  1.00  0.00     0.163 HD
BRANCH   3   6
ATOM      6  C   UNL A   1      36.408  22.012  24.808  1.00  0.00     0.041 A 
ATOM      7  C   UNL A   1      33.560  25.081  23.672  1.00  0.00     0.046 C 
ATOM      8  C   UNL A   1      34.477  23.981  24.147  1.00  0.00    -0.027 A 
ATOM      9  C   UNL A   1      35.461  23.579  23.221  1.00  0.00     0.006 A 
ATOM     10  C   UNL A   1      34.457  23.403  25.439  1.00  0.00     0.044 A 
ATOM     11  C   UNL A   1      36.393  22.595  23.539  1.00  0.00     0.014 A 
ATOM     12  C   UNL A   1      35.470  22.467  25.744  1.00  0.00     0.040 A 
BRANCH  10  13
ATOM     13  N   UNL A   1      33.416  23.780  26.344  1.00  0.00    -0.326 N 
ATOM     14  C   UNL A   1      32.059  23.515  26.454  1.00  0.00     0.228 C 
ATOM     15  H   UNL A   1      33.741  24.370  27.062  1.00  0.00     0.169 HD
ATOM     16  O   UNL A   1      31.427  24.086  27.342  1.00  0.00    -0.274 OA
BRANCH  14  17
ATOM     17  C   UNL A   1      31.439  22.546  25.496  1.00  0.00     0.135 C 
BRANCH  17  18
ATOM     18  C   UNL A   1      32.070  21.288  24.950  1.00  0.00    -0.038 A 
ATOM     19  C   UNL A   1      32.119  21.248  23.548  1.00  0.00     0.005 A 
ATOM     20  C   UNL A   1      32.517  20.159  25.644  1.00  0.00     0.013 A 
ATOM     21  C   UNL A   1      32.448  20.092  22.858  1.00  0.00     0.009 A 
ATOM     22  C   UNL A   1      32.901  18.976  24.944  1.00  0.00    -0.018 A 
ATOM     23  C   UNL A   1      32.764  18.930  23.541  1.00  0.00    -0.018 A 
ATOM     24  C   UNL A   1      33.417  17.824  25.569  1.00  0.00     0.009 A 
ATOM     25  C   UNL A   1      32.958  17.739  22.827  1.00  0.00     0.009 A 
ATOM     26  C   UNL A   1      33.695  16.659  24.835  1.00  0.00     0.001 A 
ATOM     27  C   UNL A   1      33.416  16.600  23.474  1.00  0.00     0.001 A 
ENDBRANCH  17  18
ENDBRANCH  14  17
ENDBRANCH  10  13
ENDBRANCH   3   6
ENDBRANCH   1   2
BRANCH   1  28
ATOM     28  C   UNL A   1      40.442  21.978  27.268  1.00  0.00     0.042 C 
BRANCH  28  29
ATOM     29  C   UNL A   1      41.000  23.205  27.996  1.00  0.00     0.118 C 
BRANCH  29  30
ATOM     30  N   UNL A   1      41.990  23.964  27.226  1.00  0.00    -0.352 N 
ATOM     31  C   UNL A   1      41.924  25.207  26.604  1.00  0.00     0.251 C 
ATOM     32  H   UNL A   1      42.860  23.512  27.132  1.00  0.00     0.163 HD
ATOM     33  O   UNL A   1      42.903  25.729  26.103  1.00  0.00    -0.269 OA
BRANCH  31  34
ATOM     34  C   UNL A   1      40.695  26.007  26.732  1.00  0.00     0.039 A 
ATOM     35  C   UNL A   1      40.819  27.292  26.194  1.00  0.00     0.014 A 
ATOM     36  C   UNL A   1      39.852  25.733  27.797  1.00  0.00     0.014 A 
ATOM     37  C   UNL A   1      40.461  28.358  26.994  1.00  0.00     0.010 A 
ATOM     38  C   UNL A   1      39.576  26.787  28.637  1.00  0.00     0.010 A 
ATOM     39  C   UNL A   1      39.984  28.077  28.275  1.00  0.00    -0.014 A 
BRANCH  39  40
ATOM     40  C   UNL A   1      39.901  29.111  29.288  1.00  0.00     0.031 A 
ATOM     41  C   UNL A   1      38.838  30.110  29.110  1.00  0.00     0.074 A 
ATOM     42  C   UNL A   1      40.827  29.263  30.261  1.00  0.00     0.049 A 
ATOM     43  N   UNL A   1      39.010  31.379  29.246  1.00  0.00    -0.248 NA
ATOM     44  C   UNL A   1      37.501  29.735  28.663  1.00  0.00     0.031 C 
ATOM     45  C   UNL A   1      40.799  30.272  31.317  1.00  0.00     0.029 A 
ATOM     46  N   UNL A   1      42.100  28.696  30.373  1.00  0.00    -0.354 N 
ATOM     47  C   UNL A   1      37.767  31.957  29.176  1.00  0.00     0.074 A 
ATOM     48  C   UNL A   1      36.876  30.911  28.727  1.00  0.00     0.031 C 
ATOM     49  C   UNL A   1      42.055  30.482  31.742  1.00  0.00     0.029 A 
ATOM     50  C   UNL A   1      42.941  29.690  30.903  1.00  0.00     0.049 A 
ATOM     51  H   UNL A   1      42.359  27.778  30.128  1.00  0.00     0.167 HD
ATOM     52  C   UNL A   1      37.574  33.217  29.656  1.00  0.00     0.037 A 
ATOM     53  C   UNL A   1      44.087  30.143  30.316  1.00  0.00     0.037 A 
ATOM     54  C   UNL A   1      38.803  33.765  30.219  1.00  0.00     0.049 A 
ATOM     55  C   UNL A   1      44.074  31.634  30.050  1.00  0.00     0.074 A 
ATOM     56  C   UNL A   1      39.297  33.763  31.514  1.00  0.00     0.029 A 
ATOM     57  N   UNL A   1      39.870  34.096  29.392  1.00  0.00    -0.354 N 
ATOM     58  N   UNL A   1      42.996  32.365  30.107  1.00  0.00    -0.248 NA
ATOM     59  C   UNL A   1      45.242  32.399  29.611  1.00  0.00     0.031 C 
ATOM     60  C   UNL A   1      40.680  34.054  31.461  1.00  0.00     0.029 A 
ATOM     61  C   UNL A   1      41.028  34.246  30.136  1.00  0.00     0.049 A 
ATOM     62  H   UNL A   1      39.811  34.206  28.415  1.00  0.00     0.167 HD
ATOM     63  C   UNL A   1      43.277  33.630  29.659  1.00  0.00     0.074 A 
ATOM     64  C   UNL A   1      44.703  33.614  29.398  1.00  0.00     0.031 C 
ATOM     65  C   UNL A   1      42.298  34.568  29.503  1.00  0.00     0.037 A 
BRANCH  52  66
ATOM     66  C   UNL A   1      36.187  33.729  29.949  1.00  0.00     0.057 A 
ATOM     67  C   UNL A   1      35.351  34.195  28.920  1.00  0.00     0.134 A 
ATOM     68  C   UNL A   1      35.660  33.870  31.244  1.00  0.00     0.134 A 
ATOM     69  F   UNL A   1      35.652  34.011  27.629  1.00  0.00    -0.206 F 
ATOM     70  C   UNL A   1      34.161  34.888  29.169  1.00  0.00     0.040 A 
ATOM     71  C   UNL A   1      34.503  34.613  31.514  1.00  0.00     0.040 A 
ATOM     72  F   UNL A   1      36.242  33.278  32.298  1.00  0.00    -0.206 F 
ATOM     73  C   UNL A   1      33.759  35.146  30.471  1.00  0.00     0.006 A 
ENDBRANCH  52  66
BRANCH  53  74
ATOM     74  C   UNL A   1      44.758  29.154  29.439  1.00  0.00     0.057 A 
ATOM     75  C   UNL A   1      44.480  29.173  28.063  1.00  0.00     0.134 A 
ATOM     76  C   UNL A   1      45.914  28.486  29.854  1.00  0.00     0.134 A 
ATOM     77  F   UNL A   1      43.373  29.777  27.607  1.00  0.00    -0.206 F 
ATOM     78  C   UNL A   1      45.388  28.675  27.127  1.00  0.00     0.040 A 
ATOM     79  C   UNL A   1      46.829  27.986  28.925  1.00  0.00     0.040 A 
ATOM     80  F   UNL A   1      46.239  28.430  31.153  1.00  0.00    -0.206 F 
ATOM     81  C   UNL A   1      46.588  28.118  27.558  1.00  0.00     0.006 A 
ENDBRANCH  53  74
BRANCH  65  82
ATOM     82  C   UNL A   1      42.463  35.902  28.823  1.00  0.00     0.057 A 
ATOM     83  C   UNL A   1      41.922  36.218  27.568  1.00  0.00     0.134 A 
ATOM     84  C   UNL A   1      43.078  36.977  29.502  1.00  0.00     0.134 A 
ATOM     85  F   UNL A   1      41.214  35.323  26.867  1.00  0.00    -0.206 F 
ATOM     86  C   UNL A   1      42.040  37.494  27.000  1.00  0.00     0.040 A 
ATOM     87  C   UNL A   1      43.157  38.266  28.967  1.00  0.00     0.040 A 
ATOM     88  F   UNL A   1      43.609  36.823  30.724  1.00  0.00    -0.206 F 
ATOM     89  C   UNL A   1      42.652  38.525  27.703  1.00  0.00     0.006 A 
ENDBRANCH  65  82
ENDBRANCH  39  40
ENDBRANCH  31  34
ENDBRANCH  29  30
ENDBRANCH  28  29
ENDBRANCH   1  28
TORSDOF 13
ENDMDL
