MODEL 1
REMARK VINA RESULT:     -11.2      0.000      0.000
REMARK SMILES CC[C@H](c1ccc(OC)cc1)[N@H+]1CC[C@H](C(=O)NCCCNC(=O)c2ccc(-c3c4nc(c(-c5c(F)cccc5F)c5ccc([nH]5)c(-c5c(F)cccc5F)c5nc(c(-c6c(F)cccc6F)c6ccc3[nH]6)C=C5)C=C4)cc2)[C@@H]1C
REMARK SMILES IDX 19 1 18 2 16 3 17 4 15 6 12 7 13 8 79 9 14 11 80 12 3 13
REMARK SMILES IDX 2 14 1 15 4 16 5 17 11 18 6 19 10 20 7 21 8 22 9 23 20 24
REMARK SMILES IDX 21 25 22 26 23 27 24 29 25 30 26 31 78 32 27 33 77 34 28 35
REMARK SMILES IDX 29 36 30 37 71 38 31 39 76 40 70 41 72 42 32 43 75 44 69 45
REMARK SMILES IDX 68 46 33 48 59 49 42 50 58 51 43 52 46 53 57 54 73 55 44 56
REMARK SMILES IDX 45 57 56 59 74 60 47 61 34 62 35 63 40 64 36 65 37 66 39 67
REMARK SMILES IDX 41 68 38 69 60 70 61 71 66 72 62 73 63 74 65 75 67 76 64 77
REMARK SMILES IDX 48 78 49 79 54 80 50 81 51 82 53 83 55 84 52 85
REMARK H PARENT 18 5 12 10 22 28 72 47 46 58
REMARK Flexibility Score: inf
ROOT
ATOM      1  C   UNL A   1      36.789  20.746  24.720  1.00  0.00     0.117 C 
ENDROOT
BRANCH   1   2
ATOM      2  N   UNL A   1      35.824  20.859  25.807  1.00  0.00    -0.356 N 
ATOM      3  C   UNL A   1      34.658  21.528  26.021  1.00  0.00     0.229 C 
ATOM      4  O   UNL A   1      34.142  21.340  27.132  1.00  0.00    -0.275 OA
ATOM      5  H   UNL A   1      36.080  20.312  26.584  1.00  0.00     0.163 HD
BRANCH   3   6
ATOM      6  C   UNL A   1      33.962  22.470  25.031  1.00  0.00     0.142 C 
ATOM      7  N   UNL A   1      33.454  24.825  25.485  1.00  0.00    -0.326 N 
ATOM      8  C   UNL A   1      32.529  23.929  26.156  1.00  0.00     0.264 C 
ATOM      9  C   UNL A   1      34.501  23.931  24.919  1.00  0.00     0.194 C 
ATOM     10  H   UNL A   1      33.908  25.488  26.113  1.00  0.00     0.348 HD
ATOM     11  C   UNL A   1      32.495  22.685  25.276  1.00  0.00     0.081 C 
ATOM     12  C   UNL A   1      35.813  24.174  25.666  1.00  0.00     0.076 C 
BRANCH   7  13
ATOM     13  C   UNL A   1      32.812  25.834  24.613  1.00  0.00     0.215 C 
BRANCH  13  14
ATOM     14  C   UNL A   1      33.327  25.679  23.149  1.00  0.00     0.067 C 
ATOM     15  C   UNL A   1      32.359  25.168  22.080  1.00  0.00     0.010 C 
ENDBRANCH  13  14
BRANCH  13  16
ATOM     16  C   UNL A   1      32.829  27.286  25.122  1.00  0.00     0.010 A 
ATOM     17  C   UNL A   1      33.844  27.792  25.953  1.00  0.00     0.014 A 
ATOM     18  C   UNL A   1      31.739  28.132  24.858  1.00  0.00     0.014 A 
ATOM     19  C   UNL A   1      33.712  29.020  26.601  1.00  0.00     0.047 A 
ATOM     20  C   UNL A   1      31.635  29.396  25.462  1.00  0.00     0.047 A 
ATOM     21  C   UNL A   1      32.607  29.828  26.361  1.00  0.00     0.118 A 
BRANCH  21  22
ATOM     22  O   UNL A   1      32.582  30.981  27.093  1.00  0.00    -0.497 OA
ATOM     23  C   UNL A   1      33.805  31.367  27.702  1.00  0.00     0.278 C 
ENDBRANCH  21  22
ENDBRANCH  13  16
ENDBRANCH   7  13
ENDBRANCH   3   6
ENDBRANCH   1   2
BRANCH   1  24
ATOM     24  C   UNL A   1      37.842  19.679  24.957  1.00  0.00     0.042 C 
BRANCH  24  25
ATOM     25  C   UNL A   1      39.035  20.227  25.707  1.00  0.00     0.118 C 
BRANCH  25  26
ATOM     26  N   UNL A   1      40.089  19.225  25.853  1.00  0.00    -0.352 N 
ATOM     27  C   UNL A   1      41.436  19.376  26.059  1.00  0.00     0.251 C 
ATOM     28  H   UNL A   1      39.782  18.291  25.793  1.00  0.00     0.163 HD
ATOM     29  O   UNL A   1      42.193  18.429  25.883  1.00  0.00    -0.269 OA
BRANCH  27  30
ATOM     30  C   UNL A   1      41.963  20.683  26.492  1.00  0.00     0.039 A 
ATOM     31  C   UNL A   1      42.362  21.613  25.530  1.00  0.00     0.014 A 
ATOM     32  C   UNL A   1      42.071  20.981  27.851  1.00  0.00     0.014 A 
ATOM     33  C   UNL A   1      42.810  22.869  25.939  1.00  0.00     0.010 A 
ATOM     34  C   UNL A   1      42.393  22.268  28.249  1.00  0.00     0.010 A 
ATOM     35  C   UNL A   1      42.788  23.217  27.300  1.00  0.00    -0.014 A 
BRANCH  35  36
ATOM     36  C   UNL A   1      43.213  24.556  27.767  1.00  0.00     0.031 A 
ATOM     37  C   UNL A   1      42.173  25.601  28.066  1.00  0.00     0.074 A 
ATOM     38  C   UNL A   1      44.526  24.845  27.854  1.00  0.00     0.049 A 
ATOM     39  N   UNL A   1      42.335  26.859  28.390  1.00  0.00    -0.248 NA
ATOM     40  C   UNL A   1      40.762  25.188  27.958  1.00  0.00     0.031 C 
ATOM     41  C   UNL A   1      45.622  23.924  27.543  1.00  0.00     0.029 A 
ATOM     42  N   UNL A   1      45.160  26.001  28.225  1.00  0.00    -0.354 N 
ATOM     43  C   UNL A   1      41.055  27.380  28.519  1.00  0.00     0.074 A 
ATOM     44  C   UNL A   1      40.127  26.332  28.162  1.00  0.00     0.031 C 
ATOM     45  C   UNL A   1      46.792  24.541  27.768  1.00  0.00     0.029 A 
ATOM     46  C   UNL A   1      46.532  25.912  28.190  1.00  0.00     0.049 A 
ATOM     47  H   UNL A   1      44.681  26.819  28.490  1.00  0.00     0.167 HD
ATOM     48  C   UNL A   1      40.683  28.612  28.936  1.00  0.00     0.037 A 
ATOM     49  C   UNL A   1      47.467  26.841  28.461  1.00  0.00     0.037 A 
ATOM     50  C   UNL A   1      41.610  29.645  29.309  1.00  0.00     0.049 A 
ATOM     51  C   UNL A   1      47.022  28.215  28.884  1.00  0.00     0.074 A 
ATOM     52  C   UNL A   1      41.341  30.922  29.765  1.00  0.00     0.029 A 
ATOM     53  N   UNL A   1      42.990  29.513  29.273  1.00  0.00    -0.354 N 
ATOM     54  N   UNL A   1      45.807  28.679  29.053  1.00  0.00    -0.248 NA
ATOM     55  C   UNL A   1      48.082  29.195  29.159  1.00  0.00     0.031 C 
ATOM     56  C   UNL A   1      42.559  31.577  29.970  1.00  0.00     0.029 A 
ATOM     57  C   UNL A   1      43.587  30.691  29.690  1.00  0.00     0.049 A 
ATOM     58  H   UNL A   1      43.475  28.702  28.992  1.00  0.00     0.167 HD
ATOM     59  C   UNL A   1      45.958  29.988  29.493  1.00  0.00     0.074 A 
ATOM     60  C   UNL A   1      47.382  30.237  29.579  1.00  0.00     0.031 C 
ATOM     61  C   UNL A   1      45.006  30.905  29.794  1.00  0.00     0.037 A 
BRANCH  48  62
ATOM     62  C   UNL A   1      39.213  28.898  29.038  1.00  0.00     0.057 A 
ATOM     63  C   UNL A   1      38.513  28.708  30.238  1.00  0.00     0.134 A 
ATOM     64  C   UNL A   1      38.500  29.409  27.948  1.00  0.00     0.134 A 
ATOM     65  F   UNL A   1      39.134  28.206  31.316  1.00  0.00    -0.206 F 
ATOM     66  C   UNL A   1      37.152  29.001  30.345  1.00  0.00     0.040 A 
ATOM     67  C   UNL A   1      37.145  29.732  28.050  1.00  0.00     0.040 A 
ATOM     68  F   UNL A   1      39.108  29.616  26.771  1.00  0.00    -0.206 F 
ATOM     69  C   UNL A   1      36.467  29.524  29.250  1.00  0.00     0.006 A 
ENDBRANCH  48  62
BRANCH  49  70
ATOM     70  C   UNL A   1      48.912  26.514  28.357  1.00  0.00     0.057 A 
ATOM     71  C   UNL A   1      49.648  26.128  29.485  1.00  0.00     0.134 A 
ATOM     72  C   UNL A   1      49.607  26.629  27.146  1.00  0.00     0.134 A 
ATOM     73  F   UNL A   1      49.044  26.013  30.677  1.00  0.00    -0.206 F 
ATOM     74  C   UNL A   1      51.026  25.911  29.423  1.00  0.00     0.040 A 
ATOM     75  C   UNL A   1      50.978  26.383  27.064  1.00  0.00     0.040 A 
ATOM     76  F   UNL A   1      48.961  26.983  26.025  1.00  0.00    -0.206 F 
ATOM     77  C   UNL A   1      51.694  26.039  28.208  1.00  0.00     0.006 A 
ENDBRANCH  49  70
BRANCH  61  78
ATOM     78  C   UNL A   1      45.475  32.236  30.301  1.00  0.00     0.057 A 
ATOM     79  C   UNL A   1      45.705  32.473  31.662  1.00  0.00     0.134 A 
ATOM     80  C   UNL A   1      45.734  33.284  29.407  1.00  0.00     0.134 A 
ATOM     81  F   UNL A   1      45.465  31.516  32.570  1.00  0.00    -0.206 F 
ATOM     82  C   UNL A   1      46.149  33.715  32.119  1.00  0.00     0.040 A 
ATOM     83  C   UNL A   1      46.208  34.519  29.849  1.00  0.00     0.040 A 
ATOM     84  F   UNL A   1      45.546  33.118  28.090  1.00  0.00    -0.206 F 
ATOM     85  C   UNL A   1      46.409  34.739  31.210  1.00  0.00     0.006 A 
ENDBRANCH  61  78
ENDBRANCH  35  36
ENDBRANCH  27  30
ENDBRANCH  25  26
ENDBRANCH  24  25
ENDBRANCH   1  24
TORSDOF 14
ENDMDL
MODEL 2
REMARK VINA RESULT:     -11.2      1.056      6.352
REMARK SMILES CC[C@H](c1ccc(OC)cc1)[N@H+]1CC[C@H](C(=O)NCCCNC(=O)c2ccc(-c3c4nc(c(-c5c(F)cccc5F)c5ccc([nH]5)c(-c5c(F)cccc5F)c5nc(c(-c6c(F)cccc6F)c6ccc3[nH]6)C=C5)C=C4)cc2)[C@@H]1C
REMARK SMILES IDX 19 1 18 2 16 3 17 4 15 6 12 7 13 8 79 9 14 11 80 12 3 13
REMARK SMILES IDX 2 14 1 15 4 16 5 17 11 18 6 19 10 20 7 21 8 22 9 23 20 24
REMARK SMILES IDX 21 25 22 26 23 27 24 29 25 30 26 31 78 32 27 33 77 34 28 35
REMARK SMILES IDX 29 36 30 37 71 38 31 39 76 40 70 41 72 42 32 43 75 44 69 45
REMARK SMILES IDX 68 46 33 48 59 49 42 50 58 51 43 52 46 53 57 54 73 55 44 56
REMARK SMILES IDX 45 57 56 59 74 60 47 61 34 62 35 63 40 64 36 65 37 66 39 67
REMARK SMILES IDX 41 68 38 69 60 70 61 71 66 72 62 73 63 74 65 75 67 76 64 77
REMARK SMILES IDX 48 78 49 79 54 80 50 81 51 82 53 83 55 84 52 85
REMARK H PARENT 18 5 12 10 22 28 72 47 46 58
REMARK Flexibility Score: inf
ROOT
ATOM      1  C   UNL A   1      36.987  20.459  24.592  1.00  0.00     0.117 C 
ENDROOT
BRANCH   1   2
ATOM      2  N   UNL A   1      35.710  20.308  25.278  1.00  0.00    -0.356 N 
ATOM      3  C   UNL A   1      34.480  20.883  25.205  1.00  0.00     0.229 C 
ATOM      4  O   UNL A   1      33.645  20.444  26.008  1.00  0.00    -0.275 OA
ATOM      5  H   UNL A   1      35.747  19.610  25.972  1.00  0.00     0.163 HD
BRANCH   3   6
ATOM      6  C   UNL A   1      34.062  22.002  24.242  1.00  0.00     0.142 C 
ATOM      7  N   UNL A   1      33.139  24.161  24.946  1.00  0.00    -0.326 N 
ATOM      8  C   UNL A   1      32.156  23.096  25.031  1.00  0.00     0.264 C 
ATOM      9  C   UNL A   1      34.420  23.470  24.636  1.00  0.00     0.194 C 
ATOM     10  H   UNL A   1      33.259  24.677  25.818  1.00  0.00     0.348 HD
ATOM     11  C   UNL A   1      32.586  22.092  23.968  1.00  0.00     0.081 C 
ATOM     12  C   UNL A   1      35.348  23.585  25.847  1.00  0.00     0.076 C 
BRANCH   7  13
ATOM     13  C   UNL A   1      32.722  25.319  24.124  1.00  0.00     0.215 C 
BRANCH  13  14
ATOM     14  C   UNL A   1      33.550  25.362  22.802  1.00  0.00     0.067 C 
ATOM     15  C   UNL A   1      32.844  25.047  21.483  1.00  0.00     0.010 C 
ENDBRANCH  13  14
BRANCH  13  16
ATOM     16  C   UNL A   1      32.642  26.676  24.846  1.00  0.00     0.010 A 
ATOM     17  C   UNL A   1      33.418  26.984  25.978  1.00  0.00     0.014 A 
ATOM     18  C   UNL A   1      31.683  27.623  24.450  1.00  0.00     0.014 A 
ATOM     19  C   UNL A   1      33.152  28.110  26.758  1.00  0.00     0.047 A 
ATOM     20  C   UNL A   1      31.457  28.788  25.202  1.00  0.00     0.047 A 
ATOM     21  C   UNL A   1      32.171  29.017  26.377  1.00  0.00     0.118 A 
BRANCH  21  22
ATOM     22  O   UNL A   1      31.985  30.048  27.253  1.00  0.00    -0.497 OA
ATOM     23  C   UNL A   1      31.773  31.330  26.680  1.00  0.00     0.278 C 
ENDBRANCH  21  22
ENDBRANCH  13  16
ENDBRANCH   7  13
ENDBRANCH   3   6
ENDBRANCH   1   2
BRANCH   1  24
ATOM     24  C   UNL A   1      38.023  19.432  25.009  1.00  0.00     0.042 C 
BRANCH  24  25
ATOM     25  C   UNL A   1      39.131  20.054  25.827  1.00  0.00     0.118 C 
BRANCH  25  26
ATOM     26  N   UNL A   1      40.320  19.204  25.863  1.00  0.00    -0.352 N 
ATOM     27  C   UNL A   1      41.641  19.530  26.035  1.00  0.00     0.251 C 
ATOM     28  H   UNL A   1      40.145  18.243  25.742  1.00  0.00     0.163 HD
ATOM     29  O   UNL A   1      42.514  18.716  25.763  1.00  0.00    -0.269 OA
BRANCH  27  30
ATOM     30  C   UNL A   1      41.999  20.866  26.548  1.00  0.00     0.039 A 
ATOM     31  C   UNL A   1      42.404  21.857  25.652  1.00  0.00     0.014 A 
ATOM     32  C   UNL A   1      41.942  21.131  27.916  1.00  0.00     0.014 A 
ATOM     33  C   UNL A   1      42.690  23.135  26.132  1.00  0.00     0.010 A 
ATOM     34  C   UNL A   1      42.101  22.428  28.373  1.00  0.00     0.010 A 
ATOM     35  C   UNL A   1      42.500  23.438  27.490  1.00  0.00    -0.014 A 
BRANCH  35  36
ATOM     36  C   UNL A   1      42.750  24.794  28.027  1.00  0.00     0.031 A 
ATOM     37  C   UNL A   1      44.139  25.175  28.463  1.00  0.00     0.074 A 
ATOM     38  C   UNL A   1      41.721  25.650  28.181  1.00  0.00     0.049 A 
ATOM     39  N   UNL A   1      44.550  26.270  29.048  1.00  0.00    -0.248 NA
ATOM     40  C   UNL A   1      45.203  24.180  28.241  1.00  0.00     0.031 C 
ATOM     41  C   UNL A   1      40.325  25.371  27.836  1.00  0.00     0.029 A 
ATOM     42  N   UNL A   1      41.691  26.927  28.675  1.00  0.00    -0.354 N 
ATOM     43  C   UNL A   1      45.910  26.092  29.264  1.00  0.00     0.074 A 
ATOM     44  C   UNL A   1      46.243  24.757  28.823  1.00  0.00     0.031 C 
ATOM     45  C   UNL A   1      39.581  26.458  28.099  1.00  0.00     0.029 A 
ATOM     46  C   UNL A   1      40.436  27.489  28.675  1.00  0.00     0.049 A 
ATOM     47  H   UNL A   1      42.492  27.399  29.000  1.00  0.00     0.167 HD
ATOM     48  C   UNL A   1      46.810  26.977  29.750  1.00  0.00     0.037 A 
ATOM     49  C   UNL A   1      40.029  28.698  29.102  1.00  0.00     0.037 A 
ATOM     50  C   UNL A   1      46.478  28.311  30.168  1.00  0.00     0.049 A 
ATOM     51  C   UNL A   1      41.047  29.646  29.675  1.00  0.00     0.074 A 
ATOM     52  C   UNL A   1      47.316  29.297  30.656  1.00  0.00     0.029 A 
ATOM     53  N   UNL A   1      45.199  28.847  30.140  1.00  0.00    -0.354 N 
ATOM     54  N   UNL A   1      42.340  29.484  29.824  1.00  0.00    -0.248 NA
ATOM     55  C   UNL A   1      40.549  30.949  30.135  1.00  0.00     0.031 C 
ATOM     56  C   UNL A   1      46.539  30.418  30.959  1.00  0.00     0.029 A 
ATOM     57  C   UNL A   1      45.224  30.149  30.612  1.00  0.00     0.049 A 
ATOM     58  H   UNL A   1      44.393  28.374  29.831  1.00  0.00     0.167 HD
ATOM     59  C   UNL A   1      42.814  30.676  30.355  1.00  0.00     0.074 A 
ATOM     60  C   UNL A   1      41.672  31.557  30.487  1.00  0.00     0.031 C 
ATOM     61  C   UNL A   1      44.078  31.014  30.708  1.00  0.00     0.037 A 
BRANCH  48  62
ATOM     62  C   UNL A   1      48.244  26.539  29.826  1.00  0.00     0.057 A 
ATOM     63  C   UNL A   1      48.738  25.840  30.937  1.00  0.00     0.134 A 
ATOM     64  C   UNL A   1      49.128  26.774  28.767  1.00  0.00     0.134 A 
ATOM     65  F   UNL A   1      47.947  25.597  31.994  1.00  0.00    -0.206 F 
ATOM     66  C   UNL A   1      50.062  25.406  30.999  1.00  0.00     0.040 A 
ATOM     67  C   UNL A   1      50.449  26.320  28.804  1.00  0.00     0.040 A 
ATOM     68  F   UNL A   1      48.722  27.434  27.673  1.00  0.00    -0.206 F 
ATOM     69  C   UNL A   1      50.919  25.637  29.925  1.00  0.00     0.006 A 
ENDBRANCH  48  62
BRANCH  49  70
ATOM     70  C   UNL A   1      38.601  29.096  28.999  1.00  0.00     0.057 A 
ATOM     71  C   UNL A   1      38.077  29.601  27.802  1.00  0.00     0.134 A 
ATOM     72  C   UNL A   1      37.739  29.034  30.102  1.00  0.00     0.134 A 
ATOM     73  F   UNL A   1      38.855  29.698  26.713  1.00  0.00    -0.206 F 
ATOM     74  C   UNL A   1      36.764  30.069  27.715  1.00  0.00     0.040 A 
ATOM     75  C   UNL A   1      36.416  29.469  30.020  1.00  0.00     0.040 A 
ATOM     76  F   UNL A   1      38.173  28.551  31.275  1.00  0.00    -0.206 F 
ATOM     77  C   UNL A   1      35.930  30.003  28.829  1.00  0.00     0.006 A 
ENDBRANCH  49  70
BRANCH  61  78
ATOM     78  C   UNL A   1      44.299  32.410  31.210  1.00  0.00     0.057 A 
ATOM     79  C   UNL A   1      44.577  33.476  30.345  1.00  0.00     0.134 A 
ATOM     80  C   UNL A   1      44.195  32.695  32.579  1.00  0.00     0.134 A 
ATOM     81  F   UNL A   1      44.701  33.267  29.026  1.00  0.00    -0.206 F 
ATOM     82  C   UNL A   1      44.772  34.770  30.826  1.00  0.00     0.040 A 
ATOM     83  C   UNL A   1      44.356  33.992  33.067  1.00  0.00     0.040 A 
ATOM     84  F   UNL A   1      43.918  31.722  33.459  1.00  0.00    -0.206 F 
ATOM     85  C   UNL A   1      44.654  35.032  32.190  1.00  0.00     0.006 A 
ENDBRANCH  61  78
ENDBRANCH  35  36
ENDBRANCH  27  30
ENDBRANCH  25  26
ENDBRANCH  24  25
ENDBRANCH   1  24
TORSDOF 14
ENDMDL
MODEL 3
REMARK VINA RESULT:     -11.2      4.302      9.429
REMARK SMILES CC[C@H](c1ccc(OC)cc1)[N@H+]1CC[C@H](C(=O)NCCCNC(=O)c2ccc(-c3c4nc(c(-c5c(F)cccc5F)c5ccc([nH]5)c(-c5c(F)cccc5F)c5nc(c(-c6c(F)cccc6F)c6ccc3[nH]6)C=C5)C=C4)cc2)[C@@H]1C
REMARK SMILES IDX 19 1 18 2 16 3 17 4 15 6 12 7 13 8 79 9 14 11 80 12 3 13
REMARK SMILES IDX 2 14 1 15 4 16 5 17 11 18 6 19 10 20 7 21 8 22 9 23 20 24
REMARK SMILES IDX 21 25 22 26 23 27 24 29 25 30 26 31 78 32 27 33 77 34 28 35
REMARK SMILES IDX 29 36 30 37 71 38 31 39 76 40 70 41 72 42 32 43 75 44 69 45
REMARK SMILES IDX 68 46 33 48 59 49 42 50 58 51 43 52 46 53 57 54 73 55 44 56
REMARK SMILES IDX 45 57 56 59 74 60 47 61 34 62 35 63 40 64 36 65 37 66 39 67
REMARK SMILES IDX 41 68 38 69 60 70 61 71 66 72 62 73 63 74 65 75 67 76 64 77
REMARK SMILES IDX 48 78 49 79 54 80 50 81 51 82 53 83 55 84 52 85
REMARK H PARENT 18 5 12 10 22 28 72 47 46 58
REMARK Flexibility Score: inf
ROOT
ATOM      1  C   UNL A   1      31.367  30.833  26.347  1.00  0.00     0.117 C 
ENDROOT
BRANCH   1   2
ATOM      2  N   UNL A   1      31.158  30.409  24.967  1.00  0.00    -0.356 N 
ATOM      3  C   UNL A   1      31.032  29.224  24.312  1.00  0.00     0.229 C 
ATOM      4  O   UNL A   1      30.866  29.317  23.088  1.00  0.00    -0.275 OA
ATOM      5  H   UNL A   1      31.091  31.176  24.354  1.00  0.00     0.163 HD
BRANCH   3   6
ATOM      6  C   UNL A   1      31.086  27.829  24.948  1.00  0.00     0.142 C 
ATOM      7  N   UNL A   1      32.683  26.080  24.314  1.00  0.00    -0.326 N 
ATOM      8  C   UNL A   1      31.611  26.215  23.345  1.00  0.00     0.264 C 
ATOM      9  C   UNL A   1      32.493  27.223  25.249  1.00  0.00     0.194 C 
ATOM     10  H   UNL A   1      33.615  26.154  23.906  1.00  0.00     0.348 HD
ATOM     11  C   UNL A   1      30.428  26.737  24.152  1.00  0.00     0.081 C 
ATOM     12  C   UNL A   1      33.651  28.206  25.066  1.00  0.00     0.076 C 
BRANCH   7  13
ATOM     13  C   UNL A   1      32.850  24.715  24.862  1.00  0.00     0.215 C 
BRANCH  13  14
ATOM     14  C   UNL A   1      32.243  24.638  26.298  1.00  0.00     0.067 C 
ATOM     15  C   UNL A   1      31.513  23.361  26.719  1.00  0.00     0.010 C 
ENDBRANCH  13  14
BRANCH  13  16
ATOM     16  C   UNL A   1      34.257  24.103  24.753  1.00  0.00     0.010 A 
ATOM     17  C   UNL A   1      34.714  23.443  23.599  1.00  0.00     0.014 A 
ATOM     18  C   UNL A   1      35.100  24.086  25.876  1.00  0.00     0.014 A 
ATOM     19  C   UNL A   1      35.885  22.684  23.609  1.00  0.00     0.047 A 
ATOM     20  C   UNL A   1      36.311  23.372  25.867  1.00  0.00     0.047 A 
ATOM     21  C   UNL A   1      36.689  22.643  24.742  1.00  0.00     0.118 A 
BRANCH  21  22
ATOM     22  O   UNL A   1      37.780  21.828  24.630  1.00  0.00    -0.497 OA
ATOM     23  C   UNL A   1      38.653  21.791  25.749  1.00  0.00     0.278 C 
ENDBRANCH  21  22
ENDBRANCH  13  16
ENDBRANCH   7  13
ENDBRANCH   3   6
ENDBRANCH   1   2
BRANCH   1  24
ATOM     24  C   UNL A   1      31.326  32.339  26.529  1.00  0.00     0.042 C 
BRANCH  24  25
ATOM     25  C   UNL A   1      32.612  32.866  27.123  1.00  0.00     0.118 C 
BRANCH  25  26
ATOM     26  N   UNL A   1      32.456  34.230  27.626  1.00  0.00    -0.352 N 
ATOM     27  C   UNL A   1      33.032  34.852  28.704  1.00  0.00     0.251 C 
ATOM     28  H   UNL A   1      31.836  34.793  27.108  1.00  0.00     0.163 HD
ATOM     29  O   UNL A   1      32.571  35.906  29.123  1.00  0.00    -0.269 OA
BRANCH  27  30
ATOM     30  C   UNL A   1      34.206  34.240  29.354  1.00  0.00     0.039 A 
ATOM     31  C   UNL A   1      34.026  33.447  30.488  1.00  0.00     0.014 A 
ATOM     32  C   UNL A   1      35.486  34.462  28.843  1.00  0.00     0.014 A 
ATOM     33  C   UNL A   1      35.131  32.825  31.069  1.00  0.00     0.010 A 
ATOM     34  C   UNL A   1      36.559  33.744  29.341  1.00  0.00     0.010 A 
ATOM     35  C   UNL A   1      36.398  32.937  30.474  1.00  0.00    -0.014 A 
BRANCH  35  36
ATOM     36  C   UNL A   1      37.585  32.255  31.036  1.00  0.00     0.031 A 
ATOM     37  C   UNL A   1      38.242  32.808  32.271  1.00  0.00     0.074 A 
ATOM     38  C   UNL A   1      38.103  31.187  30.399  1.00  0.00     0.049 A 
ATOM     39  N   UNL A   1      39.342  32.422  32.865  1.00  0.00    -0.248 NA
ATOM     40  C   UNL A   1      37.594  33.969  32.908  1.00  0.00     0.031 C 
ATOM     41  C   UNL A   1      37.577  30.593  29.168  1.00  0.00     0.029 A 
ATOM     42  N   UNL A   1      39.195  30.415  30.698  1.00  0.00    -0.354 N 
ATOM     43  C   UNL A   1      39.515  33.291  33.935  1.00  0.00     0.074 A 
ATOM     44  C   UNL A   1      38.457  34.273  33.865  1.00  0.00     0.031 C 
ATOM     45  C   UNL A   1      38.327  29.531  28.836  1.00  0.00     0.029 A 
ATOM     46  C   UNL A   1      39.413  29.398  29.800  1.00  0.00     0.049 A 
ATOM     47  H   UNL A   1      39.770  30.574  31.482  1.00  0.00     0.167 HD
ATOM     48  C   UNL A   1      40.450  33.251  34.911  1.00  0.00     0.037 A 
ATOM     49  C   UNL A   1      40.388  28.472  29.760  1.00  0.00     0.037 A 
ATOM     50  C   UNL A   1      41.489  32.261  34.986  1.00  0.00     0.049 A 
ATOM     51  C   UNL A   1      41.438  28.478  30.839  1.00  0.00     0.074 A 
ATOM     52  C   UNL A   1      42.475  32.116  35.945  1.00  0.00     0.029 A 
ATOM     53  N   UNL A   1      41.669  31.240  34.066  1.00  0.00    -0.354 N 
ATOM     54  N   UNL A   1      41.559  29.273  31.874  1.00  0.00    -0.248 NA
ATOM     55  C   UNL A   1      42.486  27.452  30.745  1.00  0.00     0.031 C 
ATOM     56  C   UNL A   1      43.276  31.029  35.584  1.00  0.00     0.029 A 
ATOM     57  C   UNL A   1      42.758  30.465  34.429  1.00  0.00     0.049 A 
ATOM     58  H   UNL A   1      41.106  31.087  33.272  1.00  0.00     0.167 HD
ATOM     59  C   UNL A   1      42.668  28.819  32.575  1.00  0.00     0.074 A 
ATOM     60  C   UNL A   1      43.174  27.669  31.855  1.00  0.00     0.031 C 
ATOM     61  C   UNL A   1      43.224  29.309  33.710  1.00  0.00     0.037 A 
BRANCH  48  62
ATOM     62  C   UNL A   1      40.373  34.292  35.990  1.00  0.00     0.057 A 
ATOM     63  C   UNL A   1      39.633  34.077  37.162  1.00  0.00     0.134 A 
ATOM     64  C   UNL A   1      41.076  35.497  35.883  1.00  0.00     0.134 A 
ATOM     65  F   UNL A   1      38.923  32.950  37.321  1.00  0.00    -0.206 F 
ATOM     66  C   UNL A   1      39.583  35.029  38.181  1.00  0.00     0.040 A 
ATOM     67  C   UNL A   1      41.057  36.446  36.907  1.00  0.00     0.040 A 
ATOM     68  F   UNL A   1      41.805  35.767  34.790  1.00  0.00    -0.206 F 
ATOM     69  C   UNL A   1      40.305  36.215  38.058  1.00  0.00     0.006 A 
ENDBRANCH  48  62
BRANCH  49  70
ATOM     70  C   UNL A   1      40.423  27.453  28.680  1.00  0.00     0.057 A 
ATOM     71  C   UNL A   1      41.184  27.656  27.521  1.00  0.00     0.134 A 
ATOM     72  C   UNL A   1      39.660  26.281  28.749  1.00  0.00     0.134 A 
ATOM     73  F   UNL A   1      41.926  28.765  27.387  1.00  0.00    -0.206 F 
ATOM     74  C   UNL A   1      41.152  26.755  26.455  1.00  0.00     0.040 A 
ATOM     75  C   UNL A   1      39.644  25.355  27.705  1.00  0.00     0.040 A 
ATOM     76  F   UNL A   1      38.917  26.019  29.835  1.00  0.00    -0.206 F 
ATOM     77  C   UNL A   1      40.379  25.599  26.547  1.00  0.00     0.006 A 
ENDBRANCH  49  70
BRANCH  61  78
ATOM     78  C   UNL A   1      44.401  28.568  34.271  1.00  0.00     0.057 A 
ATOM     79  C   UNL A   1      45.719  28.911  33.945  1.00  0.00     0.134 A 
ATOM     80  C   UNL A   1      44.210  27.518  35.180  1.00  0.00     0.134 A 
ATOM     81  F   UNL A   1      45.970  29.898  33.072  1.00  0.00    -0.206 F 
ATOM     82  C   UNL A   1      46.805  28.217  34.481  1.00  0.00     0.040 A 
ATOM     83  C   UNL A   1      45.288  26.839  35.747  1.00  0.00     0.040 A 
ATOM     84  F   UNL A   1      42.973  27.149  35.544  1.00  0.00    -0.206 F 
ATOM     85  C   UNL A   1      46.591  27.183  35.391  1.00  0.00     0.006 A 
ENDBRANCH  61  78
ENDBRANCH  35  36
ENDBRANCH  27  30
ENDBRANCH  25  26
ENDBRANCH  24  25
ENDBRANCH   1  24
TORSDOF 14
ENDMDL
