MODEL 1
REMARK VINA RESULT:     -12.5      0.000      0.000
REMARK SMILES COc1ccc([C@@H](CC(=O)NCCCNC(=O)c2ccc(-c3c4nc(c(-c5c(F)cccc5F)c5ccc([nH]5)c(-c5c(F)cccc5F)c5nc(c(-c6c(F)cccc6F)c6ccc3[nH]6)C=C5)C=C4)cc2)NC(=O)c2ccc(Cl)c([N+](=O)[O-])c2)cc1
REMARK SMILES IDX 12 1 11 2 9 3 10 4 8 6 7 7 6 8 3 9 4 10 86 11 5 12 85 13
REMARK SMILES IDX 2 14 1 15 72 16 73 17 74 19 75 20 76 21 84 22 77 23 80 24
REMARK SMILES IDX 78 25 79 26 81 27 82 28 83 29 13 30 14 31 15 32 16 33 17 35
REMARK SMILES IDX 18 36 19 37 71 38 20 39 70 40 21 41 22 42 23 43 64 44 24 45
REMARK SMILES IDX 69 46 63 47 65 48 25 49 68 50 62 51 61 52 26 54 52 55 35 56
REMARK SMILES IDX 51 57 36 58 39 59 50 60 66 61 37 62 38 63 49 65 67 66 40 67
REMARK SMILES IDX 27 68 28 69 33 70 29 71 30 72 32 73 34 74 31 75 53 76 54 77
REMARK SMILES IDX 59 78 55 79 56 80 58 81 60 82 57 83 41 84 42 85 47 86 43 87
REMARK SMILES IDX 44 88 46 89 48 90 45 91
REMARK H PARENT 11 5 72 18 15 34 65 53 39 64
REMARK Flexibility Score: inf
ROOT
ATOM      1  C   UNL A   1      33.420  30.192  26.842  1.00  0.00     0.117 C 
ENDROOT
BRANCH   1   2
ATOM      2  N   UNL A   1      32.466  29.418  27.624  1.00  0.00    -0.356 N 
ATOM      3  C   UNL A   1      32.027  28.140  27.446  1.00  0.00     0.222 C 
ATOM      4  O   UNL A   1      30.982  27.808  28.010  1.00  0.00    -0.275 OA
ATOM      5  H   UNL A   1      32.080  29.888  28.397  1.00  0.00     0.163 HD
BRANCH   3   6
ATOM      6  C   UNL A   1      32.818  27.137  26.634  1.00  0.00     0.129 C 
BRANCH   6   7
ATOM      7  C   UNL A   1      31.967  26.139  25.827  1.00  0.00     0.122 C 
BRANCH   7   8
ATOM      8  C   UNL A   1      31.268  26.784  24.638  1.00  0.00    -0.025 A 
ATOM      9  C   UNL A   1      30.001  28.286  22.621  1.00  0.00     0.118 A 
ATOM     10  C   UNL A   1      29.277  27.352  23.359  1.00  0.00     0.047 A 
ATOM     11  C   UNL A   1      31.369  28.430  22.834  1.00  0.00     0.047 A 
ATOM     12  C   UNL A   1      29.907  26.593  24.354  1.00  0.00     0.010 A 
ATOM     13  C   UNL A   1      31.999  27.673  23.826  1.00  0.00     0.010 A 
BRANCH   9  14
ATOM     14  O   UNL A   1      29.281  29.152  21.846  1.00  0.00    -0.497 OA
ATOM     15  C   UNL A   1      29.363  30.508  22.267  1.00  0.00     0.278 C 
ENDBRANCH   9  14
ENDBRANCH   7   8
BRANCH   7  16
ATOM     16  N   UNL A   1      31.069  25.355  26.676  1.00  0.00    -0.345 N 
ATOM     17  C   UNL A   1      30.920  23.997  26.776  1.00  0.00     0.252 C 
ATOM     18  H   UNL A   1      30.484  25.885  27.266  1.00  0.00     0.164 HD
ATOM     19  O   UNL A   1      29.942  23.498  27.320  1.00  0.00    -0.269 OA
BRANCH  17  20
ATOM     20  C   UNL A   1      31.965  23.113  26.228  1.00  0.00     0.046 A 
ATOM     21  C   UNL A   1      33.182  22.985  26.900  1.00  0.00     0.016 A 
ATOM     22  C   UNL A   1      31.743  22.423  25.034  1.00  0.00     0.101 A 
ATOM     23  C   UNL A   1      34.153  22.099  26.420  1.00  0.00     0.028 A 
ATOM     24  C   UNL A   1      32.712  21.521  24.579  1.00  0.00     0.288 A 
ATOM     25  C   UNL A   1      33.914  21.339  25.268  1.00  0.00     0.118 A 
ATOM     26  Cl  UNL A   1      35.111  20.178  24.825  1.00  0.00    -0.077 Cl
BRANCH  24  27
ATOM     27  N   UNL A   1      32.379  20.731  23.410  1.00  0.00     0.064 N 
ATOM     28  O   UNL A   1      32.152  21.327  22.352  1.00  0.00    -0.258 OA
ATOM     29  O   UNL A   1      32.293  19.506  23.580  1.00  0.00    -0.258 OA
ENDBRANCH  24  27
ENDBRANCH  17  20
ENDBRANCH   7  16
ENDBRANCH   6   7
ENDBRANCH   3   6
ENDBRANCH   1   2
BRANCH   1  30
ATOM     30  C   UNL A   1      34.825  30.039  27.421  1.00  0.00     0.042 C 
BRANCH  30  31
ATOM     31  C   UNL A   1      35.331  31.245  28.201  1.00  0.00     0.118 C 
BRANCH  31  32
ATOM     32  N   UNL A   1      35.419  30.973  29.625  1.00  0.00    -0.352 N 
ATOM     33  C   UNL A   1      36.339  30.276  30.369  1.00  0.00     0.251 C 
ATOM     34  H   UNL A   1      34.684  31.361  30.154  1.00  0.00     0.163 HD
ATOM     35  O   UNL A   1      36.036  29.987  31.527  1.00  0.00    -0.269 OA
BRANCH  33  36
ATOM     36  C   UNL A   1      37.668  29.847  29.850  1.00  0.00     0.039 A 
ATOM     37  C   UNL A   1      38.632  29.439  30.784  1.00  0.00     0.014 A 
ATOM     38  C   UNL A   1      38.043  29.950  28.509  1.00  0.00     0.014 A 
ATOM     39  C   UNL A   1      39.931  29.105  30.379  1.00  0.00     0.010 A 
ATOM     40  C   UNL A   1      39.320  29.547  28.092  1.00  0.00     0.010 A 
ATOM     41  C   UNL A   1      40.283  29.128  29.021  1.00  0.00    -0.014 A 
BRANCH  41  42
ATOM     42  C   UNL A   1      41.642  28.718  28.565  1.00  0.00     0.031 A 
ATOM     43  C   UNL A   1      41.928  27.294  28.167  1.00  0.00     0.074 A 
ATOM     44  C   UNL A   1      42.647  29.617  28.553  1.00  0.00     0.049 A 
ATOM     45  N   UNL A   1      43.071  26.738  27.846  1.00  0.00    -0.248 NA
ATOM     46  C   UNL A   1      40.785  26.371  28.138  1.00  0.00     0.031 C 
ATOM     47  C   UNL A   1      42.521  31.025  28.927  1.00  0.00     0.029 A 
ATOM     48  N   UNL A   1      43.976  29.478  28.231  1.00  0.00    -0.354 N 
ATOM     49  C   UNL A   1      42.788  25.400  27.597  1.00  0.00     0.074 A 
ATOM     50  C   UNL A   1      41.372  25.221  27.834  1.00  0.00     0.031 C 
ATOM     51  C   UNL A   1      43.715  31.623  28.802  1.00  0.00     0.029 A 
ATOM     52  C   UNL A   1      44.705  30.632  28.391  1.00  0.00     0.049 A 
ATOM     53  H   UNL A   1      44.369  28.632  27.916  1.00  0.00     0.167 HD
ATOM     54  C   UNL A   1      43.628  24.414  27.195  1.00  0.00     0.037 A 
ATOM     55  C   UNL A   1      46.024  30.865  28.250  1.00  0.00     0.037 A 
ATOM     56  C   UNL A   1      45.033  24.591  26.930  1.00  0.00     0.049 A 
ATOM     57  C   UNL A   1      46.942  29.744  27.851  1.00  0.00     0.074 A 
ATOM     58  C   UNL A   1      45.943  23.661  26.455  1.00  0.00     0.029 A 
ATOM     59  N   UNL A   1      45.734  25.771  27.124  1.00  0.00    -0.354 N 
ATOM     60  N   UNL A   1      46.650  28.498  27.576  1.00  0.00    -0.248 NA
ATOM     61  C   UNL A   1      48.374  30.062  27.752  1.00  0.00     0.031 C 
ATOM     62  C   UNL A   1      47.203  24.266  26.401  1.00  0.00     0.029 A 
ATOM     63  C   UNL A   1      47.071  25.583  26.806  1.00  0.00     0.049 A 
ATOM     64  H   UNL A   1      45.341  26.616  27.438  1.00  0.00     0.167 HD
ATOM     65  C   UNL A   1      47.856  27.887  27.256  1.00  0.00     0.074 A 
ATOM     66  C   UNL A   1      48.882  28.902  27.356  1.00  0.00     0.031 C 
ATOM     67  C   UNL A   1      48.087  26.597  26.910  1.00  0.00     0.037 A 
BRANCH  54  68
ATOM     68  C   UNL A   1      43.051  23.040  27.018  1.00  0.00     0.057 A 
ATOM     69  C   UNL A   1      42.807  22.197  28.108  1.00  0.00     0.134 A 
ATOM     70  C   UNL A   1      42.686  22.579  25.748  1.00  0.00     0.134 A 
ATOM     71  F   UNL A   1      43.140  22.577  29.351  1.00  0.00    -0.206 F 
ATOM     72  C   UNL A   1      42.237  20.933  27.939  1.00  0.00     0.040 A 
ATOM     73  C   UNL A   1      42.094  21.327  25.568  1.00  0.00     0.040 A 
ATOM     74  F   UNL A   1      42.882  23.342  24.662  1.00  0.00    -0.206 F 
ATOM     75  C   UNL A   1      41.874  20.498  26.666  1.00  0.00     0.006 A 
ENDBRANCH  54  68
BRANCH  55  76
ATOM     76  C   UNL A   1      46.565  32.223  28.508  1.00  0.00     0.057 A 
ATOM     77  C   UNL A   1      46.624  33.181  27.490  1.00  0.00     0.134 A 
ATOM     78  C   UNL A   1      47.040  32.593  29.772  1.00  0.00     0.134 A 
ATOM     79  F   UNL A   1      46.205  32.878  26.253  1.00  0.00    -0.206 F 
ATOM     80  C   UNL A   1      47.147  34.456  27.716  1.00  0.00     0.040 A 
ATOM     81  C   UNL A   1      47.543  33.871  30.019  1.00  0.00     0.040 A 
ATOM     82  F   UNL A   1      47.007  31.719  30.789  1.00  0.00    -0.206 F 
ATOM     83  C   UNL A   1      47.602  34.805  28.986  1.00  0.00     0.006 A 
ENDBRANCH  55  76
BRANCH  67  84
ATOM     84  C   UNL A   1      49.502  26.211  26.597  1.00  0.00     0.057 A 
ATOM     85  C   UNL A   1      50.034  26.355  25.309  1.00  0.00     0.134 A 
ATOM     86  C   UNL A   1      50.355  25.737  27.601  1.00  0.00     0.134 A 
ATOM     87  F   UNL A   1      49.263  26.790  24.300  1.00  0.00    -0.206 F 
ATOM     88  C   UNL A   1      51.362  26.028  25.029  1.00  0.00     0.040 A 
ATOM     89  C   UNL A   1      51.691  25.427  27.337  1.00  0.00     0.040 A 
ATOM     90  F   UNL A   1      49.910  25.582  28.856  1.00  0.00    -0.206 F 
ATOM     91  C   UNL A   1      52.196  25.570  26.047  1.00  0.00     0.006 A 
ENDBRANCH  67  84
ENDBRANCH  41  42
ENDBRANCH  33  36
ENDBRANCH  31  32
ENDBRANCH  30  31
ENDBRANCH   1  30
TORSDOF 16
ENDMDL
MODEL 2
REMARK VINA RESULT:     -12.4      4.374      7.801
REMARK SMILES COc1ccc([C@@H](CC(=O)NCCCNC(=O)c2ccc(-c3c4nc(c(-c5c(F)cccc5F)c5ccc([nH]5)c(-c5c(F)cccc5F)c5nc(c(-c6c(F)cccc6F)c6ccc3[nH]6)C=C5)C=C4)cc2)NC(=O)c2ccc(Cl)c([N+](=O)[O-])c2)cc1
REMARK SMILES IDX 12 1 11 2 9 3 10 4 8 6 7 7 6 8 3 9 4 10 86 11 5 12 85 13
REMARK SMILES IDX 2 14 1 15 72 16 73 17 74 19 75 20 76 21 84 22 77 23 80 24
REMARK SMILES IDX 78 25 79 26 81 27 82 28 83 29 13 30 14 31 15 32 16 33 17 35
REMARK SMILES IDX 18 36 19 37 71 38 20 39 70 40 21 41 22 42 23 43 64 44 24 45
REMARK SMILES IDX 69 46 63 47 65 48 25 49 68 50 62 51 61 52 26 54 52 55 35 56
REMARK SMILES IDX 51 57 36 58 39 59 50 60 66 61 37 62 38 63 49 65 67 66 40 67
REMARK SMILES IDX 27 68 28 69 33 70 29 71 30 72 32 73 34 74 31 75 53 76 54 77
REMARK SMILES IDX 59 78 55 79 56 80 58 81 60 82 57 83 41 84 42 85 47 86 43 87
REMARK SMILES IDX 44 88 46 89 48 90 45 91
REMARK H PARENT 11 5 72 18 15 34 65 53 39 64
REMARK Flexibility Score: inf
ROOT
ATOM      1  C   UNL A   1      33.442  30.225  26.915  1.00  0.00     0.117 C 
ENDROOT
BRANCH   1   2
ATOM      2  N   UNL A   1      32.586  29.361  27.716  1.00  0.00    -0.356 N 
ATOM      3  C   UNL A   1      32.058  28.141  27.419  1.00  0.00     0.222 C 
ATOM      4  O   UNL A   1      31.100  27.750  28.091  1.00  0.00    -0.275 OA
ATOM      5  H   UNL A   1      32.354  29.712  28.606  1.00  0.00     0.163 HD
BRANCH   3   6
ATOM      6  C   UNL A   1      32.656  27.260  26.343  1.00  0.00     0.129 C 
BRANCH   6   7
ATOM      7  C   UNL A   1      31.656  26.324  25.640  1.00  0.00     0.122 C 
BRANCH   7   8
ATOM      8  C   UNL A   1      30.783  27.046  24.622  1.00  0.00    -0.025 A 
ATOM      9  C   UNL A   1      29.110  28.627  23.000  1.00  0.00     0.118 A 
ATOM     10  C   UNL A   1      28.691  27.366  23.420  1.00  0.00     0.047 A 
ATOM     11  C   UNL A   1      30.385  29.080  23.326  1.00  0.00     0.047 A 
ATOM     12  C   UNL A   1      29.527  26.571  24.215  1.00  0.00     0.010 A 
ATOM     13  C   UNL A   1      31.219  28.288  24.120  1.00  0.00     0.010 A 
BRANCH   9  14
ATOM     14  O   UNL A   1      28.161  29.436  22.438  1.00  0.00    -0.497 OA
ATOM     15  C   UNL A   1      28.677  30.346  21.474  1.00  0.00     0.278 C 
ENDBRANCH   9  14
ENDBRANCH   7   8
BRANCH   7  16
ATOM     16  N   UNL A   1      30.893  25.508  26.586  1.00  0.00    -0.345 N 
ATOM     17  C   UNL A   1      30.880  24.149  26.760  1.00  0.00     0.252 C 
ATOM     18  H   UNL A   1      30.300  26.013  27.189  1.00  0.00     0.164 HD
ATOM     19  O   UNL A   1      29.991  23.593  27.394  1.00  0.00    -0.269 OA
BRANCH  17  20
ATOM     20  C   UNL A   1      31.966  23.336  26.183  1.00  0.00     0.046 A 
ATOM     21  C   UNL A   1      33.295  23.714  26.389  1.00  0.00     0.016 A 
ATOM     22  C   UNL A   1      31.664  22.206  25.420  1.00  0.00     0.101 A 
ATOM     23  C   UNL A   1      34.330  22.911  25.899  1.00  0.00     0.028 A 
ATOM     24  C   UNL A   1      32.710  21.399  24.957  1.00  0.00     0.288 A 
ATOM     25  C   UNL A   1      34.046  21.730  25.200  1.00  0.00     0.118 A 
ATOM     26  Cl  UNL A   1      35.382  20.737  24.748  1.00  0.00    -0.077 Cl
BRANCH  24  27
ATOM     27  N   UNL A   1      32.344  20.167  24.286  1.00  0.00     0.064 N 
ATOM     28  O   UNL A   1      32.255  20.181  23.053  1.00  0.00    -0.258 OA
ATOM     29  O   UNL A   1      32.090  19.197  25.015  1.00  0.00    -0.258 OA
ENDBRANCH  24  27
ENDBRANCH  17  20
ENDBRANCH   7  16
ENDBRANCH   6   7
ENDBRANCH   3   6
ENDBRANCH   1   2
BRANCH   1  30
ATOM     30  C   UNL A   1      32.620  31.349  26.288  1.00  0.00     0.042 C 
BRANCH  30  31
ATOM     31  C   UNL A   1      31.777  32.152  27.271  1.00  0.00     0.118 C 
BRANCH  31  32
ATOM     32  N   UNL A   1      32.190  33.543  27.331  1.00  0.00    -0.352 N 
ATOM     33  C   UNL A   1      33.239  34.160  27.969  1.00  0.00     0.251 C 
ATOM     34  H   UNL A   1      31.612  34.156  26.821  1.00  0.00     0.163 HD
ATOM     35  O   UNL A   1      33.209  35.388  28.060  1.00  0.00    -0.269 OA
BRANCH  33  36
ATOM     36  C   UNL A   1      34.394  33.428  28.558  1.00  0.00     0.039 A 
ATOM     37  C   UNL A   1      34.145  32.591  29.656  1.00  0.00     0.014 A 
ATOM     38  C   UNL A   1      35.719  33.626  28.161  1.00  0.00     0.014 A 
ATOM     39  C   UNL A   1      35.194  31.938  30.317  1.00  0.00     0.010 A 
ATOM     40  C   UNL A   1      36.762  32.918  28.774  1.00  0.00     0.010 A 
ATOM     41  C   UNL A   1      36.515  32.072  29.865  1.00  0.00    -0.014 A 
BRANCH  41  42
ATOM     42  C   UNL A   1      37.636  31.337  30.518  1.00  0.00     0.031 A 
ATOM     43  C   UNL A   1      38.046  31.649  31.934  1.00  0.00     0.074 A 
ATOM     44  C   UNL A   1      38.331  30.415  29.822  1.00  0.00     0.049 A 
ATOM     45  N   UNL A   1      39.060  31.185  32.623  1.00  0.00    -0.248 NA
ATOM     46  C   UNL A   1      37.216  32.616  32.666  1.00  0.00     0.031 C 
ATOM     47  C   UNL A   1      38.058  30.022  28.441  1.00  0.00     0.029 A 
ATOM     48  N   UNL A   1      39.419  29.653  30.175  1.00  0.00    -0.354 N 
ATOM     49  C   UNL A   1      39.002  31.818  33.860  1.00  0.00     0.074 A 
ATOM     50  C   UNL A   1      37.872  32.720  33.815  1.00  0.00     0.031 C 
ATOM     51  C   UNL A   1      38.943  29.086  28.065  1.00  0.00     0.029 A 
ATOM     52  C   UNL A   1      39.880  28.849  29.160  1.00  0.00     0.049 A 
ATOM     53  H   UNL A   1      39.830  29.680  31.069  1.00  0.00     0.167 HD
ATOM     54  C   UNL A   1      39.808  31.652  34.937  1.00  0.00     0.037 A 
ATOM     55  C   UNL A   1      40.950  28.032  29.101  1.00  0.00     0.037 A 
ATOM     56  C   UNL A   1      40.918  30.735  34.999  1.00  0.00     0.049 A 
ATOM     57  C   UNL A   1      41.856  27.902  30.294  1.00  0.00     0.074 A 
ATOM     58  C   UNL A   1      41.744  30.455  36.075  1.00  0.00     0.029 A 
ATOM     59  N   UNL A   1      41.361  29.955  33.943  1.00  0.00    -0.354 N 
ATOM     60  N   UNL A   1      41.759  28.473  31.468  1.00  0.00    -0.248 NA
ATOM     61  C   UNL A   1      43.024  27.022  30.147  1.00  0.00     0.031 C 
ATOM     62  C   UNL A   1      42.714  29.539  35.657  1.00  0.00     0.029 A 
ATOM     63  C   UNL A   1      42.468  29.218  34.333  1.00  0.00     0.049 A 
ATOM     64  H   UNL A   1      40.949  29.928  33.050  1.00  0.00     0.167 HD
ATOM     65  C   UNL A   1      42.842  28.010  32.206  1.00  0.00     0.074 A 
ATOM     66  C   UNL A   1      43.574  27.100  31.352  1.00  0.00     0.031 C 
ATOM     67  C   UNL A   1      43.194  28.316  33.478  1.00  0.00     0.037 A 
BRANCH  54  68
ATOM     68  C   UNL A   1      39.524  32.488  36.151  1.00  0.00     0.057 A 
ATOM     69  C   UNL A   1      40.159  33.717  36.365  1.00  0.00     0.134 A 
ATOM     70  C   UNL A   1      38.564  32.083  37.087  1.00  0.00     0.134 A 
ATOM     71  F   UNL A   1      41.093  34.159  35.509  1.00  0.00    -0.206 F 
ATOM     72  C   UNL A   1      39.863  34.506  37.479  1.00  0.00     0.040 A 
ATOM     73  C   UNL A   1      38.244  32.874  38.193  1.00  0.00     0.040 A 
ATOM     74  F   UNL A   1      37.911  30.921  36.935  1.00  0.00    -0.206 F 
ATOM     75  C   UNL A   1      38.899  34.087  38.393  1.00  0.00     0.006 A 
ENDBRANCH  54  68
BRANCH  55  76
ATOM     76  C   UNL A   1      41.237  27.280  27.855  1.00  0.00     0.057 A 
ATOM     77  C   UNL A   1      41.986  27.855  26.822  1.00  0.00     0.134 A 
ATOM     78  C   UNL A   1      40.767  25.975  27.664  1.00  0.00     0.134 A 
ATOM     79  F   UNL A   1      42.443  29.110  26.937  1.00  0.00    -0.206 F 
ATOM     80  C   UNL A   1      42.247  27.163  25.637  1.00  0.00     0.040 A 
ATOM     81  C   UNL A   1      41.041  25.263  26.495  1.00  0.00     0.040 A 
ATOM     82  F   UNL A   1      40.046  25.370  28.619  1.00  0.00    -0.206 F 
ATOM     83  C   UNL A   1      41.779  25.860  25.475  1.00  0.00     0.006 A 
ENDBRANCH  55  76
BRANCH  67  84
ATOM     84  C   UNL A   1      44.416  27.648  34.034  1.00  0.00     0.057 A 
ATOM     85  C   UNL A   1      45.675  28.259  33.981  1.00  0.00     0.134 A 
ATOM     86  C   UNL A   1      44.326  26.403  34.669  1.00  0.00     0.134 A 
ATOM     87  F   UNL A   1      45.830  29.445  33.372  1.00  0.00    -0.206 F 
ATOM     88  C   UNL A   1      46.804  27.649  34.531  1.00  0.00     0.040 A 
ATOM     89  C   UNL A   1      45.445  25.794  35.241  1.00  0.00     0.040 A 
ATOM     90  F   UNL A   1      43.149  25.767  34.758  1.00  0.00    -0.206 F 
ATOM     91  C   UNL A   1      46.688  26.416  35.170  1.00  0.00     0.006 A 
ENDBRANCH  67  84
ENDBRANCH  41  42
ENDBRANCH  33  36
ENDBRANCH  31  32
ENDBRANCH  30  31
ENDBRANCH   1  30
TORSDOF 16
ENDMDL
MODEL 3
REMARK VINA RESULT:     -12.4      4.522      6.655
REMARK SMILES COc1ccc([C@@H](CC(=O)NCCCNC(=O)c2ccc(-c3c4nc(c(-c5c(F)cccc5F)c5ccc([nH]5)c(-c5c(F)cccc5F)c5nc(c(-c6c(F)cccc6F)c6ccc3[nH]6)C=C5)C=C4)cc2)NC(=O)c2ccc(Cl)c([N+](=O)[O-])c2)cc1
REMARK SMILES IDX 12 1 11 2 9 3 10 4 8 6 7 7 6 8 3 9 4 10 86 11 5 12 85 13
REMARK SMILES IDX 2 14 1 15 72 16 73 17 74 19 75 20 76 21 84 22 77 23 80 24
REMARK SMILES IDX 78 25 79 26 81 27 82 28 83 29 13 30 14 31 15 32 16 33 17 35
REMARK SMILES IDX 18 36 19 37 71 38 20 39 70 40 21 41 22 42 23 43 64 44 24 45
REMARK SMILES IDX 69 46 63 47 65 48 25 49 68 50 62 51 61 52 26 54 52 55 35 56
REMARK SMILES IDX 51 57 36 58 39 59 50 60 66 61 37 62 38 63 49 65 67 66 40 67
REMARK SMILES IDX 27 68 28 69 33 70 29 71 30 72 32 73 34 74 31 75 53 76 54 77
REMARK SMILES IDX 59 78 55 79 56 80 58 81 60 82 57 83 41 84 42 85 47 86 43 87
REMARK SMILES IDX 44 88 46 89 48 90 45 91
REMARK H PARENT 11 5 72 18 15 34 65 53 39 64
REMARK Flexibility Score: inf
ROOT
ATOM      1  C   UNL A   1      33.593  30.115  26.845  1.00  0.00     0.117 C 
ENDROOT
BRANCH   1   2
ATOM      2  N   UNL A   1      32.700  29.293  27.649  1.00  0.00    -0.356 N 
ATOM      3  C   UNL A   1      32.052  28.139  27.327  1.00  0.00     0.222 C 
ATOM      4  O   UNL A   1      31.094  27.802  28.027  1.00  0.00    -0.275 OA
ATOM      5  H   UNL A   1      32.540  29.621  28.563  1.00  0.00     0.163 HD
BRANCH   3   6
ATOM      6  C   UNL A   1      32.521  27.260  26.186  1.00  0.00     0.129 C 
BRANCH   6   7
ATOM      7  C   UNL A   1      31.405  26.475  25.471  1.00  0.00     0.122 C 
BRANCH   7   8
ATOM      8  C   UNL A   1      30.569  27.347  24.544  1.00  0.00    -0.025 A 
ATOM      9  C   UNL A   1      28.928  29.144  23.126  1.00  0.00     0.118 A 
ATOM     10  C   UNL A   1      28.560  27.806  23.250  1.00  0.00     0.047 A 
ATOM     11  C   UNL A   1      30.142  29.581  23.647  1.00  0.00     0.047 A 
ATOM     12  C   UNL A   1      29.381  26.906  23.942  1.00  0.00     0.010 A 
ATOM     13  C   UNL A   1      30.962  28.685  24.339  1.00  0.00     0.010 A 
BRANCH   9  14
ATOM     14  O   UNL A   1      27.976  30.004  22.655  1.00  0.00    -0.497 OA
ATOM     15  C   UNL A   1      28.169  30.394  21.301  1.00  0.00     0.278 C 
ENDBRANCH   9  14
ENDBRANCH   7   8
BRANCH   7  16
ATOM     16  N   UNL A   1      30.604  25.673  26.396  1.00  0.00    -0.345 N 
ATOM     17  C   UNL A   1      30.596  24.318  26.602  1.00  0.00     0.252 C 
ATOM     18  H   UNL A   1      29.976  26.185  26.956  1.00  0.00     0.164 HD
ATOM     19  O   UNL A   1      29.682  23.767  27.203  1.00  0.00    -0.269 OA
BRANCH  17  20
ATOM     20  C   UNL A   1      31.720  23.505  26.100  1.00  0.00     0.046 A 
ATOM     21  C   UNL A   1      32.587  22.894  27.008  1.00  0.00     0.016 A 
ATOM     22  C   UNL A   1      31.921  23.364  24.726  1.00  0.00     0.101 A 
ATOM     23  C   UNL A   1      33.615  22.069  26.538  1.00  0.00     0.028 A 
ATOM     24  C   UNL A   1      32.938  22.515  24.272  1.00  0.00     0.288 A 
ATOM     25  C   UNL A   1      33.783  21.852  25.165  1.00  0.00     0.118 A 
ATOM     26  Cl  UNL A   1      34.992  20.718  24.685  1.00  0.00    -0.077 Cl
BRANCH  24  27
ATOM     27  N   UNL A   1      33.023  22.297  22.841  1.00  0.00     0.064 N 
ATOM     28  O   UNL A   1      32.314  21.415  22.345  1.00  0.00    -0.258 OA
ATOM     29  O   UNL A   1      33.852  22.984  22.227  1.00  0.00    -0.258 OA
ENDBRANCH  24  27
ENDBRANCH  17  20
ENDBRANCH   7  16
ENDBRANCH   6   7
ENDBRANCH   3   6
ENDBRANCH   1   2
BRANCH   1  30
ATOM     30  C   UNL A   1      32.828  31.286  26.234  1.00  0.00     0.042 C 
BRANCH  30  31
ATOM     31  C   UNL A   1      31.805  31.936  27.157  1.00  0.00     0.118 C 
BRANCH  31  32
ATOM     32  N   UNL A   1      32.026  33.364  27.294  1.00  0.00    -0.352 N 
ATOM     33  C   UNL A   1      32.972  34.083  27.984  1.00  0.00     0.251 C 
ATOM     34  H   UNL A   1      31.379  33.920  26.800  1.00  0.00     0.163 HD
ATOM     35  O   UNL A   1      32.776  35.290  28.132  1.00  0.00    -0.269 OA
BRANCH  33  36
ATOM     36  C   UNL A   1      34.205  33.483  28.564  1.00  0.00     0.039 A 
ATOM     37  C   UNL A   1      34.054  32.584  29.631  1.00  0.00     0.014 A 
ATOM     38  C   UNL A   1      35.498  33.861  28.191  1.00  0.00     0.014 A 
ATOM     39  C   UNL A   1      35.172  32.047  30.283  1.00  0.00     0.010 A 
ATOM     40  C   UNL A   1      36.616  33.270  28.795  1.00  0.00     0.010 A 
ATOM     41  C   UNL A   1      36.469  32.362  29.854  1.00  0.00    -0.014 A 
BRANCH  41  42
ATOM     42  C   UNL A   1      37.668  31.753  30.497  1.00  0.00     0.031 A 
ATOM     43  C   UNL A   1      38.480  30.703  29.784  1.00  0.00     0.074 A 
ATOM     44  C   UNL A   1      38.010  32.105  31.753  1.00  0.00     0.049 A 
ATOM     45  N   UNL A   1      39.487  29.993  30.230  1.00  0.00    -0.248 NA
ATOM     46  C   UNL A   1      38.102  30.402  28.396  1.00  0.00     0.031 C 
ATOM     47  C   UNL A   1      37.308  33.095  32.569  1.00  0.00     0.029 A 
ATOM     48  N   UNL A   1      39.021  31.659  32.570  1.00  0.00    -0.354 N 
ATOM     49  C   UNL A   1      39.850  29.149  29.186  1.00  0.00     0.074 A 
ATOM     50  C   UNL A   1      38.935  29.415  28.097  1.00  0.00     0.031 C 
ATOM     51  C   UNL A   1      37.914  33.192  33.762  1.00  0.00     0.029 A 
ATOM     52  C   UNL A   1      39.014  32.235  33.818  1.00  0.00     0.049 A 
ATOM     53  H   UNL A   1      39.687  30.991  32.288  1.00  0.00     0.167 HD
ATOM     54  C   UNL A   1      40.861  28.246  29.135  1.00  0.00     0.037 A 
ATOM     55  C   UNL A   1      39.786  32.002  34.897  1.00  0.00     0.037 A 
ATOM     56  C   UNL A   1      41.793  27.996  30.205  1.00  0.00     0.049 A 
ATOM     57  C   UNL A   1      40.869  30.962  34.831  1.00  0.00     0.074 A 
ATOM     58  C   UNL A   1      42.888  27.148  30.212  1.00  0.00     0.029 A 
ATOM     59  N   UNL A   1      41.738  28.587  31.458  1.00  0.00    -0.354 N 
ATOM     60  N   UNL A   1      41.226  30.207  33.822  1.00  0.00    -0.248 NA
ATOM     61  C   UNL A   1      41.648  30.735  36.057  1.00  0.00     0.031 C 
ATOM     62  C   UNL A   1      43.469  27.192  31.483  1.00  0.00     0.029 A 
ATOM     63  C   UNL A   1      42.761  28.097  32.255  1.00  0.00     0.049 A 
ATOM     64  H   UNL A   1      41.072  29.255  31.738  1.00  0.00     0.167 HD
ATOM     65  C   UNL A   1      42.280  29.429  34.285  1.00  0.00     0.074 A 
ATOM     66  C   UNL A   1      42.515  29.813  35.660  1.00  0.00     0.031 C 
ATOM     67  C   UNL A   1      42.988  28.481  33.624  1.00  0.00     0.037 A 
BRANCH  54  68
ATOM     68  C   UNL A   1      41.015  27.448  27.874  1.00  0.00     0.057 A 
ATOM     69  C   UNL A   1      41.836  27.879  26.824  1.00  0.00     0.134 A 
ATOM     70  C   UNL A   1      40.379  26.209  27.731  1.00  0.00     0.134 A 
ATOM     71  F   UNL A   1      42.468  29.060  26.895  1.00  0.00    -0.206 F 
ATOM     72  C   UNL A   1      42.002  27.113  25.668  1.00  0.00     0.040 A 
ATOM     73  C   UNL A   1      40.555  25.424  26.590  1.00  0.00     0.040 A 
ATOM     74  F   UNL A   1      39.588  25.733  28.705  1.00  0.00    -0.206 F 
ATOM     75  C   UNL A   1      41.365  25.880  25.552  1.00  0.00     0.006 A 
ENDBRANCH  54  68
BRANCH  55  76
ATOM     76  C   UNL A   1      39.551  32.762  36.150  1.00  0.00     0.057 A 
ATOM     77  C   UNL A   1      40.259  33.937  36.425  1.00  0.00     0.134 A 
ATOM     78  C   UNL A   1      38.619  32.331  37.103  1.00  0.00     0.134 A 
ATOM     79  F   UNL A   1      41.181  34.387  35.561  1.00  0.00    -0.206 F 
ATOM     80  C   UNL A   1      40.059  34.651  37.608  1.00  0.00     0.040 A 
ATOM     81  C   UNL A   1      38.392  33.047  38.278  1.00  0.00     0.040 A 
ATOM     82  F   UNL A   1      37.908  31.214  36.895  1.00  0.00    -0.206 F 
ATOM     83  C   UNL A   1      39.118  34.209  38.536  1.00  0.00     0.006 A 
ENDBRANCH  55  76
BRANCH  67  84
ATOM     84  C   UNL A   1      44.096  27.803  34.372  1.00  0.00     0.057 A 
ATOM     85  C   UNL A   1      43.897  26.585  35.035  1.00  0.00     0.134 A 
ATOM     86  C   UNL A   1      45.387  28.347  34.390  1.00  0.00     0.134 A 
ATOM     87  F   UNL A   1      42.681  26.020  35.068  1.00  0.00    -0.206 F 
ATOM     88  C   UNL A   1      44.941  25.940  35.701  1.00  0.00     0.040 A 
ATOM     89  C   UNL A   1      46.443  27.699  35.034  1.00  0.00     0.040 A 
ATOM     90  F   UNL A   1      45.645  29.507  33.769  1.00  0.00    -0.206 F 
ATOM     91  C   UNL A   1      46.219  26.494  35.694  1.00  0.00     0.006 A 
ENDBRANCH  67  84
ENDBRANCH  41  42
ENDBRANCH  33  36
ENDBRANCH  31  32
ENDBRANCH  30  31
ENDBRANCH   1  30
TORSDOF 16
ENDMDL
