MODEL 1
REMARK VINA RESULT:     -13.3      0.000      0.000
REMARK SMILES O=C(NCCCNC(=O)[C@@H]1C[C@@H]1C(=O)N1CCN(c2ncc(C(F)(F)F)cc2Cl)CC1)c1ccc(-c2c3nc(c(-c4c(F)cccc4F)c4ccc([nH]4)c(-c4c(F)cccc4F)c4nc(c(-c5c(F)cccc5F)c5ccc2[nH]5)C=C4)C=C3)cc1
REMARK SMILES IDX 5 1 4 2 3 3 1 4 2 5 32 7 33 8 85 9 34 10 84 11 35 12 36 13
REMARK SMILES IDX 37 14 78 15 38 16 83 17 77 18 79 19 39 20 82 21 76 22 75 23
REMARK SMILES IDX 40 25 66 26 49 27 65 28 50 29 53 30 64 31 80 32 51 33 52 34
REMARK SMILES IDX 63 36 81 37 54 38 41 39 42 40 47 41 43 42 44 43 46 44 48 45
REMARK SMILES IDX 45 46 67 47 68 48 73 49 69 50 70 51 72 52 74 53 71 54 55 55
REMARK SMILES IDX 56 56 61 57 57 58 58 59 60 60 62 61 59 62 6 63 7 64 8 65
REMARK SMILES IDX 9 67 10 68 11 69 12 70 13 71 14 72 15 73 16 74 31 75 17 76
REMARK SMILES IDX 30 77 18 78 19 79 20 80 28 81 21 82 27 83 29 84 22 85 23 86
REMARK SMILES IDX 24 87 25 88 26 89
REMARK H PARENT 3 6 79 24 53 35 7 66
REMARK Flexibility Score: inf
ROOT
ATOM      1  C   UNL A   1      36.690  22.901  25.291  1.00  0.00     0.042 C 
ENDROOT
BRANCH   1   2
ATOM      2  C   UNL A   1      37.508  23.862  26.139  1.00  0.00     0.118 C 
BRANCH   2   3
ATOM      3  N   UNL A   1      38.937  23.564  26.124  1.00  0.00    -0.352 N 
ATOM      4  O   UNL A   1      41.150  23.746  26.256  1.00  0.00    -0.269 OA
ATOM      5  C   UNL A   1      40.058  24.190  26.617  1.00  0.00     0.251 C 
ATOM      6  H   UNL A   1      39.146  22.723  25.655  1.00  0.00     0.163 HD
BRANCH   5   7
ATOM      7  C   UNL A   1      40.033  25.371  27.526  1.00  0.00     0.039 A 
ATOM      8  C   UNL A   1      39.349  25.386  28.733  1.00  0.00     0.014 A 
ATOM      9  C   UNL A   1      40.808  26.497  27.195  1.00  0.00     0.014 A 
ATOM     10  C   UNL A   1      39.281  26.547  29.499  1.00  0.00     0.010 A 
ATOM     11  C   UNL A   1      40.858  27.621  28.040  1.00  0.00     0.010 A 
ATOM     12  C   UNL A   1      40.067  27.669  29.191  1.00  0.00    -0.014 A 
BRANCH  12  13
ATOM     13  C   UNL A   1      40.071  28.802  30.160  1.00  0.00     0.031 A 
ATOM     14  C   UNL A   1      39.038  29.894  30.112  1.00  0.00     0.074 A 
ATOM     15  C   UNL A   1      40.966  28.772  31.170  1.00  0.00     0.049 A 
ATOM     16  N   UNL A   1      38.822  30.854  30.977  1.00  0.00    -0.248 NA
ATOM     17  C   UNL A   1      38.142  29.926  28.948  1.00  0.00     0.031 C 
ATOM     18  C   UNL A   1      42.048  27.792  31.304  1.00  0.00     0.029 A 
ATOM     19  N   UNL A   1      41.070  29.531  32.309  1.00  0.00    -0.354 N 
ATOM     20  C   UNL A   1      37.783  31.614  30.455  1.00  0.00     0.074 A 
ATOM     21  C   UNL A   1      37.425  31.017  29.185  1.00  0.00     0.031 C 
ATOM     22  C   UNL A   1      42.628  27.934  32.504  1.00  0.00     0.029 A 
ATOM     23  C   UNL A   1      42.010  29.058  33.196  1.00  0.00     0.049 A 
ATOM     24  H   UNL A   1      40.527  30.335  32.475  1.00  0.00     0.167 HD
ATOM     25  C   UNL A   1      37.177  32.701  30.989  1.00  0.00     0.037 A 
ATOM     26  C   UNL A   1      42.336  29.471  34.435  1.00  0.00     0.037 A 
ATOM     27  C   UNL A   1      37.516  33.281  32.265  1.00  0.00     0.049 A 
ATOM     28  C   UNL A   1      41.611  30.643  35.024  1.00  0.00     0.074 A 
ATOM     29  C   UNL A   1      36.959  34.386  32.888  1.00  0.00     0.029 A 
ATOM     30  N   UNL A   1      38.491  32.790  33.120  1.00  0.00    -0.354 N 
ATOM     31  N   UNL A   1      40.630  31.345  34.512  1.00  0.00    -0.248 NA
ATOM     32  C   UNL A   1      42.045  31.089  36.355  1.00  0.00     0.031 C 
ATOM     33  C   UNL A   1      37.615  34.578  34.110  1.00  0.00     0.029 A 
ATOM     34  C   UNL A   1      38.556  33.573  34.262  1.00  0.00     0.049 A 
ATOM     35  H   UNL A   1      39.054  32.003  32.942  1.00  0.00     0.167 HD
ATOM     36  C   UNL A   1      40.340  32.326  35.448  1.00  0.00     0.074 A 
ATOM     37  C   UNL A   1      41.216  32.098  36.580  1.00  0.00     0.031 C 
ATOM     38  C   UNL A   1      39.444  33.339  35.369  1.00  0.00     0.037 A 
BRANCH  25  39
ATOM     39  C   UNL A   1      36.082  33.349  30.193  1.00  0.00     0.057 A 
ATOM     40  C   UNL A   1      36.359  34.169  29.091  1.00  0.00     0.134 A 
ATOM     41  C   UNL A   1      34.736  33.108  30.498  1.00  0.00     0.134 A 
ATOM     42  F   UNL A   1      37.626  34.448  28.754  1.00  0.00    -0.206 F 
ATOM     43  C   UNL A   1      35.335  34.735  28.328  1.00  0.00     0.040 A 
ATOM     44  C   UNL A   1      33.704  33.653  29.730  1.00  0.00     0.040 A 
ATOM     45  F   UNL A   1      34.403  32.328  31.536  1.00  0.00    -0.206 F 
ATOM     46  C   UNL A   1      34.003  34.472  28.643  1.00  0.00     0.006 A 
ENDBRANCH  25  39
BRANCH  26  47
ATOM     47  C   UNL A   1      43.402  28.768  35.194  1.00  0.00     0.057 A 
ATOM     48  C   UNL A   1      43.097  27.749  36.104  1.00  0.00     0.134 A 
ATOM     49  C   UNL A   1      44.752  29.094  35.018  1.00  0.00     0.134 A 
ATOM     50  F   UNL A   1      41.820  27.406  36.330  1.00  0.00    -0.206 F 
ATOM     51  C   UNL A   1      44.095  27.086  36.818  1.00  0.00     0.040 A 
ATOM     52  C   UNL A   1      45.762  28.419  35.705  1.00  0.00     0.040 A 
ATOM     53  F   UNL A   1      45.110  30.056  34.156  1.00  0.00    -0.206 F 
ATOM     54  C   UNL A   1      45.434  27.416  36.613  1.00  0.00     0.006 A 
ENDBRANCH  26  47
BRANCH  38  55
ATOM     55  C   UNL A   1      39.389  34.276  36.537  1.00  0.00     0.057 A 
ATOM     56  C   UNL A   1      40.051  35.510  36.512  1.00  0.00     0.134 A 
ATOM     57  C   UNL A   1      38.673  33.944  37.692  1.00  0.00     0.134 A 
ATOM     58  F   UNL A   1      40.767  35.877  35.439  1.00  0.00    -0.206 F 
ATOM     59  C   UNL A   1      40.024  36.372  37.609  1.00  0.00     0.040 A 
ATOM     60  C   UNL A   1      38.622  34.806  38.788  1.00  0.00     0.040 A 
ATOM     61  F   UNL A   1      38.016  32.777  37.775  1.00  0.00    -0.206 F 
ATOM     62  C   UNL A   1      39.305  36.021  38.750  1.00  0.00     0.006 A 
ENDBRANCH  38  55
ENDBRANCH  12  13
ENDBRANCH   5   7
ENDBRANCH   2   3
ENDBRANCH   1   2
BRANCH   1  63
ATOM     63  C   UNL A   1      35.758  21.998  26.102  1.00  0.00     0.117 C 
BRANCH  63  64
ATOM     64  N   UNL A   1      35.585  20.723  25.441  1.00  0.00    -0.356 N 
ATOM     65  C   UNL A   1      34.518  20.003  24.996  1.00  0.00     0.223 C 
ATOM     66  H   UNL A   1      36.442  20.267  25.274  1.00  0.00     0.163 HD
ATOM     67  O   UNL A   1      34.777  18.855  24.626  1.00  0.00    -0.275 OA
BRANCH  65  68
ATOM     68  C   UNL A   1      33.117  20.459  24.806  1.00  0.00     0.091 C 
ATOM     69  C   UNL A   1      32.456  20.305  23.460  1.00  0.00     0.028 C 
ATOM     70  C   UNL A   1      32.439  21.641  24.165  1.00  0.00     0.092 C 
BRANCH  70  71
ATOM     71  C   UNL A   1      33.127  22.819  23.615  1.00  0.00     0.226 C 
ATOM     72  O   UNL A   1      34.202  22.669  23.046  1.00  0.00    -0.275 OA
ATOM     73  N   UNL A   1      32.486  24.031  23.765  1.00  0.00    -0.339 N 
ATOM     74  C   UNL A   1      32.731  25.125  22.817  1.00  0.00     0.141 C 
ATOM     75  C   UNL A   1      31.767  24.421  24.989  1.00  0.00     0.141 C 
ATOM     76  C   UNL A   1      31.402  25.808  22.450  1.00  0.00     0.139 C 
ATOM     77  C   UNL A   1      30.514  25.285  24.726  1.00  0.00     0.139 C 
ATOM     78  N   UNL A   1      30.791  26.269  23.689  1.00  0.00    -0.352 N 
BRANCH  78  79
ATOM     79  C   UNL A   1      30.266  27.535  23.719  1.00  0.00     0.147 A 
ATOM     80  N   UNL A   1      29.058  27.723  23.139  1.00  0.00    -0.237 NA
ATOM     81  C   UNL A   1      31.009  28.613  24.222  1.00  0.00     0.084 A 
ATOM     82  C   UNL A   1      28.585  28.988  23.045  1.00  0.00     0.126 A 
ATOM     83  C   UNL A   1      30.506  29.907  24.103  1.00  0.00     0.039 A 
ATOM     84  Cl  UNL A   1      32.574  28.405  24.926  1.00  0.00    -0.080 Cl
ATOM     85  C   UNL A   1      29.267  30.109  23.493  1.00  0.00     0.075 A 
BRANCH  85  86
ATOM     86  C   UNL A   1      28.678  31.470  23.307  1.00  0.00     0.417 C 
ATOM     87  F   UNL A   1      28.612  31.838  21.998  1.00  0.00    -0.166 F 
ATOM     88  F   UNL A   1      27.408  31.557  23.787  1.00  0.00    -0.166 F 
ATOM     89  F   UNL A   1      29.382  32.454  23.935  1.00  0.00    -0.166 F 
ENDBRANCH  85  86
ENDBRANCH  78  79
ENDBRANCH  70  71
ENDBRANCH  65  68
ENDBRANCH  63  64
ENDBRANCH   1  63
TORSDOF 13
ENDMDL
MODEL 2
REMARK VINA RESULT:     -13.1      6.223     10.816
REMARK SMILES O=C(NCCCNC(=O)[C@@H]1C[C@@H]1C(=O)N1CCN(c2ncc(C(F)(F)F)cc2Cl)CC1)c1ccc(-c2c3nc(c(-c4c(F)cccc4F)c4ccc([nH]4)c(-c4c(F)cccc4F)c4nc(c(-c5c(F)cccc5F)c5ccc2[nH]5)C=C4)C=C3)cc1
REMARK SMILES IDX 5 1 4 2 3 3 1 4 2 5 32 7 33 8 85 9 34 10 84 11 35 12 36 13
REMARK SMILES IDX 37 14 78 15 38 16 83 17 77 18 79 19 39 20 82 21 76 22 75 23
REMARK SMILES IDX 40 25 66 26 49 27 65 28 50 29 53 30 64 31 80 32 51 33 52 34
REMARK SMILES IDX 63 36 81 37 54 38 41 39 42 40 47 41 43 42 44 43 46 44 48 45
REMARK SMILES IDX 45 46 67 47 68 48 73 49 69 50 70 51 72 52 74 53 71 54 55 55
REMARK SMILES IDX 56 56 61 57 57 58 58 59 60 60 62 61 59 62 6 63 7 64 8 65
REMARK SMILES IDX 9 67 10 68 11 69 12 70 13 71 14 72 15 73 16 74 31 75 17 76
REMARK SMILES IDX 30 77 18 78 19 79 20 80 28 81 21 82 27 83 29 84 22 85 23 86
REMARK SMILES IDX 24 87 25 88 26 89
REMARK H PARENT 3 6 79 24 53 35 7 66
REMARK Flexibility Score: inf
ROOT
ATOM      1  C   UNL A   1      33.093  29.107  26.895  1.00  0.00     0.042 C 
ENDROOT
BRANCH   1   2
ATOM      2  C   UNL A   1      34.558  29.272  27.266  1.00  0.00     0.118 C 
BRANCH   2   3
ATOM      3  N   UNL A   1      34.776  30.270  28.309  1.00  0.00    -0.352 N 
ATOM      4  O   UNL A   1      35.604  31.388  30.044  1.00  0.00    -0.269 OA
ATOM      5  C   UNL A   1      35.830  30.590  29.132  1.00  0.00     0.251 C 
ATOM      6  H   UNL A   1      33.990  30.845  28.455  1.00  0.00     0.163 HD
BRANCH   5   7
ATOM      7  C   UNL A   1      37.202  30.020  29.005  1.00  0.00     0.039 A 
ATOM      8  C   UNL A   1      37.948  30.087  27.837  1.00  0.00     0.014 A 
ATOM      9  C   UNL A   1      37.811  29.464  30.145  1.00  0.00     0.014 A 
ATOM     10  C   UNL A   1      39.186  29.456  27.746  1.00  0.00     0.010 A 
ATOM     11  C   UNL A   1      39.121  28.953  30.093  1.00  0.00     0.010 A 
ATOM     12  C   UNL A   1      39.813  28.917  28.880  1.00  0.00    -0.014 A 
BRANCH  12  13
ATOM     13  C   UNL A   1      41.211  28.420  28.731  1.00  0.00     0.031 A 
ATOM     14  C   UNL A   1      41.514  27.008  28.314  1.00  0.00     0.074 A 
ATOM     15  C   UNL A   1      42.220  29.307  28.869  1.00  0.00     0.049 A 
ATOM     16  N   UNL A   1      42.670  26.479  27.994  1.00  0.00    -0.248 NA
ATOM     17  C   UNL A   1      40.390  26.063  28.259  1.00  0.00     0.031 C 
ATOM     18  C   UNL A   1      42.061  30.696  29.314  1.00  0.00     0.029 A 
ATOM     19  N   UNL A   1      43.558  29.207  28.584  1.00  0.00    -0.354 N 
ATOM     20  C   UNL A   1      42.416  25.141  27.719  1.00  0.00     0.074 A 
ATOM     21  C   UNL A   1      41.000  24.932  27.932  1.00  0.00     0.031 C 
ATOM     22  C   UNL A   1      43.223  31.345  29.162  1.00  0.00     0.029 A 
ATOM     23  C   UNL A   1      44.227  30.406  28.678  1.00  0.00     0.049 A 
ATOM     24  H   UNL A   1      43.996  28.362  28.336  1.00  0.00     0.167 HD
ATOM     25  C   UNL A   1      43.283  24.180  27.317  1.00  0.00     0.037 A 
ATOM     26  C   UNL A   1      45.505  30.724  28.397  1.00  0.00     0.037 A 
ATOM     27  C   UNL A   1      44.688  24.395  27.081  1.00  0.00     0.049 A 
ATOM     28  C   UNL A   1      46.427  29.652  27.900  1.00  0.00     0.074 A 
ATOM     29  C   UNL A   1      45.646  23.480  26.675  1.00  0.00     0.029 A 
ATOM     30  N   UNL A   1      45.334  25.615  27.214  1.00  0.00    -0.354 N 
ATOM     31  N   UNL A   1      46.166  28.394  27.647  1.00  0.00    -0.248 NA
ATOM     32  C   UNL A   1      47.825  30.040  27.664  1.00  0.00     0.031 C 
ATOM     33  C   UNL A   1      46.876  24.142  26.586  1.00  0.00     0.029 A 
ATOM     34  C   UNL A   1      46.677  25.476  26.904  1.00  0.00     0.049 A 
ATOM     35  H   UNL A   1      44.901  26.455  27.489  1.00  0.00     0.167 HD
ATOM     36  C   UNL A   1      47.366  27.834  27.238  1.00  0.00     0.074 A 
ATOM     37  C   UNL A   1      48.347  28.901  27.230  1.00  0.00     0.031 C 
ATOM     38  C   UNL A   1      47.639  26.546  26.918  1.00  0.00     0.037 A 
BRANCH  25  39
ATOM     39  C   UNL A   1      42.739  22.796  27.112  1.00  0.00     0.057 A 
ATOM     40  C   UNL A   1      42.427  21.959  28.190  1.00  0.00     0.134 A 
ATOM     41  C   UNL A   1      42.475  22.315  25.822  1.00  0.00     0.134 A 
ATOM     42  F   UNL A   1      42.666  22.356  29.449  1.00  0.00    -0.206 F 
ATOM     43  C   UNL A   1      41.883  20.689  27.993  1.00  0.00     0.040 A 
ATOM     44  C   UNL A   1      41.913  21.054  25.614  1.00  0.00     0.040 A 
ATOM     45  F   UNL A   1      42.746  23.069  24.747  1.00  0.00    -0.206 F 
ATOM     46  C   UNL A   1      41.617  20.235  26.702  1.00  0.00     0.006 A 
ENDBRANCH  25  39
BRANCH  26  47
ATOM     47  C   UNL A   1      45.980  32.119  28.582  1.00  0.00     0.057 A 
ATOM     48  C   UNL A   1      46.545  32.541  29.791  1.00  0.00     0.134 A 
ATOM     49  C   UNL A   1      45.889  33.059  27.549  1.00  0.00     0.134 A 
ATOM     50  F   UNL A   1      46.641  31.692  30.825  1.00  0.00    -0.206 F 
ATOM     51  C   UNL A   1      46.993  33.850  29.969  1.00  0.00     0.040 A 
ATOM     52  C   UNL A   1      46.359  34.363  27.704  1.00  0.00     0.040 A 
ATOM     53  F   UNL A   1      45.364  32.714  26.364  1.00  0.00    -0.206 F 
ATOM     54  C   UNL A   1      46.907  34.764  28.920  1.00  0.00     0.006 A 
ENDBRANCH  26  47
BRANCH  38  55
ATOM     55  C   UNL A   1      49.057  26.234  26.552  1.00  0.00     0.057 A 
ATOM     56  C   UNL A   1      49.950  25.695  27.487  1.00  0.00     0.134 A 
ATOM     57  C   UNL A   1      49.535  26.472  25.258  1.00  0.00     0.134 A 
ATOM     58  F   UNL A   1      49.554  25.460  28.747  1.00  0.00    -0.206 F 
ATOM     59  C   UNL A   1      51.279  25.429  27.156  1.00  0.00     0.040 A 
ATOM     60  C   UNL A   1      50.857  26.192  24.909  1.00  0.00     0.040 A 
ATOM     61  F   UNL A   1      48.728  26.984  24.317  1.00  0.00    -0.206 F 
ATOM     62  C   UNL A   1      51.734  25.676  25.862  1.00  0.00     0.006 A 
ENDBRANCH  38  55
ENDBRANCH  12  13
ENDBRANCH   5   7
ENDBRANCH   2   3
ENDBRANCH   1   2
BRANCH   1  63
ATOM     63  C   UNL A   1      32.655  29.959  25.703  1.00  0.00     0.117 C 
BRANCH  63  64
ATOM     64  N   UNL A   1      33.347  29.545  24.501  1.00  0.00    -0.356 N 
ATOM     65  C   UNL A   1      33.111  28.633  23.518  1.00  0.00     0.223 C 
ATOM     66  H   UNL A   1      34.187  30.039  24.362  1.00  0.00     0.163 HD
ATOM     67  O   UNL A   1      34.045  28.456  22.731  1.00  0.00    -0.275 OA
BRANCH  65  68
ATOM     68  C   UNL A   1      31.848  27.910  23.219  1.00  0.00     0.091 C 
ATOM     69  C   UNL A   1      30.596  28.240  23.991  1.00  0.00     0.028 C 
ATOM     70  C   UNL A   1      31.053  26.806  23.862  1.00  0.00     0.092 C 
BRANCH  70  71
ATOM     71  C   UNL A   1      31.482  26.019  25.029  1.00  0.00     0.226 C 
ATOM     72  O   UNL A   1      31.358  26.499  26.149  1.00  0.00    -0.275 OA
ATOM     73  N   UNL A   1      31.984  24.760  24.770  1.00  0.00    -0.339 N 
ATOM     74  C   UNL A   1      31.898  23.703  25.784  1.00  0.00     0.141 C 
ATOM     75  C   UNL A   1      32.870  24.460  23.633  1.00  0.00     0.141 C 
ATOM     76  C   UNL A   1      31.475  22.378  25.125  1.00  0.00     0.139 C 
ATOM     77  C   UNL A   1      32.648  23.057  23.026  1.00  0.00     0.139 C 
ATOM     78  N   UNL A   1      32.449  22.077  24.085  1.00  0.00    -0.352 N 
BRANCH  78  79
ATOM     79  C   UNL A   1      32.928  20.796  23.999  1.00  0.00     0.147 A 
ATOM     80  N   UNL A   1      32.190  19.899  23.304  1.00  0.00    -0.237 NA
ATOM     81  C   UNL A   1      34.074  20.404  24.706  1.00  0.00     0.084 A 
ATOM     82  C   UNL A   1      32.581  18.603  23.319  1.00  0.00     0.126 A 
ATOM     83  C   UNL A   1      34.449  19.062  24.715  1.00  0.00     0.039 A 
ATOM     84  Cl  UNL A   1      35.008  21.521  25.638  1.00  0.00    -0.080 Cl
ATOM     85  C   UNL A   1      33.684  18.130  24.013  1.00  0.00     0.075 A 
BRANCH  85  86
ATOM     86  C   UNL A   1      34.011  16.671  23.999  1.00  0.00     0.417 C 
ATOM     87  F   UNL A   1      32.979  15.900  24.439  1.00  0.00    -0.166 F 
ATOM     88  F   UNL A   1      34.315  16.218  22.753  1.00  0.00    -0.166 F 
ATOM     89  F   UNL A   1      35.077  16.350  24.784  1.00  0.00    -0.166 F 
ENDBRANCH  85  86
ENDBRANCH  78  79
ENDBRANCH  70  71
ENDBRANCH  65  68
ENDBRANCH  63  64
ENDBRANCH   1  63
TORSDOF 13
ENDMDL
MODEL 3
REMARK VINA RESULT:     -13.1      3.852      8.601
REMARK SMILES O=C(NCCCNC(=O)[C@@H]1C[C@@H]1C(=O)N1CCN(c2ncc(C(F)(F)F)cc2Cl)CC1)c1ccc(-c2c3nc(c(-c4c(F)cccc4F)c4ccc([nH]4)c(-c4c(F)cccc4F)c4nc(c(-c5c(F)cccc5F)c5ccc2[nH]5)C=C4)C=C3)cc1
REMARK SMILES IDX 5 1 4 2 3 3 1 4 2 5 32 7 33 8 85 9 34 10 84 11 35 12 36 13
REMARK SMILES IDX 37 14 78 15 38 16 83 17 77 18 79 19 39 20 82 21 76 22 75 23
REMARK SMILES IDX 40 25 66 26 49 27 65 28 50 29 53 30 64 31 80 32 51 33 52 34
REMARK SMILES IDX 63 36 81 37 54 38 41 39 42 40 47 41 43 42 44 43 46 44 48 45
REMARK SMILES IDX 45 46 67 47 68 48 73 49 69 50 70 51 72 52 74 53 71 54 55 55
REMARK SMILES IDX 56 56 61 57 57 58 58 59 60 60 62 61 59 62 6 63 7 64 8 65
REMARK SMILES IDX 9 67 10 68 11 69 12 70 13 71 14 72 15 73 16 74 31 75 17 76
REMARK SMILES IDX 30 77 18 78 19 79 20 80 28 81 21 82 27 83 29 84 22 85 23 86
REMARK SMILES IDX 24 87 25 88 26 89
REMARK H PARENT 3 6 79 24 53 35 7 66
REMARK Flexibility Score: inf
ROOT
ATOM      1  C   UNL A   1      31.508  27.937  24.967  1.00  0.00     0.042 C 
ENDROOT
BRANCH   1   2
ATOM      2  C   UNL A   1      32.657  28.922  25.119  1.00  0.00     0.118 C 
BRANCH   2   3
ATOM      3  N   UNL A   1      32.229  30.228  25.612  1.00  0.00    -0.352 N 
ATOM      4  O   UNL A   1      31.944  32.035  26.876  1.00  0.00    -0.269 OA
ATOM      5  C   UNL A   1      32.666  31.074  26.604  1.00  0.00     0.251 C 
ATOM      6  H   UNL A   1      31.452  30.583  25.123  1.00  0.00     0.163 HD
BRANCH   5   7
ATOM      7  C   UNL A   1      33.928  30.888  27.376  1.00  0.00     0.039 A 
ATOM      8  C   UNL A   1      34.477  29.643  27.646  1.00  0.00     0.014 A 
ATOM      9  C   UNL A   1      34.649  32.027  27.776  1.00  0.00     0.014 A 
ATOM     10  C   UNL A   1      35.607  29.523  28.451  1.00  0.00     0.010 A 
ATOM     11  C   UNL A   1      35.870  31.910  28.466  1.00  0.00     0.010 A 
ATOM     12  C   UNL A   1      36.348  30.650  28.839  1.00  0.00    -0.014 A 
BRANCH  12  13
ATOM     13  C   UNL A   1      37.640  30.424  29.547  1.00  0.00     0.031 A 
ATOM     14  C   UNL A   1      37.850  30.848  30.974  1.00  0.00     0.074 A 
ATOM     15  C   UNL A   1      38.599  29.717  28.911  1.00  0.00     0.049 A 
ATOM     16  N   UNL A   1      38.859  30.581  31.767  1.00  0.00    -0.248 NA
ATOM     17  C   UNL A   1      36.812  31.685  31.591  1.00  0.00     0.031 C 
ATOM     18  C   UNL A   1      38.534  29.287  27.511  1.00  0.00     0.029 A 
ATOM     19  N   UNL A   1      39.773  29.172  29.367  1.00  0.00    -0.354 N 
ATOM     20  C   UNL A   1      38.588  31.230  32.965  1.00  0.00     0.074 A 
ATOM     21  C   UNL A   1      37.330  31.924  32.789  1.00  0.00     0.031 C 
ATOM     22  C   UNL A   1      39.554  28.455  27.257  1.00  0.00     0.029 A 
ATOM     23  C   UNL A   1      40.384  28.348  28.450  1.00  0.00     0.049 A 
ATOM     24  H   UNL A   1      40.142  29.353  30.261  1.00  0.00     0.167 HD
ATOM     25  C   UNL A   1      39.316  31.238  34.107  1.00  0.00     0.037 A 
ATOM     26  C   UNL A   1      41.484  27.579  28.554  1.00  0.00     0.037 A 
ATOM     27  C   UNL A   1      40.556  30.527  34.291  1.00  0.00     0.049 A 
ATOM     28  C   UNL A   1      42.238  27.564  29.849  1.00  0.00     0.074 A 
ATOM     29  C   UNL A   1      41.367  30.478  35.413  1.00  0.00     0.029 A 
ATOM     30  N   UNL A   1      41.156  29.726  33.331  1.00  0.00    -0.354 N 
ATOM     31  N   UNL A   1      41.963  28.185  30.969  1.00  0.00    -0.248 NA
ATOM     32  C   UNL A   1      43.463  26.754  29.891  1.00  0.00     0.031 C 
ATOM     33  C   UNL A   1      42.470  29.667  35.123  1.00  0.00     0.029 A 
ATOM     34  C   UNL A   1      42.329  29.184  33.832  1.00  0.00     0.049 A 
ATOM     35  H   UNL A   1      40.801  29.567  32.427  1.00  0.00     0.167 HD
ATOM     36  C   UNL A   1      42.986  27.856  31.845  1.00  0.00     0.074 A 
ATOM     37  C   UNL A   1      43.863  26.941  31.141  1.00  0.00     0.031 C 
ATOM     38  C   UNL A   1      43.195  28.289  33.111  1.00  0.00     0.037 A 
BRANCH  25  39
ATOM     39  C   UNL A   1      38.796  32.050  35.257  1.00  0.00     0.057 A 
ATOM     40  C   UNL A   1      38.152  31.454  36.348  1.00  0.00     0.134 A 
ATOM     41  C   UNL A   1      38.989  33.438  35.299  1.00  0.00     0.134 A 
ATOM     42  F   UNL A   1      37.926  30.133  36.365  1.00  0.00    -0.206 F 
ATOM     43  C   UNL A   1      37.707  32.211  37.435  1.00  0.00     0.040 A 
ATOM     44  C   UNL A   1      38.566  34.201  36.389  1.00  0.00     0.040 A 
ATOM     45  F   UNL A   1      39.604  34.070  34.289  1.00  0.00    -0.206 F 
ATOM     46  C   UNL A   1      37.920  33.587  37.461  1.00  0.00     0.006 A 
ENDBRANCH  25  39
BRANCH  26  47
ATOM     47  C   UNL A   1      41.932  26.765  27.396  1.00  0.00     0.057 A 
ATOM     48  C   UNL A   1      42.715  27.318  26.376  1.00  0.00     0.134 A 
ATOM     49  C   UNL A   1      41.596  25.410  27.289  1.00  0.00     0.134 A 
ATOM     50  F   UNL A   1      43.053  28.616  26.413  1.00  0.00    -0.206 F 
ATOM     51  C   UNL A   1      43.140  26.557  25.287  1.00  0.00     0.040 A 
ATOM     52  C   UNL A   1      42.037  24.630  26.220  1.00  0.00     0.040 A 
ATOM     53  F   UNL A   1      40.854  24.819  28.237  1.00  0.00    -0.206 F 
ATOM     54  C   UNL A   1      42.806  25.205  25.211  1.00  0.00     0.006 A 
ENDBRANCH  26  47
BRANCH  38  55
ATOM     55  C   UNL A   1      44.427  27.784  33.796  1.00  0.00     0.057 A 
ATOM     56  C   UNL A   1      45.638  28.485  33.728  1.00  0.00     0.134 A 
ATOM     57  C   UNL A   1      44.406  26.592  34.529  1.00  0.00     0.134 A 
ATOM     58  F   UNL A   1      45.724  29.626  33.028  1.00  0.00    -0.206 F 
ATOM     59  C   UNL A   1      46.794  28.003  34.342  1.00  0.00     0.040 A 
ATOM     60  C   UNL A   1      45.550  26.109  35.164  1.00  0.00     0.040 A 
ATOM     61  F   UNL A   1      43.276  25.877  34.634  1.00  0.00    -0.206 F 
ATOM     62  C   UNL A   1      46.750  26.812  35.066  1.00  0.00     0.006 A 
ENDBRANCH  38  55
ENDBRANCH  12  13
ENDBRANCH   5   7
ENDBRANCH   2   3
ENDBRANCH   1   2
BRANCH   1  63
ATOM     63  C   UNL A   1      30.993  27.802  23.533  1.00  0.00     0.117 C 
BRANCH  63  64
ATOM     64  N   UNL A   1      32.066  27.421  22.641  1.00  0.00    -0.356 N 
ATOM     65  C   UNL A   1      32.618  26.240  22.245  1.00  0.00     0.223 C 
ATOM     66  H   UNL A   1      32.501  28.198  22.221  1.00  0.00     0.163 HD
ATOM     67  O   UNL A   1      33.653  26.341  21.582  1.00  0.00    -0.275 OA
BRANCH  65  68
ATOM     68  C   UNL A   1      32.077  24.868  22.423  1.00  0.00     0.091 C 
ATOM     69  C   UNL A   1      30.781  24.665  23.166  1.00  0.00     0.028 C 
ATOM     70  C   UNL A   1      32.007  23.867  23.545  1.00  0.00     0.092 C 
BRANCH  70  71
ATOM     71  C   UNL A   1      32.655  24.017  24.858  1.00  0.00     0.226 C 
ATOM     72  O   UNL A   1      32.020  24.508  25.783  1.00  0.00    -0.275 OA
ATOM     73  N   UNL A   1      33.954  23.562  24.957  1.00  0.00    -0.339 N 
ATOM     74  C   UNL A   1      34.491  23.121  26.249  1.00  0.00     0.141 C 
ATOM     75  C   UNL A   1      34.960  23.747  23.898  1.00  0.00     0.141 C 
ATOM     76  C   UNL A   1      35.304  21.828  26.066  1.00  0.00     0.139 C 
ATOM     77  C   UNL A   1      35.952  22.571  23.770  1.00  0.00     0.139 C 
ATOM     78  N   UNL A   1      36.350  22.104  25.091  1.00  0.00    -0.352 N 
BRANCH  78  79
ATOM     79  C   UNL A   1      37.619  21.663  25.362  1.00  0.00     0.147 A 
ATOM     80  N   UNL A   1      37.923  20.389  25.022  1.00  0.00    -0.237 NA
ATOM     81  C   UNL A   1      38.524  22.463  26.075  1.00  0.00     0.084 A 
ATOM     82  C   UNL A   1      39.127  19.897  25.400  1.00  0.00     0.126 A 
ATOM     83  C   UNL A   1      39.752  21.931  26.462  1.00  0.00     0.039 A 
ATOM     84  Cl  UNL A   1      38.142  24.077  26.561  1.00  0.00    -0.080 Cl
ATOM     85  C   UNL A   1      40.066  20.613  26.127  1.00  0.00     0.075 A 
BRANCH  85  86
ATOM     86  C   UNL A   1      41.353  19.967  26.531  1.00  0.00     0.417 C 
ATOM     87  F   UNL A   1      41.390  19.660  27.857  1.00  0.00    -0.166 F 
ATOM     88  F   UNL A   1      41.580  18.802  25.868  1.00  0.00    -0.166 F 
ATOM     89  F   UNL A   1      42.445  20.748  26.298  1.00  0.00    -0.166 F 
ENDBRANCH  85  86
ENDBRANCH  78  79
ENDBRANCH  70  71
ENDBRANCH  65  68
ENDBRANCH  63  64
ENDBRANCH   1  63
TORSDOF 13
ENDMDL
