MODEL 1
REMARK VINA RESULT:     -12.0      0.000      0.000
REMARK SMILES CCCCN(c1ccccc1C(=O)NCCCNC(=O)c1ccc(-c2c3nc(c(-c4c(F)cccc4F)c4ccc([nH]4)c(-c4c(F)cccc4F)c4nc(c(-c5c(F)cccc5F)c5ccc2[nH]5)C=C4)C=C3)cc1)S(=O)(=O)c1ccc2c(c1)oc(=O)n2C
REMARK SMILES IDX 15 1 14 2 12 3 13 4 11 6 6 7 7 8 8 9 10 10 9 11 5 12 4 13
REMARK SMILES IDX 3 14 2 15 1 16 75 17 76 18 77 19 78 20 79 21 83 22 80 23
REMARK SMILES IDX 82 24 81 25 84 26 87 27 85 28 88 29 86 30 16 31 17 32 18 33
REMARK SMILES IDX 19 34 20 36 21 37 22 38 74 39 23 40 73 41 24 42 25 43 26 44
REMARK SMILES IDX 67 45 27 46 72 47 66 48 68 49 28 50 71 51 65 52 64 53 29 55
REMARK SMILES IDX 55 56 38 57 54 58 39 59 42 60 53 61 69 62 40 63 41 64 52 66
REMARK SMILES IDX 70 67 43 68 30 69 31 70 36 71 32 72 33 73 35 74 37 75 34 76
REMARK SMILES IDX 56 77 57 78 62 79 58 80 59 81 61 82 63 83 60 84 44 85 45 86
REMARK SMILES IDX 50 87 46 88 47 89 49 90 51 91 48 92
REMARK H PARENT 14 5 18 35 68 54 42 65
REMARK Flexibility Score: inf
ROOT
ATOM      1  C   UNL A   1      36.326  21.243  25.330  1.00  0.00     0.118 C 
ENDROOT
BRANCH   1   2
ATOM      2  N   UNL A   1      35.499  21.456  26.478  1.00  0.00    -0.352 N 
ATOM      3  C   UNL A   1      34.148  21.279  26.576  1.00  0.00     0.253 C 
ATOM      4  O   UNL A   1      33.647  21.511  27.681  1.00  0.00    -0.269 OA
ATOM      5  H   UNL A   1      35.957  21.768  27.291  1.00  0.00     0.163 HD
BRANCH   3   6
ATOM      6  C   UNL A   1      33.237  20.870  25.458  1.00  0.00     0.064 A 
ATOM      7  C   UNL A   1      32.711  21.648  24.407  1.00  0.00     0.065 A 
ATOM      8  C   UNL A   1      32.337  20.954  23.232  1.00  0.00     0.028 A 
ATOM      9  C   UNL A   1      32.236  19.566  23.158  1.00  0.00     0.002 A 
ATOM     10  C   UNL A   1      33.111  19.454  25.375  1.00  0.00     0.016 A 
ATOM     11  C   UNL A   1      32.584  18.810  24.257  1.00  0.00     0.001 A 
BRANCH   7  12
ATOM     12  N   UNL A   1      32.678  23.121  24.316  1.00  0.00    -0.266 N 
BRANCH  12  13
ATOM     13  C   UNL A   1      33.604  23.657  23.260  1.00  0.00     0.136 C 
BRANCH  13  14
ATOM     14  C   UNL A   1      33.125  24.109  21.867  1.00  0.00     0.022 C 
BRANCH  14  15
ATOM     15  C   UNL A   1      32.899  25.577  21.515  1.00  0.00    -0.002 C 
ATOM     16  C   UNL A   1      33.653  26.516  22.450  1.00  0.00     0.004 C 
ENDBRANCH  14  15
ENDBRANCH  13  14
ENDBRANCH  12  13
BRANCH  12  17
ATOM     17  S   UNL A   1      31.144  23.873  24.699  1.00  0.00     0.264 S 
ATOM     18  O   UNL A   1      30.319  23.870  23.508  1.00  0.00    -0.201 OA
ATOM     19  O   UNL A   1      30.603  23.356  25.931  1.00  0.00    -0.201 OA
BRANCH  17  20
ATOM     20  C   UNL A   1      31.406  25.592  25.067  1.00  0.00     0.091 A 
ATOM     21  C   UNL A   1      30.500  26.562  24.574  1.00  0.00     0.025 A 
ATOM     22  C   UNL A   1      32.447  25.936  25.932  1.00  0.00     0.071 A 
ATOM     23  C   UNL A   1      30.677  27.912  24.885  1.00  0.00     0.032 A 
ATOM     24  C   UNL A   1      32.631  27.277  26.163  1.00  0.00     0.157 A 
ATOM     25  C   UNL A   1      31.769  28.234  25.661  1.00  0.00     0.090 A 
ATOM     26  O   UNL A   1      33.686  27.817  26.878  1.00  0.00    -0.408 OA
ATOM     27  N   UNL A   1      32.265  29.437  26.095  1.00  0.00    -0.277 N 
ATOM     28  C   UNL A   1      33.432  29.191  26.788  1.00  0.00     0.419 A 
ATOM     29  C   UNL A   1      31.707  30.735  25.865  1.00  0.00     0.157 C 
ATOM     30  O   UNL A   1      34.179  30.036  27.268  1.00  0.00    -0.223 OA
ENDBRANCH  17  20
ENDBRANCH  12  17
ENDBRANCH   7  12
ENDBRANCH   3   6
ENDBRANCH   1   2
BRANCH   1  31
ATOM     31  C   UNL A   1      36.944  22.464  24.686  1.00  0.00     0.042 C 
BRANCH  31  32
ATOM     32  C   UNL A   1      37.752  23.338  25.630  1.00  0.00     0.118 C 
BRANCH  32  33
ATOM     33  N   UNL A   1      39.164  22.992  25.757  1.00  0.00    -0.352 N 
ATOM     34  C   UNL A   1      40.217  23.549  26.446  1.00  0.00     0.251 C 
ATOM     35  H   UNL A   1      39.416  22.193  25.241  1.00  0.00     0.163 HD
ATOM     36  O   UNL A   1      41.315  22.995  26.395  1.00  0.00    -0.269 OA
BRANCH  34  37
ATOM     37  C   UNL A   1      40.089  24.829  27.181  1.00  0.00     0.039 A 
ATOM     38  C   UNL A   1      39.293  24.874  28.335  1.00  0.00     0.014 A 
ATOM     39  C   UNL A   1      40.734  25.984  26.763  1.00  0.00     0.014 A 
ATOM     40  C   UNL A   1      39.260  26.031  29.125  1.00  0.00     0.010 A 
ATOM     41  C   UNL A   1      40.808  27.085  27.609  1.00  0.00     0.010 A 
ATOM     42  C   UNL A   1      40.079  27.122  28.806  1.00  0.00    -0.014 A 
BRANCH  42  43
ATOM     43  C   UNL A   1      40.216  28.319  29.678  1.00  0.00     0.031 A 
ATOM     44  C   UNL A   1      41.254  28.332  30.769  1.00  0.00     0.074 A 
ATOM     45  C   UNL A   1      39.319  29.323  29.594  1.00  0.00     0.049 A 
ATOM     46  N   UNL A   1      41.374  29.135  31.795  1.00  0.00    -0.248 NA
ATOM     47  C   UNL A   1      42.265  27.261  30.726  1.00  0.00     0.031 C 
ATOM     48  C   UNL A   1      38.237  29.420  28.611  1.00  0.00     0.029 A 
ATOM     49  N   UNL A   1      39.155  30.441  30.375  1.00  0.00    -0.354 N 
ATOM     50  C   UNL A   1      42.438  28.642  32.538  1.00  0.00     0.074 A 
ATOM     51  C   UNL A   1      42.896  27.440  31.876  1.00  0.00     0.031 C 
ATOM     52  C   UNL A   1      37.532  30.540  28.840  1.00  0.00     0.029 A 
ATOM     53  C   UNL A   1      38.068  31.206  30.022  1.00  0.00     0.049 A 
ATOM     54  H   UNL A   1      39.758  30.672  31.118  1.00  0.00     0.167 HD
ATOM     55  C   UNL A   1      42.997  29.153  33.661  1.00  0.00     0.037 A 
ATOM     56  C   UNL A   1      37.541  32.300  30.604  1.00  0.00     0.037 A 
ATOM     57  C   UNL A   1      42.570  30.376  34.286  1.00  0.00     0.049 A 
ATOM     58  C   UNL A   1      38.171  32.843  31.856  1.00  0.00     0.074 A 
ATOM     59  C   UNL A   1      43.126  31.026  35.374  1.00  0.00     0.029 A 
ATOM     60  N   UNL A   1      41.484  31.134  33.877  1.00  0.00    -0.354 N 
ATOM     61  N   UNL A   1      39.211  32.398  32.519  1.00  0.00    -0.248 NA
ATOM     62  C   UNL A   1      37.546  34.034  32.449  1.00  0.00     0.031 C 
ATOM     63  C   UNL A   1      42.346  32.152  35.654  1.00  0.00     0.029 A 
ATOM     64  C   UNL A   1      41.334  32.230  34.711  1.00  0.00     0.049 A 
ATOM     65  H   UNL A   1      40.906  30.926  33.108  1.00  0.00     0.167 HD
ATOM     66  C   UNL A   1      39.376  33.264  33.593  1.00  0.00     0.074 A 
ATOM     67  C   UNL A   1      38.344  34.272  33.482  1.00  0.00     0.031 C 
ATOM     68  C   UNL A   1      40.298  33.223  34.586  1.00  0.00     0.037 A 
BRANCH  55  69
ATOM     69  C   UNL A   1      44.137  28.394  34.278  1.00  0.00     0.057 A 
ATOM     70  C   UNL A   1      45.471  28.642  33.927  1.00  0.00     0.134 A 
ATOM     71  C   UNL A   1      43.899  27.423  35.261  1.00  0.00     0.134 A 
ATOM     72  F   UNL A   1      45.769  29.550  32.986  1.00  0.00    -0.206 F 
ATOM     73  C   UNL A   1      46.523  27.930  34.506  1.00  0.00     0.040 A 
ATOM     74  C   UNL A   1      44.945  26.728  35.870  1.00  0.00     0.040 A 
ATOM     75  F   UNL A   1      42.647  27.141  35.651  1.00  0.00    -0.206 F 
ATOM     76  C   UNL A   1      46.261  26.975  35.487  1.00  0.00     0.006 A 
ENDBRANCH  55  69
BRANCH  56  77
ATOM     77  C   UNL A   1      36.346  32.957  30.011  1.00  0.00     0.057 A 
ATOM     78  C   UNL A   1      36.471  33.810  28.907  1.00  0.00     0.134 A 
ATOM     79  C   UNL A   1      35.062  32.762  30.533  1.00  0.00     0.134 A 
ATOM     80  F   UNL A   1      37.678  34.056  28.378  1.00  0.00    -0.206 F 
ATOM     81  C   UNL A   1      35.364  34.458  28.355  1.00  0.00     0.040 A 
ATOM     82  C   UNL A   1      33.943  33.382  29.973  1.00  0.00     0.040 A 
ATOM     83  F   UNL A   1      34.873  31.956  31.588  1.00  0.00    -0.206 F 
ATOM     84  C   UNL A   1      34.095  34.240  28.885  1.00  0.00     0.006 A 
ENDBRANCH  56  77
BRANCH  68  85
ATOM     85  C   UNL A   1      40.240  34.307  35.622  1.00  0.00     0.057 A 
ATOM     86  C   UNL A   1      40.909  35.526  35.450  1.00  0.00     0.134 A 
ATOM     87  C   UNL A   1      39.468  34.150  36.780  1.00  0.00     0.134 A 
ATOM     88  F   UNL A   1      41.678  35.733  34.370  1.00  0.00    -0.206 F 
ATOM     89  C   UNL A   1      40.823  36.544  36.399  1.00  0.00     0.040 A 
ATOM     90  C   UNL A   1      39.352  35.172  37.723  1.00  0.00     0.040 A 
ATOM     91  F   UNL A   1      38.796  33.011  37.002  1.00  0.00    -0.206 F 
ATOM     92  C   UNL A   1      40.035  36.371  37.536  1.00  0.00     0.006 A 
ENDBRANCH  68  85
ENDBRANCH  42  43
ENDBRANCH  34  37
ENDBRANCH  32  33
ENDBRANCH  31  32
ENDBRANCH   1  31
TORSDOF 16
ENDMDL
MODEL 2
REMARK VINA RESULT:     -11.9      5.025      9.793
REMARK SMILES CCCCN(c1ccccc1C(=O)NCCCNC(=O)c1ccc(-c2c3nc(c(-c4c(F)cccc4F)c4ccc([nH]4)c(-c4c(F)cccc4F)c4nc(c(-c5c(F)cccc5F)c5ccc2[nH]5)C=C4)C=C3)cc1)S(=O)(=O)c1ccc2c(c1)oc(=O)n2C
REMARK SMILES IDX 15 1 14 2 12 3 13 4 11 6 6 7 7 8 8 9 10 10 9 11 5 12 4 13
REMARK SMILES IDX 3 14 2 15 1 16 75 17 76 18 77 19 78 20 79 21 83 22 80 23
REMARK SMILES IDX 82 24 81 25 84 26 87 27 85 28 88 29 86 30 16 31 17 32 18 33
REMARK SMILES IDX 19 34 20 36 21 37 22 38 74 39 23 40 73 41 24 42 25 43 26 44
REMARK SMILES IDX 67 45 27 46 72 47 66 48 68 49 28 50 71 51 65 52 64 53 29 55
REMARK SMILES IDX 55 56 38 57 54 58 39 59 42 60 53 61 69 62 40 63 41 64 52 66
REMARK SMILES IDX 70 67 43 68 30 69 31 70 36 71 32 72 33 73 35 74 37 75 34 76
REMARK SMILES IDX 56 77 57 78 62 79 58 80 59 81 61 82 63 83 60 84 44 85 45 86
REMARK SMILES IDX 50 87 46 88 47 89 49 90 51 91 48 92
REMARK H PARENT 14 5 18 35 68 54 42 65
REMARK Flexibility Score: inf
ROOT
ATOM      1  C   UNL A   1      34.201  29.084  27.237  1.00  0.00     0.118 C 
ENDROOT
BRANCH   1   2
ATOM      2  N   UNL A   1      32.981  28.482  27.681  1.00  0.00    -0.352 N 
ATOM      3  C   UNL A   1      31.990  27.943  26.911  1.00  0.00     0.253 C 
ATOM      4  O   UNL A   1      31.029  27.461  27.519  1.00  0.00    -0.269 OA
ATOM      5  H   UNL A   1      32.839  28.455  28.654  1.00  0.00     0.163 HD
BRANCH   3   6
ATOM      6  C   UNL A   1      31.960  27.925  25.413  1.00  0.00     0.064 A 
ATOM      7  C   UNL A   1      32.153  26.842  24.531  1.00  0.00     0.065 A 
ATOM      8  C   UNL A   1      31.568  26.959  23.248  1.00  0.00     0.028 A 
ATOM      9  C   UNL A   1      31.043  28.150  22.748  1.00  0.00     0.002 A 
ATOM     10  C   UNL A   1      31.438  29.139  24.883  1.00  0.00     0.016 A 
ATOM     11  C   UNL A   1      31.019  29.264  23.559  1.00  0.00     0.001 A 
BRANCH   7  12
ATOM     12  N   UNL A   1      32.732  25.522  24.850  1.00  0.00    -0.266 N 
BRANCH  12  13
ATOM     13  C   UNL A   1      34.190  25.601  25.210  1.00  0.00     0.136 C 
BRANCH  13  14
ATOM     14  C   UNL A   1      35.090  24.361  25.365  1.00  0.00     0.022 C 
BRANCH  14  15
ATOM     15  C   UNL A   1      35.780  23.696  24.178  1.00  0.00    -0.002 C 
ATOM     16  C   UNL A   1      35.551  22.189  24.149  1.00  0.00     0.004 C 
ENDBRANCH  14  15
ENDBRANCH  13  14
ENDBRANCH  12  13
BRANCH  12  17
ATOM     17  S   UNL A   1      31.638  24.368  25.582  1.00  0.00     0.264 S 
ATOM     18  O   UNL A   1      32.023  24.182  26.966  1.00  0.00    -0.201 OA
ATOM     19  O   UNL A   1      30.266  24.679  25.269  1.00  0.00    -0.201 OA
BRANCH  17  20
ATOM     20  C   UNL A   1      31.870  22.776  24.827  1.00  0.00     0.091 A 
ATOM     21  C   UNL A   1      31.857  22.659  23.416  1.00  0.00     0.025 A 
ATOM     22  C   UNL A   1      32.172  21.687  25.648  1.00  0.00     0.071 A 
ATOM     23  C   UNL A   1      32.073  21.419  22.810  1.00  0.00     0.032 A 
ATOM     24  C   UNL A   1      32.313  20.472  25.024  1.00  0.00     0.157 A 
ATOM     25  C   UNL A   1      32.271  20.344  23.649  1.00  0.00     0.090 A 
ATOM     26  O   UNL A   1      32.477  19.264  25.679  1.00  0.00    -0.408 OA
ATOM     27  N   UNL A   1      32.449  19.006  23.401  1.00  0.00    -0.277 N 
ATOM     28  C   UNL A   1      32.532  18.356  24.615  1.00  0.00     0.419 A 
ATOM     29  C   UNL A   1      32.517  18.366  22.123  1.00  0.00     0.157 C 
ATOM     30  O   UNL A   1      32.632  17.145  24.780  1.00  0.00    -0.223 OA
ENDBRANCH  17  20
ENDBRANCH  12  17
ENDBRANCH   7  12
ENDBRANCH   3   6
ENDBRANCH   1   2
BRANCH   1  31
ATOM     31  C   UNL A   1      34.293  30.592  27.303  1.00  0.00     0.042 C 
BRANCH  31  32
ATOM     32  C   UNL A   1      35.373  31.121  28.231  1.00  0.00     0.118 C 
BRANCH  32  33
ATOM     33  N   UNL A   1      35.438  30.493  29.547  1.00  0.00    -0.352 N 
ATOM     34  C   UNL A   1      36.471  30.002  30.311  1.00  0.00     0.251 C 
ATOM     35  H   UNL A   1      34.558  30.402  29.977  1.00  0.00     0.163 HD
ATOM     36  O   UNL A   1      36.217  29.557  31.430  1.00  0.00    -0.269 OA
BRANCH  34  37
ATOM     37  C   UNL A   1      37.860  29.920  29.801  1.00  0.00     0.039 A 
ATOM     38  C   UNL A   1      38.911  29.746  30.714  1.00  0.00     0.014 A 
ATOM     39  C   UNL A   1      38.153  30.008  28.448  1.00  0.00     0.014 A 
ATOM     40  C   UNL A   1      40.217  29.531  30.255  1.00  0.00     0.010 A 
ATOM     41  C   UNL A   1      39.418  29.666  27.986  1.00  0.00     0.010 A 
ATOM     42  C   UNL A   1      40.467  29.414  28.882  1.00  0.00    -0.014 A 
BRANCH  42  43
ATOM     43  C   UNL A   1      41.793  29.033  28.325  1.00  0.00     0.031 A 
ATOM     44  C   UNL A   1      42.057  27.600  27.945  1.00  0.00     0.074 A 
ATOM     45  C   UNL A   1      42.800  29.930  28.303  1.00  0.00     0.049 A 
ATOM     46  N   UNL A   1      43.194  27.001  27.698  1.00  0.00    -0.248 NA
ATOM     47  C   UNL A   1      40.886  26.709  27.886  1.00  0.00     0.031 C 
ATOM     48  C   UNL A   1      42.695  31.341  28.681  1.00  0.00     0.029 A 
ATOM     49  N   UNL A   1      44.126  29.775  27.979  1.00  0.00    -0.354 N 
ATOM     50  C   UNL A   1      42.880  25.662  27.502  1.00  0.00     0.074 A 
ATOM     51  C   UNL A   1      41.455  25.527  27.710  1.00  0.00     0.031 C 
ATOM     52  C   UNL A   1      43.898  31.923  28.555  1.00  0.00     0.029 A 
ATOM     53  C   UNL A   1      44.873  30.916  28.152  1.00  0.00     0.049 A 
ATOM     54  H   UNL A   1      44.506  28.926  27.655  1.00  0.00     0.167 HD
ATOM     55  C   UNL A   1      43.700  24.640  27.159  1.00  0.00     0.037 A 
ATOM     56  C   UNL A   1      46.198  31.122  28.033  1.00  0.00     0.037 A 
ATOM     57  C   UNL A   1      45.107  24.790  26.904  1.00  0.00     0.049 A 
ATOM     58  C   UNL A   1      47.092  29.970  27.663  1.00  0.00     0.074 A 
ATOM     59  C   UNL A   1      46.009  23.836  26.465  1.00  0.00     0.029 A 
ATOM     60  N   UNL A   1      45.816  25.971  27.061  1.00  0.00    -0.354 N 
ATOM     61  N   UNL A   1      46.774  28.720  27.426  1.00  0.00    -0.248 NA
ATOM     62  C   UNL A   1      48.529  30.255  27.556  1.00  0.00     0.031 C 
ATOM     63  C   UNL A   1      47.275  24.428  26.405  1.00  0.00     0.029 A 
ATOM     64  C   UNL A   1      47.152  25.762  26.759  1.00  0.00     0.049 A 
ATOM     65  H   UNL A   1      45.429  26.830  27.345  1.00  0.00     0.167 HD
ATOM     66  C   UNL A   1      47.967  28.075  27.124  1.00  0.00     0.074 A 
ATOM     67  C   UNL A   1      49.011  29.076  27.187  1.00  0.00     0.031 C 
ATOM     68  C   UNL A   1      48.179  26.770  26.828  1.00  0.00     0.037 A 
BRANCH  55  69
ATOM     69  C   UNL A   1      43.092  23.272  27.034  1.00  0.00     0.057 A 
ATOM     70  C   UNL A   1      42.792  22.487  28.155  1.00  0.00     0.134 A 
ATOM     71  C   UNL A   1      42.773  22.746  25.774  1.00  0.00     0.134 A 
ATOM     72  F   UNL A   1      43.081  22.925  29.389  1.00  0.00    -0.206 F 
ATOM     73  C   UNL A   1      42.227  21.216  28.027  1.00  0.00     0.040 A 
ATOM     74  C   UNL A   1      42.179  21.490  25.636  1.00  0.00     0.040 A 
ATOM     75  F   UNL A   1      43.026  23.446  24.659  1.00  0.00    -0.206 F 
ATOM     76  C   UNL A   1      41.913  20.719  26.765  1.00  0.00     0.006 A 
ENDBRANCH  55  69
BRANCH  56  77
ATOM     77  C   UNL A   1      46.768  32.475  28.269  1.00  0.00     0.057 A 
ATOM     78  C   UNL A   1      47.297  32.822  29.518  1.00  0.00     0.134 A 
ATOM     79  C   UNL A   1      46.789  33.452  27.266  1.00  0.00     0.134 A 
ATOM     80  F   UNL A   1      47.283  31.937  30.525  1.00  0.00    -0.206 F 
ATOM     81  C   UNL A   1      47.810  34.096  29.767  1.00  0.00     0.040 A 
ATOM     82  C   UNL A   1      47.325  34.721  27.493  1.00  0.00     0.040 A 
ATOM     83  F   UNL A   1      46.300  33.183  26.047  1.00  0.00    -0.206 F 
ATOM     84  C   UNL A   1      47.830  35.048  28.750  1.00  0.00     0.006 A 
ENDBRANCH  56  77
BRANCH  68  85
ATOM     85  C   UNL A   1      49.590  26.351  26.535  1.00  0.00     0.057 A 
ATOM     86  C   UNL A   1      50.417  25.808  27.526  1.00  0.00     0.134 A 
ATOM     87  C   UNL A   1      50.109  26.446  25.237  1.00  0.00     0.134 A 
ATOM     88  F   UNL A   1      49.984  25.705  28.792  1.00  0.00    -0.206 F 
ATOM     89  C   UNL A   1      51.716  25.388  27.240  1.00  0.00     0.040 A 
ATOM     90  C   UNL A   1      51.397  26.002  24.934  1.00  0.00     0.040 A 
ATOM     91  F   UNL A   1      49.366  26.949  24.240  1.00  0.00    -0.206 F 
ATOM     92  C   UNL A   1      52.206  25.476  25.938  1.00  0.00     0.006 A 
ENDBRANCH  68  85
ENDBRANCH  42  43
ENDBRANCH  34  37
ENDBRANCH  32  33
ENDBRANCH  31  32
ENDBRANCH   1  31
TORSDOF 16
ENDMDL
MODEL 3
REMARK VINA RESULT:     -11.8      4.630      8.162
REMARK SMILES CCCCN(c1ccccc1C(=O)NCCCNC(=O)c1ccc(-c2c3nc(c(-c4c(F)cccc4F)c4ccc([nH]4)c(-c4c(F)cccc4F)c4nc(c(-c5c(F)cccc5F)c5ccc2[nH]5)C=C4)C=C3)cc1)S(=O)(=O)c1ccc2c(c1)oc(=O)n2C
REMARK SMILES IDX 15 1 14 2 12 3 13 4 11 6 6 7 7 8 8 9 10 10 9 11 5 12 4 13
REMARK SMILES IDX 3 14 2 15 1 16 75 17 76 18 77 19 78 20 79 21 83 22 80 23
REMARK SMILES IDX 82 24 81 25 84 26 87 27 85 28 88 29 86 30 16 31 17 32 18 33
REMARK SMILES IDX 19 34 20 36 21 37 22 38 74 39 23 40 73 41 24 42 25 43 26 44
REMARK SMILES IDX 67 45 27 46 72 47 66 48 68 49 28 50 71 51 65 52 64 53 29 55
REMARK SMILES IDX 55 56 38 57 54 58 39 59 42 60 53 61 69 62 40 63 41 64 52 66
REMARK SMILES IDX 70 67 43 68 30 69 31 70 36 71 32 72 33 73 35 74 37 75 34 76
REMARK SMILES IDX 56 77 57 78 62 79 58 80 59 81 61 82 63 83 60 84 44 85 45 86
REMARK SMILES IDX 50 87 46 88 47 89 49 90 51 91 48 92
REMARK H PARENT 14 5 18 35 68 54 42 65
REMARK Flexibility Score: inf
ROOT
ATOM      1  C   UNL A   1      36.358  20.467  25.001  1.00  0.00     0.118 C 
ENDROOT
BRANCH   1   2
ATOM      2  N   UNL A   1      35.574  21.077  26.031  1.00  0.00    -0.352 N 
ATOM      3  C   UNL A   1      34.213  21.097  26.140  1.00  0.00     0.253 C 
ATOM      4  O   UNL A   1      33.754  21.674  27.131  1.00  0.00    -0.269 OA
ATOM      5  H   UNL A   1      36.074  21.536  26.743  1.00  0.00     0.163 HD
BRANCH   3   6
ATOM      6  C   UNL A   1      33.248  20.519  25.149  1.00  0.00     0.064 A 
ATOM      7  C   UNL A   1      32.655  21.127  24.024  1.00  0.00     0.065 A 
ATOM      8  C   UNL A   1      32.227  20.261  22.990  1.00  0.00     0.028 A 
ATOM      9  C   UNL A   1      32.141  18.877  23.132  1.00  0.00     0.002 A 
ATOM     10  C   UNL A   1      33.136  19.107  25.288  1.00  0.00     0.016 A 
ATOM     11  C   UNL A   1      32.558  18.298  24.311  1.00  0.00     0.001 A 
BRANCH   7  12
ATOM     12  N   UNL A   1      32.598  22.568  23.713  1.00  0.00    -0.266 N 
BRANCH  12  13
ATOM     13  C   UNL A   1      33.074  22.881  22.322  1.00  0.00     0.136 C 
BRANCH  13  14
ATOM     14  C   UNL A   1      33.646  24.251  21.912  1.00  0.00     0.022 C 
BRANCH  14  15
ATOM     15  C   UNL A   1      32.757  25.425  21.514  1.00  0.00    -0.002 C 
ATOM     16  C   UNL A   1      33.311  26.758  22.002  1.00  0.00     0.004 C 
ENDBRANCH  14  15
ENDBRANCH  13  14
ENDBRANCH  12  13
BRANCH  12  17
ATOM     17  S   UNL A   1      31.314  23.465  24.497  1.00  0.00     0.264 S 
ATOM     18  O   UNL A   1      30.322  23.814  23.502  1.00  0.00    -0.201 OA
ATOM     19  O   UNL A   1      30.893  22.817  25.714  1.00  0.00    -0.201 OA
BRANCH  17  20
ATOM     20  C   UNL A   1      31.950  25.022  25.072  1.00  0.00     0.091 A 
ATOM     21  C   UNL A   1      33.255  25.089  25.617  1.00  0.00     0.025 A 
ATOM     22  C   UNL A   1      31.182  26.171  24.871  1.00  0.00     0.071 A 
ATOM     23  C   UNL A   1      33.779  26.313  26.040  1.00  0.00     0.032 A 
ATOM     24  C   UNL A   1      31.699  27.345  25.358  1.00  0.00     0.157 A 
ATOM     25  C   UNL A   1      32.961  27.415  25.919  1.00  0.00     0.090 A 
ATOM     26  O   UNL A   1      31.029  28.556  25.374  1.00  0.00    -0.408 OA
ATOM     27  N   UNL A   1      33.127  28.728  26.281  1.00  0.00    -0.277 N 
ATOM     28  C   UNL A   1      31.958  29.401  25.992  1.00  0.00     0.419 A 
ATOM     29  C   UNL A   1      34.286  29.319  26.877  1.00  0.00     0.157 C 
ATOM     30  O   UNL A   1      31.723  30.579  26.238  1.00  0.00    -0.223 OA
ENDBRANCH  17  20
ENDBRANCH  12  17
ENDBRANCH   7  12
ENDBRANCH   3   6
ENDBRANCH   1   2
BRANCH   1  31
ATOM     31  C   UNL A   1      37.767  20.982  24.807  1.00  0.00     0.042 C 
BRANCH  31  32
ATOM     32  C   UNL A   1      38.695  20.747  25.987  1.00  0.00     0.118 C 
BRANCH  32  33
ATOM     33  N   UNL A   1      39.665  19.670  25.823  1.00  0.00    -0.352 N 
ATOM     34  C   UNL A   1      41.022  19.578  26.027  1.00  0.00     0.251 C 
ATOM     35  H   UNL A   1      39.263  18.832  25.497  1.00  0.00     0.163 HD
ATOM     36  O   UNL A   1      41.576  18.496  25.838  1.00  0.00    -0.269 OA
BRANCH  34  37
ATOM     37  C   UNL A   1      41.845  20.755  26.390  1.00  0.00     0.039 A 
ATOM     38  C   UNL A   1      42.277  21.623  25.375  1.00  0.00     0.014 A 
ATOM     39  C   UNL A   1      42.201  21.028  27.703  1.00  0.00     0.014 A 
ATOM     40  C   UNL A   1      42.940  22.813  25.698  1.00  0.00     0.010 A 
ATOM     41  C   UNL A   1      42.740  22.265  28.036  1.00  0.00     0.010 A 
ATOM     42  C   UNL A   1      43.111  23.180  27.039  1.00  0.00    -0.014 A 
BRANCH  42  43
ATOM     43  C   UNL A   1      43.663  24.495  27.460  1.00  0.00     0.031 A 
ATOM     44  C   UNL A   1      42.727  25.589  27.905  1.00  0.00     0.074 A 
ATOM     45  C   UNL A   1      44.976  24.759  27.302  1.00  0.00     0.049 A 
ATOM     46  N   UNL A   1      42.955  26.868  28.057  1.00  0.00    -0.248 NA
ATOM     47  C   UNL A   1      41.332  25.194  28.163  1.00  0.00     0.031 C 
ATOM     48  C   UNL A   1      45.988  23.806  26.842  1.00  0.00     0.029 A 
ATOM     49  N   UNL A   1      45.679  25.927  27.477  1.00  0.00    -0.354 N 
ATOM     50  C   UNL A   1      41.728  27.434  28.381  1.00  0.00     0.074 A 
ATOM     51  C   UNL A   1      40.751  26.368  28.352  1.00  0.00     0.031 C 
ATOM     52  C   UNL A   1      47.180  24.421  26.784  1.00  0.00     0.029 A 
ATOM     53  C   UNL A   1      47.008  25.825  27.138  1.00  0.00     0.049 A 
ATOM     54  H   UNL A   1      45.270  26.757  27.812  1.00  0.00     0.167 HD
ATOM     55  C   UNL A   1      41.445  28.720  28.694  1.00  0.00     0.037 A 
ATOM     56  C   UNL A   1      47.972  26.764  27.086  1.00  0.00     0.037 A 
ATOM     57  C   UNL A   1      42.430  29.765  28.771  1.00  0.00     0.049 A 
ATOM     58  C   UNL A   1      47.631  28.189  27.426  1.00  0.00     0.074 A 
ATOM     59  C   UNL A   1      42.261  31.081  29.165  1.00  0.00     0.029 A 
ATOM     60  N   UNL A   1      43.770  29.611  28.449  1.00  0.00    -0.354 N 
ATOM     61  N   UNL A   1      46.479  28.700  27.784  1.00  0.00    -0.248 NA
ATOM     62  C   UNL A   1      48.723  29.169  27.342  1.00  0.00     0.031 C 
ATOM     63  C   UNL A   1      43.489  31.737  29.034  1.00  0.00     0.029 A 
ATOM     64  C   UNL A   1      44.433  30.817  28.606  1.00  0.00     0.049 A 
ATOM     65  H   UNL A   1      44.188  28.771  28.154  1.00  0.00     0.167 HD
ATOM     66  C   UNL A   1      46.711  30.055  27.987  1.00  0.00     0.074 A 
ATOM     67  C   UNL A   1      48.117  30.282  27.733  1.00  0.00     0.031 C 
ATOM     68  C   UNL A   1      45.835  31.025  28.346  1.00  0.00     0.037 A 
BRANCH  55  69
ATOM     69  C   UNL A   1      40.012  29.066  28.985  1.00  0.00     0.057 A 
ATOM     70  C   UNL A   1      39.090  29.333  27.964  1.00  0.00     0.134 A 
ATOM     71  C   UNL A   1      39.540  29.100  30.305  1.00  0.00     0.134 A 
ATOM     72  F   UNL A   1      39.478  29.328  26.679  1.00  0.00    -0.206 F 
ATOM     73  C   UNL A   1      37.761  29.654  28.245  1.00  0.00     0.040 A 
ATOM     74  C   UNL A   1      38.206  29.388  30.596  1.00  0.00     0.040 A 
ATOM     75  F   UNL A   1      40.365  28.846  31.331  1.00  0.00    -0.206 F 
ATOM     76  C   UNL A   1      37.314  29.674  29.564  1.00  0.00     0.006 A 
ENDBRANCH  55  69
BRANCH  56  77
ATOM     77  C   UNL A   1      49.356  26.391  26.691  1.00  0.00     0.057 A 
ATOM     78  C   UNL A   1      50.268  25.914  27.640  1.00  0.00     0.134 A 
ATOM     79  C   UNL A   1      49.803  26.509  25.369  1.00  0.00     0.134 A 
ATOM     80  F   UNL A   1      49.906  25.801  28.926  1.00  0.00    -0.206 F 
ATOM     81  C   UNL A   1      51.580  25.585  27.293  1.00  0.00     0.040 A 
ATOM     82  C   UNL A   1      51.104  26.158  25.004  1.00  0.00     0.040 A 
ATOM     83  F   UNL A   1      48.979  26.958  24.411  1.00  0.00    -0.206 F 
ATOM     84  C   UNL A   1      51.999  25.701  25.970  1.00  0.00     0.006 A 
ENDBRANCH  56  77
BRANCH  68  85
ATOM     85  C   UNL A   1      46.375  32.417  28.499  1.00  0.00     0.057 A 
ATOM     86  C   UNL A   1      46.919  32.866  29.709  1.00  0.00     0.134 A 
ATOM     87  C   UNL A   1      46.398  33.299  27.412  1.00  0.00     0.134 A 
ATOM     88  F   UNL A   1      46.914  32.074  30.793  1.00  0.00    -0.206 F 
ATOM     89  C   UNL A   1      47.453  34.148  29.836  1.00  0.00     0.040 A 
ATOM     90  C   UNL A   1      46.954  34.575  27.520  1.00  0.00     0.040 A 
ATOM     91  F   UNL A   1      45.900  32.929  26.223  1.00  0.00    -0.206 F 
ATOM     92  C   UNL A   1      47.479  35.003  28.736  1.00  0.00     0.006 A 
ENDBRANCH  68  85
ENDBRANCH  42  43
ENDBRANCH  34  37
ENDBRANCH  32  33
ENDBRANCH  31  32
ENDBRANCH   1  31
TORSDOF 16
ENDMDL
