MODEL 1
REMARK VINA RESULT:     -12.8      0.000      0.000
REMARK SMILES O=C(NCCCNC(=O)c1cccc2c1ccn2Cc1ccncc1)c1ccc(-c2c3nc(c(-c4c(F)cccc4F)c4ccc([nH]4)c(-c4c(F)cccc4F)c4nc(c(-c5c(F)cccc5F)c5ccc2[nH]5)C=C4)C=C3)cc1
REMARK SMILES IDX 5 1 4 2 3 3 1 4 2 5 26 7 27 8 79 9 28 10 78 11 29 12 30 13
REMARK SMILES IDX 31 14 72 15 32 16 77 17 71 18 73 19 33 20 76 21 70 22 69 23
REMARK SMILES IDX 34 25 60 26 43 27 59 28 44 29 47 30 58 31 74 32 45 33 46 34
REMARK SMILES IDX 57 36 75 37 48 38 35 39 36 40 41 41 37 42 38 43 40 44 42 45
REMARK SMILES IDX 39 46 61 47 62 48 67 49 63 50 64 51 66 52 68 53 65 54 49 55
REMARK SMILES IDX 50 56 55 57 51 58 52 59 54 60 56 61 53 62 6 63 7 64 8 65
REMARK SMILES IDX 9 67 10 68 11 69 15 70 12 71 14 72 16 73 13 74 18 75 17 76
REMARK SMILES IDX 19 77 20 78 21 79 25 80 22 81 24 82 23 83
REMARK H PARENT 3 6 73 24 47 35 7 66
REMARK Flexibility Score: inf
ROOT
ATOM      1  C   UNL A   1      34.006  29.846  27.189  1.00  0.00     0.042 C 
ENDROOT
BRANCH   1   2
ATOM      2  C   UNL A   1      35.439  29.702  27.663  1.00  0.00     0.118 C 
BRANCH   2   3
ATOM      3  N   UNL A   1      35.618  29.882  29.115  1.00  0.00    -0.352 N 
ATOM      4  O   UNL A   1      36.553  29.348  31.129  1.00  0.00    -0.269 OA
ATOM      5  C   UNL A   1      36.643  29.385  29.924  1.00  0.00     0.251 C 
ATOM      6  H   UNL A   1      34.932  30.420  29.571  1.00  0.00     0.163 HD
BRANCH   5   7
ATOM      7  C   UNL A   1      37.859  28.912  29.237  1.00  0.00     0.039 A 
ATOM      8  C   UNL A   1      38.488  29.618  28.210  1.00  0.00     0.014 A 
ATOM      9  C   UNL A   1      38.455  27.805  29.808  1.00  0.00     0.014 A 
ATOM     10  C   UNL A   1      39.788  29.249  27.859  1.00  0.00     0.010 A 
ATOM     11  C   UNL A   1      39.807  27.696  29.705  1.00  0.00     0.010 A 
ATOM     12  C   UNL A   1      40.461  28.300  28.647  1.00  0.00    -0.014 A 
BRANCH  12  13
ATOM     13  C   UNL A   1      41.857  27.931  28.438  1.00  0.00     0.031 A 
ATOM     14  C   UNL A   1      42.078  26.683  27.666  1.00  0.00     0.074 A 
ATOM     15  C   UNL A   1      42.885  28.750  28.769  1.00  0.00     0.049 A 
ATOM     16  N   UNL A   1      42.504  25.553  28.124  1.00  0.00    -0.248 NA
ATOM     17  C   UNL A   1      41.646  26.630  26.261  1.00  0.00     0.031 C 
ATOM     18  C   UNL A   1      42.856  30.128  29.289  1.00  0.00     0.029 A 
ATOM     19  N   UNL A   1      44.220  28.534  28.622  1.00  0.00    -0.354 N 
ATOM     20  C   UNL A   1      42.606  24.704  27.025  1.00  0.00     0.074 A 
ATOM     21  C   UNL A   1      41.892  25.352  25.956  1.00  0.00     0.031 C 
ATOM     22  C   UNL A   1      44.071  30.698  29.164  1.00  0.00     0.029 A 
ATOM     23  C   UNL A   1      45.009  29.669  28.773  1.00  0.00     0.049 A 
ATOM     24  H   UNL A   1      44.597  27.648  28.423  1.00  0.00     0.167 HD
ATOM     25  C   UNL A   1      43.483  23.661  27.034  1.00  0.00     0.037 A 
ATOM     26  C   UNL A   1      46.350  29.760  28.613  1.00  0.00     0.037 A 
ATOM     27  C   UNL A   1      43.944  23.388  28.376  1.00  0.00     0.049 A 
ATOM     28  C   UNL A   1      46.892  28.387  28.735  1.00  0.00     0.074 A 
ATOM     29  C   UNL A   1      43.330  23.041  29.564  1.00  0.00     0.029 A 
ATOM     30  N   UNL A   1      45.191  23.845  28.726  1.00  0.00    -0.354 N 
ATOM     31  N   UNL A   1      46.893  27.711  29.852  1.00  0.00    -0.248 NA
ATOM     32  C   UNL A   1      46.979  27.588  27.523  1.00  0.00     0.031 C 
ATOM     33  C   UNL A   1      44.034  23.770  30.569  1.00  0.00     0.029 A 
ATOM     34  C   UNL A   1      45.080  24.456  29.949  1.00  0.00     0.049 A 
ATOM     35  H   UNL A   1      46.016  23.751  28.195  1.00  0.00     0.167 HD
ATOM     36  C   UNL A   1      46.536  26.421  29.485  1.00  0.00     0.074 A 
ATOM     37  C   UNL A   1      46.693  26.385  28.030  1.00  0.00     0.031 C 
ATOM     38  C   UNL A   1      45.865  25.601  30.348  1.00  0.00     0.037 A 
BRANCH  25  39
ATOM     39  C   UNL A   1      44.235  23.158  25.823  1.00  0.00     0.057 A 
ATOM     40  C   UNL A   1      45.197  23.903  25.112  1.00  0.00     0.134 A 
ATOM     41  C   UNL A   1      44.238  21.775  25.555  1.00  0.00     0.134 A 
ATOM     42  F   UNL A   1      45.358  25.220  25.276  1.00  0.00    -0.206 F 
ATOM     43  C   UNL A   1      46.130  23.313  24.254  1.00  0.00     0.040 A 
ATOM     44  C   UNL A   1      45.199  21.169  24.736  1.00  0.00     0.040 A 
ATOM     45  F   UNL A   1      43.362  20.956  26.155  1.00  0.00    -0.206 F 
ATOM     46  C   UNL A   1      46.161  21.938  24.096  1.00  0.00     0.006 A 
ENDBRANCH  25  39
BRANCH  26  47
ATOM     47  C   UNL A   1      47.144  30.911  28.136  1.00  0.00     0.057 A 
ATOM     48  C   UNL A   1      47.942  31.664  29.016  1.00  0.00     0.134 A 
ATOM     49  C   UNL A   1      46.934  31.463  26.866  1.00  0.00     0.134 A 
ATOM     50  F   UNL A   1      48.150  31.262  30.278  1.00  0.00    -0.206 F 
ATOM     51  C   UNL A   1      48.484  32.904  28.662  1.00  0.00     0.040 A 
ATOM     52  C   UNL A   1      47.464  32.708  26.501  1.00  0.00     0.040 A 
ATOM     53  F   UNL A   1      46.158  30.836  25.971  1.00  0.00    -0.206 F 
ATOM     54  C   UNL A   1      48.232  33.438  27.404  1.00  0.00     0.006 A 
ENDBRANCH  26  47
BRANCH  38  55
ATOM     55  C   UNL A   1      45.741  26.048  31.782  1.00  0.00     0.057 A 
ATOM     56  C   UNL A   1      46.744  25.694  32.690  1.00  0.00     0.134 A 
ATOM     57  C   UNL A   1      44.612  26.690  32.314  1.00  0.00     0.134 A 
ATOM     58  F   UNL A   1      47.827  25.022  32.270  1.00  0.00    -0.206 F 
ATOM     59  C   UNL A   1      46.643  25.982  34.053  1.00  0.00     0.040 A 
ATOM     60  C   UNL A   1      44.511  27.015  33.671  1.00  0.00     0.040 A 
ATOM     61  F   UNL A   1      43.552  26.976  31.549  1.00  0.00    -0.206 F 
ATOM     62  C   UNL A   1      45.529  26.657  34.547  1.00  0.00     0.006 A 
ENDBRANCH  38  55
ENDBRANCH  12  13
ENDBRANCH   5   7
ENDBRANCH   2   3
ENDBRANCH   1   2
BRANCH   1  63
ATOM     63  C   UNL A   1      33.274  28.505  27.126  1.00  0.00     0.118 C 
BRANCH  63  64
ATOM     64  N   UNL A   1      33.932  27.499  26.298  1.00  0.00    -0.352 N 
ATOM     65  C   UNL A   1      33.402  26.619  25.380  1.00  0.00     0.251 C 
ATOM     66  H   UNL A   1      34.908  27.439  26.414  1.00  0.00     0.163 HD
ATOM     67  O   UNL A   1      34.132  25.809  24.817  1.00  0.00    -0.269 OA
BRANCH  65  68
ATOM     68  C   UNL A   1      31.952  26.637  25.108  1.00  0.00     0.049 A 
ATOM     69  C   UNL A   1      31.100  25.711  25.727  1.00  0.00     0.014 A 
ATOM     70  C   UNL A   1      31.424  27.576  24.197  1.00  0.00     0.012 A 
ATOM     71  C   UNL A   1      29.771  25.611  25.336  1.00  0.00     0.003 A 
ATOM     72  C   UNL A   1      30.067  27.488  23.852  1.00  0.00     0.049 A 
ATOM     73  C   UNL A   1      31.975  28.661  23.459  1.00  0.00     0.029 A 
ATOM     74  C   UNL A   1      29.237  26.484  24.383  1.00  0.00     0.027 A 
ATOM     75  N   UNL A   1      29.810  28.517  22.964  1.00  0.00    -0.343 N 
ATOM     76  C   UNL A   1      30.977  29.183  22.674  1.00  0.00     0.087 A 
BRANCH  75  77
ATOM     77  C   UNL A   1      28.514  28.848  22.377  1.00  0.00     0.157 C 
BRANCH  77  78
ATOM     78  C   UNL A   1      28.336  30.336  22.192  1.00  0.00    -0.025 A 
ATOM     79  C   UNL A   1      28.164  30.891  20.918  1.00  0.00     0.025 A 
ATOM     80  C   UNL A   1      28.342  31.205  23.288  1.00  0.00     0.025 A 
ATOM     81  C   UNL A   1      28.031  32.265  20.793  1.00  0.00     0.111 A 
ATOM     82  C   UNL A   1      28.182  32.565  23.062  1.00  0.00     0.111 A 
ATOM     83  N   UNL A   1      28.029  33.113  21.839  1.00  0.00    -0.265 NA
ENDBRANCH  77  78
ENDBRANCH  75  77
ENDBRANCH  65  68
ENDBRANCH  63  64
ENDBRANCH   1  63
TORSDOF 12
ENDMDL
MODEL 2
REMARK VINA RESULT:     -12.5      1.990      6.191
REMARK SMILES O=C(NCCCNC(=O)c1cccc2c1ccn2Cc1ccncc1)c1ccc(-c2c3nc(c(-c4c(F)cccc4F)c4ccc([nH]4)c(-c4c(F)cccc4F)c4nc(c(-c5c(F)cccc5F)c5ccc2[nH]5)C=C4)C=C3)cc1
REMARK SMILES IDX 5 1 4 2 3 3 1 4 2 5 26 7 27 8 79 9 28 10 78 11 29 12 30 13
REMARK SMILES IDX 31 14 72 15 32 16 77 17 71 18 73 19 33 20 76 21 70 22 69 23
REMARK SMILES IDX 34 25 60 26 43 27 59 28 44 29 47 30 58 31 74 32 45 33 46 34
REMARK SMILES IDX 57 36 75 37 48 38 35 39 36 40 41 41 37 42 38 43 40 44 42 45
REMARK SMILES IDX 39 46 61 47 62 48 67 49 63 50 64 51 66 52 68 53 65 54 49 55
REMARK SMILES IDX 50 56 55 57 51 58 52 59 54 60 56 61 53 62 6 63 7 64 8 65
REMARK SMILES IDX 9 67 10 68 11 69 15 70 12 71 14 72 16 73 13 74 18 75 17 76
REMARK SMILES IDX 19 77 20 78 21 79 25 80 22 81 24 82 23 83
REMARK H PARENT 3 6 73 24 47 35 7 66
REMARK Flexibility Score: inf
ROOT
ATOM      1  C   UNL A   1      32.821  29.953  27.012  1.00  0.00     0.042 C 
ENDROOT
BRANCH   1   2
ATOM      2  C   UNL A   1      34.061  30.798  27.234  1.00  0.00     0.118 C 
BRANCH   2   3
ATOM      3  N   UNL A   1      34.012  31.639  28.443  1.00  0.00    -0.352 N 
ATOM      4  O   UNL A   1      34.689  32.215  30.548  1.00  0.00    -0.269 OA
ATOM      5  C   UNL A   1      34.949  31.715  29.478  1.00  0.00     0.251 C 
ATOM      6  H   UNL A   1      33.223  32.220  28.534  1.00  0.00     0.163 HD
BRANCH   5   7
ATOM      7  C   UNL A   1      36.288  31.163  29.200  1.00  0.00     0.039 A 
ATOM      8  C   UNL A   1      37.453  31.931  29.200  1.00  0.00     0.014 A 
ATOM      9  C   UNL A   1      36.344  29.785  29.126  1.00  0.00     0.014 A 
ATOM     10  C   UNL A   1      38.679  31.264  29.247  1.00  0.00     0.010 A 
ATOM     11  C   UNL A   1      37.496  29.181  29.523  1.00  0.00     0.010 A 
ATOM     12  C   UNL A   1      38.690  29.875  29.449  1.00  0.00    -0.014 A 
BRANCH  12  13
ATOM     13  C   UNL A   1      39.914  29.100  29.629  1.00  0.00     0.031 A 
ATOM     14  C   UNL A   1      40.365  28.942  31.035  1.00  0.00     0.074 A 
ATOM     15  C   UNL A   1      40.506  28.425  28.615  1.00  0.00     0.049 A 
ATOM     16  N   UNL A   1      41.388  29.504  31.588  1.00  0.00    -0.248 NA
ATOM     17  C   UNL A   1      39.516  28.196  31.975  1.00  0.00     0.031 C 
ATOM     18  C   UNL A   1      40.058  28.241  27.224  1.00  0.00     0.029 A 
ATOM     19  N   UNL A   1      41.633  27.665  28.649  1.00  0.00    -0.354 N 
ATOM     20  C   UNL A   1      41.443  29.011  32.889  1.00  0.00     0.074 A 
ATOM     21  C   UNL A   1      40.175  28.371  33.124  1.00  0.00     0.031 C 
ATOM     22  C   UNL A   1      40.744  27.236  26.644  1.00  0.00     0.029 A 
ATOM     23  C   UNL A   1      41.822  26.861  27.530  1.00  0.00     0.049 A 
ATOM     24  H   UNL A   1      42.263  27.680  29.405  1.00  0.00     0.167 HD
ATOM     25  C   UNL A   1      42.628  28.962  33.562  1.00  0.00     0.037 A 
ATOM     26  C   UNL A   1      42.813  25.961  27.328  1.00  0.00     0.037 A 
ATOM     27  C   UNL A   1      43.623  29.784  32.912  1.00  0.00     0.049 A 
ATOM     28  C   UNL A   1      43.914  26.318  28.252  1.00  0.00     0.074 A 
ATOM     29  C   UNL A   1      43.720  31.124  32.591  1.00  0.00     0.029 A 
ATOM     30  N   UNL A   1      44.563  29.150  32.136  1.00  0.00    -0.354 N 
ATOM     31  N   UNL A   1      44.633  27.401  28.130  1.00  0.00    -0.248 NA
ATOM     32  C   UNL A   1      43.893  25.731  29.583  1.00  0.00     0.031 C 
ATOM     33  C   UNL A   1      44.339  31.150  31.305  1.00  0.00     0.029 A 
ATOM     34  C   UNL A   1      44.652  29.836  30.952  1.00  0.00     0.049 A 
ATOM     35  H   UNL A   1      45.078  28.348  32.384  1.00  0.00     0.167 HD
ATOM     36  C   UNL A   1      44.783  27.873  29.426  1.00  0.00     0.074 A 
ATOM     37  C   UNL A   1      44.387  26.756  30.284  1.00  0.00     0.031 C 
ATOM     38  C   UNL A   1      44.926  29.209  29.679  1.00  0.00     0.037 A 
BRANCH  25  39
ATOM     39  C   UNL A   1      43.015  27.882  34.547  1.00  0.00     0.057 A 
ATOM     40  C   UNL A   1      42.883  27.992  35.946  1.00  0.00     0.134 A 
ATOM     41  C   UNL A   1      43.220  26.573  34.070  1.00  0.00     0.134 A 
ATOM     42  F   UNL A   1      42.643  29.154  36.562  1.00  0.00    -0.206 F 
ATOM     43  C   UNL A   1      42.888  26.882  36.796  1.00  0.00     0.040 A 
ATOM     44  C   UNL A   1      43.177  25.452  34.907  1.00  0.00     0.040 A 
ATOM     45  F   UNL A   1      43.377  26.335  32.759  1.00  0.00    -0.206 F 
ATOM     46  C   UNL A   1      42.993  25.604  36.274  1.00  0.00     0.006 A 
ENDBRANCH  25  39
BRANCH  26  47
ATOM     47  C   UNL A   1      42.766  24.697  26.565  1.00  0.00     0.057 A 
ATOM     48  C   UNL A   1      42.236  23.522  27.129  1.00  0.00     0.134 A 
ATOM     49  C   UNL A   1      43.478  24.541  25.370  1.00  0.00     0.134 A 
ATOM     50  F   UNL A   1      41.597  23.547  28.308  1.00  0.00    -0.206 F 
ATOM     51  C   UNL A   1      42.421  22.262  26.549  1.00  0.00     0.040 A 
ATOM     52  C   UNL A   1      43.678  23.284  24.782  1.00  0.00     0.040 A 
ATOM     53  F   UNL A   1      44.050  25.598  24.776  1.00  0.00    -0.206 F 
ATOM     54  C   UNL A   1      43.158  22.138  25.379  1.00  0.00     0.006 A 
ENDBRANCH  26  47
BRANCH  38  55
ATOM     55  C   UNL A   1      45.157  30.122  28.504  1.00  0.00     0.057 A 
ATOM     56  C   UNL A   1      46.469  30.473  28.168  1.00  0.00     0.134 A 
ATOM     57  C   UNL A   1      44.134  30.764  27.788  1.00  0.00     0.134 A 
ATOM     58  F   UNL A   1      47.502  29.951  28.847  1.00  0.00    -0.206 F 
ATOM     59  C   UNL A   1      46.752  31.398  27.158  1.00  0.00     0.040 A 
ATOM     60  C   UNL A   1      44.402  31.665  26.754  1.00  0.00     0.040 A 
ATOM     61  F   UNL A   1      42.847  30.577  28.102  1.00  0.00    -0.206 F 
ATOM     62  C   UNL A   1      45.716  31.988  26.438  1.00  0.00     0.006 A 
ENDBRANCH  38  55
ENDBRANCH  12  13
ENDBRANCH   5   7
ENDBRANCH   2   3
ENDBRANCH   1   2
BRANCH   1  63
ATOM     63  C   UNL A   1      33.003  28.513  27.491  1.00  0.00     0.118 C 
BRANCH  63  64
ATOM     64  N   UNL A   1      33.753  27.662  26.570  1.00  0.00    -0.352 N 
ATOM     65  C   UNL A   1      33.311  26.868  25.536  1.00  0.00     0.251 C 
ATOM     66  H   UNL A   1      34.727  27.656  26.711  1.00  0.00     0.163 HD
ATOM     67  O   UNL A   1      34.111  26.185  24.905  1.00  0.00    -0.269 OA
BRANCH  65  68
ATOM     68  C   UNL A   1      31.871  26.818  25.219  1.00  0.00     0.049 A 
ATOM     69  C   UNL A   1      31.048  25.840  25.796  1.00  0.00     0.014 A 
ATOM     70  C   UNL A   1      31.324  27.747  24.308  1.00  0.00     0.012 A 
ATOM     71  C   UNL A   1      29.737  25.682  25.362  1.00  0.00     0.003 A 
ATOM     72  C   UNL A   1      29.984  27.598  23.920  1.00  0.00     0.049 A 
ATOM     73  C   UNL A   1      31.842  28.871  23.606  1.00  0.00     0.029 A 
ATOM     74  C   UNL A   1      29.190  26.545  24.408  1.00  0.00     0.027 A 
ATOM     75  N   UNL A   1      29.704  28.630  23.042  1.00  0.00    -0.343 N 
ATOM     76  C   UNL A   1      30.844  29.358  22.799  1.00  0.00     0.087 A 
BRANCH  75  77
ATOM     77  C   UNL A   1      28.411  28.907  22.420  1.00  0.00     0.157 C 
BRANCH  77  78
ATOM     78  C   UNL A   1      28.216  30.379  22.145  1.00  0.00    -0.025 A 
ATOM     79  C   UNL A   1      28.092  30.859  20.836  1.00  0.00     0.025 A 
ATOM     80  C   UNL A   1      28.157  31.307  23.190  1.00  0.00     0.025 A 
ATOM     81  C   UNL A   1      27.941  32.221  20.628  1.00  0.00     0.111 A 
ATOM     82  C   UNL A   1      27.984  32.649  22.881  1.00  0.00     0.111 A 
ATOM     83  N   UNL A   1      27.877  33.126  21.624  1.00  0.00    -0.265 NA
ENDBRANCH  77  78
ENDBRANCH  75  77
ENDBRANCH  65  68
ENDBRANCH  63  64
ENDBRANCH   1  63
TORSDOF 12
ENDMDL
MODEL 3
REMARK VINA RESULT:     -12.5      3.192      7.371
REMARK SMILES O=C(NCCCNC(=O)c1cccc2c1ccn2Cc1ccncc1)c1ccc(-c2c3nc(c(-c4c(F)cccc4F)c4ccc([nH]4)c(-c4c(F)cccc4F)c4nc(c(-c5c(F)cccc5F)c5ccc2[nH]5)C=C4)C=C3)cc1
REMARK SMILES IDX 5 1 4 2 3 3 1 4 2 5 26 7 27 8 79 9 28 10 78 11 29 12 30 13
REMARK SMILES IDX 31 14 72 15 32 16 77 17 71 18 73 19 33 20 76 21 70 22 69 23
REMARK SMILES IDX 34 25 60 26 43 27 59 28 44 29 47 30 58 31 74 32 45 33 46 34
REMARK SMILES IDX 57 36 75 37 48 38 35 39 36 40 41 41 37 42 38 43 40 44 42 45
REMARK SMILES IDX 39 46 61 47 62 48 67 49 63 50 64 51 66 52 68 53 65 54 49 55
REMARK SMILES IDX 50 56 55 57 51 58 52 59 54 60 56 61 53 62 6 63 7 64 8 65
REMARK SMILES IDX 9 67 10 68 11 69 15 70 12 71 14 72 16 73 13 74 18 75 17 76
REMARK SMILES IDX 19 77 20 78 21 79 25 80 22 81 24 82 23 83
REMARK H PARENT 3 6 73 24 47 35 7 66
REMARK Flexibility Score: inf
ROOT
ATOM      1  C   UNL A   1      37.792  20.261  24.995  1.00  0.00     0.042 C 
ENDROOT
BRANCH   1   2
ATOM      2  C   UNL A   1      39.077  20.536  25.752  1.00  0.00     0.118 C 
BRANCH   2   3
ATOM      3  N   UNL A   1      40.019  19.403  25.780  1.00  0.00    -0.352 N 
ATOM      4  O   UNL A   1      42.115  18.498  25.692  1.00  0.00    -0.269 OA
ATOM      5  C   UNL A   1      41.404  19.438  25.963  1.00  0.00     0.251 C 
ATOM      6  H   UNL A   1      39.624  18.510  25.656  1.00  0.00     0.163 HD
BRANCH   5   7
ATOM      7  C   UNL A   1      41.967  20.683  26.520  1.00  0.00     0.039 A 
ATOM      8  C   UNL A   1      42.355  21.771  25.737  1.00  0.00     0.014 A 
ATOM      9  C   UNL A   1      41.909  20.781  27.896  1.00  0.00     0.014 A 
ATOM     10  C   UNL A   1      42.564  22.996  26.372  1.00  0.00     0.010 A 
ATOM     11  C   UNL A   1      41.770  22.023  28.432  1.00  0.00     0.010 A 
ATOM     12  C   UNL A   1      42.229  23.124  27.730  1.00  0.00    -0.014 A 
BRANCH  12  13
ATOM     13  C   UNL A   1      42.298  24.386  28.458  1.00  0.00     0.031 A 
ATOM     14  C   UNL A   1      41.155  25.309  28.243  1.00  0.00     0.074 A 
ATOM     15  C   UNL A   1      43.243  24.637  29.396  1.00  0.00     0.049 A 
ATOM     16  N   UNL A   1      41.166  26.416  27.579  1.00  0.00    -0.248 NA
ATOM     17  C   UNL A   1      39.815  24.896  28.687  1.00  0.00     0.031 C 
ATOM     18  C   UNL A   1      44.286  23.748  29.936  1.00  0.00     0.029 A 
ATOM     19  N   UNL A   1      43.413  25.757  30.147  1.00  0.00    -0.354 N 
ATOM     20  C   UNL A   1      39.889  26.955  27.705  1.00  0.00     0.074 A 
ATOM     21  C   UNL A   1      39.062  25.898  28.226  1.00  0.00     0.031 C 
ATOM     22  C   UNL A   1      44.789  24.260  31.077  1.00  0.00     0.029 A 
ATOM     23  C   UNL A   1      44.276  25.604  31.227  1.00  0.00     0.049 A 
ATOM     24  H   UNL A   1      42.962  26.608  29.945  1.00  0.00     0.167 HD
ATOM     25  C   UNL A   1      39.691  28.300  27.600  1.00  0.00     0.037 A 
ATOM     26  C   UNL A   1      44.575  26.525  32.173  1.00  0.00     0.037 A 
ATOM     27  C   UNL A   1      40.841  28.945  27.010  1.00  0.00     0.049 A 
ATOM     28  C   UNL A   1      44.228  27.850  31.608  1.00  0.00     0.074 A 
ATOM     29  C   UNL A   1      41.513  28.827  25.809  1.00  0.00     0.029 A 
ATOM     30  N   UNL A   1      41.706  29.600  27.853  1.00  0.00    -0.354 N 
ATOM     31  N   UNL A   1      44.873  28.401  30.617  1.00  0.00    -0.248 NA
ATOM     32  C   UNL A   1      42.872  28.335  31.815  1.00  0.00     0.031 C 
ATOM     33  C   UNL A   1      42.894  28.957  26.145  1.00  0.00     0.029 A 
ATOM     34  C   UNL A   1      42.980  29.222  27.513  1.00  0.00     0.049 A 
ATOM     35  H   UNL A   1      41.457  30.226  28.571  1.00  0.00     0.167 HD
ATOM     36  C   UNL A   1      43.886  28.957  29.817  1.00  0.00     0.074 A 
ATOM     37  C   UNL A   1      42.683  28.967  30.651  1.00  0.00     0.031 C 
ATOM     38  C   UNL A   1      44.057  29.082  28.467  1.00  0.00     0.037 A 
BRANCH  25  39
ATOM     39  C   UNL A   1      38.662  29.083  28.385  1.00  0.00     0.057 A 
ATOM     40  C   UNL A   1      37.546  29.729  27.817  1.00  0.00     0.134 A 
ATOM     41  C   UNL A   1      38.604  28.914  29.782  1.00  0.00     0.134 A 
ATOM     42  F   UNL A   1      37.419  29.934  26.501  1.00  0.00    -0.206 F 
ATOM     43  C   UNL A   1      36.431  30.116  28.568  1.00  0.00     0.040 A 
ATOM     44  C   UNL A   1      37.473  29.253  30.534  1.00  0.00     0.040 A 
ATOM     45  F   UNL A   1      39.610  28.328  30.447  1.00  0.00    -0.206 F 
ATOM     46  C   UNL A   1      36.374  29.841  29.923  1.00  0.00     0.006 A 
ENDBRANCH  25  39
BRANCH  26  47
ATOM     47  C   UNL A   1      44.913  26.308  33.594  1.00  0.00     0.057 A 
ATOM     48  C   UNL A   1      46.247  26.148  34.012  1.00  0.00     0.134 A 
ATOM     49  C   UNL A   1      43.929  25.986  34.536  1.00  0.00     0.134 A 
ATOM     50  F   UNL A   1      47.267  26.361  33.168  1.00  0.00    -0.206 F 
ATOM     51  C   UNL A   1      46.583  25.676  35.285  1.00  0.00     0.040 A 
ATOM     52  C   UNL A   1      44.250  25.505  35.813  1.00  0.00     0.040 A 
ATOM     53  F   UNL A   1      42.629  26.073  34.219  1.00  0.00    -0.206 F 
ATOM     54  C   UNL A   1      45.581  25.337  36.186  1.00  0.00     0.006 A 
ENDBRANCH  26  47
BRANCH  38  55
ATOM     55  C   UNL A   1      45.432  28.823  27.910  1.00  0.00     0.057 A 
ATOM     56  C   UNL A   1      46.292  29.906  27.701  1.00  0.00     0.134 A 
ATOM     57  C   UNL A   1      45.878  27.572  27.454  1.00  0.00     0.134 A 
ATOM     58  F   UNL A   1      45.914  31.145  28.051  1.00  0.00    -0.206 F 
ATOM     59  C   UNL A   1      47.540  29.753  27.090  1.00  0.00     0.040 A 
ATOM     60  C   UNL A   1      47.137  27.398  26.871  1.00  0.00     0.040 A 
ATOM     61  F   UNL A   1      45.089  26.493  27.511  1.00  0.00    -0.206 F 
ATOM     62  C   UNL A   1      47.972  28.493  26.684  1.00  0.00     0.006 A 
ENDBRANCH  38  55
ENDBRANCH  12  13
ENDBRANCH   5   7
ENDBRANCH   2   3
ENDBRANCH   1   2
BRANCH   1  63
ATOM     63  C   UNL A   1      36.790  21.409  25.111  1.00  0.00     0.118 C 
BRANCH  63  64
ATOM     64  N   UNL A   1      35.932  21.342  26.290  1.00  0.00    -0.352 N 
ATOM     65  C   UNL A   1      34.581  21.577  26.420  1.00  0.00     0.251 C 
ATOM     66  H   UNL A   1      36.391  21.089  27.124  1.00  0.00     0.163 HD
ATOM     67  O   UNL A   1      34.052  21.513  27.525  1.00  0.00    -0.269 OA
BRANCH  65  68
ATOM     68  C   UNL A   1      33.788  21.940  25.230  1.00  0.00     0.049 A 
ATOM     69  C   UNL A   1      33.123  20.953  24.488  1.00  0.00     0.014 A 
ATOM     70  C   UNL A   1      33.720  23.290  24.821  1.00  0.00     0.012 A 
ATOM     71  C   UNL A   1      32.529  21.271  23.273  1.00  0.00     0.003 A 
ATOM     72  C   UNL A   1      33.073  23.594  23.614  1.00  0.00     0.049 A 
ATOM     73  C   UNL A   1      34.209  24.514  25.356  1.00  0.00     0.029 A 
ATOM     74  C   UNL A   1      32.508  22.589  22.809  1.00  0.00     0.027 A 
ATOM     75  N   UNL A   1      33.141  24.967  23.457  1.00  0.00    -0.343 N 
ATOM     76  C   UNL A   1      33.886  25.515  24.474  1.00  0.00     0.087 A 
BRANCH  75  77
ATOM     77  C   UNL A   1      32.553  25.742  22.367  1.00  0.00     0.157 C 
BRANCH  77  78
ATOM     78  C   UNL A   1      31.251  26.393  22.770  1.00  0.00    -0.025 A 
ATOM     79  C   UNL A   1      30.311  25.708  23.549  1.00  0.00     0.025 A 
ATOM     80  C   UNL A   1      30.946  27.699  22.375  1.00  0.00     0.025 A 
ATOM     81  C   UNL A   1      29.118  26.335  23.873  1.00  0.00     0.111 A 
ATOM     82  C   UNL A   1      29.732  28.247  22.766  1.00  0.00     0.111 A 
ATOM     83  N   UNL A   1      28.812  27.593  23.505  1.00  0.00    -0.265 NA
ENDBRANCH  77  78
ENDBRANCH  75  77
ENDBRANCH  65  68
ENDBRANCH  63  64
ENDBRANCH   1  63
TORSDOF 12
ENDMDL
