MODEL 1
REMARK VINA RESULT:     -11.5      0.000      0.000
REMARK SMILES O=C(NCCCNC(=O)[C@@H]1CS[C@H](c2cccc([N+](=O)[O-])c2)[NH2+]1)c1ccc(-c2c3nc(c(-c4c(F)cccc4F)c4ccc([nH]4)c(-c4c(F)cccc4F)c4nc(c(-c5c(F)cccc5F)c5ccc2[nH]5)C=C4)C=C3)cc1
REMARK SMILES IDX 5 1 4 2 3 3 1 4 2 5 24 7 25 8 77 9 26 10 76 11 27 12 28 13
REMARK SMILES IDX 29 14 70 15 30 16 75 17 69 18 71 19 31 20 74 21 68 22 67 23
REMARK SMILES IDX 32 25 58 26 41 27 57 28 42 29 45 30 56 31 72 32 43 33 44 34
REMARK SMILES IDX 55 36 73 37 46 38 33 39 34 40 39 41 35 42 36 43 38 44 40 45
REMARK SMILES IDX 37 46 59 47 60 48 65 49 61 50 62 51 64 52 66 53 63 54 47 55
REMARK SMILES IDX 48 56 53 57 49 58 50 59 52 60 54 61 51 62 6 63 7 64 8 65
REMARK SMILES IDX 9 67 10 68 11 69 23 70 12 71 13 72 14 75 15 76 22 77 16 78
REMARK SMILES IDX 18 79 17 80 19 81 20 82 21 83
REMARK H PARENT 3 6 71 24 45 35 7 66 23 73 23 74
REMARK Flexibility Score: inf
ROOT
ATOM      1  C   UNL A   1      37.672  19.894  24.759  1.00  0.00     0.042 C 
ENDROOT
BRANCH   1   2
ATOM      2  C   UNL A   1      38.764  20.329  25.732  1.00  0.00     0.118 C 
BRANCH   2   3
ATOM      3  N   UNL A   1      39.858  19.371  25.795  1.00  0.00    -0.352 N 
ATOM      4  O   UNL A   1      41.993  18.661  25.805  1.00  0.00    -0.269 OA
ATOM      5  C   UNL A   1      41.192  19.568  26.036  1.00  0.00     0.251 C 
ATOM      6  H   UNL A   1      39.598  18.433  25.641  1.00  0.00     0.163 HD
BRANCH   5   7
ATOM      7  C   UNL A   1      41.679  20.855  26.570  1.00  0.00     0.039 A 
ATOM      8  C   UNL A   1      42.106  21.871  25.710  1.00  0.00     0.014 A 
ATOM      9  C   UNL A   1      41.632  21.083  27.949  1.00  0.00     0.014 A 
ATOM     10  C   UNL A   1      42.585  23.067  26.229  1.00  0.00     0.010 A 
ATOM     11  C   UNL A   1      42.034  22.318  28.466  1.00  0.00     0.010 A 
ATOM     12  C   UNL A   1      42.519  23.317  27.609  1.00  0.00    -0.014 A 
BRANCH  12  13
ATOM     13  C   UNL A   1      42.833  24.673  28.119  1.00  0.00     0.031 A 
ATOM     14  C   UNL A   1      41.755  25.692  28.344  1.00  0.00     0.074 A 
ATOM     15  C   UNL A   1      44.124  24.978  28.360  1.00  0.00     0.049 A 
ATOM     16  N   UNL A   1      41.871  26.932  28.747  1.00  0.00    -0.248 NA
ATOM     17  C   UNL A   1      40.370  25.274  28.077  1.00  0.00     0.031 C 
ATOM     18  C   UNL A   1      45.256  24.068  28.154  1.00  0.00     0.029 A 
ATOM     19  N   UNL A   1      44.706  26.130  28.822  1.00  0.00    -0.354 N 
ATOM     20  C   UNL A   1      40.582  27.449  28.762  1.00  0.00     0.074 A 
ATOM     21  C   UNL A   1      39.698  26.393  28.316  1.00  0.00     0.031 C 
ATOM     22  C   UNL A   1      46.391  24.690  28.504  1.00  0.00     0.029 A 
ATOM     23  C   UNL A   1      46.076  26.059  28.894  1.00  0.00     0.049 A 
ATOM     24  H   UNL A   1      44.193  26.929  29.077  1.00  0.00     0.167 HD
ATOM     25  C   UNL A   1      40.183  28.694  29.117  1.00  0.00     0.037 A 
ATOM     26  C   UNL A   1      46.987  27.001  29.199  1.00  0.00     0.037 A 
ATOM     27  C   UNL A   1      41.073  29.727  29.581  1.00  0.00     0.049 A 
ATOM     28  C   UNL A   1      46.511  28.380  29.552  1.00  0.00     0.074 A 
ATOM     29  C   UNL A   1      40.753  30.991  30.049  1.00  0.00     0.029 A 
ATOM     30  N   UNL A   1      42.455  29.624  29.620  1.00  0.00    -0.354 N 
ATOM     31  N   UNL A   1      45.283  28.831  29.640  1.00  0.00    -0.248 NA
ATOM     32  C   UNL A   1      47.544  29.384  29.837  1.00  0.00     0.031 C 
ATOM     33  C   UNL A   1      41.944  31.673  30.311  1.00  0.00     0.029 A 
ATOM     34  C   UNL A   1      43.004  30.820  30.056  1.00  0.00     0.049 A 
ATOM     35  H   UNL A   1      42.969  28.823  29.374  1.00  0.00     0.167 HD
ATOM     36  C   UNL A   1      45.395  30.166  29.998  1.00  0.00     0.074 A 
ATOM     37  C   UNL A   1      46.809  30.445  30.138  1.00  0.00     0.031 C 
ATOM     38  C   UNL A   1      44.414  31.081  30.184  1.00  0.00     0.037 A 
BRANCH  25  39
ATOM     39  C   UNL A   1      38.725  29.030  29.008  1.00  0.00     0.057 A 
ATOM     40  C   UNL A   1      37.857  28.940  30.102  1.00  0.00     0.134 A 
ATOM     41  C   UNL A   1      38.208  29.548  27.813  1.00  0.00     0.134 A 
ATOM     42  F   UNL A   1      38.287  28.447  31.273  1.00  0.00    -0.206 F 
ATOM     43  C   UNL A   1      36.525  29.349  30.010  1.00  0.00     0.040 A 
ATOM     44  C   UNL A   1      36.884  29.979  27.714  1.00  0.00     0.040 A 
ATOM     45  F   UNL A   1      38.989  29.668  26.728  1.00  0.00    -0.206 F 
ATOM     46  C   UNL A   1      36.038  29.880  28.816  1.00  0.00     0.006 A 
ENDBRANCH  25  39
BRANCH  26  47
ATOM     47  C   UNL A   1      48.436  26.686  29.133  1.00  0.00     0.057 A 
ATOM     48  C   UNL A   1      49.175  26.898  27.965  1.00  0.00     0.134 A 
ATOM     49  C   UNL A   1      49.111  26.151  30.237  1.00  0.00     0.134 A 
ATOM     50  F   UNL A   1      48.580  27.391  26.870  1.00  0.00    -0.206 F 
ATOM     51  C   UNL A   1      50.530  26.569  27.889  1.00  0.00     0.040 A 
ATOM     52  C   UNL A   1      50.472  25.846  30.186  1.00  0.00     0.040 A 
ATOM     53  F   UNL A   1      48.461  25.931  31.389  1.00  0.00    -0.206 F 
ATOM     54  C   UNL A   1      51.182  26.047  29.005  1.00  0.00     0.006 A 
ENDBRANCH  26  47
BRANCH  38  55
ATOM     55  C   UNL A   1      44.840  32.467  30.565  1.00  0.00     0.057 A 
ATOM     56  C   UNL A   1      45.101  32.813  31.897  1.00  0.00     0.134 A 
ATOM     57  C   UNL A   1      45.030  33.452  29.588  1.00  0.00     0.134 A 
ATOM     58  F   UNL A   1      44.919  31.918  32.880  1.00  0.00    -0.206 F 
ATOM     59  C   UNL A   1      45.521  34.097  32.246  1.00  0.00     0.040 A 
ATOM     60  C   UNL A   1      45.477  34.731  29.923  1.00  0.00     0.040 A 
ATOM     61  F   UNL A   1      44.804  33.183  28.294  1.00  0.00    -0.206 F 
ATOM     62  C   UNL A   1      45.719  35.057  31.256  1.00  0.00     0.006 A 
ENDBRANCH  38  55
ENDBRANCH  12  13
ENDBRANCH   5   7
ENDBRANCH   2   3
ENDBRANCH   1   2
BRANCH   1  63
ATOM     63  C   UNL A   1      36.327  20.565  25.019  1.00  0.00     0.118 C 
BRANCH  63  64
ATOM     64  N   UNL A   1      36.492  21.964  25.356  1.00  0.00    -0.351 N 
ATOM     65  C   UNL A   1      35.562  22.926  25.614  1.00  0.00     0.279 C 
ATOM     66  H   UNL A   1      37.428  22.269  25.407  1.00  0.00     0.163 HD
ATOM     67  O   UNL A   1      35.974  24.086  25.651  1.00  0.00    -0.268 OA
BRANCH  65  68
ATOM     68  C   UNL A   1      34.082  22.541  25.791  1.00  0.00     0.283 C 
ATOM     69  C   UNL A   1      33.412  22.461  24.422  1.00  0.00     0.151 C 
ATOM     70  N   UNL A   1      33.389  23.493  26.715  1.00  0.00    -0.321 N 
ATOM     71  S   UNL A   1      31.770  23.133  24.706  1.00  0.00    -0.088 SA
ATOM     72  C   UNL A   1      32.392  24.277  25.969  1.00  0.00     0.274 C 
ATOM     73  H   UNL A   1      34.076  24.125  27.127  1.00  0.00     0.348 HD
ATOM     74  H   UNL A   1      32.920  22.967  27.452  1.00  0.00     0.348 HD
BRANCH  72  75
ATOM     75  C   UNL A   1      32.938  25.589  25.412  1.00  0.00     0.027 A 
ATOM     76  C   UNL A   1      33.249  26.675  26.254  1.00  0.00     0.011 A 
ATOM     77  C   UNL A   1      33.201  25.737  24.037  1.00  0.00     0.096 A 
ATOM     78  C   UNL A   1      33.706  27.891  25.735  1.00  0.00     0.008 A 
ATOM     79  C   UNL A   1      33.622  26.966  23.515  1.00  0.00     0.269 A 
ATOM     80  C   UNL A   1      33.874  28.049  24.361  1.00  0.00     0.085 A 
BRANCH  79  81
ATOM     81  N   UNL A   1      33.775  27.123  22.064  1.00  0.00     0.062 N 
ATOM     82  O   UNL A   1      34.196  28.213  21.647  1.00  0.00    -0.258 OA
ATOM     83  O   UNL A   1      33.498  26.155  21.340  1.00  0.00    -0.258 OA
ENDBRANCH  79  81
ENDBRANCH  72  75
ENDBRANCH  65  68
ENDBRANCH  63  64
ENDBRANCH   1  63
TORSDOF 12
ENDMDL
MODEL 2
REMARK VINA RESULT:     -11.4      0.959      1.968
REMARK SMILES O=C(NCCCNC(=O)[C@@H]1CS[C@H](c2cccc([N+](=O)[O-])c2)[NH2+]1)c1ccc(-c2c3nc(c(-c4c(F)cccc4F)c4ccc([nH]4)c(-c4c(F)cccc4F)c4nc(c(-c5c(F)cccc5F)c5ccc2[nH]5)C=C4)C=C3)cc1
REMARK SMILES IDX 5 1 4 2 3 3 1 4 2 5 24 7 25 8 77 9 26 10 76 11 27 12 28 13
REMARK SMILES IDX 29 14 70 15 30 16 75 17 69 18 71 19 31 20 74 21 68 22 67 23
REMARK SMILES IDX 32 25 58 26 41 27 57 28 42 29 45 30 56 31 72 32 43 33 44 34
REMARK SMILES IDX 55 36 73 37 46 38 33 39 34 40 39 41 35 42 36 43 38 44 40 45
REMARK SMILES IDX 37 46 59 47 60 48 65 49 61 50 62 51 64 52 66 53 63 54 47 55
REMARK SMILES IDX 48 56 53 57 49 58 50 59 52 60 54 61 51 62 6 63 7 64 8 65
REMARK SMILES IDX 9 67 10 68 11 69 23 70 12 71 13 72 14 75 15 76 22 77 16 78
REMARK SMILES IDX 18 79 17 80 19 81 20 82 21 83
REMARK H PARENT 3 6 71 24 45 35 7 66 23 73 23 74
REMARK Flexibility Score: inf
ROOT
ATOM      1  C   UNL A   1      37.829  19.893  24.722  1.00  0.00     0.042 C 
ENDROOT
BRANCH   1   2
ATOM      2  C   UNL A   1      38.892  20.277  25.746  1.00  0.00     0.118 C 
BRANCH   2   3
ATOM      3  N   UNL A   1      39.918  19.253  25.884  1.00  0.00    -0.352 N 
ATOM      4  O   UNL A   1      41.998  18.398  25.929  1.00  0.00    -0.269 OA
ATOM      5  C   UNL A   1      41.268  19.377  26.084  1.00  0.00     0.251 C 
ATOM      6  H   UNL A   1      39.591  18.326  25.827  1.00  0.00     0.163 HD
BRANCH   5   7
ATOM      7  C   UNL A   1      41.855  20.672  26.483  1.00  0.00     0.039 A 
ATOM      8  C   UNL A   1      42.245  21.607  25.520  1.00  0.00     0.014 A 
ATOM      9  C   UNL A   1      41.942  20.991  27.841  1.00  0.00     0.014 A 
ATOM     10  C   UNL A   1      42.819  22.810  25.912  1.00  0.00     0.010 A 
ATOM     11  C   UNL A   1      42.440  22.236  28.234  1.00  0.00     0.010 A 
ATOM     12  C   UNL A   1      42.888  23.152  27.271  1.00  0.00    -0.014 A 
BRANCH  12  13
ATOM     13  C   UNL A   1      43.304  24.523  27.656  1.00  0.00     0.031 A 
ATOM     14  C   UNL A   1      42.295  25.575  28.010  1.00  0.00     0.074 A 
ATOM     15  C   UNL A   1      44.621  24.808  27.663  1.00  0.00     0.049 A 
ATOM     16  N   UNL A   1      42.495  26.829  28.328  1.00  0.00    -0.248 NA
ATOM     17  C   UNL A   1      40.878  25.177  27.998  1.00  0.00     0.031 C 
ATOM     18  C   UNL A   1      45.689  23.865  27.314  1.00  0.00     0.029 A 
ATOM     19  N   UNL A   1      45.291  25.966  27.966  1.00  0.00    -0.354 N 
ATOM     20  C   UNL A   1      41.235  27.375  28.534  1.00  0.00     0.074 A 
ATOM     21  C   UNL A   1      40.273  26.321  28.293  1.00  0.00     0.031 C 
ATOM     22  C   UNL A   1      46.876  24.476  27.439  1.00  0.00     0.029 A 
ATOM     23  C   UNL A   1      46.652  25.867  27.811  1.00  0.00     0.049 A 
ATOM     24  H   UNL A   1      44.839  26.788  28.265  1.00  0.00     0.167 HD
ATOM     25  C   UNL A   1      40.921  28.643  28.891  1.00  0.00     0.037 A 
ATOM     26  C   UNL A   1      47.615  26.801  27.914  1.00  0.00     0.037 A 
ATOM     27  C   UNL A   1      41.891  29.676  29.150  1.00  0.00     0.049 A 
ATOM     28  C   UNL A   1      47.226  28.205  28.275  1.00  0.00     0.074 A 
ATOM     29  C   UNL A   1      41.673  30.966  29.604  1.00  0.00     0.029 A 
ATOM     30  N   UNL A   1      43.258  29.543  28.962  1.00  0.00    -0.354 N 
ATOM     31  N   UNL A   1      46.037  28.687  28.546  1.00  0.00    -0.248 NA
ATOM     32  C   UNL A   1      48.307  29.197  28.336  1.00  0.00     0.031 C 
ATOM     33  C   UNL A   1      42.902  31.632  29.631  1.00  0.00     0.029 A 
ATOM     34  C   UNL A   1      43.891  30.744  29.243  1.00  0.00     0.049 A 
ATOM     35  H   UNL A   1      43.712  28.720  28.671  1.00  0.00     0.167 HD
ATOM     36  C   UNL A   1      46.228  30.034  28.816  1.00  0.00     0.074 A 
ATOM     37  C   UNL A   1      47.649  30.287  28.705  1.00  0.00     0.031 C 
ATOM     38  C   UNL A   1      45.306  30.979  29.120  1.00  0.00     0.037 A 
BRANCH  25  39
ATOM     39  C   UNL A   1      39.470  29.008  29.012  1.00  0.00     0.057 A 
ATOM     40  C   UNL A   1      38.713  29.419  27.909  1.00  0.00     0.134 A 
ATOM     41  C   UNL A   1      38.801  28.847  30.233  1.00  0.00     0.134 A 
ATOM     42  F   UNL A   1      39.294  29.598  26.714  1.00  0.00    -0.206 F 
ATOM     43  C   UNL A   1      37.341  29.661  28.017  1.00  0.00     0.040 A 
ATOM     44  C   UNL A   1      37.428  29.067  30.349  1.00  0.00     0.040 A 
ATOM     45  F   UNL A   1      39.468  28.448  31.327  1.00  0.00    -0.206 F 
ATOM     46  C   UNL A   1      36.694  29.475  29.238  1.00  0.00     0.006 A 
ENDBRANCH  25  39
BRANCH  26  47
ATOM     47  C   UNL A   1      49.027  26.450  27.622  1.00  0.00     0.057 A 
ATOM     48  C   UNL A   1      49.897  26.031  28.633  1.00  0.00     0.134 A 
ATOM     49  C   UNL A   1      49.541  26.538  26.322  1.00  0.00     0.134 A 
ATOM     50  F   UNL A   1      49.468  25.943  29.900  1.00  0.00    -0.206 F 
ATOM     51  C   UNL A   1      51.235  25.734  28.367  1.00  0.00     0.040 A 
ATOM     52  C   UNL A   1      50.868  26.215  26.036  1.00  0.00     0.040 A 
ATOM     53  F   UNL A   1      48.756  26.926  25.307  1.00  0.00    -0.206 F 
ATOM     54  C   UNL A   1      51.722  25.820  27.064  1.00  0.00     0.006 A 
ENDBRANCH  26  47
BRANCH  38  55
ATOM     55  C   UNL A   1      45.810  32.370  29.358  1.00  0.00     0.057 A 
ATOM     56  C   UNL A   1      45.870  33.314  28.325  1.00  0.00     0.134 A 
ATOM     57  C   UNL A   1      46.200  32.782  30.638  1.00  0.00     0.134 A 
ATOM     58  F   UNL A   1      45.527  32.974  27.072  1.00  0.00    -0.206 F 
ATOM     59  C   UNL A   1      46.315  34.616  28.554  1.00  0.00     0.040 A 
ATOM     60  C   UNL A   1      46.621  34.090  30.884  1.00  0.00     0.040 A 
ATOM     61  F   UNL A   1      46.160  31.928  31.672  1.00  0.00    -0.206 F 
ATOM     62  C   UNL A   1      46.684  35.009  29.839  1.00  0.00     0.006 A 
ENDBRANCH  38  55
ENDBRANCH  12  13
ENDBRANCH   5   7
ENDBRANCH   2   3
ENDBRANCH   1   2
BRANCH   1  63
ATOM     63  C   UNL A   1      36.444  20.441  25.051  1.00  0.00     0.118 C 
BRANCH  63  64
ATOM     64  N   UNL A   1      36.522  21.790  25.572  1.00  0.00    -0.351 N 
ATOM     65  C   UNL A   1      35.537  22.697  25.824  1.00  0.00     0.279 C 
ATOM     66  H   UNL A   1      37.434  22.102  25.778  1.00  0.00     0.163 HD
ATOM     67  O   UNL A   1      35.904  23.851  26.053  1.00  0.00    -0.268 OA
BRANCH  65  68
ATOM     68  C   UNL A   1      34.059  22.270  25.764  1.00  0.00     0.283 C 
ATOM     69  C   UNL A   1      33.616  22.185  24.306  1.00  0.00     0.151 C 
ATOM     70  N   UNL A   1      33.202  23.193  26.572  1.00  0.00    -0.321 N 
ATOM     71  S   UNL A   1      31.930  22.808  24.331  1.00  0.00    -0.088 SA
ATOM     72  C   UNL A   1      32.313  23.956  25.682  1.00  0.00     0.274 C 
ATOM     73  H   UNL A   1      33.798  23.839  27.091  1.00  0.00     0.348 HD
ATOM     74  H   UNL A   1      32.638  22.646  27.222  1.00  0.00     0.348 HD
BRANCH  72  75
ATOM     75  C   UNL A   1      32.901  25.289  25.226  1.00  0.00     0.027 A 
ATOM     76  C   UNL A   1      33.271  26.287  26.148  1.00  0.00     0.011 A 
ATOM     77  C   UNL A   1      33.144  25.542  23.863  1.00  0.00     0.096 A 
ATOM     78  C   UNL A   1      33.768  27.524  25.724  1.00  0.00     0.008 A 
ATOM     79  C   UNL A   1      33.605  26.793  23.436  1.00  0.00     0.269 A 
ATOM     80  C   UNL A   1      33.917  27.790  24.364  1.00  0.00     0.085 A 
BRANCH  79  81
ATOM     81  N   UNL A   1      33.737  27.067  22.001  1.00  0.00     0.062 N 
ATOM     82  O   UNL A   1      33.403  26.169  21.213  1.00  0.00    -0.258 OA
ATOM     83  O   UNL A   1      34.153  28.183  21.656  1.00  0.00    -0.258 OA
ENDBRANCH  79  81
ENDBRANCH  72  75
ENDBRANCH  65  68
ENDBRANCH  63  64
ENDBRANCH   1  63
TORSDOF 12
ENDMDL
MODEL 3
REMARK VINA RESULT:     -11.4      0.395      6.403
REMARK SMILES O=C(NCCCNC(=O)[C@@H]1CS[C@H](c2cccc([N+](=O)[O-])c2)[NH2+]1)c1ccc(-c2c3nc(c(-c4c(F)cccc4F)c4ccc([nH]4)c(-c4c(F)cccc4F)c4nc(c(-c5c(F)cccc5F)c5ccc2[nH]5)C=C4)C=C3)cc1
REMARK SMILES IDX 5 1 4 2 3 3 1 4 2 5 24 7 25 8 77 9 26 10 76 11 27 12 28 13
REMARK SMILES IDX 29 14 70 15 30 16 75 17 69 18 71 19 31 20 74 21 68 22 67 23
REMARK SMILES IDX 32 25 58 26 41 27 57 28 42 29 45 30 56 31 72 32 43 33 44 34
REMARK SMILES IDX 55 36 73 37 46 38 33 39 34 40 39 41 35 42 36 43 38 44 40 45
REMARK SMILES IDX 37 46 59 47 60 48 65 49 61 50 62 51 64 52 66 53 63 54 47 55
REMARK SMILES IDX 48 56 53 57 49 58 50 59 52 60 54 61 51 62 6 63 7 64 8 65
REMARK SMILES IDX 9 67 10 68 11 69 23 70 12 71 13 72 14 75 15 76 22 77 16 78
REMARK SMILES IDX 18 79 17 80 19 81 20 82 21 83
REMARK H PARENT 3 6 71 24 45 35 7 66 23 73 23 74
REMARK Flexibility Score: inf
ROOT
ATOM      1  C   UNL A   1      37.682  19.938  24.790  1.00  0.00     0.042 C 
ENDROOT
BRANCH   1   2
ATOM      2  C   UNL A   1      38.824  20.437  25.670  1.00  0.00     0.118 C 
BRANCH   2   3
ATOM      3  N   UNL A   1      39.891  19.455  25.797  1.00  0.00    -0.352 N 
ATOM      4  O   UNL A   1      42.006  18.694  25.894  1.00  0.00    -0.269 OA
ATOM      5  C   UNL A   1      41.222  19.628  26.070  1.00  0.00     0.251 C 
ATOM      6  H   UNL A   1      39.612  18.519  25.668  1.00  0.00     0.163 HD
BRANCH   5   7
ATOM      7  C   UNL A   1      41.726  20.921  26.575  1.00  0.00     0.039 A 
ATOM      8  C   UNL A   1      42.217  21.889  25.695  1.00  0.00     0.014 A 
ATOM      9  C   UNL A   1      41.631  21.203  27.941  1.00  0.00     0.014 A 
ATOM     10  C   UNL A   1      42.712  23.091  26.188  1.00  0.00     0.010 A 
ATOM     11  C   UNL A   1      42.049  22.445  28.427  1.00  0.00     0.010 A 
ATOM     12  C   UNL A   1      42.598  23.395  27.554  1.00  0.00    -0.014 A 
BRANCH  12  13
ATOM     13  C   UNL A   1      42.933  24.761  28.025  1.00  0.00     0.031 A 
ATOM     14  C   UNL A   1      44.339  25.142  28.382  1.00  0.00     0.074 A 
ATOM     15  C   UNL A   1      41.930  25.655  28.143  1.00  0.00     0.049 A 
ATOM     16  N   UNL A   1      44.787  26.281  28.847  1.00  0.00    -0.248 NA
ATOM     17  C   UNL A   1      45.378  24.115  28.205  1.00  0.00     0.031 C 
ATOM     18  C   UNL A   1      40.521  25.384  27.844  1.00  0.00     0.029 A 
ATOM     19  N   UNL A   1      41.935  26.964  28.549  1.00  0.00    -0.354 N 
ATOM     20  C   UNL A   1      46.151  26.104  29.038  1.00  0.00     0.074 A 
ATOM     21  C   UNL A   1      46.458  24.744  28.651  1.00  0.00     0.031 C 
ATOM     22  C   UNL A   1      39.802  26.494  28.059  1.00  0.00     0.029 A 
ATOM     23  C   UNL A   1      40.685  27.533  28.574  1.00  0.00     0.049 A 
ATOM     24  H   UNL A   1      42.754  27.449  28.799  1.00  0.00     0.167 HD
ATOM     25  C   UNL A   1      47.055  27.002  29.495  1.00  0.00     0.037 A 
ATOM     26  C   UNL A   1      40.282  28.743  29.003  1.00  0.00     0.037 A 
ATOM     27  C   UNL A   1      46.738  28.360  29.855  1.00  0.00     0.049 A 
ATOM     28  C   UNL A   1      41.307  29.700  29.539  1.00  0.00     0.074 A 
ATOM     29  C   UNL A   1      47.601  29.370  30.244  1.00  0.00     0.029 A 
ATOM     30  N   UNL A   1      45.458  28.892  29.887  1.00  0.00    -0.354 N 
ATOM     31  N   UNL A   1      42.605  29.546  29.637  1.00  0.00    -0.248 NA
ATOM     32  C   UNL A   1      40.813  30.992  30.032  1.00  0.00     0.031 C 
ATOM     33  C   UNL A   1      46.838  30.495  30.570  1.00  0.00     0.029 A 
ATOM     34  C   UNL A   1      45.504  30.202  30.337  1.00  0.00     0.049 A 
ATOM     35  H   UNL A   1      44.639  28.412  29.629  1.00  0.00     0.167 HD
ATOM     36  C   UNL A   1      43.084  30.722  30.195  1.00  0.00     0.074 A 
ATOM     37  C   UNL A   1      41.942  31.590  30.388  1.00  0.00     0.031 C 
ATOM     38  C   UNL A   1      44.356  31.049  30.528  1.00  0.00     0.037 A 
BRANCH  25  39
ATOM     39  C   UNL A   1      48.479  26.556  29.656  1.00  0.00     0.057 A 
ATOM     40  C   UNL A   1      49.447  26.787  28.672  1.00  0.00     0.134 A 
ATOM     41  C   UNL A   1      48.905  25.975  30.859  1.00  0.00     0.134 A 
ATOM     42  F   UNL A   1      49.104  27.334  27.496  1.00  0.00    -0.206 F 
ATOM     43  C   UNL A   1      50.788  26.455  28.877  1.00  0.00     0.040 A 
ATOM     44  C   UNL A   1      50.245  25.657  31.083  1.00  0.00     0.040 A 
ATOM     45  F   UNL A   1      48.029  25.733  31.846  1.00  0.00    -0.206 F 
ATOM     46  C   UNL A   1      51.192  25.896  30.089  1.00  0.00     0.006 A 
ENDBRANCH  25  39
BRANCH  26  47
ATOM     47  C   UNL A   1      38.840  29.096  28.991  1.00  0.00     0.057 A 
ATOM     48  C   UNL A   1      38.053  28.983  30.141  1.00  0.00     0.134 A 
ATOM     49  C   UNL A   1      38.213  29.541  27.820  1.00  0.00     0.134 A 
ATOM     50  F   UNL A   1      38.592  28.546  31.288  1.00  0.00    -0.206 F 
ATOM     51  C   UNL A   1      36.689  29.281  30.124  1.00  0.00     0.040 A 
ATOM     52  C   UNL A   1      36.858  29.871  27.795  1.00  0.00     0.040 A 
ATOM     53  F   UNL A   1      38.914  29.678  26.685  1.00  0.00    -0.206 F 
ATOM     54  C   UNL A   1      36.090  29.731  28.949  1.00  0.00     0.006 A 
ENDBRANCH  26  47
BRANCH  38  55
ATOM     55  C   UNL A   1      44.575  32.405  31.128  1.00  0.00     0.057 A 
ATOM     56  C   UNL A   1      44.578  32.600  32.515  1.00  0.00     0.134 A 
ATOM     57  C   UNL A   1      44.827  33.516  30.315  1.00  0.00     0.134 A 
ATOM     58  F   UNL A   1      44.324  31.577  33.347  1.00  0.00    -0.206 F 
ATOM     59  C   UNL A   1      44.807  33.858  33.073  1.00  0.00     0.040 A 
ATOM     60  C   UNL A   1      45.086  34.774  30.862  1.00  0.00     0.040 A 
ATOM     61  F   UNL A   1      44.845  33.395  28.980  1.00  0.00    -0.206 F 
ATOM     62  C   UNL A   1      45.071  34.948  32.245  1.00  0.00     0.006 A 
ENDBRANCH  38  55
ENDBRANCH  12  13
ENDBRANCH   5   7
ENDBRANCH   2   3
ENDBRANCH   1   2
BRANCH   1  63
ATOM     63  C   UNL A   1      36.340  20.585  25.114  1.00  0.00     0.118 C 
BRANCH  63  64
ATOM     64  N   UNL A   1      36.497  21.985  25.448  1.00  0.00    -0.351 N 
ATOM     65  C   UNL A   1      35.561  22.946  25.686  1.00  0.00     0.279 C 
ATOM     66  H   UNL A   1      37.431  22.292  25.514  1.00  0.00     0.163 HD
ATOM     67  O   UNL A   1      35.969  24.108  25.725  1.00  0.00    -0.268 OA
BRANCH  65  68
ATOM     68  C   UNL A   1      34.078  22.560  25.839  1.00  0.00     0.283 C 
ATOM     69  C   UNL A   1      33.437  22.454  24.458  1.00  0.00     0.151 C 
ATOM     70  N   UNL A   1      33.363  23.525  26.731  1.00  0.00    -0.321 N 
ATOM     71  S   UNL A   1      31.787  23.125  24.696  1.00  0.00    -0.088 SA
ATOM     72  C   UNL A   1      32.380  24.292  25.951  1.00  0.00     0.274 C 
ATOM     73  H   UNL A   1      34.040  24.166  27.147  1.00  0.00     0.348 HD
ATOM     74  H   UNL A   1      32.880  23.009  27.467  1.00  0.00     0.348 HD
BRANCH  72  75
ATOM     75  C   UNL A   1      32.933  25.597  25.384  1.00  0.00     0.027 A 
ATOM     76  C   UNL A   1      33.265  26.683  26.217  1.00  0.00     0.011 A 
ATOM     77  C   UNL A   1      33.182  25.736  24.005  1.00  0.00     0.096 A 
ATOM     78  C   UNL A   1      33.729  27.892  25.689  1.00  0.00     0.008 A 
ATOM     79  C   UNL A   1      33.610  26.959  23.474  1.00  0.00     0.269 A 
ATOM     80  C   UNL A   1      33.883  28.043  24.313  1.00  0.00     0.085 A 
BRANCH  79  81
ATOM     81  N   UNL A   1      33.748  27.110  22.020  1.00  0.00     0.062 N 
ATOM     82  O   UNL A   1      34.177  28.193  21.595  1.00  0.00    -0.258 OA
ATOM     83  O   UNL A   1      33.451  26.143  21.303  1.00  0.00    -0.258 OA
ENDBRANCH  79  81
ENDBRANCH  72  75
ENDBRANCH  65  68
ENDBRANCH  63  64
ENDBRANCH   1  63
TORSDOF 12
ENDMDL
