MODEL 1
REMARK VINA RESULT:     -11.5      0.000      0.000
REMARK SMILES CC1(C)[C@@H](C(=O)NCCCNC(=O)c2ccc(-c3c4nc(c(-c5c(F)cccc5F)c5ccc([nH]5)c(-c5c(F)cccc5F)c5nc(c(-c6c(F)cccc6F)c6ccc3[nH]6)C=C5)C=C4)cc2)CC[C@@]1(C)C(N)=O
REMARK SMILES IDX 9 1 8 2 7 3 5 4 6 5 4 7 1 8 2 9 3 10 70 11 68 12 69 13 71 14
REMARK SMILES IDX 72 15 73 16 74 17 10 20 11 21 12 22 13 24 14 25 15 26 67 27
REMARK SMILES IDX 16 28 66 29 17 30 18 31 19 32 60 33 20 34 65 35 59 36 61 37
REMARK SMILES IDX 21 38 64 39 58 40 57 41 22 43 48 44 31 45 47 46 32 47 35 48
REMARK SMILES IDX 46 49 62 50 33 51 34 52 45 54 63 55 36 56 23 57 24 58 29 59
REMARK SMILES IDX 25 60 26 61 28 62 30 63 27 64 49 65 50 66 55 67 51 68 52 69
REMARK SMILES IDX 54 70 56 71 53 72 37 73 38 74 43 75 39 76 40 77 42 78 44 79
REMARK SMILES IDX 41 80
REMARK H PARENT 7 6 73 18 73 19 11 23 61 42 35 53
REMARK Flexibility Score: inf
ROOT
ATOM      1  C   UNL A   1      37.547  19.755  25.001  1.00  0.00     0.042 C 
ENDROOT
BRANCH   1   2
ATOM      2  C   UNL A   1      36.529  20.856  24.727  1.00  0.00     0.117 C 
BRANCH   2   3
ATOM      3  N   UNL A   1      35.172  20.419  24.999  1.00  0.00    -0.356 N 
ATOM      4  C   UNL A   1      33.982  21.038  24.754  1.00  0.00     0.223 C 
ATOM      5  O   UNL A   1      32.959  20.423  25.051  1.00  0.00    -0.275 OA
ATOM      6  H   UNL A   1      35.099  19.538  25.430  1.00  0.00     0.163 HD
BRANCH   4   7
ATOM      7  C   UNL A   1      33.971  22.377  24.019  1.00  0.00     0.085 C 
ATOM      8  C   UNL A   1      34.392  23.696  26.180  1.00  0.00     0.013 C 
ATOM      9  C   UNL A   1      33.644  23.661  24.835  1.00  0.00    -0.010 C 
ATOM     10  C   UNL A   1      34.201  24.875  24.026  1.00  0.00     0.013 C 
ATOM     11  C   UNL A   1      32.064  23.693  24.921  1.00  0.00     0.052 C 
ATOM     12  C   UNL A   1      32.849  22.327  22.984  1.00  0.00     0.015 C 
ATOM     13  C   UNL A   1      31.597  22.831  23.710  1.00  0.00     0.018 C 
ATOM     14  C   UNL A   1      31.456  25.109  24.754  1.00  0.00     0.022 C 
BRANCH  11  15
ATOM     15  C   UNL A   1      31.517  23.255  26.309  1.00  0.00     0.223 C 
ATOM     16  N   UNL A   1      31.129  21.972  26.503  1.00  0.00    -0.369 N 
ATOM     17  O   UNL A   1      31.410  24.042  27.251  1.00  0.00    -0.275 OA
ATOM     18  H   UNL A   1      31.201  21.319  25.771  1.00  0.00     0.159 HD
ATOM     19  H   UNL A   1      30.773  21.693  27.378  1.00  0.00     0.159 HD
ENDBRANCH  11  15
ENDBRANCH   4   7
ENDBRANCH   2   3
ENDBRANCH   1   2
BRANCH   1  20
ATOM     20  C   UNL A   1      38.831  20.241  25.674  1.00  0.00     0.118 C 
BRANCH  20  21
ATOM     21  N   UNL A   1      39.849  19.203  25.775  1.00  0.00    -0.352 N 
ATOM     22  C   UNL A   1      41.196  19.298  26.012  1.00  0.00     0.251 C 
ATOM     23  H   UNL A   1      39.516  18.285  25.653  1.00  0.00     0.163 HD
ATOM     24  O   UNL A   1      41.903  18.295  25.890  1.00  0.00    -0.269 OA
BRANCH  22  25
ATOM     25  C   UNL A   1      41.814  20.585  26.389  1.00  0.00     0.039 A 
ATOM     26  C   UNL A   1      42.244  21.447  25.376  1.00  0.00     0.014 A 
ATOM     27  C   UNL A   1      42.002  20.936  27.729  1.00  0.00     0.014 A 
ATOM     28  C   UNL A   1      42.794  22.689  25.703  1.00  0.00     0.010 A 
ATOM     29  C   UNL A   1      42.483  22.203  28.054  1.00  0.00     0.010 A 
ATOM     30  C   UNL A   1      42.881  23.094  27.045  1.00  0.00    -0.014 A 
BRANCH  30  31
ATOM     31  C   UNL A   1      43.368  24.448  27.411  1.00  0.00     0.031 A 
ATOM     32  C   UNL A   1      42.402  25.513  27.846  1.00  0.00     0.074 A 
ATOM     33  C   UNL A   1      44.679  24.737  27.286  1.00  0.00     0.049 A 
ATOM     34  N   UNL A   1      42.630  26.772  28.128  1.00  0.00    -0.248 NA
ATOM     35  C   UNL A   1      40.989  25.120  27.959  1.00  0.00     0.031 C 
ATOM     36  C   UNL A   1      45.713  23.804  26.837  1.00  0.00     0.029 A 
ATOM     37  N   UNL A   1      45.363  25.905  27.517  1.00  0.00    -0.354 N 
ATOM     38  C   UNL A   1      41.392  27.321  28.439  1.00  0.00     0.074 A 
ATOM     39  C   UNL A   1      40.410  26.273  28.262  1.00  0.00     0.031 C 
ATOM     40  C   UNL A   1      46.902  24.427  26.847  1.00  0.00     0.029 A 
ATOM     41  C   UNL A   1      46.710  25.813  27.260  1.00  0.00     0.049 A 
ATOM     42  H   UNL A   1      44.930  26.729  27.836  1.00  0.00     0.167 HD
ATOM     43  C   UNL A   1      41.103  28.576  28.857  1.00  0.00     0.037 A 
ATOM     44  C   UNL A   1      47.679  26.743  27.340  1.00  0.00     0.037 A 
ATOM     45  C   UNL A   1      42.083  29.613  29.049  1.00  0.00     0.049 A 
ATOM     46  C   UNL A   1      47.329  28.137  27.782  1.00  0.00     0.074 A 
ATOM     47  C   UNL A   1      41.894  30.903  29.513  1.00  0.00     0.029 A 
ATOM     48  N   UNL A   1      43.438  29.479  28.784  1.00  0.00    -0.354 N 
ATOM     49  N   UNL A   1      46.163  28.626  28.127  1.00  0.00    -0.248 NA
ATOM     50  C   UNL A   1      48.431  29.106  27.851  1.00  0.00     0.031 C 
ATOM     51  C   UNL A   1      43.127  31.563  29.487  1.00  0.00     0.029 A 
ATOM     52  C   UNL A   1      44.093  30.669  29.055  1.00  0.00     0.049 A 
ATOM     53  H   UNL A   1      43.871  28.659  28.453  1.00  0.00     0.167 HD
ATOM     54  C   UNL A   1      46.394  29.949  28.480  1.00  0.00     0.074 A 
ATOM     55  C   UNL A   1      47.815  30.182  28.320  1.00  0.00     0.031 C 
ATOM     56  C   UNL A   1      45.509  30.886  28.900  1.00  0.00     0.037 A 
BRANCH  43  57
ATOM     57  C   UNL A   1      39.663  28.896  29.139  1.00  0.00     0.057 A 
ATOM     58  C   UNL A   1      39.117  28.767  30.423  1.00  0.00     0.134 A 
ATOM     59  C   UNL A   1      38.823  29.373  28.126  1.00  0.00     0.134 A 
ATOM     60  F   UNL A   1      39.865  28.305  31.438  1.00  0.00    -0.206 F 
ATOM     61  C   UNL A   1      37.780  29.073  30.683  1.00  0.00     0.040 A 
ATOM     62  C   UNL A   1      37.492  29.710  28.379  1.00  0.00     0.040 A 
ATOM     63  F   UNL A   1      39.283  29.529  26.875  1.00  0.00    -0.206 F 
ATOM     64  C   UNL A   1      36.965  29.554  29.660  1.00  0.00     0.006 A 
ENDBRANCH  43  57
BRANCH  44  65
ATOM     65  C   UNL A   1      49.082  26.384  27.013  1.00  0.00     0.057 A 
ATOM     66  C   UNL A   1      49.568  26.499  25.705  1.00  0.00     0.134 A 
ATOM     67  C   UNL A   1      49.967  25.914  27.991  1.00  0.00     0.134 A 
ATOM     68  F   UNL A   1      48.762  26.925  24.722  1.00  0.00    -0.206 F 
ATOM     69  C   UNL A   1      50.876  26.142  25.377  1.00  0.00     0.040 A 
ATOM     70  C   UNL A   1      51.286  25.578  27.682  1.00  0.00     0.040 A 
ATOM     71  F   UNL A   1      49.565  25.789  29.264  1.00  0.00    -0.206 F 
ATOM     72  C   UNL A   1      51.742  25.685  26.370  1.00  0.00     0.006 A 
ENDBRANCH  44  65
BRANCH  56  73
ATOM     73  C   UNL A   1      46.056  32.238  29.253  1.00  0.00     0.057 A 
ATOM     74  C   UNL A   1      46.524  32.535  30.539  1.00  0.00     0.134 A 
ATOM     75  C   UNL A   1      46.151  33.242  28.282  1.00  0.00     0.134 A 
ATOM     76  F   UNL A   1      46.449  31.621  31.518  1.00  0.00    -0.206 F 
ATOM     77  C   UNL A   1      47.048  33.790  30.852  1.00  0.00     0.040 A 
ATOM     78  C   UNL A   1      46.698  34.492  28.576  1.00  0.00     0.040 A 
ATOM     79  F   UNL A   1      45.727  33.021  27.028  1.00  0.00    -0.206 F 
ATOM     80  C   UNL A   1      47.143  34.771  29.865  1.00  0.00     0.006 A 
ENDBRANCH  56  73
ENDBRANCH  30  31
ENDBRANCH  22  25
ENDBRANCH  20  21
ENDBRANCH   1  20
TORSDOF 11
ENDMDL
MODEL 2
REMARK VINA RESULT:     -11.3      5.449     10.285
REMARK SMILES CC1(C)[C@@H](C(=O)NCCCNC(=O)c2ccc(-c3c4nc(c(-c5c(F)cccc5F)c5ccc([nH]5)c(-c5c(F)cccc5F)c5nc(c(-c6c(F)cccc6F)c6ccc3[nH]6)C=C5)C=C4)cc2)CC[C@@]1(C)C(N)=O
REMARK SMILES IDX 9 1 8 2 7 3 5 4 6 5 4 7 1 8 2 9 3 10 70 11 68 12 69 13 71 14
REMARK SMILES IDX 72 15 73 16 74 17 10 20 11 21 12 22 13 24 14 25 15 26 67 27
REMARK SMILES IDX 16 28 66 29 17 30 18 31 19 32 60 33 20 34 65 35 59 36 61 37
REMARK SMILES IDX 21 38 64 39 58 40 57 41 22 43 48 44 31 45 47 46 32 47 35 48
REMARK SMILES IDX 46 49 62 50 33 51 34 52 45 54 63 55 36 56 23 57 24 58 29 59
REMARK SMILES IDX 25 60 26 61 28 62 30 63 27 64 49 65 50 66 55 67 51 68 52 69
REMARK SMILES IDX 54 70 56 71 53 72 37 73 38 74 43 75 39 76 40 77 42 78 44 79
REMARK SMILES IDX 41 80
REMARK H PARENT 7 6 73 18 73 19 11 23 61 42 35 53
REMARK Flexibility Score: inf
ROOT
ATOM      1  C   UNL A   1      31.511  31.521  26.354  1.00  0.00     0.042 C 
ENDROOT
BRANCH   1   2
ATOM      2  C   UNL A   1      31.736  30.054  26.006  1.00  0.00     0.117 C 
BRANCH   2   3
ATOM      3  N   UNL A   1      31.195  29.716  24.703  1.00  0.00    -0.356 N 
ATOM      4  C   UNL A   1      30.925  28.500  24.150  1.00  0.00     0.223 C 
ATOM      5  O   UNL A   1      30.424  28.494  23.026  1.00  0.00    -0.275 OA
ATOM      6  H   UNL A   1      30.992  30.487  24.127  1.00  0.00     0.163 HD
BRANCH   4   7
ATOM      7  C   UNL A   1      31.129  27.236  24.983  1.00  0.00     0.085 C 
ATOM      8  C   UNL A   1      33.642  27.163  24.467  1.00  0.00     0.013 C 
ATOM      9  C   UNL A   1      32.359  26.337  24.666  1.00  0.00    -0.010 C 
ATOM     10  C   UNL A   1      32.628  25.463  25.932  1.00  0.00     0.013 C 
ATOM     11  C   UNL A   1      31.907  25.454  23.433  1.00  0.00     0.052 C 
ATOM     12  C   UNL A   1      29.944  26.310  24.716  1.00  0.00     0.015 C 
ATOM     13  C   UNL A   1      30.350  25.458  23.509  1.00  0.00     0.018 C 
ATOM     14  C   UNL A   1      32.379  23.979  23.512  1.00  0.00     0.022 C 
BRANCH  11  15
ATOM     15  C   UNL A   1      32.516  25.928  22.083  1.00  0.00     0.223 C 
ATOM     16  N   UNL A   1      31.780  26.703  21.251  1.00  0.00    -0.369 N 
ATOM     17  O   UNL A   1      33.653  25.615  21.729  1.00  0.00    -0.275 OA
ATOM     18  H   UNL A   1      30.867  26.971  21.504  1.00  0.00     0.159 HD
ATOM     19  H   UNL A   1      32.158  26.998  20.391  1.00  0.00     0.159 HD
ENDBRANCH  11  15
ENDBRANCH   4   7
ENDBRANCH   2   3
ENDBRANCH   1   2
BRANCH   1  20
ATOM     20  C   UNL A   1      32.756  32.240  26.875  1.00  0.00     0.118 C 
BRANCH  20  21
ATOM     21  N   UNL A   1      32.477  33.589  27.352  1.00  0.00    -0.352 N 
ATOM     22  C   UNL A   1      33.035  34.302  28.381  1.00  0.00     0.251 C 
ATOM     23  H   UNL A   1      31.773  34.064  26.854  1.00  0.00     0.163 HD
ATOM     24  O   UNL A   1      32.528  35.374  28.717  1.00  0.00    -0.269 OA
BRANCH  22  25
ATOM     25  C   UNL A   1      34.218  33.796  29.105  1.00  0.00     0.039 A 
ATOM     26  C   UNL A   1      34.031  32.871  30.137  1.00  0.00     0.014 A 
ATOM     27  C   UNL A   1      35.506  34.245  28.797  1.00  0.00     0.014 A 
ATOM     28  C   UNL A   1      35.134  32.344  30.810  1.00  0.00     0.010 A 
ATOM     29  C   UNL A   1      36.610  33.666  29.419  1.00  0.00     0.010 A 
ATOM     30  C   UNL A   1      36.437  32.708  30.429  1.00  0.00    -0.014 A 
BRANCH  30  31
ATOM     31  C   UNL A   1      37.627  32.085  31.064  1.00  0.00     0.031 A 
ATOM     32  C   UNL A   1      38.367  30.976  30.369  1.00  0.00     0.074 A 
ATOM     33  C   UNL A   1      38.001  32.475  32.298  1.00  0.00     0.049 A 
ATOM     34  N   UNL A   1      39.375  30.259  30.798  1.00  0.00    -0.248 NA
ATOM     35  C   UNL A   1      37.898  30.608  29.024  1.00  0.00     0.031 C 
ATOM     36  C   UNL A   1      37.344  33.513  33.093  1.00  0.00     0.029 A 
ATOM     37  N   UNL A   1      39.022  32.036  33.103  1.00  0.00    -0.354 N 
ATOM     38  C   UNL A   1      39.653  29.351  29.784  1.00  0.00     0.074 A 
ATOM     39  C   UNL A   1      38.675  29.572  28.741  1.00  0.00     0.031 C 
ATOM     40  C   UNL A   1      37.990  33.647  34.263  1.00  0.00     0.029 A 
ATOM     41  C   UNL A   1      39.079  32.677  34.318  1.00  0.00     0.049 A 
ATOM     42  H   UNL A   1      39.653  31.329  32.837  1.00  0.00     0.167 HD
ATOM     43  C   UNL A   1      40.646  28.433  29.719  1.00  0.00     0.037 A 
ATOM     44  C   UNL A   1      39.910  32.498  35.362  1.00  0.00     0.037 A 
ATOM     45  C   UNL A   1      41.629  28.225  30.750  1.00  0.00     0.049 A 
ATOM     46  C   UNL A   1      40.989  31.455  35.274  1.00  0.00     0.074 A 
ATOM     47  C   UNL A   1      42.702  27.351  30.756  1.00  0.00     0.029 A 
ATOM     48  N   UNL A   1      41.657  28.899  31.962  1.00  0.00    -0.354 N 
ATOM     49  N   UNL A   1      41.275  30.642  34.286  1.00  0.00    -0.248 NA
ATOM     50  C   UNL A   1      41.865  31.308  36.445  1.00  0.00     0.031 C 
ATOM     51  C   UNL A   1      43.353  27.464  31.988  1.00  0.00     0.029 A 
ATOM     52  C   UNL A   1      42.716  28.445  32.731  1.00  0.00     0.049 A 
ATOM     53  H   UNL A   1      41.019  29.597  32.236  1.00  0.00     0.167 HD
ATOM     54  C   UNL A   1      42.377  29.907  34.703  1.00  0.00     0.074 A 
ATOM     55  C   UNL A   1      42.717  30.382  36.029  1.00  0.00     0.031 C 
ATOM     56  C   UNL A   1      43.049  28.930  34.046  1.00  0.00     0.037 A 
BRANCH  43  57
ATOM     57  C   UNL A   1      40.722  27.583  28.482  1.00  0.00     0.057 A 
ATOM     58  C   UNL A   1      40.015  26.378  28.372  1.00  0.00     0.134 A 
ATOM     59  C   UNL A   1      41.480  27.990  27.378  1.00  0.00     0.134 A 
ATOM     60  F   UNL A   1      39.278  25.925  29.398  1.00  0.00    -0.206 F 
ATOM     61  C   UNL A   1      40.081  25.596  27.218  1.00  0.00     0.040 A 
ATOM     62  C   UNL A   1      41.532  27.230  26.208  1.00  0.00     0.040 A 
ATOM     63  F   UNL A   1      42.175  29.137  27.413  1.00  0.00    -0.206 F 
ATOM     64  C   UNL A   1      40.836  26.025  26.128  1.00  0.00     0.006 A 
ENDBRANCH  43  57
BRANCH  44  65
ATOM     65  C   UNL A   1      39.768  33.339  36.576  1.00  0.00     0.057 A 
ATOM     66  C   UNL A   1      40.502  34.522  36.722  1.00  0.00     0.134 A 
ATOM     67  C   UNL A   1      38.905  32.983  37.620  1.00  0.00     0.134 A 
ATOM     68  F   UNL A   1      41.360  34.905  35.764  1.00  0.00    -0.206 F 
ATOM     69  C   UNL A   1      40.399  35.311  37.868  1.00  0.00     0.040 A 
ATOM     70  C   UNL A   1      38.772  33.777  38.760  1.00  0.00     0.040 A 
ATOM     71  F   UNL A   1      38.168  31.867  37.537  1.00  0.00    -0.206 F 
ATOM     72  C   UNL A   1      39.525  34.941  38.889  1.00  0.00     0.006 A 
ENDBRANCH  44  65
BRANCH  56  73
ATOM     73  C   UNL A   1      44.241  28.334  34.735  1.00  0.00     0.057 A 
ATOM     74  C   UNL A   1      44.142  27.180  35.523  1.00  0.00     0.134 A 
ATOM     75  C   UNL A   1      45.512  28.899  34.573  1.00  0.00     0.134 A 
ATOM     76  F   UNL A   1      42.951  26.598  35.729  1.00  0.00    -0.206 F 
ATOM     77  C   UNL A   1      45.261  26.624  36.144  1.00  0.00     0.040 A 
ATOM     78  C   UNL A   1      46.643  28.336  35.167  1.00  0.00     0.040 A 
ATOM     79  F   UNL A   1      45.679  30.001  33.824  1.00  0.00    -0.206 F 
ATOM     80  C   UNL A   1      46.519  27.198  35.960  1.00  0.00     0.006 A 
ENDBRANCH  56  73
ENDBRANCH  30  31
ENDBRANCH  22  25
ENDBRANCH  20  21
ENDBRANCH   1  20
TORSDOF 11
ENDMDL
MODEL 3
REMARK VINA RESULT:     -11.3      5.423     10.315
REMARK SMILES CC1(C)[C@@H](C(=O)NCCCNC(=O)c2ccc(-c3c4nc(c(-c5c(F)cccc5F)c5ccc([nH]5)c(-c5c(F)cccc5F)c5nc(c(-c6c(F)cccc6F)c6ccc3[nH]6)C=C5)C=C4)cc2)CC[C@@]1(C)C(N)=O
REMARK SMILES IDX 9 1 8 2 7 3 5 4 6 5 4 7 1 8 2 9 3 10 70 11 68 12 69 13 71 14
REMARK SMILES IDX 72 15 73 16 74 17 10 20 11 21 12 22 13 24 14 25 15 26 67 27
REMARK SMILES IDX 16 28 66 29 17 30 18 31 19 32 60 33 20 34 65 35 59 36 61 37
REMARK SMILES IDX 21 38 64 39 58 40 57 41 22 43 48 44 31 45 47 46 32 47 35 48
REMARK SMILES IDX 46 49 62 50 33 51 34 52 45 54 63 55 36 56 23 57 24 58 29 59
REMARK SMILES IDX 25 60 26 61 28 62 30 63 27 64 49 65 50 66 55 67 51 68 52 69
REMARK SMILES IDX 54 70 56 71 53 72 37 73 38 74 43 75 39 76 40 77 42 78 44 79
REMARK SMILES IDX 41 80
REMARK H PARENT 7 6 73 18 73 19 11 23 61 42 35 53
REMARK Flexibility Score: inf
ROOT
ATOM      1  C   UNL A   1      31.513  31.507  26.410  1.00  0.00     0.042 C 
ENDROOT
BRANCH   1   2
ATOM      2  C   UNL A   1      31.752  30.047  26.042  1.00  0.00     0.117 C 
BRANCH   2   3
ATOM      3  N   UNL A   1      31.220  29.724  24.732  1.00  0.00    -0.356 N 
ATOM      4  C   UNL A   1      30.942  28.514  24.168  1.00  0.00     0.223 C 
ATOM      5  O   UNL A   1      30.452  28.521  23.040  1.00  0.00    -0.275 OA
ATOM      6  H   UNL A   1      31.030  30.501  24.159  1.00  0.00     0.163 HD
BRANCH   4   7
ATOM      7  C   UNL A   1      31.124  27.242  24.994  1.00  0.00     0.085 C 
ATOM      8  C   UNL A   1      33.639  27.140  24.491  1.00  0.00     0.013 C 
ATOM      9  C   UNL A   1      32.345  26.329  24.679  1.00  0.00    -0.010 C 
ATOM     10  C   UNL A   1      32.595  25.444  25.941  1.00  0.00     0.013 C 
ATOM     11  C   UNL A   1      31.888  25.459  23.439  1.00  0.00     0.052 C 
ATOM     12  C   UNL A   1      29.929  26.335  24.716  1.00  0.00     0.015 C 
ATOM     13  C   UNL A   1      30.331  25.484  23.506  1.00  0.00     0.018 C 
ATOM     14  C   UNL A   1      32.339  23.978  23.511  1.00  0.00     0.022 C 
BRANCH  11  15
ATOM     15  C   UNL A   1      32.510  25.934  22.095  1.00  0.00     0.223 C 
ATOM     16  N   UNL A   1      31.779  26.702  21.251  1.00  0.00    -0.369 N 
ATOM     17  O   UNL A   1      33.653  25.626  21.756  1.00  0.00    -0.275 OA
ATOM     18  H   UNL A   1      30.861  26.965  21.492  1.00  0.00     0.159 HD
ATOM     19  H   UNL A   1      32.166  26.996  20.395  1.00  0.00     0.159 HD
ENDBRANCH  11  15
ENDBRANCH   4   7
ENDBRANCH   2   3
ENDBRANCH   1   2
BRANCH   1  20
ATOM     20  C   UNL A   1      32.766  32.251  26.873  1.00  0.00     0.118 C 
BRANCH  20  21
ATOM     21  N   UNL A   1      32.482  33.594  27.365  1.00  0.00    -0.352 N 
ATOM     22  C   UNL A   1      33.039  34.298  28.400  1.00  0.00     0.251 C 
ATOM     23  H   UNL A   1      31.776  34.071  26.873  1.00  0.00     0.163 HD
ATOM     24  O   UNL A   1      32.528  35.364  28.749  1.00  0.00    -0.269 OA
BRANCH  22  25
ATOM     25  C   UNL A   1      34.224  33.788  29.118  1.00  0.00     0.039 A 
ATOM     26  C   UNL A   1      34.039  32.869  30.155  1.00  0.00     0.014 A 
ATOM     27  C   UNL A   1      35.512  34.229  28.800  1.00  0.00     0.014 A 
ATOM     28  C   UNL A   1      35.145  32.338  30.823  1.00  0.00     0.010 A 
ATOM     29  C   UNL A   1      36.617  33.647  29.416  1.00  0.00     0.010 A 
ATOM     30  C   UNL A   1      36.447  32.693  30.431  1.00  0.00    -0.014 A 
BRANCH  30  31
ATOM     31  C   UNL A   1      37.637  32.066  31.060  1.00  0.00     0.031 A 
ATOM     32  C   UNL A   1      38.379  30.965  30.355  1.00  0.00     0.074 A 
ATOM     33  C   UNL A   1      38.011  32.446  32.297  1.00  0.00     0.049 A 
ATOM     34  N   UNL A   1      39.389  30.246  30.777  1.00  0.00    -0.248 NA
ATOM     35  C   UNL A   1      37.911  30.609  29.007  1.00  0.00     0.031 C 
ATOM     36  C   UNL A   1      37.353  33.475  33.103  1.00  0.00     0.029 A 
ATOM     37  N   UNL A   1      39.033  32.001  33.099  1.00  0.00    -0.354 N 
ATOM     38  C   UNL A   1      39.668  29.348  29.755  1.00  0.00     0.074 A 
ATOM     39  C   UNL A   1      38.689  29.577  28.714  1.00  0.00     0.031 C 
ATOM     40  C   UNL A   1      37.999  33.599  34.273  1.00  0.00     0.029 A 
ATOM     41  C   UNL A   1      39.090  32.631  34.319  1.00  0.00     0.049 A 
ATOM     42  H   UNL A   1      39.665  31.298  32.826  1.00  0.00     0.167 HD
ATOM     43  C   UNL A   1      40.663  28.432  29.680  1.00  0.00     0.037 A 
ATOM     44  C   UNL A   1      39.921  32.443  35.361  1.00  0.00     0.037 A 
ATOM     45  C   UNL A   1      41.646  28.217  30.710  1.00  0.00     0.049 A 
ATOM     46  C   UNL A   1      41.002  31.403  35.263  1.00  0.00     0.074 A 
ATOM     47  C   UNL A   1      42.720  27.344  30.708  1.00  0.00     0.029 A 
ATOM     48  N   UNL A   1      41.673  28.879  31.928  1.00  0.00    -0.354 N 
ATOM     49  N   UNL A   1      41.288  30.599  34.268  1.00  0.00    -0.248 NA
ATOM     50  C   UNL A   1      41.878  31.246  36.433  1.00  0.00     0.031 C 
ATOM     51  C   UNL A   1      43.372  27.446  31.941  1.00  0.00     0.029 A 
ATOM     52  C   UNL A   1      42.733  28.420  32.693  1.00  0.00     0.049 A 
ATOM     53  H   UNL A   1      41.034  29.574  32.208  1.00  0.00     0.167 HD
ATOM     54  C   UNL A   1      42.392  29.863  34.678  1.00  0.00     0.074 A 
ATOM     55  C   UNL A   1      42.732  30.326  36.009  1.00  0.00     0.031 C 
ATOM     56  C   UNL A   1      43.065  28.893  34.012  1.00  0.00     0.037 A 
BRANCH  43  57
ATOM     57  C   UNL A   1      40.739  27.594  28.436  1.00  0.00     0.057 A 
ATOM     58  C   UNL A   1      41.528  27.971  27.341  1.00  0.00     0.134 A 
ATOM     59  C   UNL A   1      40.047  26.381  28.345  1.00  0.00     0.134 A 
ATOM     60  F   UNL A   1      42.209  29.127  27.358  1.00  0.00    -0.206 F 
ATOM     61  C   UNL A   1      41.603  27.185  26.190  1.00  0.00     0.040 A 
ATOM     62  C   UNL A   1      40.135  25.573  27.211  1.00  0.00     0.040 A 
ATOM     63  F   UNL A   1      39.279  25.956  29.361  1.00  0.00    -0.206 F 
ATOM     64  C   UNL A   1      40.910  25.977  26.125  1.00  0.00     0.006 A 
ENDBRANCH  43  57
BRANCH  44  65
ATOM     65  C   UNL A   1      39.778  33.273  36.583  1.00  0.00     0.057 A 
ATOM     66  C   UNL A   1      38.895  32.904  37.605  1.00  0.00     0.134 A 
ATOM     67  C   UNL A   1      40.512  34.453  36.760  1.00  0.00     0.134 A 
ATOM     68  F   UNL A   1      38.151  31.795  37.484  1.00  0.00    -0.206 F 
ATOM     69  C   UNL A   1      38.731  33.686  38.749  1.00  0.00     0.040 A 
ATOM     70  C   UNL A   1      40.378  35.230  37.911  1.00  0.00     0.040 A 
ATOM     71  F   UNL A   1      41.381  34.856  35.822  1.00  0.00    -0.206 F 
ATOM     72  C   UNL A   1      39.480  34.852  38.906  1.00  0.00     0.006 A 
ENDBRANCH  44  65
BRANCH  56  73
ATOM     73  C   UNL A   1      44.259  28.292  34.695  1.00  0.00     0.057 A 
ATOM     74  C   UNL A   1      44.161  27.134  35.476  1.00  0.00     0.134 A 
ATOM     75  C   UNL A   1      45.529  28.860  34.535  1.00  0.00     0.134 A 
ATOM     76  F   UNL A   1      42.970  26.550  35.679  1.00  0.00    -0.206 F 
ATOM     77  C   UNL A   1      45.281  26.574  36.092  1.00  0.00     0.040 A 
ATOM     78  C   UNL A   1      46.661  28.293  35.123  1.00  0.00     0.040 A 
ATOM     79  F   UNL A   1      45.694  29.966  33.793  1.00  0.00    -0.206 F 
ATOM     80  C   UNL A   1      46.538  27.149  35.909  1.00  0.00     0.006 A 
ENDBRANCH  56  73
ENDBRANCH  30  31
ENDBRANCH  22  25
ENDBRANCH  20  21
ENDBRANCH   1  20
TORSDOF 11
ENDMDL
