MODEL 1
REMARK VINA RESULT:     -12.3      0.000      0.000
REMARK SMILES O=C(NCCCNC(=O)[C@H]1CCc2[nH]nc(C(F)(F)F)c2C1)c1ccc(-c2c3nc(c(-c4c(F)cccc4F)c4ccc([nH]4)c(-c4c(F)cccc4F)c4nc(c(-c5c(F)cccc5F)c5ccc2[nH]5)C=C4)C=C3)cc1
REMARK SMILES IDX 4 1 3 2 1 3 2 4 23 6 24 7 76 8 25 9 75 10 26 11 27 12 28 13
REMARK SMILES IDX 69 14 29 15 74 16 68 17 70 18 30 19 73 20 67 21 66 22 31 24
REMARK SMILES IDX 57 25 40 26 56 27 41 28 44 29 55 30 71 31 42 32 43 33 54 35
REMARK SMILES IDX 72 36 45 37 32 38 33 39 38 40 34 41 35 42 37 43 39 44 36 45
REMARK SMILES IDX 58 46 59 47 64 48 60 49 61 50 63 51 65 52 62 53 46 54 47 55
REMARK SMILES IDX 52 56 48 57 49 58 51 59 53 60 50 61 5 62 6 63 7 64 8 65 9 67
REMARK SMILES IDX 10 68 11 69 22 70 12 71 21 72 13 73 16 74 14 75 15 76 17 78
REMARK SMILES IDX 18 79 19 80 20 81
REMARK H PARENT 3 5 70 23 44 34 7 66 14 77
REMARK Flexibility Score: inf
ROOT
ATOM      1  C   UNL A   1      32.576  32.786  27.251  1.00  0.00     0.118 C 
ENDROOT
BRANCH   1   2
ATOM      2  N   UNL A   1      32.342  34.169  27.640  1.00  0.00    -0.352 N 
ATOM      3  O   UNL A   1      32.528  36.028  28.903  1.00  0.00    -0.269 OA
ATOM      4  C   UNL A   1      32.982  34.932  28.586  1.00  0.00     0.251 C 
ATOM      5  H   UNL A   1      31.618  34.625  27.151  1.00  0.00     0.163 HD
BRANCH   4   6
ATOM      6  C   UNL A   1      34.197  34.414  29.248  1.00  0.00     0.039 A 
ATOM      7  C   UNL A   1      35.456  34.586  28.667  1.00  0.00     0.014 A 
ATOM      8  C   UNL A   1      34.072  33.744  30.466  1.00  0.00     0.014 A 
ATOM      9  C   UNL A   1      36.561  33.942  29.209  1.00  0.00     0.010 A 
ATOM     10  C   UNL A   1      35.202  33.188  31.066  1.00  0.00     0.010 A 
ATOM     11  C   UNL A   1      36.450  33.253  30.423  1.00  0.00    -0.014 A 
BRANCH  11  12
ATOM     12  C   UNL A   1      37.651  32.649  31.048  1.00  0.00     0.031 A 
ATOM     13  C   UNL A   1      38.331  31.465  30.423  1.00  0.00     0.074 A 
ATOM     14  C   UNL A   1      38.109  33.162  32.205  1.00  0.00     0.049 A 
ATOM     15  N   UNL A   1      39.319  30.741  30.885  1.00  0.00    -0.248 NA
ATOM     16  C   UNL A   1      37.826  31.029  29.112  1.00  0.00     0.031 C 
ATOM     17  C   UNL A   1      37.534  34.315  32.901  1.00  0.00     0.029 A 
ATOM     18  N   UNL A   1      39.150  32.774  33.007  1.00  0.00    -0.354 N 
ATOM     19  C   UNL A   1      39.534  29.746  29.941  1.00  0.00     0.074 A 
ATOM     20  C   UNL A   1      38.561  29.948  28.888  1.00  0.00     0.031 C 
ATOM     21  C   UNL A   1      38.235  34.548  34.019  1.00  0.00     0.029 A 
ATOM     22  C   UNL A   1      39.259  33.519  34.155  1.00  0.00     0.049 A 
ATOM     23  H   UNL A   1      39.759  32.034  32.782  1.00  0.00     0.167 HD
ATOM     24  C   UNL A   1      40.461  28.758  29.954  1.00  0.00     0.037 A 
ATOM     25  C   UNL A   1      40.063  33.368  35.223  1.00  0.00     0.037 A 
ATOM     26  C   UNL A   1      41.429  28.575  31.006  1.00  0.00     0.049 A 
ATOM     27  C   UNL A   1      41.052  32.241  35.238  1.00  0.00     0.074 A 
ATOM     28  C   UNL A   1      42.434  27.628  31.099  1.00  0.00     0.029 A 
ATOM     29  N   UNL A   1      41.505  29.351  32.154  1.00  0.00    -0.354 N 
ATOM     30  N   UNL A   1      41.263  31.320  34.330  1.00  0.00    -0.248 NA
ATOM     31  C   UNL A   1      41.910  32.130  36.423  1.00  0.00     0.031 C 
ATOM     32  C   UNL A   1      43.081  27.796  32.327  1.00  0.00     0.029 A 
ATOM     33  C   UNL A   1      42.521  28.887  32.974  1.00  0.00     0.049 A 
ATOM     34  H   UNL A   1      40.922  30.118  32.357  1.00  0.00     0.167 HD
ATOM     35  C   UNL A   1      42.298  30.535  34.818  1.00  0.00     0.074 A 
ATOM     36  C   UNL A   1      42.671  31.091  36.103  1.00  0.00     0.031 C 
ATOM     37  C   UNL A   1      42.888  29.458  34.247  1.00  0.00     0.037 A 
BRANCH  24  38
ATOM     38  C   UNL A   1      40.444  27.777  28.816  1.00  0.00     0.057 A 
ATOM     39  C   UNL A   1      41.211  27.962  27.658  1.00  0.00     0.134 A 
ATOM     40  C   UNL A   1      39.655  26.622  28.887  1.00  0.00     0.134 A 
ATOM     41  F   UNL A   1      41.981  29.052  27.518  1.00  0.00    -0.206 F 
ATOM     42  C   UNL A   1      41.166  27.053  26.598  1.00  0.00     0.040 A 
ATOM     43  C   UNL A   1      39.624  25.691  27.846  1.00  0.00     0.040 A 
ATOM     44  F   UNL A   1      38.903  26.374  29.969  1.00  0.00    -0.206 F 
ATOM     45  C   UNL A   1      40.374  25.911  26.693  1.00  0.00     0.006 A 
ENDBRANCH  24  38
BRANCH  25  46
ATOM     46  C   UNL A   1      39.937  34.310  36.360  1.00  0.00     0.057 A 
ATOM     47  C   UNL A   1      40.609  35.536  36.363  1.00  0.00     0.134 A 
ATOM     48  C   UNL A   1      39.092  34.032  37.444  1.00  0.00     0.134 A 
ATOM     49  F   UNL A   1      41.440  35.852  35.358  1.00  0.00    -0.206 F 
ATOM     50  C   UNL A   1      40.449  36.453  37.403  1.00  0.00     0.040 A 
ATOM     51  C   UNL A   1      38.903  34.950  38.477  1.00  0.00     0.040 A 
ATOM     52  F   UNL A   1      38.408  32.880  37.491  1.00  0.00    -0.206 F 
ATOM     53  C   UNL A   1      39.586  36.165  38.459  1.00  0.00     0.006 A 
ENDBRANCH  25  46
BRANCH  37  54
ATOM     54  C   UNL A   1      44.037  28.833  34.980  1.00  0.00     0.057 A 
ATOM     55  C   UNL A   1      43.860  27.768  35.871  1.00  0.00     0.134 A 
ATOM     56  C   UNL A   1      45.348  29.264  34.737  1.00  0.00     0.134 A 
ATOM     57  F   UNL A   1      42.629  27.319  36.159  1.00  0.00    -0.206 F 
ATOM     58  C   UNL A   1      44.947  27.158  36.502  1.00  0.00     0.040 A 
ATOM     59  C   UNL A   1      46.443  28.647  35.341  1.00  0.00     0.040 A 
ATOM     60  F   UNL A   1      45.585  30.276  33.889  1.00  0.00    -0.206 F 
ATOM     61  C   UNL A   1      46.243  27.591  36.229  1.00  0.00     0.006 A 
ENDBRANCH  37  54
ENDBRANCH  11  12
ENDBRANCH   4   6
ENDBRANCH   1   2
BRANCH   1  62
ATOM     62  C   UNL A   1      31.403  32.172  26.501  1.00  0.00     0.042 C 
BRANCH  62  63
ATOM     63  C   UNL A   1      31.660  30.770  25.975  1.00  0.00     0.117 C 
BRANCH  63  64
ATOM     64  N   UNL A   1      31.522  29.776  27.017  1.00  0.00    -0.356 N 
ATOM     65  C   UNL A   1      31.837  28.461  27.042  1.00  0.00     0.223 C 
ATOM     66  H   UNL A   1      31.130  30.117  27.855  1.00  0.00     0.163 HD
ATOM     67  O   UNL A   1      31.396  27.824  28.001  1.00  0.00    -0.275 OA
BRANCH  65  68
ATOM     68  C   UNL A   1      32.651  27.808  25.920  1.00  0.00     0.083 C 
ATOM     69  C   UNL A   1      32.717  26.256  25.984  1.00  0.00     0.020 C 
ATOM     70  C   UNL A   1      32.000  28.212  24.562  1.00  0.00     0.053 C 
ATOM     71  C   UNL A   1      31.325  25.598  26.021  1.00  0.00     0.057 C 
ATOM     72  C   UNL A   1      30.711  27.469  24.388  1.00  0.00     0.006 A 
ATOM     73  C   UNL A   1      30.442  26.296  25.058  1.00  0.00     0.039 A 
ATOM     74  C   UNL A   1      29.526  27.760  23.659  1.00  0.00     0.169 A 
ATOM     75  N   UNL A   1      29.166  25.953  24.747  1.00  0.00    -0.282 N 
ATOM     76  N   UNL A   1      28.594  26.801  23.876  1.00  0.00    -0.171 NA
ATOM     77  H   UNL A   1      28.708  25.165  25.119  1.00  0.00     0.190 HD
BRANCH  74  78
ATOM     78  C   UNL A   1      29.265  28.945  22.766  1.00  0.00     0.435 C 
ATOM     79  F   UNL A   1      29.413  30.129  23.423  1.00  0.00    -0.164 F 
ATOM     80  F   UNL A   1      30.097  28.985  21.690  1.00  0.00    -0.164 F 
ATOM     81  F   UNL A   1      27.996  28.951  22.268  1.00  0.00    -0.164 F 
ENDBRANCH  74  78
ENDBRANCH  65  68
ENDBRANCH  63  64
ENDBRANCH  62  63
ENDBRANCH   1  62
TORSDOF 11
ENDMDL
MODEL 2
REMARK VINA RESULT:     -12.3      0.175      1.053
REMARK SMILES O=C(NCCCNC(=O)[C@H]1CCc2[nH]nc(C(F)(F)F)c2C1)c1ccc(-c2c3nc(c(-c4c(F)cccc4F)c4ccc([nH]4)c(-c4c(F)cccc4F)c4nc(c(-c5c(F)cccc5F)c5ccc2[nH]5)C=C4)C=C3)cc1
REMARK SMILES IDX 4 1 3 2 1 3 2 4 23 6 24 7 76 8 25 9 75 10 26 11 27 12 28 13
REMARK SMILES IDX 69 14 29 15 74 16 68 17 70 18 30 19 73 20 67 21 66 22 31 24
REMARK SMILES IDX 57 25 40 26 56 27 41 28 44 29 55 30 71 31 42 32 43 33 54 35
REMARK SMILES IDX 72 36 45 37 32 38 33 39 38 40 34 41 35 42 37 43 39 44 36 45
REMARK SMILES IDX 58 46 59 47 64 48 60 49 61 50 63 51 65 52 62 53 46 54 47 55
REMARK SMILES IDX 52 56 48 57 49 58 51 59 53 60 50 61 5 62 6 63 7 64 8 65 9 67
REMARK SMILES IDX 10 68 11 69 22 70 12 71 21 72 13 73 16 74 14 75 15 76 17 78
REMARK SMILES IDX 18 79 19 80 20 81
REMARK H PARENT 3 5 70 23 44 34 7 66 14 77
REMARK Flexibility Score: inf
ROOT
ATOM      1  C   UNL A   1      32.597  32.796  27.251  1.00  0.00     0.118 C 
ENDROOT
BRANCH   1   2
ATOM      2  N   UNL A   1      32.359  34.182  27.626  1.00  0.00    -0.352 N 
ATOM      3  O   UNL A   1      32.527  36.048  28.881  1.00  0.00    -0.269 OA
ATOM      4  C   UNL A   1      32.983  34.949  28.580  1.00  0.00     0.251 C 
ATOM      5  H   UNL A   1      31.647  34.637  27.121  1.00  0.00     0.163 HD
BRANCH   4   6
ATOM      6  C   UNL A   1      34.184  34.432  29.269  1.00  0.00     0.039 A 
ATOM      7  C   UNL A   1      35.455  34.598  28.711  1.00  0.00     0.014 A 
ATOM      8  C   UNL A   1      34.033  33.768  30.487  1.00  0.00     0.014 A 
ATOM      9  C   UNL A   1      36.548  33.955  29.278  1.00  0.00     0.010 A 
ATOM     10  C   UNL A   1      35.150  33.213  31.111  1.00  0.00     0.010 A 
ATOM     11  C   UNL A   1      36.411  33.272  30.494  1.00  0.00    -0.014 A 
BRANCH  11  12
ATOM     12  C   UNL A   1      37.598  32.669  31.145  1.00  0.00     0.031 A 
ATOM     13  C   UNL A   1      38.289  31.482  30.538  1.00  0.00     0.074 A 
ATOM     14  C   UNL A   1      38.033  33.185  32.309  1.00  0.00     0.049 A 
ATOM     15  N   UNL A   1      39.266  30.758  31.023  1.00  0.00    -0.248 NA
ATOM     16  C   UNL A   1      37.811  31.041  29.219  1.00  0.00     0.031 C 
ATOM     17  C   UNL A   1      37.445  34.342  32.990  1.00  0.00     0.029 A 
ATOM     18  N   UNL A   1      39.057  32.798  33.134  1.00  0.00    -0.354 N 
ATOM     19  C   UNL A   1      39.500  29.760  30.087  1.00  0.00     0.074 A 
ATOM     20  C   UNL A   1      38.548  29.959  29.013  1.00  0.00     0.031 C 
ATOM     21  C   UNL A   1      38.124  34.578  34.120  1.00  0.00     0.029 A 
ATOM     22  C   UNL A   1      39.143  33.548  34.281  1.00  0.00     0.049 A 
ATOM     23  H   UNL A   1      39.669  32.057  32.924  1.00  0.00     0.167 HD
ATOM     24  C   UNL A   1      40.424  28.770  30.123  1.00  0.00     0.037 A 
ATOM     25  C   UNL A   1      39.925  33.400  35.366  1.00  0.00     0.037 A 
ATOM     26  C   UNL A   1      41.370  28.589  31.195  1.00  0.00     0.049 A 
ATOM     27  C   UNL A   1      40.912  32.271  35.405  1.00  0.00     0.074 A 
ATOM     28  C   UNL A   1      42.372  27.642  31.312  1.00  0.00     0.029 A 
ATOM     29  N   UNL A   1      41.424  29.369  32.342  1.00  0.00    -0.354 N 
ATOM     30  N   UNL A   1      41.140  31.346  34.505  1.00  0.00    -0.248 NA
ATOM     31  C   UNL A   1      41.746  32.163  36.608  1.00  0.00     0.031 C 
ATOM     32  C   UNL A   1      42.994  27.813  32.552  1.00  0.00     0.029 A 
ATOM     33  C   UNL A   1      42.422  28.907  33.183  1.00  0.00     0.049 A 
ATOM     34  H   UNL A   1      40.838  30.138  32.530  1.00  0.00     0.167 HD
ATOM     35  C   UNL A   1      42.163  30.562  35.017  1.00  0.00     0.074 A 
ATOM     36  C   UNL A   1      42.511  31.122  36.307  1.00  0.00     0.031 C 
ATOM     37  C   UNL A   1      42.764  29.482  34.462  1.00  0.00     0.037 A 
BRANCH  24  38
ATOM     38  C   UNL A   1      40.430  27.785  28.988  1.00  0.00     0.057 A 
ATOM     39  C   UNL A   1      41.202  27.977  27.834  1.00  0.00     0.134 A 
ATOM     40  C   UNL A   1      39.656  26.619  29.057  1.00  0.00     0.134 A 
ATOM     41  F   UNL A   1      41.957  29.077  27.697  1.00  0.00    -0.206 F 
ATOM     42  C   UNL A   1      41.177  27.064  26.777  1.00  0.00     0.040 A 
ATOM     43  C   UNL A   1      39.646  25.684  28.019  1.00  0.00     0.040 A 
ATOM     44  F   UNL A   1      38.900  26.364  30.135  1.00  0.00    -0.206 F 
ATOM     45  C   UNL A   1      40.400  25.911  26.871  1.00  0.00     0.006 A 
ENDBRANCH  24  38
BRANCH  25  46
ATOM     46  C   UNL A   1      39.777  34.346  36.497  1.00  0.00     0.057 A 
ATOM     47  C   UNL A   1      39.000  34.023  37.613  1.00  0.00     0.134 A 
ATOM     48  C   UNL A   1      40.460  35.570  36.515  1.00  0.00     0.134 A 
ATOM     49  F   UNL A   1      38.314  32.871  37.648  1.00  0.00    -0.206 F 
ATOM     50  C   UNL A   1      38.903  34.884  38.708  1.00  0.00     0.040 A 
ATOM     51  C   UNL A   1      40.395  36.427  37.613  1.00  0.00     0.040 A 
ATOM     52  F   UNL A   1      41.235  35.927  35.481  1.00  0.00    -0.206 F 
ATOM     53  C   UNL A   1      39.610  36.085  38.714  1.00  0.00     0.006 A 
ENDBRANCH  25  46
BRANCH  37  54
ATOM     54  C   UNL A   1      43.897  28.858  35.220  1.00  0.00     0.057 A 
ATOM     55  C   UNL A   1      43.694  27.824  36.143  1.00  0.00     0.134 A 
ATOM     56  C   UNL A   1      45.217  29.257  34.972  1.00  0.00     0.134 A 
ATOM     57  F   UNL A   1      42.453  27.408  36.437  1.00  0.00    -0.206 F 
ATOM     58  C   UNL A   1      44.766  27.214  36.799  1.00  0.00     0.040 A 
ATOM     59  C   UNL A   1      46.296  28.637  35.601  1.00  0.00     0.040 A 
ATOM     60  F   UNL A   1      45.478  30.236  34.094  1.00  0.00    -0.206 F 
ATOM     61  C   UNL A   1      46.072  27.613  36.519  1.00  0.00     0.006 A 
ENDBRANCH  37  54
ENDBRANCH  11  12
ENDBRANCH   4   6
ENDBRANCH   1   2
BRANCH   1  62
ATOM     62  C   UNL A   1      31.403  32.155  26.558  1.00  0.00     0.042 C 
BRANCH  62  63
ATOM     63  C   UNL A   1      31.669  30.760  26.016  1.00  0.00     0.117 C 
BRANCH  63  64
ATOM     64  N   UNL A   1      31.530  29.753  27.045  1.00  0.00    -0.356 N 
ATOM     65  C   UNL A   1      31.843  28.437  27.051  1.00  0.00     0.223 C 
ATOM     66  H   UNL A   1      31.140  30.083  27.887  1.00  0.00     0.163 HD
ATOM     67  O   UNL A   1      31.401  27.788  28.003  1.00  0.00    -0.275 OA
BRANCH  65  68
ATOM     68  C   UNL A   1      32.653  27.797  25.920  1.00  0.00     0.083 C 
ATOM     69  C   UNL A   1      32.720  26.244  25.966  1.00  0.00     0.020 C 
ATOM     70  C   UNL A   1      31.999  28.216  24.569  1.00  0.00     0.053 C 
ATOM     71  C   UNL A   1      31.328  25.586  25.999  1.00  0.00     0.057 C 
ATOM     72  C   UNL A   1      30.709  27.475  24.390  1.00  0.00     0.006 A 
ATOM     73  C   UNL A   1      30.443  26.294  25.047  1.00  0.00     0.039 A 
ATOM     74  C   UNL A   1      29.522  27.773  23.668  1.00  0.00     0.169 A 
ATOM     75  N   UNL A   1      29.166  25.954  24.736  1.00  0.00    -0.282 N 
ATOM     76  N   UNL A   1      28.591  26.812  23.876  1.00  0.00    -0.171 NA
ATOM     77  H   UNL A   1      28.709  25.162  25.101  1.00  0.00     0.190 HD
BRANCH  74  78
ATOM     78  C   UNL A   1      29.258  28.969  22.789  1.00  0.00     0.435 C 
ATOM     79  F   UNL A   1      30.150  29.063  21.765  1.00  0.00    -0.164 F 
ATOM     80  F   UNL A   1      28.017  28.945  22.230  1.00  0.00    -0.164 F 
ATOM     81  F   UNL A   1      29.348  30.146  23.471  1.00  0.00    -0.164 F 
ENDBRANCH  74  78
ENDBRANCH  65  68
ENDBRANCH  63  64
ENDBRANCH  62  63
ENDBRANCH   1  62
TORSDOF 11
ENDMDL
MODEL 3
REMARK VINA RESULT:     -12.3      6.171     10.681
REMARK SMILES O=C(NCCCNC(=O)[C@H]1CCc2[nH]nc(C(F)(F)F)c2C1)c1ccc(-c2c3nc(c(-c4c(F)cccc4F)c4ccc([nH]4)c(-c4c(F)cccc4F)c4nc(c(-c5c(F)cccc5F)c5ccc2[nH]5)C=C4)C=C3)cc1
REMARK SMILES IDX 4 1 3 2 1 3 2 4 23 6 24 7 76 8 25 9 75 10 26 11 27 12 28 13
REMARK SMILES IDX 69 14 29 15 74 16 68 17 70 18 30 19 73 20 67 21 66 22 31 24
REMARK SMILES IDX 57 25 40 26 56 27 41 28 44 29 55 30 71 31 42 32 43 33 54 35
REMARK SMILES IDX 72 36 45 37 32 38 33 39 38 40 34 41 35 42 37 43 39 44 36 45
REMARK SMILES IDX 58 46 59 47 64 48 60 49 61 50 63 51 65 52 62 53 46 54 47 55
REMARK SMILES IDX 52 56 48 57 49 58 51 59 53 60 50 61 5 62 6 63 7 64 8 65 9 67
REMARK SMILES IDX 10 68 11 69 22 70 12 71 21 72 13 73 16 74 14 75 15 76 17 78
REMARK SMILES IDX 18 79 19 80 20 81
REMARK H PARENT 3 5 70 23 44 34 7 66 14 77
REMARK Flexibility Score: inf
ROOT
ATOM      1  C   UNL A   1      39.179  20.069  25.775  1.00  0.00     0.118 C 
ENDROOT
BRANCH   1   2
ATOM      2  N   UNL A   1      40.238  19.072  25.817  1.00  0.00    -0.352 N 
ATOM      3  O   UNL A   1      42.355  18.297  25.871  1.00  0.00    -0.269 OA
ATOM      4  C   UNL A   1      41.582  19.233  26.053  1.00  0.00     0.251 C 
ATOM      5  H   UNL A   1      39.948  18.146  25.653  1.00  0.00     0.163 HD
BRANCH   4   6
ATOM      6  C   UNL A   1      42.100  20.546  26.491  1.00  0.00     0.039 A 
ATOM      7  C   UNL A   1      42.155  20.877  27.848  1.00  0.00     0.014 A 
ATOM      8  C   UNL A   1      42.530  21.460  25.527  1.00  0.00     0.014 A 
ATOM      9  C   UNL A   1      42.475  22.173  28.231  1.00  0.00     0.010 A 
ATOM     10  C   UNL A   1      42.953  22.729  25.923  1.00  0.00     0.010 A 
ATOM     11  C   UNL A   1      42.895  23.107  27.275  1.00  0.00    -0.014 A 
BRANCH  11  12
ATOM     12  C   UNL A   1      43.328  24.460  27.698  1.00  0.00     0.031 A 
ATOM     13  C   UNL A   1      42.321  25.499  28.099  1.00  0.00     0.074 A 
ATOM     14  C   UNL A   1      44.641  24.754  27.691  1.00  0.00     0.049 A 
ATOM     15  N   UNL A   1      42.509  26.763  28.387  1.00  0.00    -0.248 NA
ATOM     16  C   UNL A   1      40.917  25.067  28.172  1.00  0.00     0.031 C 
ATOM     17  C   UNL A   1      45.711  23.822  27.327  1.00  0.00     0.029 A 
ATOM     18  N   UNL A   1      45.300  25.921  27.981  1.00  0.00    -0.354 N 
ATOM     19  C   UNL A   1      41.248  27.284  28.646  1.00  0.00     0.074 A 
ATOM     20  C   UNL A   1      40.300  26.205  28.461  1.00  0.00     0.031 C 
ATOM     21  C   UNL A   1      46.891  24.448  27.427  1.00  0.00     0.029 A 
ATOM     22  C   UNL A   1      46.656  25.841  27.788  1.00  0.00     0.049 A 
ATOM     23  H   UNL A   1      44.845  26.734  28.297  1.00  0.00     0.167 HD
ATOM     24  C   UNL A   1      40.916  28.547  29.005  1.00  0.00     0.037 A 
ATOM     25  C   UNL A   1      47.606  26.792  27.851  1.00  0.00     0.037 A 
ATOM     26  C   UNL A   1      41.871  29.609  29.193  1.00  0.00     0.049 A 
ATOM     27  C   UNL A   1      47.212  28.194  28.207  1.00  0.00     0.074 A 
ATOM     28  C   UNL A   1      41.644  30.915  29.591  1.00  0.00     0.029 A 
ATOM     29  N   UNL A   1      43.238  29.489  28.985  1.00  0.00    -0.354 N 
ATOM     30  N   UNL A   1      46.020  28.671  28.471  1.00  0.00    -0.248 NA
ATOM     31  C   UNL A   1      48.289  29.189  28.271  1.00  0.00     0.031 C 
ATOM     32  C   UNL A   1      42.864  31.598  29.570  1.00  0.00     0.029 A 
ATOM     33  C   UNL A   1      43.863  30.703  29.220  1.00  0.00     0.049 A 
ATOM     34  H   UNL A   1      43.697  28.662  28.711  1.00  0.00     0.167 HD
ATOM     35  C   UNL A   1      46.205  30.015  28.762  1.00  0.00     0.074 A 
ATOM     36  C   UNL A   1      47.625  30.276  28.641  1.00  0.00     0.031 C 
ATOM     37  C   UNL A   1      45.280  30.945  29.105  1.00  0.00     0.037 A 
BRANCH  24  38
ATOM     38  C   UNL A   1      39.456  28.858  29.178  1.00  0.00     0.057 A 
ATOM     39  C   UNL A   1      38.805  28.726  30.412  1.00  0.00     0.134 A 
ATOM     40  C   UNL A   1      38.692  29.306  28.093  1.00  0.00     0.134 A 
ATOM     41  F   UNL A   1      39.473  28.291  31.491  1.00  0.00    -0.206 F 
ATOM     42  C   UNL A   1      37.441  28.995  30.552  1.00  0.00     0.040 A 
ATOM     43  C   UNL A   1      37.334  29.606  28.227  1.00  0.00     0.040 A 
ATOM     44  F   UNL A   1      39.250  29.464  26.884  1.00  0.00    -0.206 F 
ATOM     45  C   UNL A   1      36.703  29.440  29.457  1.00  0.00     0.006 A 
ENDBRANCH  24  38
BRANCH  25  46
ATOM     46  C   UNL A   1      49.011  26.430  27.550  1.00  0.00     0.057 A 
ATOM     47  C   UNL A   1      49.884  26.014  28.561  1.00  0.00     0.134 A 
ATOM     48  C   UNL A   1      49.498  26.433  26.236  1.00  0.00     0.134 A 
ATOM     49  F   UNL A   1      49.478  26.001  29.839  1.00  0.00    -0.206 F 
ATOM     50  C   UNL A   1      51.191  25.616  28.277  1.00  0.00     0.040 A 
ATOM     51  C   UNL A   1      50.793  26.012  25.935  1.00  0.00     0.040 A 
ATOM     52  F   UNL A   1      48.704  26.806  25.222  1.00  0.00    -0.206 F 
ATOM     53  C   UNL A   1      51.645  25.605  26.959  1.00  0.00     0.006 A 
ENDBRANCH  25  46
BRANCH  37  54
ATOM     54  C   UNL A   1      45.776  32.323  29.427  1.00  0.00     0.057 A 
ATOM     55  C   UNL A   1      45.844  33.333  28.460  1.00  0.00     0.134 A 
ATOM     56  C   UNL A   1      46.127  32.658  30.742  1.00  0.00     0.134 A 
ATOM     57  F   UNL A   1      45.537  33.072  27.180  1.00  0.00    -0.206 F 
ATOM     58  C   UNL A   1      46.253  34.627  28.788  1.00  0.00     0.040 A 
ATOM     59  C   UNL A   1      46.512  33.953  31.086  1.00  0.00     0.040 A 
ATOM     60  F   UNL A   1      46.076  31.737  31.715  1.00  0.00    -0.206 F 
ATOM     61  C   UNL A   1      46.577  34.943  30.107  1.00  0.00     0.006 A 
ENDBRANCH  37  54
ENDBRANCH  11  12
ENDBRANCH   4   6
ENDBRANCH   1   2
BRANCH   1  62
ATOM     62  C   UNL A   1      37.956  19.605  24.997  1.00  0.00     0.042 C 
BRANCH  62  63
ATOM     63  C   UNL A   1      36.808  20.601  24.983  1.00  0.00     0.117 C 
BRANCH  63  64
ATOM     64  N   UNL A   1      37.008  21.631  23.986  1.00  0.00    -0.356 N 
ATOM     65  C   UNL A   1      36.359  22.797  23.768  1.00  0.00     0.223 C 
ATOM     66  H   UNL A   1      37.745  21.451  23.358  1.00  0.00     0.163 HD
ATOM     67  O   UNL A   1      36.617  23.360  22.701  1.00  0.00    -0.275 OA
BRANCH  65  68
ATOM     68  C   UNL A   1      35.336  23.348  24.767  1.00  0.00     0.083 C 
ATOM     69  C   UNL A   1      34.519  24.567  24.254  1.00  0.00     0.020 C 
ATOM     70  C   UNL A   1      34.338  22.201  25.109  1.00  0.00     0.053 C 
ATOM     71  C   UNL A   1      33.795  24.286  22.924  1.00  0.00     0.057 C 
ATOM     72  C   UNL A   1      33.430  21.967  23.940  1.00  0.00     0.006 A 
ATOM     73  C   UNL A   1      33.207  22.928  22.978  1.00  0.00     0.039 A 
ATOM     74  C   UNL A   1      32.710  20.825  23.497  1.00  0.00     0.169 A 
ATOM     75  N   UNL A   1      32.425  22.355  22.028  1.00  0.00    -0.282 N 
ATOM     76  N   UNL A   1      32.079  21.092  22.328  1.00  0.00    -0.171 NA
ATOM     77  H   UNL A   1      32.141  22.816  21.207  1.00  0.00     0.190 HD
BRANCH  74  78
ATOM     78  C   UNL A   1      32.623  19.478  24.166  1.00  0.00     0.435 C 
ATOM     79  F   UNL A   1      33.846  18.903  24.331  1.00  0.00    -0.164 F 
ATOM     80  F   UNL A   1      32.048  19.540  25.398  1.00  0.00    -0.164 F 
ATOM     81  F   UNL A   1      31.887  18.585  23.445  1.00  0.00    -0.164 F 
ENDBRANCH  74  78
ENDBRANCH  65  68
ENDBRANCH  63  64
ENDBRANCH  62  63
ENDBRANCH   1  62
TORSDOF 11
ENDMDL
