MODEL 1
REMARK VINA RESULT:     -12.7      0.000      0.000
REMARK SMILES Cc1ccc(Nc2c(Cl)cccc2Cl)c(CC(=O)NCCCNC(=O)c2ccc(-c3c4nc(c(-c5c(F)cccc5F)c5ccc([nH]5)c(-c5c(F)cccc5F)c5nc(c(-c6c(F)cccc6F)c6ccc3[nH]6)C=C5)C=C4)cc2)c1
REMARK SMILES IDX 20 1 19 2 17 3 18 4 16 6 15 7 1 8 2 9 3 10 80 11 4 12 5 13
REMARK SMILES IDX 6 14 7 16 8 17 13 18 9 19 10 20 12 21 14 22 11 23 21 24
REMARK SMILES IDX 22 25 23 26 24 27 25 29 26 30 27 31 79 32 28 33 78 34 29 35
REMARK SMILES IDX 30 36 31 37 72 38 32 39 77 40 71 41 73 42 33 43 76 44 70 45
REMARK SMILES IDX 69 46 34 48 60 49 43 50 59 51 44 52 47 53 58 54 74 55 45 56
REMARK SMILES IDX 46 57 57 59 75 60 48 61 35 62 36 63 41 64 37 65 38 66 40 67
REMARK SMILES IDX 42 68 39 69 61 70 62 71 67 72 63 73 64 74 66 75 68 76 65 77
REMARK SMILES IDX 49 78 50 79 55 80 51 81 52 82 54 83 56 84 53 85
REMARK H PARENT 19 5 6 15 23 28 73 47 47 58
REMARK Flexibility Score: inf
ROOT
ATOM      1  C   UNL A   1      32.253  30.921  26.812  1.00  0.00     0.117 C 
ENDROOT
BRANCH   1   2
ATOM      2  N   UNL A   1      32.025  29.719  27.598  1.00  0.00    -0.356 N 
ATOM      3  C   UNL A   1      32.071  28.410  27.204  1.00  0.00     0.224 C 
ATOM      4  O   UNL A   1      31.750  27.538  28.016  1.00  0.00    -0.275 OA
ATOM      5  H   UNL A   1      31.805  29.867  28.546  1.00  0.00     0.163 HD
BRANCH   3   6
ATOM      6  C   UNL A   1      32.472  28.027  25.787  1.00  0.00     0.137 C 
BRANCH   6   7
ATOM      7  C   UNL A   1      31.304  27.553  24.949  1.00  0.00    -0.015 A 
ATOM      8  C   UNL A   1      28.732  29.235  22.669  1.00  0.00     0.044 C 
ATOM      9  C   UNL A   1      29.479  28.193  23.445  1.00  0.00    -0.051 A 
ATOM     10  C   UNL A   1      28.983  26.893  23.523  1.00  0.00     0.005 A 
ATOM     11  C   UNL A   1      30.658  28.503  24.128  1.00  0.00     0.009 A 
ATOM     12  C   UNL A   1      29.648  25.928  24.282  1.00  0.00     0.026 A 
ATOM     13  C   UNL A   1      30.807  26.232  25.017  1.00  0.00     0.042 A 
BRANCH  13  14
ATOM     14  N   UNL A   1      31.473  25.234  25.765  1.00  0.00    -0.353 N 
ATOM     15  H   UNL A   1      31.595  25.433  26.722  1.00  0.00     0.167 HD
BRANCH  14  16
ATOM     16  C   UNL A   1      31.993  23.988  25.331  1.00  0.00     0.076 A 
ATOM     17  C   UNL A   1      33.062  23.877  24.419  1.00  0.00     0.066 A 
ATOM     18  C   UNL A   1      31.371  22.791  25.749  1.00  0.00     0.066 A 
ATOM     19  Cl  UNL A   1      33.979  25.253  23.900  1.00  0.00    -0.082 Cl
ATOM     20  C   UNL A   1      33.472  22.627  23.933  1.00  0.00     0.023 A 
ATOM     21  C   UNL A   1      31.788  21.544  25.269  1.00  0.00     0.023 A 
ATOM     22  Cl  UNL A   1      30.031  22.817  26.847  1.00  0.00    -0.082 Cl
ATOM     23  C   UNL A   1      32.833  21.463  24.353  1.00  0.00     0.003 A 
ENDBRANCH  14  16
ENDBRANCH  13  14
ENDBRANCH   6   7
ENDBRANCH   3   6
ENDBRANCH   1   2
BRANCH   1  24
ATOM     24  C   UNL A   1      33.490  31.691  27.267  1.00  0.00     0.042 C 
BRANCH  24  25
ATOM     25  C   UNL A   1      34.512  30.862  28.027  1.00  0.00     0.118 C 
BRANCH  25  26
ATOM     26  N   UNL A   1      35.237  31.604  29.055  1.00  0.00    -0.352 N 
ATOM     27  C   UNL A   1      36.394  31.243  29.727  1.00  0.00     0.251 C 
ATOM     28  H   UNL A   1      34.853  32.476  29.302  1.00  0.00     0.163 HD
ATOM     29  O   UNL A   1      36.907  31.998  30.535  1.00  0.00    -0.269 OA
BRANCH  27  30
ATOM     30  C   UNL A   1      37.072  29.980  29.343  1.00  0.00     0.039 A 
ATOM     31  C   UNL A   1      37.243  29.009  30.334  1.00  0.00     0.014 A 
ATOM     32  C   UNL A   1      37.737  29.875  28.126  1.00  0.00     0.014 A 
ATOM     33  C   UNL A   1      38.287  28.098  30.212  1.00  0.00     0.010 A 
ATOM     34  C   UNL A   1      38.835  29.042  28.047  1.00  0.00     0.010 A 
ATOM     35  C   UNL A   1      39.156  28.211  29.127  1.00  0.00    -0.014 A 
BRANCH  35  36
ATOM     36  C   UNL A   1      40.490  27.620  29.116  1.00  0.00     0.031 A 
ATOM     37  C   UNL A   1      40.695  26.213  28.727  1.00  0.00     0.074 A 
ATOM     38  C   UNL A   1      41.559  28.404  29.383  1.00  0.00     0.049 A 
ATOM     39  N   UNL A   1      41.745  25.522  29.019  1.00  0.00    -0.248 NA
ATOM     40  C   UNL A   1      39.690  25.454  27.999  1.00  0.00     0.031 C 
ATOM     41  C   UNL A   1      42.969  28.093  29.166  1.00  0.00     0.029 A 
ATOM     42  N   UNL A   1      41.576  29.586  30.138  1.00  0.00    -0.354 N 
ATOM     43  C   UNL A   1      41.690  24.348  28.303  1.00  0.00     0.074 A 
ATOM     44  C   UNL A   1      40.359  24.327  27.741  1.00  0.00     0.031 C 
ATOM     45  C   UNL A   1      43.705  28.838  30.004  1.00  0.00     0.029 A 
ATOM     46  C   UNL A   1      42.782  29.540  30.879  1.00  0.00     0.049 A 
ATOM     47  H   UNL A   1      40.895  30.296  30.151  1.00  0.00     0.167 HD
ATOM     48  C   UNL A   1      42.824  23.597  28.174  1.00  0.00     0.037 A 
ATOM     49  C   UNL A   1      42.761  29.453  32.240  1.00  0.00     0.037 A 
ATOM     50  C   UNL A   1      43.917  24.126  28.994  1.00  0.00     0.049 A 
ATOM     51  C   UNL A   1      43.410  28.207  32.808  1.00  0.00     0.074 A 
ATOM     52  C   UNL A   1      45.041  24.895  28.743  1.00  0.00     0.029 A 
ATOM     53  N   UNL A   1      43.781  24.096  30.370  1.00  0.00    -0.354 N 
ATOM     54  N   UNL A   1      43.900  27.235  32.089  1.00  0.00    -0.248 NA
ATOM     55  C   UNL A   1      43.465  27.916  34.243  1.00  0.00     0.031 C 
ATOM     56  C   UNL A   1      45.564  25.344  29.991  1.00  0.00     0.029 A 
ATOM     57  C   UNL A   1      44.757  24.845  30.996  1.00  0.00     0.049 A 
ATOM     58  H   UNL A   1      43.074  23.602  30.844  1.00  0.00     0.167 HD
ATOM     59  C   UNL A   1      44.254  26.198  32.911  1.00  0.00     0.074 A 
ATOM     60  C   UNL A   1      43.976  26.674  34.252  1.00  0.00     0.031 C 
ATOM     61  C   UNL A   1      44.699  25.000  32.440  1.00  0.00     0.037 A 
BRANCH  48  62
ATOM     62  C   UNL A   1      43.016  22.521  27.124  1.00  0.00     0.057 A 
ATOM     63  C   UNL A   1      42.308  21.304  27.201  1.00  0.00     0.134 A 
ATOM     64  C   UNL A   1      43.918  22.587  26.049  1.00  0.00     0.134 A 
ATOM     65  F   UNL A   1      41.321  21.116  28.087  1.00  0.00    -0.206 F 
ATOM     66  C   UNL A   1      42.572  20.210  26.368  1.00  0.00     0.040 A 
ATOM     67  C   UNL A   1      44.236  21.482  25.243  1.00  0.00     0.040 A 
ATOM     68  F   UNL A   1      44.485  23.739  25.674  1.00  0.00    -0.206 F 
ATOM     69  C   UNL A   1      43.572  20.279  25.412  1.00  0.00     0.006 A 
ENDBRANCH  48  62
BRANCH  49  70
ATOM     70  C   UNL A   1      41.599  30.157  32.846  1.00  0.00     0.057 A 
ATOM     71  C   UNL A   1      41.638  31.559  32.957  1.00  0.00     0.134 A 
ATOM     72  C   UNL A   1      40.351  29.543  32.980  1.00  0.00     0.134 A 
ATOM     73  F   UNL A   1      42.805  32.213  32.837  1.00  0.00    -0.206 F 
ATOM     74  C   UNL A   1      40.476  32.323  33.076  1.00  0.00     0.040 A 
ATOM     75  C   UNL A   1      39.182  30.298  33.120  1.00  0.00     0.040 A 
ATOM     76  F   UNL A   1      40.226  28.214  32.861  1.00  0.00    -0.206 F 
ATOM     77  C   UNL A   1      39.239  31.692  33.127  1.00  0.00     0.006 A 
ENDBRANCH  49  70
BRANCH  61  78
ATOM     78  C   UNL A   1      45.105  23.867  33.332  1.00  0.00     0.057 A 
ATOM     79  C   UNL A   1      44.203  22.872  33.732  1.00  0.00     0.134 A 
ATOM     80  C   UNL A   1      46.382  23.814  33.919  1.00  0.00     0.134 A 
ATOM     81  F   UNL A   1      42.946  22.854  33.264  1.00  0.00    -0.206 F 
ATOM     82  C   UNL A   1      44.558  21.871  34.643  1.00  0.00     0.040 A 
ATOM     83  C   UNL A   1      46.734  22.847  34.864  1.00  0.00     0.040 A 
ATOM     84  F   UNL A   1      47.345  24.686  33.584  1.00  0.00    -0.206 F 
ATOM     85  C   UNL A   1      45.821  21.866  35.225  1.00  0.00     0.006 A 
ENDBRANCH  61  78
ENDBRANCH  35  36
ENDBRANCH  27  30
ENDBRANCH  25  26
ENDBRANCH  24  25
ENDBRANCH   1  24
TORSDOF 13
ENDMDL
MODEL 2
REMARK VINA RESULT:     -12.6      3.967      9.495
REMARK SMILES Cc1ccc(Nc2c(Cl)cccc2Cl)c(CC(=O)NCCCNC(=O)c2ccc(-c3c4nc(c(-c5c(F)cccc5F)c5ccc([nH]5)c(-c5c(F)cccc5F)c5nc(c(-c6c(F)cccc6F)c6ccc3[nH]6)C=C5)C=C4)cc2)c1
REMARK SMILES IDX 20 1 19 2 17 3 18 4 16 6 15 7 1 8 2 9 3 10 80 11 4 12 5 13
REMARK SMILES IDX 6 14 7 16 8 17 13 18 9 19 10 20 12 21 14 22 11 23 21 24
REMARK SMILES IDX 22 25 23 26 24 27 25 29 26 30 27 31 79 32 28 33 78 34 29 35
REMARK SMILES IDX 30 36 31 37 72 38 32 39 77 40 71 41 73 42 33 43 76 44 70 45
REMARK SMILES IDX 69 46 34 48 60 49 43 50 59 51 44 52 47 53 58 54 74 55 45 56
REMARK SMILES IDX 46 57 57 59 75 60 48 61 35 62 36 63 41 64 37 65 38 66 40 67
REMARK SMILES IDX 42 68 39 69 61 70 62 71 67 72 63 73 64 74 66 75 68 76 65 77
REMARK SMILES IDX 49 78 50 79 55 80 51 81 52 82 54 83 56 84 53 85
REMARK H PARENT 19 5 6 15 23 28 73 47 47 58
REMARK Flexibility Score: inf
ROOT
ATOM      1  C   UNL A   1      37.873  21.116  25.394  1.00  0.00     0.117 C 
ENDROOT
BRANCH   1   2
ATOM      2  N   UNL A   1      37.651  22.000  24.261  1.00  0.00    -0.356 N 
ATOM      3  C   UNL A   1      36.543  22.737  23.946  1.00  0.00     0.224 C 
ATOM      4  O   UNL A   1      36.529  23.355  22.879  1.00  0.00    -0.275 OA
ATOM      5  H   UNL A   1      38.404  22.080  23.632  1.00  0.00     0.163 HD
BRANCH   3   6
ATOM      6  C   UNL A   1      35.332  22.771  24.867  1.00  0.00     0.137 C 
BRANCH   6   7
ATOM      7  C   UNL A   1      34.090  22.182  24.234  1.00  0.00    -0.015 A 
ATOM      8  C   UNL A   1      32.618  18.667  23.889  1.00  0.00     0.044 C 
ATOM      9  C   UNL A   1      32.808  20.148  23.762  1.00  0.00    -0.051 A 
ATOM     10  C   UNL A   1      31.968  20.890  22.935  1.00  0.00     0.005 A 
ATOM     11  C   UNL A   1      33.839  20.807  24.436  1.00  0.00     0.009 A 
ATOM     12  C   UNL A   1      32.168  22.263  22.775  1.00  0.00     0.026 A 
ATOM     13  C   UNL A   1      33.230  22.936  23.404  1.00  0.00     0.042 A 
BRANCH  13  14
ATOM     14  N   UNL A   1      33.402  24.330  23.242  1.00  0.00    -0.353 N 
ATOM     15  H   UNL A   1      34.327  24.625  23.074  1.00  0.00     0.167 HD
BRANCH  14  16
ATOM     16  C   UNL A   1      32.432  25.363  23.288  1.00  0.00     0.076 A 
ATOM     17  C   UNL A   1      32.001  26.063  22.142  1.00  0.00     0.066 A 
ATOM     18  C   UNL A   1      31.924  25.787  24.535  1.00  0.00     0.066 A 
ATOM     19  Cl  UNL A   1      32.463  25.588  20.541  1.00  0.00    -0.082 Cl
ATOM     20  C   UNL A   1      31.121  27.151  22.248  1.00  0.00     0.023 A 
ATOM     21  C   UNL A   1      31.040  26.867  24.636  1.00  0.00     0.023 A 
ATOM     22  Cl  UNL A   1      32.410  25.011  26.006  1.00  0.00    -0.082 Cl
ATOM     23  C   UNL A   1      30.646  27.555  23.493  1.00  0.00     0.003 A 
ENDBRANCH  14  16
ENDBRANCH  13  14
ENDBRANCH   6   7
ENDBRANCH   3   6
ENDBRANCH   1   2
BRANCH   1  24
ATOM     24  C   UNL A   1      39.237  21.328  26.044  1.00  0.00     0.042 C 
BRANCH  24  25
ATOM     25  C   UNL A   1      39.521  22.758  26.476  1.00  0.00     0.118 C 
BRANCH  25  26
ATOM     26  N   UNL A   1      40.942  23.091  26.537  1.00  0.00    -0.352 N 
ATOM     27  C   UNL A   1      41.530  24.322  26.786  1.00  0.00     0.251 C 
ATOM     28  H   UNL A   1      41.563  22.344  26.381  1.00  0.00     0.163 HD
ATOM     29  O   UNL A   1      42.743  24.432  26.848  1.00  0.00    -0.269 OA
BRANCH  27  30
ATOM     30  C   UNL A   1      40.653  25.473  27.113  1.00  0.00     0.039 A 
ATOM     31  C   UNL A   1      40.792  26.632  26.344  1.00  0.00     0.014 A 
ATOM     32  C   UNL A   1      39.917  25.490  28.294  1.00  0.00     0.014 A 
ATOM     33  C   UNL A   1      40.433  27.856  26.899  1.00  0.00     0.010 A 
ATOM     34  C   UNL A   1      39.655  26.708  28.888  1.00  0.00     0.010 A 
ATOM     35  C   UNL A   1      39.990  27.892  28.221  1.00  0.00    -0.014 A 
BRANCH  35  36
ATOM     36  C   UNL A   1      40.002  29.109  29.026  1.00  0.00     0.031 A 
ATOM     37  C   UNL A   1      38.943  30.125  28.883  1.00  0.00     0.074 A 
ATOM     38  C   UNL A   1      40.950  29.259  29.978  1.00  0.00     0.049 A 
ATOM     39  N   UNL A   1      39.052  31.351  29.272  1.00  0.00    -0.248 NA
ATOM     40  C   UNL A   1      37.672  29.837  28.237  1.00  0.00     0.031 C 
ATOM     41  C   UNL A   1      40.985  30.245  31.054  1.00  0.00     0.029 A 
ATOM     42  N   UNL A   1      42.220  28.664  30.011  1.00  0.00    -0.354 N 
ATOM     43  C   UNL A   1      37.807  31.931  29.193  1.00  0.00     0.074 A 
ATOM     44  C   UNL A   1      37.002  30.967  28.478  1.00  0.00     0.031 C 
ATOM     45  C   UNL A   1      42.261  30.423  31.430  1.00  0.00     0.029 A 
ATOM     46  C   UNL A   1      43.089  29.663  30.510  1.00  0.00     0.049 A 
ATOM     47  H   UNL A   1      42.456  27.747  29.743  1.00  0.00     0.167 HD
ATOM     48  C   UNL A   1      37.580  33.106  29.852  1.00  0.00     0.037 A 
ATOM     49  C   UNL A   1      44.080  30.180  29.727  1.00  0.00     0.037 A 
ATOM     50  C   UNL A   1      38.813  33.646  30.431  1.00  0.00     0.049 A 
ATOM     51  C   UNL A   1      43.972  31.668  29.463  1.00  0.00     0.074 A 
ATOM     52  C   UNL A   1      39.370  33.662  31.699  1.00  0.00     0.029 A 
ATOM     53  N   UNL A   1      39.817  34.057  29.573  1.00  0.00    -0.354 N 
ATOM     54  N   UNL A   1      42.989  32.422  29.872  1.00  0.00    -0.248 NA
ATOM     55  C   UNL A   1      44.922  32.403  28.624  1.00  0.00     0.031 C 
ATOM     56  C   UNL A   1      40.731  34.070  31.584  1.00  0.00     0.029 A 
ATOM     57  C   UNL A   1      40.997  34.301  30.248  1.00  0.00     0.049 A 
ATOM     58  H   UNL A   1      39.704  34.162  28.601  1.00  0.00     0.167 HD
ATOM     59  C   UNL A   1      43.116  33.669  29.321  1.00  0.00     0.074 A 
ATOM     60  C   UNL A   1      44.348  33.616  28.558  1.00  0.00     0.031 C 
ATOM     61  C   UNL A   1      42.181  34.647  29.480  1.00  0.00     0.037 A 
BRANCH  48  62
ATOM     62  C   UNL A   1      36.202  33.647  30.176  1.00  0.00     0.057 A 
ATOM     63  C   UNL A   1      35.359  34.130  29.154  1.00  0.00     0.134 A 
ATOM     64  C   UNL A   1      35.663  33.777  31.467  1.00  0.00     0.134 A 
ATOM     65  F   UNL A   1      35.659  33.975  27.858  1.00  0.00    -0.206 F 
ATOM     66  C   UNL A   1      34.155  34.801  29.407  1.00  0.00     0.040 A 
ATOM     67  C   UNL A   1      34.488  34.496  31.741  1.00  0.00     0.040 A 
ATOM     68  F   UNL A   1      36.201  33.154  32.521  1.00  0.00    -0.206 F 
ATOM     69  C   UNL A   1      33.737  35.027  30.708  1.00  0.00     0.006 A 
ENDBRANCH  48  62
BRANCH  49  70
ATOM     70  C   UNL A   1      44.639  29.186  28.772  1.00  0.00     0.057 A 
ATOM     71  C   UNL A   1      45.567  28.240  29.244  1.00  0.00     0.134 A 
ATOM     72  C   UNL A   1      44.033  28.923  27.540  1.00  0.00     0.134 A 
ATOM     73  F   UNL A   1      46.185  28.429  30.421  1.00  0.00    -0.206 F 
ATOM     74  C   UNL A   1      45.794  27.033  28.579  1.00  0.00     0.040 A 
ATOM     75  C   UNL A   1      44.269  27.726  26.856  1.00  0.00     0.040 A 
ATOM     76  F   UNL A   1      43.119  29.763  27.035  1.00  0.00    -0.206 F 
ATOM     77  C   UNL A   1      45.118  26.760  27.396  1.00  0.00     0.006 A 
ENDBRANCH  49  70
BRANCH  61  78
ATOM     78  C   UNL A   1      42.322  36.020  28.896  1.00  0.00     0.057 A 
ATOM     79  C   UNL A   1      41.814  36.348  27.632  1.00  0.00     0.134 A 
ATOM     80  C   UNL A   1      43.082  37.016  29.534  1.00  0.00     0.134 A 
ATOM     81  F   UNL A   1      41.109  35.456  26.920  1.00  0.00    -0.206 F 
ATOM     82  C   UNL A   1      42.032  37.601  27.048  1.00  0.00     0.040 A 
ATOM     83  C   UNL A   1      43.345  38.254  28.941  1.00  0.00     0.040 A 
ATOM     84  F   UNL A   1      43.584  36.835  30.765  1.00  0.00    -0.206 F 
ATOM     85  C   UNL A   1      42.813  38.553  27.695  1.00  0.00     0.006 A 
ENDBRANCH  61  78
ENDBRANCH  35  36
ENDBRANCH  27  30
ENDBRANCH  25  26
ENDBRANCH  24  25
ENDBRANCH   1  24
TORSDOF 13
ENDMDL
MODEL 3
REMARK VINA RESULT:     -12.2      1.897      2.432
REMARK SMILES Cc1ccc(Nc2c(Cl)cccc2Cl)c(CC(=O)NCCCNC(=O)c2ccc(-c3c4nc(c(-c5c(F)cccc5F)c5ccc([nH]5)c(-c5c(F)cccc5F)c5nc(c(-c6c(F)cccc6F)c6ccc3[nH]6)C=C5)C=C4)cc2)c1
REMARK SMILES IDX 20 1 19 2 17 3 18 4 16 6 15 7 1 8 2 9 3 10 80 11 4 12 5 13
REMARK SMILES IDX 6 14 7 16 8 17 13 18 9 19 10 20 12 21 14 22 11 23 21 24
REMARK SMILES IDX 22 25 23 26 24 27 25 29 26 30 27 31 79 32 28 33 78 34 29 35
REMARK SMILES IDX 30 36 31 37 72 38 32 39 77 40 71 41 73 42 33 43 76 44 70 45
REMARK SMILES IDX 69 46 34 48 60 49 43 50 59 51 44 52 47 53 58 54 74 55 45 56
REMARK SMILES IDX 46 57 57 59 75 60 48 61 35 62 36 63 41 64 37 65 38 66 40 67
REMARK SMILES IDX 42 68 39 69 61 70 62 71 67 72 63 73 64 74 66 75 68 76 65 77
REMARK SMILES IDX 49 78 50 79 55 80 51 81 52 82 54 83 56 84 53 85
REMARK H PARENT 19 5 6 15 23 28 73 47 47 58
REMARK Flexibility Score: inf
ROOT
ATOM      1  C   UNL A   1      32.541  28.863  25.736  1.00  0.00     0.117 C 
ENDROOT
BRANCH   1   2
ATOM      2  N   UNL A   1      31.849  27.713  26.297  1.00  0.00    -0.356 N 
ATOM      3  C   UNL A   1      32.247  26.405  26.343  1.00  0.00     0.224 C 
ATOM      4  O   UNL A   1      31.460  25.565  26.786  1.00  0.00    -0.275 OA
ATOM      5  H   UNL A   1      30.971  27.902  26.699  1.00  0.00     0.163 HD
BRANCH   3   6
ATOM      6  C   UNL A   1      33.614  25.978  25.829  1.00  0.00     0.137 C 
BRANCH   6   7
ATOM      7  C   UNL A   1      33.548  25.257  24.500  1.00  0.00    -0.015 A 
ATOM      8  C   UNL A   1      32.032  26.010  21.069  1.00  0.00     0.044 C 
ATOM      9  C   UNL A   1      32.738  25.307  22.189  1.00  0.00    -0.051 A 
ATOM     10  C   UNL A   1      33.135  23.980  22.039  1.00  0.00     0.005 A 
ATOM     11  C   UNL A   1      32.983  25.948  23.406  1.00  0.00     0.009 A 
ATOM     12  C   UNL A   1      33.751  23.304  23.095  1.00  0.00     0.026 A 
ATOM     13  C   UNL A   1      33.961  23.915  24.344  1.00  0.00     0.042 A 
BRANCH  13  14
ATOM     14  N   UNL A   1      34.603  23.217  25.392  1.00  0.00    -0.353 N 
ATOM     15  H   UNL A   1      34.321  23.467  26.302  1.00  0.00     0.167 HD
BRANCH  14  16
ATOM     16  C   UNL A   1      35.597  22.208  25.319  1.00  0.00     0.076 A 
ATOM     17  C   UNL A   1      36.979  22.487  25.362  1.00  0.00     0.066 A 
ATOM     18  C   UNL A   1      35.214  20.866  25.105  1.00  0.00     0.066 A 
ATOM     19  Cl  UNL A   1      37.591  24.069  25.717  1.00  0.00    -0.082 Cl
ATOM     20  C   UNL A   1      37.928  21.471  25.177  1.00  0.00     0.023 A 
ATOM     21  C   UNL A   1      36.163  19.854  24.929  1.00  0.00     0.023 A 
ATOM     22  Cl  UNL A   1      33.542  20.421  25.009  1.00  0.00    -0.082 Cl
ATOM     23  C   UNL A   1      37.521  20.158  24.955  1.00  0.00     0.003 A 
ENDBRANCH  14  16
ENDBRANCH  13  14
ENDBRANCH   6   7
ENDBRANCH   3   6
ENDBRANCH   1   2
BRANCH   1  24
ATOM     24  C   UNL A   1      32.897  29.904  26.793  1.00  0.00     0.042 C 
BRANCH  24  25
ATOM     25  C   UNL A   1      34.128  29.575  27.622  1.00  0.00     0.118 C 
BRANCH  25  26
ATOM     26  N   UNL A   1      34.747  30.735  28.257  1.00  0.00    -0.352 N 
ATOM     27  C   UNL A   1      36.042  30.870  28.735  1.00  0.00     0.251 C 
ATOM     28  H   UNL A   1      34.169  31.525  28.359  1.00  0.00     0.163 HD
ATOM     29  O   UNL A   1      36.426  31.928  29.204  1.00  0.00    -0.269 OA
BRANCH  27  30
ATOM     30  C   UNL A   1      36.990  29.747  28.538  1.00  0.00     0.039 A 
ATOM     31  C   UNL A   1      37.180  28.864  29.606  1.00  0.00     0.014 A 
ATOM     32  C   UNL A   1      37.845  29.726  27.441  1.00  0.00     0.014 A 
ATOM     33  C   UNL A   1      38.380  28.165  29.697  1.00  0.00     0.010 A 
ATOM     34  C   UNL A   1      39.076  29.115  27.578  1.00  0.00     0.010 A 
ATOM     35  C   UNL A   1      39.371  28.402  28.745  1.00  0.00    -0.014 A 
BRANCH  35  36
ATOM     36  C   UNL A   1      40.776  28.077  28.968  1.00  0.00     0.031 A 
ATOM     37  C   UNL A   1      41.375  26.859  28.393  1.00  0.00     0.074 A 
ATOM     38  C   UNL A   1      41.555  28.955  29.638  1.00  0.00     0.049 A 
ATOM     39  N   UNL A   1      42.468  26.316  28.812  1.00  0.00    -0.248 NA
ATOM     40  C   UNL A   1      40.747  26.123  27.306  1.00  0.00     0.031 C 
ATOM     41  C   UNL A   1      43.012  28.959  29.736  1.00  0.00     0.029 A 
ATOM     42  N   UNL A   1      41.142  29.912  30.577  1.00  0.00    -0.354 N 
ATOM     43  C   UNL A   1      42.837  25.352  27.904  1.00  0.00     0.074 A 
ATOM     44  C   UNL A   1      41.696  25.225  27.025  1.00  0.00     0.031 C 
ATOM     45  C   UNL A   1      43.364  29.607  30.857  1.00  0.00     0.029 A 
ATOM     46  C   UNL A   1      42.141  29.910  31.580  1.00  0.00     0.049 A 
ATOM     47  H   UNL A   1      40.329  30.466  30.544  1.00  0.00     0.167 HD
ATOM     48  C   UNL A   1      44.112  24.865  27.934  1.00  0.00     0.037 A 
ATOM     49  C   UNL A   1      41.852  29.506  32.851  1.00  0.00     0.037 A 
ATOM     50  C   UNL A   1      44.856  25.374  29.088  1.00  0.00     0.049 A 
ATOM     51  C   UNL A   1      42.633  28.299  33.328  1.00  0.00     0.074 A 
ATOM     52  C   UNL A   1      45.802  26.369  29.279  1.00  0.00     0.029 A 
ATOM     53  N   UNL A   1      44.442  25.001  30.355  1.00  0.00    -0.354 N 
ATOM     54  N   UNL A   1      43.473  27.624  32.592  1.00  0.00    -0.248 NA
ATOM     55  C   UNL A   1      42.448  27.696  34.650  1.00  0.00     0.031 C 
ATOM     56  C   UNL A   1      45.931  26.600  30.680  1.00  0.00     0.029 A 
ATOM     57  C   UNL A   1      45.065  25.745  31.336  1.00  0.00     0.049 A 
ATOM     58  H   UNL A   1      43.782  24.293  30.533  1.00  0.00     0.167 HD
ATOM     59  C   UNL A   1      43.872  26.504  33.272  1.00  0.00     0.074 A 
ATOM     60  C   UNL A   1      43.215  26.597  34.561  1.00  0.00     0.031 C 
ATOM     61  C   UNL A   1      44.669  25.548  32.719  1.00  0.00     0.037 A 
BRANCH  48  62
ATOM     62  C   UNL A   1      44.764  24.115  26.789  1.00  0.00     0.057 A 
ATOM     63  C   UNL A   1      44.439  22.767  26.533  1.00  0.00     0.134 A 
ATOM     64  C   UNL A   1      45.755  24.632  25.938  1.00  0.00     0.134 A 
ATOM     65  F   UNL A   1      43.432  22.150  27.165  1.00  0.00    -0.206 F 
ATOM     66  C   UNL A   1      45.133  21.973  25.610  1.00  0.00     0.040 A 
ATOM     67  C   UNL A   1      46.497  23.838  25.050  1.00  0.00     0.040 A 
ATOM     68  F   UNL A   1      46.008  25.943  25.867  1.00  0.00    -0.206 F 
ATOM     69  C   UNL A   1      46.197  22.495  24.895  1.00  0.00     0.006 A 
ENDBRANCH  48  62
BRANCH  49  70
ATOM     70  C   UNL A   1      40.459  29.831  33.258  1.00  0.00     0.057 A 
ATOM     71  C   UNL A   1      40.128  31.171  33.533  1.00  0.00     0.134 A 
ATOM     72  C   UNL A   1      39.399  28.947  33.038  1.00  0.00     0.134 A 
ATOM     73  F   UNL A   1      41.097  32.074  33.753  1.00  0.00    -0.206 F 
ATOM     74  C   UNL A   1      38.812  31.634  33.476  1.00  0.00     0.040 A 
ATOM     75  C   UNL A   1      38.075  29.396  32.998  1.00  0.00     0.040 A 
ATOM     76  F   UNL A   1      39.632  27.660  32.744  1.00  0.00    -0.206 F 
ATOM     77  C   UNL A   1      37.783  30.748  33.176  1.00  0.00     0.006 A 
ENDBRANCH  49  70
BRANCH  61  78
ATOM     78  C   UNL A   1      45.124  24.329  33.463  1.00  0.00     0.057 A 
ATOM     79  C   UNL A   1      44.378  23.143  33.480  1.00  0.00     0.134 A 
ATOM     80  C   UNL A   1      46.263  24.353  34.288  1.00  0.00     0.134 A 
ATOM     81  F   UNL A   1      43.251  23.028  32.761  1.00  0.00    -0.206 F 
ATOM     82  C   UNL A   1      44.755  22.040  34.254  1.00  0.00     0.040 A 
ATOM     83  C   UNL A   1      46.625  23.274  35.100  1.00  0.00     0.040 A 
ATOM     84  F   UNL A   1      47.081  25.416  34.324  1.00  0.00    -0.206 F 
ATOM     85  C   UNL A   1      45.872  22.109  35.079  1.00  0.00     0.006 A 
ENDBRANCH  61  78
ENDBRANCH  35  36
ENDBRANCH  27  30
ENDBRANCH  25  26
ENDBRANCH  24  25
ENDBRANCH   1  24
TORSDOF 13
ENDMDL
