MODEL 1
REMARK VINA RESULT:     -12.1      0.000      0.000
REMARK SMILES Cc1nn(C[C@@H]2[NH2+][C@@H](C(=O)NCCCNC(=O)c3ccc(-c4c5nc(c(-c6c(F)cccc6F)c6ccc([nH]6)c(-c6c(F)cccc6F)c6nc(c(-c7c(F)cccc7F)c7ccc4[nH]7)C=C6)C=C5)cc3)CS2)c(C)c1Cl
REMARK SMILES IDX 13 1 12 2 11 3 9 4 10 5 8 7 6 8 7 9 73 10 72 13 5 14 4 15
REMARK SMILES IDX 1 16 2 17 3 18 76 19 74 20 77 21 75 22 14 23 15 24 16 25
REMARK SMILES IDX 17 27 18 28 19 29 71 30 20 31 70 32 21 33 22 34 23 35 64 36
REMARK SMILES IDX 24 37 69 38 63 39 65 40 25 41 68 42 62 43 61 44 26 46 52 47
REMARK SMILES IDX 35 48 51 49 36 50 39 51 50 52 66 53 37 54 38 55 49 57 67 58
REMARK SMILES IDX 40 59 27 60 28 61 33 62 29 63 30 64 32 65 34 66 31 67 53 68
REMARK SMILES IDX 54 69 59 70 55 71 56 72 58 73 60 74 57 75 41 76 42 77 47 78
REMARK SMILES IDX 43 79 44 80 46 81 48 82 45 83
REMARK H PARENT 11 6 7 11 7 12 15 26 65 45 39 56
REMARK Flexibility Score: inf
ROOT
ATOM      1  C   UNL A   1      37.622  19.832  24.653  1.00  0.00     0.042 C 
ENDROOT
BRANCH   1   2
ATOM      2  C   UNL A   1      36.237  20.328  25.095  1.00  0.00     0.118 C 
BRANCH   2   3
ATOM      3  N   UNL A   1      35.164  19.379  24.797  1.00  0.00    -0.351 N 
ATOM      4  C   UNL A   1      33.811  19.615  24.732  1.00  0.00     0.279 C 
ATOM      5  O   UNL A   1      33.054  18.680  24.471  1.00  0.00    -0.268 OA
ATOM      6  H   UNL A   1      35.448  18.452  24.620  1.00  0.00     0.163 HD
BRANCH   4   7
ATOM      7  C   UNL A   1      33.318  21.053  24.913  1.00  0.00     0.283 C 
ATOM      8  C   UNL A   1      31.687  22.498  25.843  1.00  0.00     0.264 C 
ATOM      9  N   UNL A   1      32.139  21.102  25.821  1.00  0.00    -0.323 N 
ATOM     10  S   UNL A   1      31.699  23.010  24.099  1.00  0.00    -0.091 SA
ATOM     11  H   UNL A   1      31.398  20.497  25.466  1.00  0.00     0.348 HD
ATOM     12  H   UNL A   1      32.382  20.778  26.756  1.00  0.00     0.348 HD
ATOM     13  C   UNL A   1      32.948  21.769  23.616  1.00  0.00     0.151 C 
BRANCH   8  14
ATOM     14  C   UNL A   1      32.423  23.430  26.848  1.00  0.00     0.221 C 
BRANCH  14  15
ATOM     15  N   UNL A   1      32.509  24.841  26.517  1.00  0.00    -0.261 N 
ATOM     16  C   UNL A   1      31.146  28.048  27.075  1.00  0.00     0.070 C 
ATOM     17  C   UNL A   1      31.950  26.884  26.630  1.00  0.00     0.078 A 
ATOM     18  N   UNL A   1      31.459  25.647  26.780  1.00  0.00    -0.176 NA
ATOM     19  C   UNL A   1      33.236  26.850  26.049  1.00  0.00     0.084 A 
ATOM     20  C   UNL A   1      33.552  25.513  25.925  1.00  0.00     0.055 A 
ATOM     21  Cl  UNL A   1      34.185  28.189  25.619  1.00  0.00    -0.080 Cl
ATOM     22  C   UNL A   1      34.746  24.840  25.359  1.00  0.00     0.068 C 
ENDBRANCH  14  15
ENDBRANCH   8  14
ENDBRANCH   4   7
ENDBRANCH   2   3
ENDBRANCH   1   2
BRANCH   1  23
ATOM     23  C   UNL A   1      38.715  20.207  25.633  1.00  0.00     0.118 C 
BRANCH  23  24
ATOM     24  N   UNL A   1      39.745  19.170  25.788  1.00  0.00    -0.352 N 
ATOM     25  C   UNL A   1      41.114  19.333  25.973  1.00  0.00     0.251 C 
ATOM     26  H   UNL A   1      39.426  18.240  25.757  1.00  0.00     0.163 HD
ATOM     27  O   UNL A   1      41.901  18.432  25.745  1.00  0.00    -0.269 OA
BRANCH  25  28
ATOM     28  C   UNL A   1      41.587  20.634  26.477  1.00  0.00     0.039 A 
ATOM     29  C   UNL A   1      42.216  21.596  25.681  1.00  0.00     0.014 A 
ATOM     30  C   UNL A   1      41.312  20.891  27.810  1.00  0.00     0.014 A 
ATOM     31  C   UNL A   1      42.513  22.833  26.254  1.00  0.00     0.010 A 
ATOM     32  C   UNL A   1      41.277  22.178  28.236  1.00  0.00     0.010 A 
ATOM     33  C   UNL A   1      42.033  23.103  27.543  1.00  0.00    -0.014 A 
BRANCH  33  34
ATOM     34  C   UNL A   1      42.255  24.349  28.251  1.00  0.00     0.031 A 
ATOM     35  C   UNL A   1      41.143  25.320  28.147  1.00  0.00     0.074 A 
ATOM     36  C   UNL A   1      43.247  24.451  29.168  1.00  0.00     0.049 A 
ATOM     37  N   UNL A   1      41.158  26.470  27.565  1.00  0.00    -0.248 NA
ATOM     38  C   UNL A   1      39.808  24.902  28.608  1.00  0.00     0.031 C 
ATOM     39  C   UNL A   1      44.208  23.426  29.611  1.00  0.00     0.029 A 
ATOM     40  N   UNL A   1      43.523  25.485  30.003  1.00  0.00    -0.354 N 
ATOM     41  C   UNL A   1      39.897  27.019  27.776  1.00  0.00     0.074 A 
ATOM     42  C   UNL A   1      39.060  25.938  28.224  1.00  0.00     0.031 C 
ATOM     43  C   UNL A   1      44.784  23.809  30.772  1.00  0.00     0.029 A 
ATOM     44  C   UNL A   1      44.369  25.164  31.064  1.00  0.00     0.049 A 
ATOM     45  H   UNL A   1      43.155  26.388  29.871  1.00  0.00     0.167 HD
ATOM     46  C   UNL A   1      39.716  28.368  27.803  1.00  0.00     0.037 A 
ATOM     47  C   UNL A   1      44.650  25.967  32.121  1.00  0.00     0.037 A 
ATOM     48  C   UNL A   1      40.872  29.053  27.279  1.00  0.00     0.049 A 
ATOM     49  C   UNL A   1      44.304  27.355  31.708  1.00  0.00     0.074 A 
ATOM     50  C   UNL A   1      41.529  29.043  26.063  1.00  0.00     0.029 A 
ATOM     51  N   UNL A   1      41.769  29.573  28.182  1.00  0.00    -0.354 N 
ATOM     52  N   UNL A   1      44.941  28.002  30.768  1.00  0.00    -0.248 NA
ATOM     53  C   UNL A   1      42.942  27.803  31.960  1.00  0.00     0.031 C 
ATOM     54  C   UNL A   1      42.916  29.064  26.399  1.00  0.00     0.029 A 
ATOM     55  C   UNL A   1      43.024  29.180  27.785  1.00  0.00     0.049 A 
ATOM     56  H   UNL A   1      41.552  30.124  28.969  1.00  0.00     0.167 HD
ATOM     57  C   UNL A   1      43.947  28.632  30.030  1.00  0.00     0.074 A 
ATOM     58  C   UNL A   1      42.739  28.519  30.848  1.00  0.00     0.031 C 
ATOM     59  C   UNL A   1      44.110  28.910  28.701  1.00  0.00     0.037 A 
BRANCH  46  60
ATOM     60  C   UNL A   1      38.676  29.080  28.631  1.00  0.00     0.057 A 
ATOM     61  C   UNL A   1      38.662  28.880  30.024  1.00  0.00     0.134 A 
ATOM     62  C   UNL A   1      37.533  29.717  28.107  1.00  0.00     0.134 A 
ATOM     63  F   UNL A   1      39.690  28.283  30.644  1.00  0.00    -0.206 F 
ATOM     64  C   UNL A   1      37.559  29.212  30.818  1.00  0.00     0.040 A 
ATOM     65  C   UNL A   1      36.448  30.100  28.900  1.00  0.00     0.040 A 
ATOM     66  F   UNL A   1      37.351  29.912  26.797  1.00  0.00    -0.206 F 
ATOM     67  C   UNL A   1      36.443  29.816  30.256  1.00  0.00     0.006 A 
ENDBRANCH  46  60
BRANCH  47  68
ATOM     68  C   UNL A   1      44.859  25.568  33.533  1.00  0.00     0.057 A 
ATOM     69  C   UNL A   1      43.781  25.321  34.396  1.00  0.00     0.134 A 
ATOM     70  C   UNL A   1      46.123  25.162  34.000  1.00  0.00     0.134 A 
ATOM     71  F   UNL A   1      42.530  25.628  34.024  1.00  0.00    -0.206 F 
ATOM     72  C   UNL A   1      43.949  24.697  35.642  1.00  0.00     0.040 A 
ATOM     73  C   UNL A   1      46.306  24.543  35.243  1.00  0.00     0.040 A 
ATOM     74  F   UNL A   1      47.214  25.272  33.229  1.00  0.00    -0.206 F 
ATOM     75  C   UNL A   1      45.214  24.297  36.064  1.00  0.00     0.006 A 
ENDBRANCH  47  68
BRANCH  59  76
ATOM     76  C   UNL A   1      45.469  28.689  28.086  1.00  0.00     0.057 A 
ATOM     77  C   UNL A   1      45.861  27.503  27.443  1.00  0.00     0.134 A 
ATOM     78  C   UNL A   1      46.343  29.773  27.976  1.00  0.00     0.134 A 
ATOM     79  F   UNL A   1      45.052  26.439  27.398  1.00  0.00    -0.206 F 
ATOM     80  C   UNL A   1      47.077  27.391  26.761  1.00  0.00     0.040 A 
ATOM     81  C   UNL A   1      47.547  29.687  27.270  1.00  0.00     0.040 A 
ATOM     82  F   UNL A   1      46.014  30.961  28.508  1.00  0.00    -0.206 F 
ATOM     83  C   UNL A   1      47.922  28.489  26.666  1.00  0.00     0.006 A 
ENDBRANCH  59  76
ENDBRANCH  33  34
ENDBRANCH  25  28
ENDBRANCH  23  24
ENDBRANCH   1  23
TORSDOF 12
ENDMDL
MODEL 2
REMARK VINA RESULT:     -12.0      5.367      9.662
REMARK SMILES Cc1nn(C[C@@H]2[NH2+][C@@H](C(=O)NCCCNC(=O)c3ccc(-c4c5nc(c(-c6c(F)cccc6F)c6ccc([nH]6)c(-c6c(F)cccc6F)c6nc(c(-c7c(F)cccc7F)c7ccc4[nH]7)C=C6)C=C5)cc3)CS2)c(C)c1Cl
REMARK SMILES IDX 13 1 12 2 11 3 9 4 10 5 8 7 6 8 7 9 73 10 72 13 5 14 4 15
REMARK SMILES IDX 1 16 2 17 3 18 76 19 74 20 77 21 75 22 14 23 15 24 16 25
REMARK SMILES IDX 17 27 18 28 19 29 71 30 20 31 70 32 21 33 22 34 23 35 64 36
REMARK SMILES IDX 24 37 69 38 63 39 65 40 25 41 68 42 62 43 61 44 26 46 52 47
REMARK SMILES IDX 35 48 51 49 36 50 39 51 50 52 66 53 37 54 38 55 49 57 67 58
REMARK SMILES IDX 40 59 27 60 28 61 33 62 29 63 30 64 32 65 34 66 31 67 53 68
REMARK SMILES IDX 54 69 59 70 55 71 56 72 58 73 60 74 57 75 41 76 42 77 47 78
REMARK SMILES IDX 43 79 44 80 46 81 48 82 45 83
REMARK H PARENT 11 6 7 11 7 12 15 26 65 45 39 56
REMARK Flexibility Score: inf
ROOT
ATOM      1  C   UNL A   1      34.485  35.041  28.150  1.00  0.00     0.042 C 
ENDROOT
BRANCH   1   2
ATOM      2  C   UNL A   1      33.234  34.803  29.011  1.00  0.00     0.118 C 
BRANCH   2   3
ATOM      3  N   UNL A   1      32.780  36.004  29.712  1.00  0.00    -0.351 N 
ATOM      4  C   UNL A   1      33.033  36.382  31.009  1.00  0.00     0.279 C 
ATOM      5  O   UNL A   1      32.556  37.435  31.428  1.00  0.00    -0.268 OA
ATOM      6  H   UNL A   1      32.221  36.622  29.186  1.00  0.00     0.163 HD
BRANCH   4   7
ATOM      7  C   UNL A   1      33.968  35.505  31.848  1.00  0.00     0.283 C 
ATOM      8  C   UNL A   1      34.203  33.583  33.214  1.00  0.00     0.264 C 
ATOM      9  N   UNL A   1      33.258  34.294  32.345  1.00  0.00    -0.323 N 
ATOM     10  S   UNL A   1      34.931  34.882  34.256  1.00  0.00    -0.091 SA
ATOM     11  H   UNL A   1      32.428  34.565  32.874  1.00  0.00     0.348 HD
ATOM     12  H   UNL A   1      32.952  33.704  31.571  1.00  0.00     0.348 HD
ATOM     13  C   UNL A   1      34.599  36.209  33.047  1.00  0.00     0.151 C 
BRANCH   8  14
ATOM     14  C   UNL A   1      35.198  32.630  32.492  1.00  0.00     0.221 C 
BRANCH  14  15
ATOM     15  N   UNL A   1      36.555  32.560  33.004  1.00  0.00    -0.261 N 
ATOM     16  C   UNL A   1      38.816  30.743  35.014  1.00  0.00     0.070 C 
ATOM     17  C   UNL A   1      38.155  31.716  34.110  1.00  0.00     0.078 A 
ATOM     18  N   UNL A   1      36.818  31.781  34.074  1.00  0.00    -0.176 NA
ATOM     19  C   UNL A   1      38.731  32.639  33.209  1.00  0.00     0.084 A 
ATOM     20  C   UNL A   1      37.670  33.223  32.548  1.00  0.00     0.055 A 
ATOM     21  Cl  UNL A   1      40.386  32.938  32.990  1.00  0.00    -0.080 Cl
ATOM     22  C   UNL A   1      37.628  34.284  31.513  1.00  0.00     0.068 C 
ENDBRANCH  14  15
ENDBRANCH   8  14
ENDBRANCH   4   7
ENDBRANCH   2   3
ENDBRANCH   1   2
BRANCH   1  23
ATOM     23  C   UNL A   1      35.283  33.774  27.920  1.00  0.00     0.118 C 
BRANCH  23  24
ATOM     24  N   UNL A   1      34.473  32.549  27.991  1.00  0.00    -0.352 N 
ATOM     25  C   UNL A   1      34.900  31.227  27.928  1.00  0.00     0.251 C 
ATOM     26  H   UNL A   1      33.504  32.682  28.095  1.00  0.00     0.163 HD
ATOM     27  O   UNL A   1      34.134  30.322  27.652  1.00  0.00    -0.269 OA
BRANCH  25  28
ATOM     28  C   UNL A   1      36.315  30.949  28.230  1.00  0.00     0.039 A 
ATOM     29  C   UNL A   1      37.093  31.723  29.097  1.00  0.00     0.014 A 
ATOM     30  C   UNL A   1      36.835  29.808  27.644  1.00  0.00     0.014 A 
ATOM     31  C   UNL A   1      38.386  31.288  29.388  1.00  0.00     0.010 A 
ATOM     32  C   UNL A   1      37.925  29.223  28.200  1.00  0.00     0.010 A 
ATOM     33  C   UNL A   1      38.785  30.027  28.923  1.00  0.00    -0.014 A 
BRANCH  33  34
ATOM     34  C   UNL A   1      40.092  29.446  29.163  1.00  0.00     0.031 A 
ATOM     35  C   UNL A   1      40.401  29.200  30.590  1.00  0.00     0.074 A 
ATOM     36  C   UNL A   1      40.798  28.899  28.145  1.00  0.00     0.049 A 
ATOM     37  N   UNL A   1      41.308  29.772  31.305  1.00  0.00    -0.248 NA
ATOM     38  C   UNL A   1      39.496  28.329  31.358  1.00  0.00     0.031 C 
ATOM     39  C   UNL A   1      40.430  28.774  26.724  1.00  0.00     0.029 A 
ATOM     40  N   UNL A   1      41.967  28.212  28.201  1.00  0.00    -0.354 N 
ATOM     41  C   UNL A   1      41.235  29.175  32.560  1.00  0.00     0.074 A 
ATOM     42  C   UNL A   1      39.984  28.466  32.593  1.00  0.00     0.031 C 
ATOM     43  C   UNL A   1      41.228  27.866  26.121  1.00  0.00     0.029 A 
ATOM     44  C   UNL A   1      42.263  27.476  27.055  1.00  0.00     0.049 A 
ATOM     45  H   UNL A   1      42.559  28.232  28.988  1.00  0.00     0.167 HD
ATOM     46  C   UNL A   1      42.327  29.110  33.369  1.00  0.00     0.037 A 
ATOM     47  C   UNL A   1      43.273  26.577  26.931  1.00  0.00     0.037 A 
ATOM     48  C   UNL A   1      43.370  29.989  32.897  1.00  0.00     0.049 A 
ATOM     49  C   UNL A   1      44.247  26.877  28.016  1.00  0.00     0.074 A 
ATOM     50  C   UNL A   1      43.459  31.351  32.682  1.00  0.00     0.029 A 
ATOM     51  N   UNL A   1      44.393  29.430  32.167  1.00  0.00    -0.354 N 
ATOM     52  N   UNL A   1      44.944  27.981  28.067  1.00  0.00    -0.248 NA
ATOM     53  C   UNL A   1      44.047  26.206  29.293  1.00  0.00     0.031 C 
ATOM     54  C   UNL A   1      44.179  31.480  31.457  1.00  0.00     0.029 A 
ATOM     55  C   UNL A   1      44.567  30.204  31.046  1.00  0.00     0.049 A 
ATOM     56  H   UNL A   1      44.906  28.623  32.405  1.00  0.00     0.167 HD
ATOM     57  C   UNL A   1      44.904  28.368  29.401  1.00  0.00     0.074 A 
ATOM     58  C   UNL A   1      44.384  27.203  30.118  1.00  0.00     0.031 C 
ATOM     59  C   UNL A   1      44.994  29.683  29.767  1.00  0.00     0.037 A 
BRANCH  46  60
ATOM     60  C   UNL A   1      42.605  28.002  34.353  1.00  0.00     0.057 A 
ATOM     61  C   UNL A   1      42.956  26.730  33.864  1.00  0.00     0.134 A 
ATOM     62  C   UNL A   1      42.275  28.045  35.723  1.00  0.00     0.134 A 
ATOM     63  F   UNL A   1      43.289  26.556  32.576  1.00  0.00    -0.206 F 
ATOM     64  C   UNL A   1      42.900  25.579  34.658  1.00  0.00     0.040 A 
ATOM     65  C   UNL A   1      42.266  26.909  36.537  1.00  0.00     0.040 A 
ATOM     66  F   UNL A   1      41.844  29.157  36.327  1.00  0.00    -0.206 F 
ATOM     67  C   UNL A   1      42.545  25.664  35.996  1.00  0.00     0.006 A 
ENDBRANCH  46  60
BRANCH  47  68
ATOM     68  C   UNL A   1      43.264  25.302  26.175  1.00  0.00     0.057 A 
ATOM     69  C   UNL A   1      44.242  25.010  25.213  1.00  0.00     0.134 A 
ATOM     70  C   UNL A   1      42.447  24.225  26.565  1.00  0.00     0.134 A 
ATOM     71  F   UNL A   1      45.101  25.956  24.809  1.00  0.00    -0.206 F 
ATOM     72  C   UNL A   1      44.404  23.721  24.680  1.00  0.00     0.040 A 
ATOM     73  C   UNL A   1      42.595  22.936  26.039  1.00  0.00     0.040 A 
ATOM     74  F   UNL A   1      41.533  24.365  27.535  1.00  0.00    -0.206 F 
ATOM     75  C   UNL A   1      43.585  22.677  25.101  1.00  0.00     0.006 A 
ENDBRANCH  47  68
BRANCH  59  76
ATOM     76  C   UNL A   1      45.327  30.699  28.704  1.00  0.00     0.057 A 
ATOM     77  C   UNL A   1      46.625  30.947  28.228  1.00  0.00     0.134 A 
ATOM     78  C   UNL A   1      44.282  31.314  28.009  1.00  0.00     0.134 A 
ATOM     79  F   UNL A   1      47.686  30.328  28.754  1.00  0.00    -0.206 F 
ATOM     80  C   UNL A   1      46.872  31.793  27.142  1.00  0.00     0.040 A 
ATOM     81  C   UNL A   1      44.511  32.135  26.901  1.00  0.00     0.040 A 
ATOM     82  F   UNL A   1      43.007  31.078  28.360  1.00  0.00    -0.206 F 
ATOM     83  C   UNL A   1      45.811  32.385  26.469  1.00  0.00     0.006 A 
ENDBRANCH  59  76
ENDBRANCH  33  34
ENDBRANCH  25  28
ENDBRANCH  23  24
ENDBRANCH   1  23
TORSDOF 12
ENDMDL
MODEL 3
REMARK VINA RESULT:     -11.7      4.496      8.714
REMARK SMILES Cc1nn(C[C@@H]2[NH2+][C@@H](C(=O)NCCCNC(=O)c3ccc(-c4c5nc(c(-c6c(F)cccc6F)c6ccc([nH]6)c(-c6c(F)cccc6F)c6nc(c(-c7c(F)cccc7F)c7ccc4[nH]7)C=C6)C=C5)cc3)CS2)c(C)c1Cl
REMARK SMILES IDX 13 1 12 2 11 3 9 4 10 5 8 7 6 8 7 9 73 10 72 13 5 14 4 15
REMARK SMILES IDX 1 16 2 17 3 18 76 19 74 20 77 21 75 22 14 23 15 24 16 25
REMARK SMILES IDX 17 27 18 28 19 29 71 30 20 31 70 32 21 33 22 34 23 35 64 36
REMARK SMILES IDX 24 37 69 38 63 39 65 40 25 41 68 42 62 43 61 44 26 46 52 47
REMARK SMILES IDX 35 48 51 49 36 50 39 51 50 52 66 53 37 54 38 55 49 57 67 58
REMARK SMILES IDX 40 59 27 60 28 61 33 62 29 63 30 64 32 65 34 66 31 67 53 68
REMARK SMILES IDX 54 69 59 70 55 71 56 72 58 73 60 74 57 75 41 76 42 77 47 78
REMARK SMILES IDX 43 79 44 80 46 81 48 82 45 83
REMARK H PARENT 11 6 7 11 7 12 15 26 65 45 39 56
REMARK Flexibility Score: inf
ROOT
ATOM      1  C   UNL A   1      41.830  19.831  27.475  1.00  0.00     0.042 C 
ENDROOT
BRANCH   1   2
ATOM      2  C   UNL A   1      41.991  19.557  25.972  1.00  0.00     0.118 C 
BRANCH   2   3
ATOM      3  N   UNL A   1      43.117  18.675  25.664  1.00  0.00    -0.351 N 
ATOM      4  C   UNL A   1      44.386  19.021  25.263  1.00  0.00     0.279 C 
ATOM      5  O   UNL A   1      45.205  18.130  25.043  1.00  0.00    -0.268 OA
ATOM      6  H   UNL A   1      42.943  17.710  25.757  1.00  0.00     0.163 HD
BRANCH   4   7
ATOM      7  C   UNL A   1      44.740  20.509  25.186  1.00  0.00     0.283 C 
ATOM      8  C   UNL A   1      44.545  22.543  23.987  1.00  0.00     0.264 C 
ATOM      9  N   UNL A   1      44.062  21.158  24.030  1.00  0.00    -0.323 N 
ATOM     10  S   UNL A   1      46.343  22.406  24.216  1.00  0.00    -0.091 SA
ATOM     11  H   UNL A   1      44.302  20.674  23.165  1.00  0.00     0.348 HD
ATOM     12  H   UNL A   1      43.048  21.124  24.132  1.00  0.00     0.348 HD
ATOM     13  C   UNL A   1      46.234  20.805  25.087  1.00  0.00     0.151 C 
BRANCH   8  14
ATOM     14  C   UNL A   1      43.800  23.548  24.911  1.00  0.00     0.221 C 
BRANCH  14  15
ATOM     15  N   UNL A   1      44.600  24.530  25.621  1.00  0.00    -0.261 N 
ATOM     16  C   UNL A   1      45.872  27.822  25.581  1.00  0.00     0.070 C 
ATOM     17  C   UNL A   1      45.504  26.426  25.919  1.00  0.00     0.078 A 
ATOM     18  N   UNL A   1      45.071  25.604  24.953  1.00  0.00    -0.176 NA
ATOM     19  C   UNL A   1      45.517  25.771  27.170  1.00  0.00     0.084 A 
ATOM     20  C   UNL A   1      44.986  24.519  26.940  1.00  0.00     0.055 A 
ATOM     21  Cl  UNL A   1      46.060  26.417  28.641  1.00  0.00    -0.080 Cl
ATOM     22  C   UNL A   1      44.770  23.367  27.848  1.00  0.00     0.068 C 
ENDBRANCH  14  15
ENDBRANCH   8  14
ENDBRANCH   4   7
ENDBRANCH   2   3
ENDBRANCH   1   2
BRANCH   1  23
ATOM     23  C   UNL A   1      41.136  21.148  27.756  1.00  0.00     0.118 C 
BRANCH  23  24
ATOM     24  N   UNL A   1      40.212  21.564  26.690  1.00  0.00    -0.352 N 
ATOM     25  C   UNL A   1      39.486  22.746  26.590  1.00  0.00     0.251 C 
ATOM     26  H   UNL A   1      40.092  20.924  25.953  1.00  0.00     0.163 HD
ATOM     27  O   UNL A   1      38.512  22.836  25.864  1.00  0.00    -0.269 OA
BRANCH  25  28
ATOM     28  C   UNL A   1      39.946  23.902  27.377  1.00  0.00     0.039 A 
ATOM     29  C   UNL A   1      41.272  24.094  27.778  1.00  0.00     0.014 A 
ATOM     30  C   UNL A   1      38.980  24.855  27.656  1.00  0.00     0.014 A 
ATOM     31  C   UNL A   1      41.600  25.287  28.421  1.00  0.00     0.010 A 
ATOM     32  C   UNL A   1      39.372  26.120  27.946  1.00  0.00     0.010 A 
ATOM     33  C   UNL A   1      40.627  26.292  28.497  1.00  0.00    -0.014 A 
BRANCH  33  34
ATOM     34  C   UNL A   1      40.835  27.584  29.124  1.00  0.00     0.031 A 
ATOM     35  C   UNL A   1      41.909  28.397  28.510  1.00  0.00     0.074 A 
ATOM     36  C   UNL A   1      39.911  28.092  29.973  1.00  0.00     0.049 A 
ATOM     37  N   UNL A   1      43.028  28.750  29.044  1.00  0.00    -0.248 NA
ATOM     38  C   UNL A   1      41.799  28.728  27.079  1.00  0.00     0.031 C 
ATOM     39  C   UNL A   1      38.622  27.517  30.393  1.00  0.00     0.029 A 
ATOM     40  N   UNL A   1      39.880  29.321  30.551  1.00  0.00    -0.354 N 
ATOM     41  C   UNL A   1      43.671  29.536  28.093  1.00  0.00     0.074 A 
ATOM     42  C   UNL A   1      42.979  29.309  26.852  1.00  0.00     0.031 C 
ATOM     43  C   UNL A   1      37.850  28.476  30.949  1.00  0.00     0.029 A 
ATOM     44  C   UNL A   1      38.642  29.680  31.083  1.00  0.00     0.049 A 
ATOM     45  H   UNL A   1      40.667  29.910  30.591  1.00  0.00     0.167 HD
ATOM     46  C   UNL A   1      44.560  30.497  28.464  1.00  0.00     0.037 A 
ATOM     47  C   UNL A   1      38.311  30.910  31.551  1.00  0.00     0.037 A 
ATOM     48  C   UNL A   1      44.944  30.337  29.846  1.00  0.00     0.049 A 
ATOM     49  C   UNL A   1      39.588  31.619  31.833  1.00  0.00     0.074 A 
ATOM     50  C   UNL A   1      45.551  29.326  30.566  1.00  0.00     0.029 A 
ATOM     51  N   UNL A   1      44.324  31.137  30.777  1.00  0.00    -0.354 N 
ATOM     52  N   UNL A   1      40.421  31.248  32.769  1.00  0.00    -0.248 NA
ATOM     53  C   UNL A   1      40.176  32.389  30.745  1.00  0.00     0.031 C 
ATOM     54  C   UNL A   1      44.840  29.284  31.803  1.00  0.00     0.029 A 
ATOM     55  C   UNL A   1      43.910  30.324  31.804  1.00  0.00     0.049 A 
ATOM     56  H   UNL A   1      44.199  32.112  30.718  1.00  0.00     0.167 HD
ATOM     57  C   UNL A   1      41.680  31.358  32.193  1.00  0.00     0.074 A 
ATOM     58  C   UNL A   1      41.468  32.121  30.962  1.00  0.00     0.031 C 
ATOM     59  C   UNL A   1      42.721  30.564  32.590  1.00  0.00     0.037 A 
BRANCH  46  60
ATOM     60  C   UNL A   1      44.798  31.785  27.716  1.00  0.00     0.057 A 
ATOM     61  C   UNL A   1      45.967  31.916  26.944  1.00  0.00     0.134 A 
ATOM     62  C   UNL A   1      44.091  32.984  27.938  1.00  0.00     0.134 A 
ATOM     63  F   UNL A   1      46.731  30.849  26.664  1.00  0.00    -0.206 F 
ATOM     64  C   UNL A   1      46.439  33.157  26.502  1.00  0.00     0.040 A 
ATOM     65  C   UNL A   1      44.526  34.221  27.456  1.00  0.00     0.040 A 
ATOM     66  F   UNL A   1      43.004  33.048  28.715  1.00  0.00    -0.206 F 
ATOM     67  C   UNL A   1      45.723  34.317  26.765  1.00  0.00     0.006 A 
ENDBRANCH  46  60
BRANCH  47  68
ATOM     68  C   UNL A   1      37.005  31.602  31.435  1.00  0.00     0.057 A 
ATOM     69  C   UNL A   1      36.265  31.972  32.567  1.00  0.00     0.134 A 
ATOM     70  C   UNL A   1      36.573  32.153  30.214  1.00  0.00     0.134 A 
ATOM     71  F   UNL A   1      36.622  31.538  33.784  1.00  0.00    -0.206 F 
ATOM     72  C   UNL A   1      35.169  32.847  32.491  1.00  0.00     0.040 A 
ATOM     73  C   UNL A   1      35.480  33.023  30.123  1.00  0.00     0.040 A 
ATOM     74  F   UNL A   1      37.252  31.936  29.078  1.00  0.00    -0.206 F 
ATOM     75  C   UNL A   1      34.780  33.384  31.266  1.00  0.00     0.006 A 
ENDBRANCH  47  68
BRANCH  59  76
ATOM     76  C   UNL A   1      42.529  29.689  33.803  1.00  0.00     0.057 A 
ATOM     77  C   UNL A   1      42.107  28.350  33.752  1.00  0.00     0.134 A 
ATOM     78  C   UNL A   1      42.962  30.157  35.047  1.00  0.00     0.134 A 
ATOM     79  F   UNL A   1      41.772  27.773  32.593  1.00  0.00    -0.206 F 
ATOM     80  C   UNL A   1      42.081  27.532  34.886  1.00  0.00     0.040 A 
ATOM     81  C   UNL A   1      42.973  29.342  36.182  1.00  0.00     0.040 A 
ATOM     82  F   UNL A   1      43.440  31.406  35.168  1.00  0.00    -0.206 F 
ATOM     83  C   UNL A   1      42.523  28.026  36.107  1.00  0.00     0.006 A 
ENDBRANCH  59  76
ENDBRANCH  33  34
ENDBRANCH  25  28
ENDBRANCH  23  24
ENDBRANCH   1  23
TORSDOF 12
ENDMDL
