MODEL 1
REMARK VINA RESULT:     -12.6      0.000      0.000
REMARK SMILES C[C@@H](C(=O)NCCCNC(=O)c1ccc(-c2c3nc(c(-c4c(F)cccc4F)c4ccc([nH]4)c(-c4c(F)cccc4F)c4nc(c(-c5c(F)cccc5F)c5ccc2[nH]5)C=C4)C=C3)cc1)c1ccc(-c2cccc(OC(=O)NC3CC3)c2)c(F)c1
REMARK SMILES IDX 3 1 4 2 5 3 2 5 1 6 66 7 67 8 85 9 68 10 83 11 69 12 84 13
REMARK SMILES IDX 70 14 71 15 82 16 72 17 74 18 73 19 75 20 76 21 77 22 78 23
REMARK SMILES IDX 79 25 80 26 81 27 6 28 7 29 8 30 9 31 10 32 11 34 12 35
REMARK SMILES IDX 13 36 65 37 14 38 64 39 15 40 16 41 17 42 58 43 18 44 63 45
REMARK SMILES IDX 57 46 59 47 19 48 62 49 56 50 55 51 20 53 46 54 29 55 45 56
REMARK SMILES IDX 30 57 33 58 44 59 60 60 31 61 32 62 43 64 61 65 34 66 21 67
REMARK SMILES IDX 22 68 27 69 23 70 24 71 26 72 28 73 25 74 47 75 48 76 53 77
REMARK SMILES IDX 49 78 50 79 52 80 54 81 51 82 35 83 36 84 41 85 37 86 38 87
REMARK SMILES IDX 40 88 42 89 39 90
REMARK H PARENT 5 4 78 24 9 33 59 52 33 63
REMARK Flexibility Score: inf
ROOT
ATOM      1  C   UNL A   1      33.327  28.717  26.338  1.00  0.00     0.227 C 
ATOM      2  O   UNL A   1      34.468  28.467  26.730  1.00  0.00    -0.274 OA
ATOM      3  N   UNL A   1      33.108  29.985  25.884  1.00  0.00    -0.356 N 
ATOM      4  H   UNL A   1      33.922  30.503  25.683  1.00  0.00     0.163 HD
ENDROOT
BRANCH   1   5
ATOM      5  C   UNL A   1      32.186  27.685  26.311  1.00  0.00     0.105 C 
ATOM      6  C   UNL A   1      31.393  27.783  27.621  1.00  0.00     0.023 C 
BRANCH   5   7
ATOM      7  C   UNL A   1      32.655  26.255  26.020  1.00  0.00    -0.033 A 
ATOM      8  C   UNL A   1      33.511  25.973  24.940  1.00  0.00     0.005 A 
ATOM      9  C   UNL A   1      32.208  25.170  26.787  1.00  0.00     0.044 A 
ATOM     10  C   UNL A   1      33.964  24.672  24.687  1.00  0.00     0.012 A 
ATOM     11  C   UNL A   1      32.652  23.878  26.526  1.00  0.00     0.131 A 
ATOM     12  C   UNL A   1      33.539  23.602  25.481  1.00  0.00     0.018 A 
ATOM     13  F   UNL A   1      32.191  22.887  27.305  1.00  0.00    -0.206 F 
BRANCH  12  14
ATOM     14  C   UNL A   1      33.930  22.226  25.176  1.00  0.00    -0.012 A 
ATOM     15  C   UNL A   1      35.257  21.787  25.269  1.00  0.00     0.009 A 
ATOM     16  C   UNL A   1      32.940  21.316  24.775  1.00  0.00     0.056 A 
ATOM     17  C   UNL A   1      35.584  20.460  24.978  1.00  0.00     0.004 A 
ATOM     18  C   UNL A   1      33.266  19.999  24.485  1.00  0.00     0.133 A 
ATOM     19  C   UNL A   1      34.588  19.565  24.585  1.00  0.00     0.047 A 
BRANCH  18  20
ATOM     20  O   UNL A   1      32.323  19.027  24.074  1.00  0.00    -0.410 OA
BRANCH  20  21
ATOM     21  C   UNL A   1      32.530  18.041  23.113  1.00  0.00     0.412 C 
ATOM     22  O   UNL A   1      32.543  18.196  21.895  1.00  0.00    -0.224 OA
ATOM     23  N   UNL A   1      32.718  16.789  23.634  1.00  0.00    -0.318 N 
ATOM     24  H   UNL A   1      32.827  16.071  22.969  1.00  0.00     0.167 HD
BRANCH  23  25
ATOM     25  C   UNL A   1      32.780  16.370  24.993  1.00  0.00     0.085 C 
ATOM     26  C   UNL A   1      32.802  14.958  25.503  1.00  0.00     0.027 C 
ATOM     27  C   UNL A   1      34.065  15.761  25.493  1.00  0.00     0.027 C 
ENDBRANCH  23  25
ENDBRANCH  20  21
ENDBRANCH  18  20
ENDBRANCH  12  14
ENDBRANCH   5   7
ENDBRANCH   1   5
BRANCH   3  28
ATOM     28  C   UNL A   1      31.862  30.691  25.651  1.00  0.00     0.117 C 
BRANCH  28  29
ATOM     29  C   UNL A   1      31.588  31.699  26.768  1.00  0.00     0.042 C 
BRANCH  29  30
ATOM     30  C   UNL A   1      32.835  32.413  27.280  1.00  0.00     0.118 C 
BRANCH  30  31
ATOM     31  N   UNL A   1      32.583  33.809  27.598  1.00  0.00    -0.352 N 
ATOM     32  C   UNL A   1      33.179  34.616  28.535  1.00  0.00     0.251 C 
ATOM     33  H   UNL A   1      31.879  34.241  27.061  1.00  0.00     0.163 HD
ATOM     34  O   UNL A   1      32.688  35.708  28.802  1.00  0.00    -0.269 OA
BRANCH  32  35
ATOM     35  C   UNL A   1      34.395  34.160  29.243  1.00  0.00     0.039 A 
ATOM     36  C   UNL A   1      34.250  33.370  30.387  1.00  0.00     0.014 A 
ATOM     37  C   UNL A   1      35.670  34.504  28.785  1.00  0.00     0.014 A 
ATOM     38  C   UNL A   1      35.382  32.852  31.018  1.00  0.00     0.010 A 
ATOM     39  C   UNL A   1      36.794  33.929  29.372  1.00  0.00     0.010 A 
ATOM     40  C   UNL A   1      36.660  33.083  30.484  1.00  0.00    -0.014 A 
BRANCH  40  41
ATOM     41  C   UNL A   1      37.861  32.402  31.033  1.00  0.00     0.031 A 
ATOM     42  C   UNL A   1      38.506  31.268  30.285  1.00  0.00     0.074 A 
ATOM     43  C   UNL A   1      38.311  32.748  32.257  1.00  0.00     0.049 A 
ATOM     44  N   UNL A   1      39.485  30.485  30.660  1.00  0.00    -0.248 NA
ATOM     45  C   UNL A   1      37.968  30.959  28.950  1.00  0.00     0.031 C 
ATOM     46  C   UNL A   1      37.744  33.803  33.100  1.00  0.00     0.029 A 
ATOM     47  N   UNL A   1      39.333  32.233  33.018  1.00  0.00    -0.354 N 
ATOM     48  C   UNL A   1      39.668  29.582  29.622  1.00  0.00     0.074 A 
ATOM     49  C   UNL A   1      38.679  29.892  28.612  1.00  0.00     0.031 C 
ATOM     50  C   UNL A   1      38.425  33.860  34.255  1.00  0.00     0.029 A 
ATOM     51  C   UNL A   1      39.442  32.814  34.259  1.00  0.00     0.049 A 
ATOM     52  H   UNL A   1      39.929  31.516  32.704  1.00  0.00     0.167 HD
ATOM     53  C   UNL A   1      40.583  28.589  29.520  1.00  0.00     0.037 A 
ATOM     54  C   UNL A   1      40.247  32.519  35.298  1.00  0.00     0.037 A 
ATOM     55  C   UNL A   1      41.584  28.305  30.515  1.00  0.00     0.049 A 
ATOM     56  C   UNL A   1      41.232  31.389  35.163  1.00  0.00     0.074 A 
ATOM     57  C   UNL A   1      42.616  27.385  30.456  1.00  0.00     0.029 A 
ATOM     58  N   UNL A   1      41.668  28.922  31.754  1.00  0.00    -0.354 N 
ATOM     59  N   UNL A   1      41.462  30.612  34.133  1.00  0.00    -0.248 NA
ATOM     60  C   UNL A   1      42.067  31.089  36.336  1.00  0.00     0.031 C 
ATOM     61  C   UNL A   1      43.283  27.396  31.683  1.00  0.00     0.029 A 
ATOM     62  C   UNL A   1      42.703  28.365  32.486  1.00  0.00     0.049 A 
ATOM     63  H   UNL A   1      41.080  29.647  32.066  1.00  0.00     0.167 HD
ATOM     64  C   UNL A   1      42.479  29.751  34.525  1.00  0.00     0.074 A 
ATOM     65  C   UNL A   1      42.839  30.115  35.878  1.00  0.00     0.031 C 
ATOM     66  C   UNL A   1      43.057  28.742  33.829  1.00  0.00     0.037 A 
BRANCH  53  67
ATOM     67  C   UNL A   1      40.558  27.721  28.297  1.00  0.00     0.057 A 
ATOM     68  C   UNL A   1      41.272  28.051  27.138  1.00  0.00     0.134 A 
ATOM     69  C   UNL A   1      39.893  26.488  28.318  1.00  0.00     0.134 A 
ATOM     70  F   UNL A   1      41.926  29.218  27.051  1.00  0.00    -0.206 F 
ATOM     71  C   UNL A   1      41.319  27.188  26.042  1.00  0.00     0.040 A 
ATOM     72  C   UNL A   1      39.953  25.606  27.238  1.00  0.00     0.040 A 
ATOM     73  F   UNL A   1      39.198  26.108  29.402  1.00  0.00    -0.206 F 
ATOM     74  C   UNL A   1      40.669  25.955  26.095  1.00  0.00     0.006 A 
ENDBRANCH  53  67
BRANCH  54  75
ATOM     75  C   UNL A   1      40.143  33.274  36.574  1.00  0.00     0.057 A 
ATOM     76  C   UNL A   1      40.963  34.379  36.833  1.00  0.00     0.134 A 
ATOM     77  C   UNL A   1      39.260  32.879  37.587  1.00  0.00     0.134 A 
ATOM     78  F   UNL A   1      41.844  34.795  35.911  1.00  0.00    -0.206 F 
ATOM     79  C   UNL A   1      40.934  35.041  38.061  1.00  0.00     0.040 A 
ATOM     80  C   UNL A   1      39.198  33.552  38.809  1.00  0.00     0.040 A 
ATOM     81  F   UNL A   1      38.441  31.833  37.403  1.00  0.00    -0.206 F 
ATOM     82  C   UNL A   1      40.047  34.628  39.053  1.00  0.00     0.006 A 
ENDBRANCH  54  75
BRANCH  66  83
ATOM     83  C   UNL A   1      44.153  27.974  34.507  1.00  0.00     0.057 A 
ATOM     84  C   UNL A   1      45.483  28.414  34.483  1.00  0.00     0.134 A 
ATOM     85  C   UNL A   1      43.868  26.817  35.243  1.00  0.00     0.134 A 
ATOM     86  F   UNL A   1      45.825  29.507  33.784  1.00  0.00    -0.206 F 
ATOM     87  C   UNL A   1      46.491  27.723  35.156  1.00  0.00     0.040 A 
ATOM     88  C   UNL A   1      44.862  26.134  35.943  1.00  0.00     0.040 A 
ATOM     89  F   UNL A   1      42.613  26.347  35.314  1.00  0.00    -0.206 F 
ATOM     90  C   UNL A   1      46.180  26.585  35.897  1.00  0.00     0.006 A 
ENDBRANCH  66  83
ENDBRANCH  40  41
ENDBRANCH  32  35
ENDBRANCH  30  31
ENDBRANCH  29  30
ENDBRANCH  28  29
ENDBRANCH   3  28
TORSDOF 15
ENDMDL
MODEL 2
REMARK VINA RESULT:     -12.4      0.963      6.027
REMARK SMILES C[C@@H](C(=O)NCCCNC(=O)c1ccc(-c2c3nc(c(-c4c(F)cccc4F)c4ccc([nH]4)c(-c4c(F)cccc4F)c4nc(c(-c5c(F)cccc5F)c5ccc2[nH]5)C=C4)C=C3)cc1)c1ccc(-c2cccc(OC(=O)NC3CC3)c2)c(F)c1
REMARK SMILES IDX 3 1 4 2 5 3 2 5 1 6 66 7 67 8 85 9 68 10 83 11 69 12 84 13
REMARK SMILES IDX 70 14 71 15 82 16 72 17 74 18 73 19 75 20 76 21 77 22 78 23
REMARK SMILES IDX 79 25 80 26 81 27 6 28 7 29 8 30 9 31 10 32 11 34 12 35
REMARK SMILES IDX 13 36 65 37 14 38 64 39 15 40 16 41 17 42 58 43 18 44 63 45
REMARK SMILES IDX 57 46 59 47 19 48 62 49 56 50 55 51 20 53 46 54 29 55 45 56
REMARK SMILES IDX 30 57 33 58 44 59 60 60 31 61 32 62 43 64 61 65 34 66 21 67
REMARK SMILES IDX 22 68 27 69 23 70 24 71 26 72 28 73 25 74 47 75 48 76 53 77
REMARK SMILES IDX 49 78 50 79 52 80 54 81 51 82 35 83 36 84 41 85 37 86 38 87
REMARK SMILES IDX 40 88 42 89 39 90
REMARK H PARENT 5 4 78 24 9 33 59 52 33 63
REMARK Flexibility Score: inf
ROOT
ATOM      1  C   UNL A   1      33.195  28.879  26.383  1.00  0.00     0.227 C 
ATOM      2  O   UNL A   1      34.359  28.669  26.731  1.00  0.00    -0.274 OA
ATOM      3  N   UNL A   1      32.930  30.118  25.874  1.00  0.00    -0.356 N 
ATOM      4  H   UNL A   1      33.724  30.636  25.606  1.00  0.00     0.163 HD
ENDROOT
BRANCH   1   5
ATOM      5  C   UNL A   1      32.073  27.829  26.469  1.00  0.00     0.105 C 
ATOM      6  C   UNL A   1      31.377  27.952  27.831  1.00  0.00     0.023 C 
BRANCH   5   7
ATOM      7  C   UNL A   1      32.544  26.399  26.182  1.00  0.00    -0.033 A 
ATOM      8  C   UNL A   1      33.607  26.144  25.296  1.00  0.00     0.005 A 
ATOM      9  C   UNL A   1      31.902  25.291  26.753  1.00  0.00     0.044 A 
ATOM     10  C   UNL A   1      34.059  24.841  25.053  1.00  0.00     0.012 A 
ATOM     11  C   UNL A   1      32.347  23.998  26.500  1.00  0.00     0.131 A 
ATOM     12  C   UNL A   1      33.432  23.745  25.655  1.00  0.00     0.018 A 
ATOM     13  F   UNL A   1      31.692  22.984  27.087  1.00  0.00    -0.206 F 
BRANCH  12  14
ATOM     14  C   UNL A   1      33.833  22.374  25.343  1.00  0.00    -0.012 A 
ATOM     15  C   UNL A   1      35.170  21.955  25.386  1.00  0.00     0.009 A 
ATOM     16  C   UNL A   1      32.843  21.446  24.986  1.00  0.00     0.056 A 
ATOM     17  C   UNL A   1      35.506  20.632  25.090  1.00  0.00     0.004 A 
ATOM     18  C   UNL A   1      33.177  20.132  24.691  1.00  0.00     0.133 A 
ATOM     19  C   UNL A   1      34.510  19.719  24.742  1.00  0.00     0.047 A 
BRANCH  18  20
ATOM     20  O   UNL A   1      32.235  19.144  24.322  1.00  0.00    -0.410 OA
BRANCH  20  21
ATOM     21  C   UNL A   1      32.377  18.220  23.290  1.00  0.00     0.412 C 
ATOM     22  O   UNL A   1      32.325  18.455  22.086  1.00  0.00    -0.224 OA
ATOM     23  N   UNL A   1      32.581  16.936  23.717  1.00  0.00    -0.318 N 
ATOM     24  H   UNL A   1      32.645  16.261  23.003  1.00  0.00     0.167 HD
BRANCH  23  25
ATOM     25  C   UNL A   1      32.713  16.429  25.041  1.00  0.00     0.085 C 
ATOM     26  C   UNL A   1      32.828  14.988  25.449  1.00  0.00     0.027 C 
ATOM     27  C   UNL A   1      34.046  15.859  25.456  1.00  0.00     0.027 C 
ENDBRANCH  23  25
ENDBRANCH  20  21
ENDBRANCH  18  20
ENDBRANCH  12  14
ENDBRANCH   5   7
ENDBRANCH   1   5
BRANCH   3  28
ATOM     28  C   UNL A   1      31.662  30.790  25.668  1.00  0.00     0.117 C 
BRANCH  28  29
ATOM     29  C   UNL A   1      31.425  31.853  26.742  1.00  0.00     0.042 C 
BRANCH  29  30
ATOM     30  C   UNL A   1      32.701  32.516  27.250  1.00  0.00     0.118 C 
BRANCH  30  31
ATOM     31  N   UNL A   1      32.496  33.910  27.608  1.00  0.00    -0.352 N 
ATOM     32  C   UNL A   1      33.145  34.681  28.541  1.00  0.00     0.251 C 
ATOM     33  H   UNL A   1      31.785  34.372  27.106  1.00  0.00     0.163 HD
ATOM     34  O   UNL A   1      32.692  35.778  28.849  1.00  0.00    -0.269 OA
BRANCH  32  35
ATOM     35  C   UNL A   1      34.374  34.179  29.194  1.00  0.00     0.039 A 
ATOM     36  C   UNL A   1      34.259  33.509  30.415  1.00  0.00     0.014 A 
ATOM     37  C   UNL A   1      35.630  34.363  28.610  1.00  0.00     0.014 A 
ATOM     38  C   UNL A   1      35.392  32.946  31.005  1.00  0.00     0.010 A 
ATOM     39  C   UNL A   1      36.747  33.741  29.162  1.00  0.00     0.010 A 
ATOM     40  C   UNL A   1      36.636  33.011  30.356  1.00  0.00    -0.014 A 
BRANCH  40  41
ATOM     41  C   UNL A   1      37.817  32.273  30.874  1.00  0.00     0.031 A 
ATOM     42  C   UNL A   1      38.631  32.833  32.008  1.00  0.00     0.074 A 
ATOM     43  C   UNL A   1      38.209  31.142  30.254  1.00  0.00     0.049 A 
ATOM     44  N   UNL A   1      39.752  32.388  32.515  1.00  0.00    -0.248 NA
ATOM     45  C   UNL A   1      38.131  34.063  32.643  1.00  0.00     0.031 C 
ATOM     46  C   UNL A   1      37.527  30.520  29.117  1.00  0.00     0.029 A 
ATOM     47  N   UNL A   1      39.290  30.323  30.476  1.00  0.00    -0.354 N 
ATOM     48  C   UNL A   1      40.103  33.291  33.510  1.00  0.00     0.074 A 
ATOM     49  C   UNL A   1      39.092  34.326  33.519  1.00  0.00     0.031 C 
ATOM     50  C   UNL A   1      38.201  29.421  28.743  1.00  0.00     0.029 A 
ATOM     51  C   UNL A   1      39.389  29.286  29.578  1.00  0.00     0.049 A 
ATOM     52  H   UNL A   1      39.933  30.467  31.207  1.00  0.00     0.167 HD
ATOM     53  C   UNL A   1      41.169  33.252  34.344  1.00  0.00     0.037 A 
ATOM     54  C   UNL A   1      40.345  28.350  29.422  1.00  0.00     0.037 A 
ATOM     55  C   UNL A   1      42.155  32.203  34.351  1.00  0.00     0.049 A 
ATOM     56  C   UNL A   1      41.533  28.355  30.347  1.00  0.00     0.074 A 
ATOM     57  C   UNL A   1      43.213  32.027  35.225  1.00  0.00     0.029 A 
ATOM     58  N   UNL A   1      42.215  31.166  33.434  1.00  0.00    -0.354 N 
ATOM     59  N   UNL A   1      41.795  29.155  31.351  1.00  0.00    -0.248 NA
ATOM     60  C   UNL A   1      42.561  27.330  30.115  1.00  0.00     0.031 C 
ATOM     61  C   UNL A   1      43.954  30.923  34.796  1.00  0.00     0.029 A 
ATOM     62  C   UNL A   1      43.323  30.377  33.690  1.00  0.00     0.049 A 
ATOM     63  H   UNL A   1      41.567  31.014  32.709  1.00  0.00     0.167 HD
ATOM     64  C   UNL A   1      43.002  28.717  31.881  1.00  0.00     0.074 A 
ATOM     65  C   UNL A   1      43.410  27.567  31.105  1.00  0.00     0.031 C 
ATOM     66  C   UNL A   1      43.713  29.229  32.915  1.00  0.00     0.037 A 
BRANCH  53  67
ATOM     67  C   UNL A   1      41.345  34.374  35.326  1.00  0.00     0.057 A 
ATOM     68  C   UNL A   1      42.069  35.530  35.010  1.00  0.00     0.134 A 
ATOM     69  C   UNL A   1      40.694  34.337  36.566  1.00  0.00     0.134 A 
ATOM     70  F   UNL A   1      42.719  35.627  33.841  1.00  0.00    -0.206 F 
ATOM     71  C   UNL A   1      42.144  36.606  35.894  1.00  0.00     0.040 A 
ATOM     72  C   UNL A   1      40.742  35.416  37.449  1.00  0.00     0.040 A 
ATOM     73  F   UNL A   1      39.977  33.261  36.927  1.00  0.00    -0.206 F 
ATOM     74  C   UNL A   1      41.468  36.556  37.114  1.00  0.00     0.006 A 
ENDBRANCH  53  67
BRANCH  54  75
ATOM     75  C   UNL A   1      40.249  27.346  28.330  1.00  0.00     0.057 A 
ATOM     76  C   UNL A   1      39.557  26.143  28.509  1.00  0.00     0.134 A 
ATOM     77  C   UNL A   1      40.890  27.541  27.100  1.00  0.00     0.134 A 
ATOM     78  F   UNL A   1      38.940  25.887  29.672  1.00  0.00    -0.206 F 
ATOM     79  C   UNL A   1      39.535  25.156  27.522  1.00  0.00     0.040 A 
ATOM     80  C   UNL A   1      40.849  26.577  26.091  1.00  0.00     0.040 A 
ATOM     81  F   UNL A   1      41.564  28.675  26.859  1.00  0.00    -0.206 F 
ATOM     82  C   UNL A   1      40.182  25.374  26.307  1.00  0.00     0.006 A 
ENDBRANCH  54  75
BRANCH  66  83
ATOM     83  C   UNL A   1      44.994  28.537  33.282  1.00  0.00     0.057 A 
ATOM     84  C   UNL A   1      46.228  28.952  32.767  1.00  0.00     0.134 A 
ATOM     85  C   UNL A   1      44.999  27.487  34.209  1.00  0.00     0.134 A 
ATOM     86  F   UNL A   1      46.290  29.943  31.865  1.00  0.00    -0.206 F 
ATOM     87  C   UNL A   1      47.421  28.338  33.150  1.00  0.00     0.040 A 
ATOM     88  C   UNL A   1      46.187  26.884  34.621  1.00  0.00     0.040 A 
ATOM     89  F   UNL A   1      43.852  27.047  34.747  1.00  0.00    -0.206 F 
ATOM     90  C   UNL A   1      47.403  27.307  34.087  1.00  0.00     0.006 A 
ENDBRANCH  66  83
ENDBRANCH  40  41
ENDBRANCH  32  35
ENDBRANCH  30  31
ENDBRANCH  29  30
ENDBRANCH  28  29
ENDBRANCH   3  28
TORSDOF 15
ENDMDL
MODEL 3
REMARK VINA RESULT:     -12.2      5.000      8.268
REMARK SMILES C[C@@H](C(=O)NCCCNC(=O)c1ccc(-c2c3nc(c(-c4c(F)cccc4F)c4ccc([nH]4)c(-c4c(F)cccc4F)c4nc(c(-c5c(F)cccc5F)c5ccc2[nH]5)C=C4)C=C3)cc1)c1ccc(-c2cccc(OC(=O)NC3CC3)c2)c(F)c1
REMARK SMILES IDX 3 1 4 2 5 3 2 5 1 6 66 7 67 8 85 9 68 10 83 11 69 12 84 13
REMARK SMILES IDX 70 14 71 15 82 16 72 17 74 18 73 19 75 20 76 21 77 22 78 23
REMARK SMILES IDX 79 25 80 26 81 27 6 28 7 29 8 30 9 31 10 32 11 34 12 35
REMARK SMILES IDX 13 36 65 37 14 38 64 39 15 40 16 41 17 42 58 43 18 44 63 45
REMARK SMILES IDX 57 46 59 47 19 48 62 49 56 50 55 51 20 53 46 54 29 55 45 56
REMARK SMILES IDX 30 57 33 58 44 59 60 60 31 61 32 62 43 64 61 65 34 66 21 67
REMARK SMILES IDX 22 68 27 69 23 70 24 71 26 72 28 73 25 74 47 75 48 76 53 77
REMARK SMILES IDX 49 78 50 79 52 80 54 81 51 82 35 83 36 84 41 85 37 86 38 87
REMARK SMILES IDX 40 88 42 89 39 90
REMARK H PARENT 5 4 78 24 9 33 59 52 33 63
REMARK Flexibility Score: inf
ROOT
ATOM      1  C   UNL A   1      35.344  32.249  28.210  1.00  0.00     0.227 C 
ATOM      2  O   UNL A   1      35.624  32.972  27.251  1.00  0.00    -0.274 OA
ATOM      3  N   UNL A   1      34.846  32.876  29.315  1.00  0.00    -0.356 N 
ATOM      4  H   UNL A   1      34.530  33.797  29.165  1.00  0.00     0.163 HD
ENDROOT
BRANCH   1   5
ATOM      5  C   UNL A   1      35.499  30.718  28.201  1.00  0.00     0.105 C 
ATOM      6  C   UNL A   1      36.903  30.361  27.694  1.00  0.00     0.023 C 
BRANCH   5   7
ATOM      7  C   UNL A   1      34.397  29.991  27.422  1.00  0.00    -0.033 A 
ATOM      8  C   UNL A   1      33.039  30.309  27.608  1.00  0.00     0.005 A 
ATOM      9  C   UNL A   1      34.696  28.949  26.533  1.00  0.00     0.044 A 
ATOM     10  C   UNL A   1      32.031  29.668  26.879  1.00  0.00     0.012 A 
ATOM     11  C   UNL A   1      33.691  28.306  25.819  1.00  0.00     0.131 A 
ATOM     12  C   UNL A   1      32.345  28.653  25.969  1.00  0.00     0.018 A 
ATOM     13  F   UNL A   1      34.050  27.323  24.979  1.00  0.00    -0.206 F 
BRANCH  12  14
ATOM     14  C   UNL A   1      31.298  27.911  25.266  1.00  0.00    -0.012 A 
ATOM     15  C   UNL A   1      31.014  26.568  25.547  1.00  0.00     0.009 A 
ATOM     16  C   UNL A   1      30.554  28.570  24.276  1.00  0.00     0.056 A 
ATOM     17  C   UNL A   1      29.998  25.903  24.857  1.00  0.00     0.004 A 
ATOM     18  C   UNL A   1      29.546  27.908  23.590  1.00  0.00     0.133 A 
ATOM     19  C   UNL A   1      29.263  26.572  23.878  1.00  0.00     0.047 A 
BRANCH  18  20
ATOM     20  O   UNL A   1      28.757  28.506  22.579  1.00  0.00    -0.410 OA
BRANCH  20  21
ATOM     21  C   UNL A   1      27.494  29.067  22.750  1.00  0.00     0.412 C 
ATOM     22  O   UNL A   1      26.555  28.579  23.371  1.00  0.00    -0.224 OA
ATOM     23  N   UNL A   1      27.335  30.277  22.130  1.00  0.00    -0.318 N 
ATOM     24  H   UNL A   1      26.436  30.671  22.206  1.00  0.00     0.167 HD
BRANCH  23  25
ATOM     25  C   UNL A   1      28.275  31.050  21.392  1.00  0.00     0.085 C 
ATOM     26  C   UNL A   1      28.025  32.363  20.708  1.00  0.00     0.027 C 
ATOM     27  C   UNL A   1      28.778  32.333  22.002  1.00  0.00     0.027 C 
ENDBRANCH  23  25
ENDBRANCH  20  21
ENDBRANCH  18  20
ENDBRANCH  12  14
ENDBRANCH   5   7
ENDBRANCH   1   5
BRANCH   3  28
ATOM     28  C   UNL A   1      34.711  32.397  30.678  1.00  0.00     0.117 C 
BRANCH  28  29
ATOM     29  C   UNL A   1      34.836  33.548  31.676  1.00  0.00     0.042 C 
BRANCH  29  30
ATOM     30  C   UNL A   1      36.263  33.807  32.151  1.00  0.00     0.118 C 
BRANCH  30  31
ATOM     31  N   UNL A   1      36.512  33.267  33.477  1.00  0.00    -0.352 N 
ATOM     32  C   UNL A   1      37.289  32.200  33.858  1.00  0.00     0.251 C 
ATOM     33  H   UNL A   1      36.057  33.736  34.213  1.00  0.00     0.163 HD
ATOM     34  O   UNL A   1      37.209  31.764  35.001  1.00  0.00    -0.269 OA
BRANCH  32  35
ATOM     35  C   UNL A   1      38.199  31.558  32.884  1.00  0.00     0.039 A 
ATOM     36  C   UNL A   1      37.941  31.716  31.519  1.00  0.00     0.014 A 
ATOM     37  C   UNL A   1      39.299  30.809  33.308  1.00  0.00     0.014 A 
ATOM     38  C   UNL A   1      38.836  31.198  30.581  1.00  0.00     0.010 A 
ATOM     39  C   UNL A   1      40.228  30.355  32.375  1.00  0.00     0.010 A 
ATOM     40  C   UNL A   1      40.014  30.560  31.003  1.00  0.00    -0.014 A 
BRANCH  40  41
ATOM     41  C   UNL A   1      41.064  30.156  30.031  1.00  0.00     0.031 A 
ATOM     42  C   UNL A   1      41.086  28.763  29.465  1.00  0.00     0.074 A 
ATOM     43  C   UNL A   1      42.053  31.024  29.735  1.00  0.00     0.049 A 
ATOM     44  N   UNL A   1      41.984  28.201  28.697  1.00  0.00    -0.248 NA
ATOM     45  C   UNL A   1      39.965  27.880  29.824  1.00  0.00     0.031 C 
ATOM     46  C   UNL A   1      42.165  32.389  30.252  1.00  0.00     0.029 A 
ATOM     47  N   UNL A   1      43.168  30.879  28.944  1.00  0.00    -0.354 N 
ATOM     48  C   UNL A   1      41.549  26.897  28.498  1.00  0.00     0.074 A 
ATOM     49  C   UNL A   1      40.322  26.740  29.248  1.00  0.00     0.031 C 
ATOM     50  C   UNL A   1      43.280  32.957  29.766  1.00  0.00     0.029 A 
ATOM     51  C   UNL A   1      43.989  31.982  28.944  1.00  0.00     0.049 A 
ATOM     52  H   UNL A   1      43.360  30.064  28.429  1.00  0.00     0.167 HD
ATOM     53  C   UNL A   1      42.121  25.925  27.749  1.00  0.00     0.037 A 
ATOM     54  C   UNL A   1      45.194  32.178  28.375  1.00  0.00     0.037 A 
ATOM     55  C   UNL A   1      43.326  26.096  26.980  1.00  0.00     0.049 A 
ATOM     56  C   UNL A   1      45.816  31.064  27.575  1.00  0.00     0.074 A 
ATOM     57  C   UNL A   1      43.926  25.200  26.113  1.00  0.00     0.029 A 
ATOM     58  N   UNL A   1      44.123  27.230  26.999  1.00  0.00    -0.354 N 
ATOM     59  N   UNL A   1      45.341  29.872  27.311  1.00  0.00    -0.248 NA
ATOM     60  C   UNL A   1      47.144  31.319  26.999  1.00  0.00     0.031 C 
ATOM     61  C   UNL A   1      45.121  25.763  25.660  1.00  0.00     0.029 A 
ATOM     62  C   UNL A   1      45.236  27.034  26.198  1.00  0.00     0.049 A 
ATOM     63  H   UNL A   1      43.927  28.051  27.505  1.00  0.00     0.167 HD
ATOM     64  C   UNL A   1      46.298  29.247  26.522  1.00  0.00     0.074 A 
ATOM     65  C   UNL A   1      47.371  30.198  26.330  1.00  0.00     0.031 C 
ATOM     66  C   UNL A   1      46.293  27.993  26.009  1.00  0.00     0.037 A 
BRANCH  53  67
ATOM     67  C   UNL A   1      41.466  24.575  27.717  1.00  0.00     0.057 A 
ATOM     68  C   UNL A   1      40.387  24.294  26.869  1.00  0.00     0.134 A 
ATOM     69  C   UNL A   1      41.990  23.516  28.469  1.00  0.00     0.134 A 
ATOM     70  F   UNL A   1      39.835  25.264  26.126  1.00  0.00    -0.206 F 
ATOM     71  C   UNL A   1      39.849  23.009  26.776  1.00  0.00     0.040 A 
ATOM     72  C   UNL A   1      41.478  22.222  28.367  1.00  0.00     0.040 A 
ATOM     73  F   UNL A   1      43.030  23.716  29.295  1.00  0.00    -0.206 F 
ATOM     74  C   UNL A   1      40.403  21.966  27.518  1.00  0.00     0.006 A 
ENDBRANCH  53  67
BRANCH  54  75
ATOM     75  C   UNL A   1      45.919  33.463  28.560  1.00  0.00     0.057 A 
ATOM     76  C   UNL A   1      46.760  33.669  29.659  1.00  0.00     0.134 A 
ATOM     77  C   UNL A   1      45.747  34.533  27.673  1.00  0.00     0.134 A 
ATOM     78  F   UNL A   1      46.951  32.691  30.556  1.00  0.00    -0.206 F 
ATOM     79  C   UNL A   1      47.376  34.901  29.890  1.00  0.00     0.040 A 
ATOM     80  C   UNL A   1      46.382  35.760  27.873  1.00  0.00     0.040 A 
ATOM     81  F   UNL A   1      44.960  34.400  26.595  1.00  0.00    -0.206 F 
ATOM     82  C   UNL A   1      47.188  35.951  28.992  1.00  0.00     0.006 A 
ENDBRANCH  54  75
BRANCH  66  83
ATOM     83  C   UNL A   1      47.469  27.582  25.173  1.00  0.00     0.057 A 
ATOM     84  C   UNL A   1      48.592  26.964  25.737  1.00  0.00     0.134 A 
ATOM     85  C   UNL A   1      47.453  27.749  23.783  1.00  0.00     0.134 A 
ATOM     86  F   UNL A   1      48.677  26.787  27.065  1.00  0.00    -0.206 F 
ATOM     87  C   UNL A   1      49.663  26.540  24.949  1.00  0.00     0.040 A 
ATOM     88  C   UNL A   1      48.504  27.304  22.982  1.00  0.00     0.040 A 
ATOM     89  F   UNL A   1      46.403  28.326  23.179  1.00  0.00    -0.206 F 
ATOM     90  C   UNL A   1      49.616  26.700  23.566  1.00  0.00     0.006 A 
ENDBRANCH  66  83
ENDBRANCH  40  41
ENDBRANCH  32  35
ENDBRANCH  30  31
ENDBRANCH  29  30
ENDBRANCH  28  29
ENDBRANCH   3  28
TORSDOF 15
ENDMDL
