MODEL 1
REMARK VINA RESULT:     -12.7      0.000      0.000
REMARK SMILES Cc1cccc2nc([C@@H]3CCCC[C@@H]3C(=O)NCCCNC(=O)c3ccc(-c4c5nc(c(-c6c(F)cccc6F)c6ccc([nH]6)c(-c6c(F)cccc6F)c6nc(c(-c7c(F)cccc7F)c7ccc4[nH]7)C=C6)C=C5)cc3)oc12
REMARK SMILES IDX 19 1 18 2 17 3 15 4 16 5 14 7 9 8 10 9 11 10 13 11 12 12
REMARK SMILES IDX 8 13 1 14 2 15 3 16 79 17 4 18 6 19 78 20 5 21 7 22 20 23
REMARK SMILES IDX 21 24 22 25 23 27 24 28 25 29 77 30 26 31 76 32 27 33 28 34
REMARK SMILES IDX 29 35 70 36 30 37 75 38 69 39 71 40 31 41 74 42 68 43 67 44
REMARK SMILES IDX 32 46 58 47 41 48 57 49 42 50 45 51 56 52 72 53 43 54 44 55
REMARK SMILES IDX 55 57 73 58 46 59 33 60 34 61 39 62 35 63 36 64 38 65 40 66
REMARK SMILES IDX 37 67 59 68 60 69 65 70 61 71 62 72 64 73 66 74 63 75 47 76
REMARK SMILES IDX 48 77 53 78 49 79 50 80 52 81 54 82 51 83
REMARK H PARENT 17 6 21 26 71 45 45 56
REMARK Flexibility Score: inf
ROOT
ATOM      1  C   UNL A   1      33.216  30.157  27.166  1.00  0.00     0.042 C 
ENDROOT
BRANCH   1   2
ATOM      2  C   UNL A   1      33.347  28.640  27.213  1.00  0.00     0.117 C 
BRANCH   2   3
ATOM      3  N   UNL A   1      32.086  27.930  27.095  1.00  0.00    -0.356 N 
ATOM      4  C   UNL A   1      31.713  26.781  26.484  1.00  0.00     0.223 C 
ATOM      5  O   UNL A   1      30.637  26.309  26.887  1.00  0.00    -0.275 OA
ATOM      6  H   UNL A   1      31.344  28.381  27.558  1.00  0.00     0.163 HD
BRANCH   4   7
ATOM      7  C   UNL A   1      32.375  26.115  25.263  1.00  0.00     0.091 C 
ATOM      8  C   UNL A   1      31.617  25.789  23.961  1.00  0.00     0.088 C 
ATOM      9  C   UNL A   1      30.849  24.447  23.999  1.00  0.00     0.014 C 
ATOM     10  C   UNL A   1      31.546  23.305  24.760  1.00  0.00     0.001 C 
ATOM     11  C   UNL A   1      33.185  24.911  25.756  1.00  0.00     0.014 C 
ATOM     12  C   UNL A   1      32.285  23.721  26.025  1.00  0.00     0.001 C 
BRANCH   8  13
ATOM     13  C   UNL A   1      30.832  27.003  23.518  1.00  0.00     0.199 A 
ATOM     14  C   UNL A   1      26.578  28.172  23.591  1.00  0.00     0.048 C 
ATOM     15  C   UNL A   1      27.812  28.783  23.018  1.00  0.00    -0.006 A 
ATOM     16  C   UNL A   1      27.737  29.961  22.238  1.00  0.00     0.007 A 
ATOM     17  C   UNL A   1      29.087  28.228  23.123  1.00  0.00     0.157 A 
ATOM     18  C   UNL A   1      28.862  30.538  21.635  1.00  0.00     0.003 A 
ATOM     19  C   UNL A   1      30.205  28.766  22.510  1.00  0.00     0.110 A 
ATOM     20  O   UNL A   1      29.487  27.087  23.793  1.00  0.00    -0.440 OA
ATOM     21  C   UNL A   1      30.117  29.944  21.763  1.00  0.00     0.032 A 
ATOM     22  N   UNL A   1      31.274  27.969  22.739  1.00  0.00    -0.213 NA
ENDBRANCH   8  13
ENDBRANCH   4   7
ENDBRANCH   2   3
ENDBRANCH   1   2
BRANCH   1  23
ATOM     23  C   UNL A   1      34.519  30.783  27.583  1.00  0.00     0.118 C 
BRANCH  23  24
ATOM     24  N   UNL A   1      34.342  31.666  28.747  1.00  0.00    -0.352 N 
ATOM     25  C   UNL A   1      35.134  31.747  29.876  1.00  0.00     0.251 C 
ATOM     26  H   UNL A   1      33.566  32.272  28.717  1.00  0.00     0.163 HD
ATOM     27  O   UNL A   1      34.751  32.266  30.906  1.00  0.00    -0.269 OA
BRANCH  25  28
ATOM     28  C   UNL A   1      36.495  31.217  29.753  1.00  0.00     0.039 A 
ATOM     29  C   UNL A   1      37.614  32.037  29.610  1.00  0.00     0.014 A 
ATOM     30  C   UNL A   1      36.610  29.835  29.877  1.00  0.00     0.014 A 
ATOM     31  C   UNL A   1      38.861  31.426  29.584  1.00  0.00     0.010 A 
ATOM     32  C   UNL A   1      37.818  29.299  30.167  1.00  0.00     0.010 A 
ATOM     33  C   UNL A   1      38.931  30.051  29.846  1.00  0.00    -0.014 A 
BRANCH  33  34
ATOM     34  C   UNL A   1      40.168  29.311  29.868  1.00  0.00     0.031 A 
ATOM     35  C   UNL A   1      40.678  29.103  31.236  1.00  0.00     0.074 A 
ATOM     36  C   UNL A   1      40.623  28.694  28.757  1.00  0.00     0.049 A 
ATOM     37  N   UNL A   1      41.621  29.771  31.804  1.00  0.00    -0.248 NA
ATOM     38  C   UNL A   1      39.908  28.256  32.164  1.00  0.00     0.031 C 
ATOM     39  C   UNL A   1      40.013  28.595  27.425  1.00  0.00     0.029 A 
ATOM     40  N   UNL A   1      41.741  27.930  28.631  1.00  0.00    -0.354 N 
ATOM     41  C   UNL A   1      41.751  29.221  33.071  1.00  0.00     0.074 A 
ATOM     42  C   UNL A   1      40.522  28.519  33.320  1.00  0.00     0.031 C 
ATOM     43  C   UNL A   1      40.645  27.639  26.704  1.00  0.00     0.029 A 
ATOM     44  C   UNL A   1      41.781  27.162  27.464  1.00  0.00     0.049 A 
ATOM     45  H   UNL A   1      42.460  27.919  29.302  1.00  0.00     0.167 HD
ATOM     46  C   UNL A   1      42.982  29.125  33.647  1.00  0.00     0.037 A 
ATOM     47  C   UNL A   1      42.680  26.168  27.232  1.00  0.00     0.037 A 
ATOM     48  C   UNL A   1      43.942  29.920  32.909  1.00  0.00     0.049 A 
ATOM     49  C   UNL A   1      43.843  26.436  28.135  1.00  0.00     0.074 A 
ATOM     50  C   UNL A   1      44.035  31.257  32.569  1.00  0.00     0.029 A 
ATOM     51  N   UNL A   1      44.757  29.250  32.023  1.00  0.00    -0.354 N 
ATOM     52  N   UNL A   1      44.606  27.492  28.010  1.00  0.00    -0.248 NA
ATOM     53  C   UNL A   1      43.781  25.870  29.478  1.00  0.00     0.031 C 
ATOM     54  C   UNL A   1      44.481  31.258  31.213  1.00  0.00     0.029 A 
ATOM     55  C   UNL A   1      44.748  29.941  30.838  1.00  0.00     0.049 A 
ATOM     56  H   UNL A   1      45.258  28.423  32.209  1.00  0.00     0.167 HD
ATOM     57  C   UNL A   1      44.756  27.980  29.303  1.00  0.00     0.074 A 
ATOM     58  C   UNL A   1      44.255  26.912  30.172  1.00  0.00     0.031 C 
ATOM     59  C   UNL A   1      44.953  29.311  29.552  1.00  0.00     0.037 A 
BRANCH  46  60
ATOM     60  C   UNL A   1      43.426  28.000  34.553  1.00  0.00     0.057 A 
ATOM     61  C   UNL A   1      43.615  28.101  35.946  1.00  0.00     0.134 A 
ATOM     62  C   UNL A   1      43.346  26.686  34.057  1.00  0.00     0.134 A 
ATOM     63  F   UNL A   1      43.701  29.268  36.590  1.00  0.00    -0.206 F 
ATOM     64  C   UNL A   1      43.631  26.987  36.788  1.00  0.00     0.040 A 
ATOM     65  C   UNL A   1      43.315  25.568  34.896  1.00  0.00     0.040 A 
ATOM     66  F   UNL A   1      43.199  26.452  32.743  1.00  0.00    -0.206 F 
ATOM     67  C   UNL A   1      43.435  25.718  36.270  1.00  0.00     0.006 A 
ENDBRANCH  46  60
BRANCH  47  68
ATOM     68  C   UNL A   1      42.419  24.849  26.600  1.00  0.00     0.057 A 
ATOM     69  C   UNL A   1      41.624  23.875  27.234  1.00  0.00     0.134 A 
ATOM     70  C   UNL A   1      43.144  24.402  25.484  1.00  0.00     0.134 A 
ATOM     71  F   UNL A   1      40.946  24.156  28.357  1.00  0.00    -0.206 F 
ATOM     72  C   UNL A   1      41.557  22.548  26.799  1.00  0.00     0.040 A 
ATOM     73  C   UNL A   1      43.090  23.070  25.038  1.00  0.00     0.040 A 
ATOM     74  F   UNL A   1      43.971  25.233  24.833  1.00  0.00    -0.206 F 
ATOM     75  C   UNL A   1      42.301  22.136  25.703  1.00  0.00     0.006 A 
ENDBRANCH  47  68
BRANCH  59  76
ATOM     76  C   UNL A   1      45.194  30.233  28.384  1.00  0.00     0.057 A 
ATOM     77  C   UNL A   1      46.513  30.532  28.030  1.00  0.00     0.134 A 
ATOM     78  C   UNL A   1      44.190  30.959  27.723  1.00  0.00     0.134 A 
ATOM     79  F   UNL A   1      47.533  29.935  28.667  1.00  0.00    -0.206 F 
ATOM     80  C   UNL A   1      46.822  31.487  27.058  1.00  0.00     0.040 A 
ATOM     81  C   UNL A   1      44.482  31.896  26.724  1.00  0.00     0.040 A 
ATOM     82  F   UNL A   1      42.905  30.835  28.067  1.00  0.00    -0.206 F 
ATOM     83  C   UNL A   1      45.805  32.165  26.392  1.00  0.00     0.006 A 
ENDBRANCH  59  76
ENDBRANCH  33  34
ENDBRANCH  25  28
ENDBRANCH  23  24
ENDBRANCH   1  23
TORSDOF 11
ENDMDL
MODEL 2
REMARK VINA RESULT:     -12.7      4.390      8.358
REMARK SMILES Cc1cccc2nc([C@@H]3CCCC[C@@H]3C(=O)NCCCNC(=O)c3ccc(-c4c5nc(c(-c6c(F)cccc6F)c6ccc([nH]6)c(-c6c(F)cccc6F)c6nc(c(-c7c(F)cccc7F)c7ccc4[nH]7)C=C6)C=C5)cc3)oc12
REMARK SMILES IDX 19 1 18 2 17 3 15 4 16 5 14 7 9 8 10 9 11 10 13 11 12 12
REMARK SMILES IDX 8 13 1 14 2 15 3 16 79 17 4 18 6 19 78 20 5 21 7 22 20 23
REMARK SMILES IDX 21 24 22 25 23 27 24 28 25 29 77 30 26 31 76 32 27 33 28 34
REMARK SMILES IDX 29 35 70 36 30 37 75 38 69 39 71 40 31 41 74 42 68 43 67 44
REMARK SMILES IDX 32 46 58 47 41 48 57 49 42 50 45 51 56 52 72 53 43 54 44 55
REMARK SMILES IDX 55 57 73 58 46 59 33 60 34 61 39 62 35 63 36 64 38 65 40 66
REMARK SMILES IDX 37 67 59 68 60 69 65 70 61 71 62 72 64 73 66 74 63 75 47 76
REMARK SMILES IDX 48 77 53 78 49 79 50 80 52 81 54 82 51 83
REMARK H PARENT 17 6 21 26 71 45 45 56
REMARK Flexibility Score: inf
ROOT
ATOM      1  C   UNL A   1      34.646  33.625  32.008  1.00  0.00     0.042 C 
ENDROOT
BRANCH   1   2
ATOM      2  C   UNL A   1      34.608  33.229  33.479  1.00  0.00     0.117 C 
BRANCH   2   3
ATOM      3  N   UNL A   1      35.621  33.874  34.295  1.00  0.00    -0.356 N 
ATOM      4  C   UNL A   1      36.929  33.621  34.534  1.00  0.00     0.223 C 
ATOM      5  O   UNL A   1      37.562  34.580  35.006  1.00  0.00    -0.275 OA
ATOM      6  H   UNL A   1      35.285  34.664  34.776  1.00  0.00     0.163 HD
BRANCH   4   7
ATOM      7  C   UNL A   1      37.648  32.261  34.448  1.00  0.00     0.091 C 
ATOM      8  C   UNL A   1      38.693  31.788  35.478  1.00  0.00     0.088 C 
ATOM      9  C   UNL A   1      40.123  32.313  35.210  1.00  0.00     0.014 C 
ATOM     10  C   UNL A   1      40.529  32.406  33.727  1.00  0.00     0.001 C 
ATOM     11  C   UNL A   1      38.154  32.079  33.013  1.00  0.00     0.014 C 
ATOM     12  C   UNL A   1      39.429  32.865  32.779  1.00  0.00     0.001 C 
BRANCH   8  13
ATOM     13  C   UNL A   1      38.152  31.992  36.875  1.00  0.00     0.199 A 
ATOM     14  C   UNL A   1      38.960  34.825  40.159  1.00  0.00     0.048 C 
ATOM     15  C   UNL A   1      38.106  33.610  40.025  1.00  0.00    -0.006 A 
ATOM     16  C   UNL A   1      37.401  33.096  41.139  1.00  0.00     0.007 A 
ATOM     17  C   UNL A   1      37.994  32.851  38.859  1.00  0.00     0.157 A 
ATOM     18  C   UNL A   1      36.633  31.928  41.072  1.00  0.00     0.003 A 
ATOM     19  C   UNL A   1      37.264  31.678  38.781  1.00  0.00     0.110 A 
ATOM     20  O   UNL A   1      38.565  33.071  37.619  1.00  0.00    -0.440 OA
ATOM     21  C   UNL A   1      36.555  31.199  39.886  1.00  0.00     0.032 A 
ATOM     22  N   UNL A   1      37.404  31.140  37.547  1.00  0.00    -0.213 NA
ENDBRANCH   8  13
ENDBRANCH   4   7
ENDBRANCH   2   3
ENDBRANCH   1   2
BRANCH   1  23
ATOM     23  C   UNL A   1      34.780  32.388  31.162  1.00  0.00     0.118 C 
BRANCH  23  24
ATOM     24  N   UNL A   1      34.597  32.692  29.734  1.00  0.00    -0.352 N 
ATOM     25  C   UNL A   1      35.492  32.482  28.703  1.00  0.00     0.251 C 
ATOM     26  H   UNL A   1      33.733  33.092  29.484  1.00  0.00     0.163 HD
ATOM     27  O   UNL A   1      35.389  33.037  27.626  1.00  0.00    -0.269 OA
BRANCH  25  28
ATOM     28  C   UNL A   1      36.556  31.505  28.956  1.00  0.00     0.039 A 
ATOM     29  C   UNL A   1      36.384  30.135  28.759  1.00  0.00     0.014 A 
ATOM     30  C   UNL A   1      37.786  32.045  29.323  1.00  0.00     0.014 A 
ATOM     31  C   UNL A   1      37.487  29.314  28.954  1.00  0.00     0.010 A 
ATOM     32  C   UNL A   1      38.900  31.288  29.197  1.00  0.00     0.010 A 
ATOM     33  C   UNL A   1      38.730  29.917  29.191  1.00  0.00    -0.014 A 
BRANCH  33  34
ATOM     34  C   UNL A   1      39.947  29.171  29.388  1.00  0.00     0.031 A 
ATOM     35  C   UNL A   1      40.289  29.013  30.814  1.00  0.00     0.074 A 
ATOM     36  C   UNL A   1      40.525  28.508  28.364  1.00  0.00     0.049 A 
ATOM     37  N   UNL A   1      41.165  29.697  31.465  1.00  0.00    -0.248 NA
ATOM     38  C   UNL A   1      39.405  28.208  31.675  1.00  0.00     0.031 C 
ATOM     39  C   UNL A   1      40.075  28.361  26.973  1.00  0.00     0.029 A 
ATOM     40  N   UNL A   1      41.641  27.734  28.400  1.00  0.00    -0.354 N 
ATOM     41  C   UNL A   1      41.137  29.197  32.758  1.00  0.00     0.074 A 
ATOM     42  C   UNL A   1      39.879  28.512  32.885  1.00  0.00     0.031 C 
ATOM     43  C   UNL A   1      40.778  27.374  26.369  1.00  0.00     0.029 A 
ATOM     44  C   UNL A   1      41.812  26.920  27.277  1.00  0.00     0.049 A 
ATOM     45  H   UNL A   1      42.275  27.744  29.153  1.00  0.00     0.167 HD
ATOM     46  C   UNL A   1      42.290  29.116  33.480  1.00  0.00     0.037 A 
ATOM     47  C   UNL A   1      42.721  25.913  27.191  1.00  0.00     0.037 A 
ATOM     48  C   UNL A   1      43.339  29.875  32.832  1.00  0.00     0.049 A 
ATOM     49  C   UNL A   1      43.771  26.209  28.215  1.00  0.00     0.074 A 
ATOM     50  C   UNL A   1      43.486  31.197  32.455  1.00  0.00     0.029 A 
ATOM     51  N   UNL A   1      44.246  29.167  32.075  1.00  0.00    -0.354 N 
ATOM     52  N   UNL A   1      44.555  27.255  28.143  1.00  0.00    -0.248 NA
ATOM     53  C   UNL A   1      43.544  25.696  29.562  1.00  0.00     0.031 C 
ATOM     54  C   UNL A   1      44.090  31.143  31.162  1.00  0.00     0.029 A 
ATOM     55  C   UNL A   1      44.386  29.811  30.873  1.00  0.00     0.049 A 
ATOM     56  H   UNL A   1      44.713  28.345  32.350  1.00  0.00     0.167 HD
ATOM     57  C   UNL A   1      44.555  27.791  29.425  1.00  0.00     0.074 A 
ATOM     58  C   UNL A   1      43.944  26.761  30.268  1.00  0.00     0.031 C 
ATOM     59  C   UNL A   1      44.735  29.130  29.644  1.00  0.00     0.037 A 
BRANCH  46  60
ATOM     60  C   UNL A   1      42.612  28.024  34.474  1.00  0.00     0.057 A 
ATOM     61  C   UNL A   1      43.128  26.754  34.150  1.00  0.00     0.134 A 
ATOM     62  C   UNL A   1      42.714  28.380  35.832  1.00  0.00     0.134 A 
ATOM     63  F   UNL A   1      43.126  26.258  32.910  1.00  0.00    -0.206 F 
ATOM     64  C   UNL A   1      43.775  25.941  35.084  1.00  0.00     0.040 A 
ATOM     65  C   UNL A   1      43.401  27.594  36.762  1.00  0.00     0.040 A 
ATOM     66  F   UNL A   1      42.231  29.550  36.276  1.00  0.00    -0.206 F 
ATOM     67  C   UNL A   1      43.954  26.380  36.384  1.00  0.00     0.006 A 
ENDBRANCH  46  60
BRANCH  47  68
ATOM     68  C   UNL A   1      42.523  24.571  26.583  1.00  0.00     0.057 A 
ATOM     69  C   UNL A   1      41.740  23.587  27.217  1.00  0.00     0.134 A 
ATOM     70  C   UNL A   1      43.296  24.123  25.501  1.00  0.00     0.134 A 
ATOM     71  F   UNL A   1      41.020  23.870  28.311  1.00  0.00    -0.206 F 
ATOM     72  C   UNL A   1      41.731  22.248  26.811  1.00  0.00     0.040 A 
ATOM     73  C   UNL A   1      43.300  22.781  25.086  1.00  0.00     0.040 A 
ATOM     74  F   UNL A   1      44.116  24.967  24.856  1.00  0.00    -0.206 F 
ATOM     75  C   UNL A   1      42.522  21.836  25.748  1.00  0.00     0.006 A 
ENDBRANCH  47  68
BRANCH  59  76
ATOM     76  C   UNL A   1      45.123  30.005  28.479  1.00  0.00     0.057 A 
ATOM     77  C   UNL A   1      46.476  30.301  28.288  1.00  0.00     0.134 A 
ATOM     78  C   UNL A   1      44.211  30.692  27.662  1.00  0.00     0.134 A 
ATOM     79  F   UNL A   1      47.406  29.742  29.078  1.00  0.00    -0.206 F 
ATOM     80  C   UNL A   1      46.905  31.218  27.324  1.00  0.00     0.040 A 
ATOM     81  C   UNL A   1      44.627  31.589  26.670  1.00  0.00     0.040 A 
ATOM     82  F   UNL A   1      42.893  30.570  27.841  1.00  0.00    -0.206 F 
ATOM     83  C   UNL A   1      45.981  31.856  26.502  1.00  0.00     0.006 A 
ENDBRANCH  59  76
ENDBRANCH  33  34
ENDBRANCH  25  28
ENDBRANCH  23  24
ENDBRANCH   1  23
TORSDOF 11
ENDMDL
MODEL 3
REMARK VINA RESULT:     -12.6      4.290      7.585
REMARK SMILES Cc1cccc2nc([C@@H]3CCCC[C@@H]3C(=O)NCCCNC(=O)c3ccc(-c4c5nc(c(-c6c(F)cccc6F)c6ccc([nH]6)c(-c6c(F)cccc6F)c6nc(c(-c7c(F)cccc7F)c7ccc4[nH]7)C=C6)C=C5)cc3)oc12
REMARK SMILES IDX 19 1 18 2 17 3 15 4 16 5 14 7 9 8 10 9 11 10 13 11 12 12
REMARK SMILES IDX 8 13 1 14 2 15 3 16 79 17 4 18 6 19 78 20 5 21 7 22 20 23
REMARK SMILES IDX 21 24 22 25 23 27 24 28 25 29 77 30 26 31 76 32 27 33 28 34
REMARK SMILES IDX 29 35 70 36 30 37 75 38 69 39 71 40 31 41 74 42 68 43 67 44
REMARK SMILES IDX 32 46 58 47 41 48 57 49 42 50 45 51 56 52 72 53 43 54 44 55
REMARK SMILES IDX 55 57 73 58 46 59 33 60 34 61 39 62 35 63 36 64 38 65 40 66
REMARK SMILES IDX 37 67 59 68 60 69 65 70 61 71 62 72 64 73 66 74 63 75 47 76
REMARK SMILES IDX 48 77 53 78 49 79 50 80 52 81 54 82 51 83
REMARK H PARENT 17 6 21 26 71 45 45 56
REMARK Flexibility Score: inf
ROOT
ATOM      1  C   UNL A   1      34.411  33.625  32.071  1.00  0.00     0.042 C 
ENDROOT
BRANCH   1   2
ATOM      2  C   UNL A   1      35.019  33.574  33.467  1.00  0.00     0.117 C 
BRANCH   2   3
ATOM      3  N   UNL A   1      36.098  32.614  33.610  1.00  0.00    -0.356 N 
ATOM      4  C   UNL A   1      37.152  32.511  34.453  1.00  0.00     0.223 C 
ATOM      5  O   UNL A   1      37.663  31.380  34.505  1.00  0.00    -0.275 OA
ATOM      6  H   UNL A   1      36.055  31.882  32.954  1.00  0.00     0.163 HD
BRANCH   4   7
ATOM      7  C   UNL A   1      37.868  33.654  35.199  1.00  0.00     0.091 C 
ATOM      8  C   UNL A   1      39.349  34.016  34.973  1.00  0.00     0.088 C 
ATOM      9  C   UNL A   1      40.339  33.156  35.795  1.00  0.00     0.014 C 
ATOM     10  C   UNL A   1      39.873  32.780  37.213  1.00  0.00     0.001 C 
ATOM     11  C   UNL A   1      37.543  33.527  36.692  1.00  0.00     0.014 C 
ATOM     12  C   UNL A   1      38.391  32.454  37.346  1.00  0.00     0.001 C 
BRANCH   8  13
ATOM     13  C   UNL A   1      39.621  34.124  33.490  1.00  0.00     0.199 A 
ATOM     14  C   UNL A   1      43.245  34.337  30.984  1.00  0.00     0.048 C 
ATOM     15  C   UNL A   1      41.784  34.450  30.705  1.00  0.00    -0.006 A 
ATOM     16  C   UNL A   1      41.319  34.765  29.407  1.00  0.00     0.007 A 
ATOM     17  C   UNL A   1      40.788  34.340  31.676  1.00  0.00     0.157 A 
ATOM     18  C   UNL A   1      39.961  34.935  29.114  1.00  0.00     0.003 A 
ATOM     19  C   UNL A   1      39.443  34.534  31.412  1.00  0.00     0.110 A 
ATOM     20  O   UNL A   1      40.912  34.060  33.023  1.00  0.00    -0.440 OA
ATOM     21  C   UNL A   1      39.000  34.822  30.118  1.00  0.00     0.032 A 
ATOM     22  N   UNL A   1      38.737  34.430  32.561  1.00  0.00    -0.213 NA
ENDBRANCH   8  13
ENDBRANCH   4   7
ENDBRANCH   2   3
ENDBRANCH   1   2
BRANCH   1  23
ATOM     23  C   UNL A   1      34.739  32.353  31.337  1.00  0.00     0.118 C 
BRANCH  23  24
ATOM     24  N   UNL A   1      34.352  32.435  29.920  1.00  0.00    -0.352 N 
ATOM     25  C   UNL A   1      35.114  32.110  28.814  1.00  0.00     0.251 C 
ATOM     26  H   UNL A   1      33.440  32.760  29.738  1.00  0.00     0.163 HD
ATOM     27  O   UNL A   1      34.837  32.495  27.695  1.00  0.00    -0.269 OA
BRANCH  25  28
ATOM     28  C   UNL A   1      36.257  31.223  29.052  1.00  0.00     0.039 A 
ATOM     29  C   UNL A   1      36.218  29.854  28.787  1.00  0.00     0.014 A 
ATOM     30  C   UNL A   1      37.422  31.855  29.479  1.00  0.00     0.014 A 
ATOM     31  C   UNL A   1      37.387  29.129  28.975  1.00  0.00     0.010 A 
ATOM     32  C   UNL A   1      38.604  31.210  29.351  1.00  0.00     0.010 A 
ATOM     33  C   UNL A   1      38.562  29.831  29.276  1.00  0.00    -0.014 A 
BRANCH  33  34
ATOM     34  C   UNL A   1      39.838  29.191  29.472  1.00  0.00     0.031 A 
ATOM     35  C   UNL A   1      40.067  28.808  30.879  1.00  0.00     0.074 A 
ATOM     36  C   UNL A   1      40.581  28.792  28.419  1.00  0.00     0.049 A 
ATOM     37  N   UNL A   1      40.793  29.447  31.731  1.00  0.00    -0.248 NA
ATOM     38  C   UNL A   1      39.214  27.771  31.484  1.00  0.00     0.031 C 
ATOM     39  C   UNL A   1      40.280  28.859  26.983  1.00  0.00     0.029 A 
ATOM     40  N   UNL A   1      41.775  28.143  28.443  1.00  0.00    -0.354 N 
ATOM     41  C   UNL A   1      40.710  28.716  32.906  1.00  0.00     0.074 A 
ATOM     42  C   UNL A   1      39.538  27.894  32.774  1.00  0.00     0.031 C 
ATOM     43  C   UNL A   1      41.148  28.078  26.298  1.00  0.00     0.029 A 
ATOM     44  C   UNL A   1      42.143  27.573  27.221  1.00  0.00     0.049 A 
ATOM     45  H   UNL A   1      42.334  28.079  29.251  1.00  0.00     0.167 HD
ATOM     46  C   UNL A   1      41.794  28.622  33.725  1.00  0.00     0.037 A 
ATOM     47  C   UNL A   1      43.172  26.698  27.062  1.00  0.00     0.037 A 
ATOM     48  C   UNL A   1      42.798  29.592  33.339  1.00  0.00     0.049 A 
ATOM     49  C   UNL A   1      44.082  26.906  28.232  1.00  0.00     0.074 A 
ATOM     50  C   UNL A   1      42.817  30.969  33.215  1.00  0.00     0.029 A 
ATOM     51  N   UNL A   1      43.849  29.132  32.575  1.00  0.00    -0.354 N 
ATOM     52  N   UNL A   1      44.737  28.022  28.428  1.00  0.00    -0.248 NA
ATOM     53  C   UNL A   1      43.799  26.132  29.436  1.00  0.00     0.031 C 
ATOM     54  C   UNL A   1      43.537  31.217  32.007  1.00  0.00     0.029 A 
ATOM     55  C   UNL A   1      44.016  29.998  31.525  1.00  0.00     0.049 A 
ATOM     56  H   UNL A   1      44.385  28.326  32.752  1.00  0.00     0.167 HD
ATOM     57  C   UNL A   1      44.558  28.310  29.776  1.00  0.00     0.074 A 
ATOM     58  C   UNL A   1      44.002  27.084  30.355  1.00  0.00     0.031 C 
ATOM     59  C   UNL A   1      44.554  29.596  30.243  1.00  0.00     0.037 A 
BRANCH  46  60
ATOM     60  C   UNL A   1      42.156  27.404  34.544  1.00  0.00     0.057 A 
ATOM     61  C   UNL A   1      42.991  26.353  34.117  1.00  0.00     0.134 A 
ATOM     62  C   UNL A   1      41.920  27.450  35.931  1.00  0.00     0.134 A 
ATOM     63  F   UNL A   1      43.332  26.164  32.839  1.00  0.00    -0.206 F 
ATOM     64  C   UNL A   1      43.614  25.474  35.005  1.00  0.00     0.040 A 
ATOM     65  C   UNL A   1      42.575  26.604  36.831  1.00  0.00     0.040 A 
ATOM     66  F   UNL A   1      41.116  28.383  36.463  1.00  0.00    -0.206 F 
ATOM     67  C   UNL A   1      43.443  25.626  36.370  1.00  0.00     0.006 A 
ENDBRANCH  46  60
BRANCH  47  68
ATOM     68  C   UNL A   1      43.193  25.479  26.213  1.00  0.00     0.057 A 
ATOM     69  C   UNL A   1      42.364  24.375  26.493  1.00  0.00     0.134 A 
ATOM     70  C   UNL A   1      44.200  25.252  25.263  1.00  0.00     0.134 A 
ATOM     71  F   UNL A   1      41.417  24.440  27.439  1.00  0.00    -0.206 F 
ATOM     72  C   UNL A   1      42.528  23.128  25.879  1.00  0.00     0.040 A 
ATOM     73  C   UNL A   1      44.379  24.004  24.641  1.00  0.00     0.040 A 
ATOM     74  F   UNL A   1      45.076  26.220  24.956  1.00  0.00    -0.206 F 
ATOM     75  C   UNL A   1      43.546  22.934  24.956  1.00  0.00     0.006 A 
ENDBRANCH  47  68
BRANCH  59  76
ATOM     76  C   UNL A   1      44.936  30.706  29.297  1.00  0.00     0.057 A 
ATOM     77  C   UNL A   1      46.274  31.108  29.245  1.00  0.00     0.134 A 
ATOM     78  C   UNL A   1      44.018  31.493  28.582  1.00  0.00     0.134 A 
ATOM     79  F   UNL A   1      47.202  30.453  29.960  1.00  0.00    -0.206 F 
ATOM     80  C   UNL A   1      46.685  32.221  28.506  1.00  0.00     0.040 A 
ATOM     81  C   UNL A   1      44.420  32.591  27.811  1.00  0.00     0.040 A 
ATOM     82  F   UNL A   1      42.704  31.265  28.658  1.00  0.00    -0.206 F 
ATOM     83  C   UNL A   1      45.759  32.960  27.776  1.00  0.00     0.006 A 
ENDBRANCH  59  76
ENDBRANCH  33  34
ENDBRANCH  25  28
ENDBRANCH  23  24
ENDBRANCH   1  23
TORSDOF 11
ENDMDL
