MODEL 1
REMARK VINA RESULT:     -11.0      0.000      0.000
REMARK SMILES CC[C@H](C)CN(CC)C(=O)c1ccc(/C=C/C(=O)NCCCNC(=O)c2ccc(-c3c4nc(c(-c5c(F)cccc5F)c5ccc([nH]5)c(-c5c(F)cccc5F)c5nc(c(-c6c(F)cccc6F)c6ccc3[nH]6)C=C5)C=C4)cc2)cn1
REMARK SMILES IDX 17 1 18 2 19 3 16 5 15 6 14 7 11 8 12 9 81 10 13 11 80 12
REMARK SMILES IDX 9 13 10 14 6 15 5 16 3 17 4 18 2 19 1 20 7 21 8 22 20 23
REMARK SMILES IDX 21 24 22 25 23 26 24 27 25 29 26 30 27 31 79 32 28 33 78 34
REMARK SMILES IDX 29 35 30 36 31 37 72 38 32 39 77 40 71 41 73 42 33 43 76 44
REMARK SMILES IDX 70 45 69 46 34 48 60 49 43 50 59 51 44 52 47 53 58 54 74 55
REMARK SMILES IDX 45 56 46 57 57 59 75 60 48 61 35 62 36 63 41 64 37 65 38 66
REMARK SMILES IDX 40 67 42 68 39 69 61 70 62 71 67 72 63 73 64 74 66 75 68 76
REMARK SMILES IDX 65 77 49 78 50 79 55 80 51 81 52 82 54 83 56 84 53 85
REMARK H PARENT 19 4 23 28 73 47 47 58
REMARK Flexibility Score: inf
ROOT
ATOM      1  C   UNL A   1      30.671  29.376  23.953  1.00  0.00     0.244 C 
ATOM      2  O   UNL A   1      29.832  29.337  23.056  1.00  0.00    -0.270 OA
ATOM      3  N   UNL A   1      30.770  30.478  24.745  1.00  0.00    -0.352 N 
ATOM      4  H   UNL A   1      30.207  31.236  24.468  1.00  0.00     0.163 HD
ENDROOT
BRANCH   1   5
ATOM      5  C   UNL A   1      31.505  28.185  24.226  1.00  0.00     0.072 C 
ATOM      6  C   UNL A   1      31.210  27.305  25.194  1.00  0.00     0.015 C 
BRANCH   6   7
ATOM      7  C   UNL A   1      31.953  26.076  25.498  1.00  0.00    -0.007 A 
ATOM      8  C   UNL A   1      33.401  23.806  26.022  1.00  0.00     0.128 A 
ATOM      9  C   UNL A   1      34.070  24.902  25.502  1.00  0.00     0.035 A 
ATOM     10  N   UNL A   1      32.073  23.780  26.294  1.00  0.00    -0.250 NA
ATOM     11  C   UNL A   1      33.333  26.056  25.257  1.00  0.00     0.012 A 
ATOM     12  C   UNL A   1      31.381  24.906  25.998  1.00  0.00     0.120 A 
BRANCH   8  13
ATOM     13  C   UNL A   1      34.163  22.559  26.261  1.00  0.00     0.272 C 
ATOM     14  O   UNL A   1      34.526  22.326  27.413  1.00  0.00    -0.267 OA
BRANCH  13  15
ATOM     15  N   UNL A   1      34.406  21.703  25.181  1.00  0.00    -0.337 N 
BRANCH  15  16
ATOM     16  C   UNL A   1      35.668  20.964  25.158  1.00  0.00     0.123 C 
BRANCH  16  17
ATOM     17  C   UNL A   1      36.836  21.742  24.502  1.00  0.00     0.005 C 
ATOM     18  C   UNL A   1      36.338  22.766  23.476  1.00  0.00     0.009 C 
BRANCH  17  19
ATOM     19  C   UNL A   1      37.709  22.358  25.624  1.00  0.00     0.002 C 
ATOM     20  C   UNL A   1      37.624  23.867  25.801  1.00  0.00     0.004 C 
ENDBRANCH  17  19
ENDBRANCH  16  17
ENDBRANCH  15  16
BRANCH  15  21
ATOM     21  C   UNL A   1      33.444  21.439  24.108  1.00  0.00     0.116 C 
ATOM     22  C   UNL A   1      32.405  20.403  24.530  1.00  0.00     0.027 C 
ENDBRANCH  15  21
ENDBRANCH  13  15
ENDBRANCH   8  13
ENDBRANCH   6   7
ENDBRANCH   1   5
BRANCH   3  23
ATOM     23  C   UNL A   1      31.571  30.717  25.936  1.00  0.00     0.118 C 
BRANCH  23  24
ATOM     24  C   UNL A   1      31.367  32.130  26.481  1.00  0.00     0.042 C 
BRANCH  24  25
ATOM     25  C   UNL A   1      32.578  32.678  27.233  1.00  0.00     0.118 C 
BRANCH  25  26
ATOM     26  N   UNL A   1      32.411  34.078  27.593  1.00  0.00    -0.352 N 
ATOM     27  C   UNL A   1      33.037  34.825  28.558  1.00  0.00     0.251 C 
ATOM     28  H   UNL A   1      31.745  34.568  27.060  1.00  0.00     0.163 HD
ATOM     29  O   UNL A   1      32.590  35.938  28.841  1.00  0.00    -0.269 OA
BRANCH  27  30
ATOM     30  C   UNL A   1      34.228  34.314  29.270  1.00  0.00     0.039 A 
ATOM     31  C   UNL A   1      34.046  33.637  30.481  1.00  0.00     0.014 A 
ATOM     32  C   UNL A   1      35.519  34.541  28.787  1.00  0.00     0.014 A 
ATOM     33  C   UNL A   1      35.152  33.139  31.174  1.00  0.00     0.010 A 
ATOM     34  C   UNL A   1      36.617  33.986  29.444  1.00  0.00     0.010 A 
ATOM     35  C   UNL A   1      36.444  33.282  30.645  1.00  0.00    -0.014 A 
BRANCH  35  36
ATOM     36  C   UNL A   1      37.623  32.688  31.326  1.00  0.00     0.031 A 
ATOM     37  C   UNL A   1      38.309  31.481  30.749  1.00  0.00     0.074 A 
ATOM     38  C   UNL A   1      38.028  33.194  32.507  1.00  0.00     0.049 A 
ATOM     39  N   UNL A   1      39.295  30.775  31.244  1.00  0.00    -0.248 NA
ATOM     40  C   UNL A   1      37.803  30.983  29.459  1.00  0.00     0.031 C 
ATOM     41  C   UNL A   1      37.414  34.330  33.196  1.00  0.00     0.029 A 
ATOM     42  N   UNL A   1      39.042  32.805  33.348  1.00  0.00    -0.354 N 
ATOM     43  C   UNL A   1      39.513  29.743  30.340  1.00  0.00     0.074 A 
ATOM     44  C   UNL A   1      38.532  29.890  29.286  1.00  0.00     0.031 C 
ATOM     45  C   UNL A   1      38.068  34.552  34.348  1.00  0.00     0.029 A 
ATOM     46  C   UNL A   1      39.122  33.555  34.496  1.00  0.00     0.049 A 
ATOM     47  H   UNL A   1      39.653  32.060  33.147  1.00  0.00     0.167 HD
ATOM     48  C   UNL A   1      40.455  28.770  30.379  1.00  0.00     0.037 A 
ATOM     49  C   UNL A   1      39.942  33.443  35.557  1.00  0.00     0.037 A 
ATOM     50  C   UNL A   1      41.452  28.648  31.410  1.00  0.00     0.049 A 
ATOM     51  C   UNL A   1      40.988  32.363  35.569  1.00  0.00     0.074 A 
ATOM     52  C   UNL A   1      42.501  27.749  31.492  1.00  0.00     0.029 A 
ATOM     53  N   UNL A   1      41.520  29.446  32.542  1.00  0.00    -0.354 N 
ATOM     54  N   UNL A   1      41.233  31.443  34.667  1.00  0.00    -0.248 NA
ATOM     55  C   UNL A   1      41.873  32.308  36.739  1.00  0.00     0.031 C 
ATOM     56  C   UNL A   1      43.177  27.973  32.696  1.00  0.00     0.029 A 
ATOM     57  C   UNL A   1      42.577  29.043  33.341  1.00  0.00     0.049 A 
ATOM     58  H   UNL A   1      40.908  30.189  32.747  1.00  0.00     0.167 HD
ATOM     59  C   UNL A   1      42.313  30.716  35.151  1.00  0.00     0.074 A 
ATOM     60  C   UNL A   1      42.687  31.312  36.416  1.00  0.00     0.031 C 
ATOM     61  C   UNL A   1      42.938  29.649  34.597  1.00  0.00     0.037 A 
BRANCH  48  62
ATOM     62  C   UNL A   1      40.458  27.758  29.270  1.00  0.00     0.057 A 
ATOM     63  C   UNL A   1      39.587  26.660  29.268  1.00  0.00     0.134 A 
ATOM     64  C   UNL A   1      41.305  27.913  28.165  1.00  0.00     0.134 A 
ATOM     65  F   UNL A   1      38.756  26.449  30.300  1.00  0.00    -0.206 F 
ATOM     66  C   UNL A   1      39.573  25.741  28.217  1.00  0.00     0.040 A 
ATOM     67  C   UNL A   1      41.283  27.015  27.097  1.00  0.00     0.040 A 
ATOM     68  F   UNL A   1      42.158  28.946  28.101  1.00  0.00    -0.206 F 
ATOM     69  C   UNL A   1      40.419  25.922  27.123  1.00  0.00     0.006 A 
ENDBRANCH  48  62
BRANCH  49  70
ATOM     70  C   UNL A   1      39.815  34.385  36.697  1.00  0.00     0.057 A 
ATOM     71  C   UNL A   1      40.450  35.632  36.679  1.00  0.00     0.134 A 
ATOM     72  C   UNL A   1      39.064  34.060  37.834  1.00  0.00     0.134 A 
ATOM     73  F   UNL A   1      41.198  35.993  35.626  1.00  0.00    -0.206 F 
ATOM     74  C   UNL A   1      40.360  36.515  37.757  1.00  0.00     0.040 A 
ATOM     75  C   UNL A   1      38.946  34.942  38.908  1.00  0.00     0.040 A 
ATOM     76  F   UNL A   1      38.424  32.883  37.908  1.00  0.00    -0.206 F 
ATOM     77  C   UNL A   1      39.601  36.171  38.875  1.00  0.00     0.006 A 
ENDBRANCH  49  70
BRANCH  61  78
ATOM     78  C   UNL A   1      44.106  29.075  35.344  1.00  0.00     0.057 A 
ATOM     79  C   UNL A   1      45.413  29.530  35.131  1.00  0.00     0.134 A 
ATOM     80  C   UNL A   1      43.914  28.084  36.314  1.00  0.00     0.134 A 
ATOM     81  F   UNL A   1      45.664  30.469  34.206  1.00  0.00    -0.206 F 
ATOM     82  C   UNL A   1      46.492  29.004  35.844  1.00  0.00     0.040 A 
ATOM     83  C   UNL A   1      44.982  27.569  37.051  1.00  0.00     0.040 A 
ATOM     84  F   UNL A   1      42.686  27.609  36.571  1.00  0.00    -0.206 F 
ATOM     85  C   UNL A   1      46.276  28.025  36.811  1.00  0.00     0.006 A 
ENDBRANCH  61  78
ENDBRANCH  35  36
ENDBRANCH  27  30
ENDBRANCH  25  26
ENDBRANCH  24  25
ENDBRANCH  23  24
ENDBRANCH   3  23
TORSDOF 17
ENDMDL
MODEL 2
REMARK VINA RESULT:     -10.9      1.723      2.818
REMARK SMILES CC[C@H](C)CN(CC)C(=O)c1ccc(/C=C/C(=O)NCCCNC(=O)c2ccc(-c3c4nc(c(-c5c(F)cccc5F)c5ccc([nH]5)c(-c5c(F)cccc5F)c5nc(c(-c6c(F)cccc6F)c6ccc3[nH]6)C=C5)C=C4)cc2)cn1
REMARK SMILES IDX 17 1 18 2 19 3 16 5 15 6 14 7 11 8 12 9 81 10 13 11 80 12
REMARK SMILES IDX 9 13 10 14 6 15 5 16 3 17 4 18 2 19 1 20 7 21 8 22 20 23
REMARK SMILES IDX 21 24 22 25 23 26 24 27 25 29 26 30 27 31 79 32 28 33 78 34
REMARK SMILES IDX 29 35 30 36 31 37 72 38 32 39 77 40 71 41 73 42 33 43 76 44
REMARK SMILES IDX 70 45 69 46 34 48 60 49 43 50 59 51 44 52 47 53 58 54 74 55
REMARK SMILES IDX 45 56 46 57 57 59 75 60 48 61 35 62 36 63 41 64 37 65 38 66
REMARK SMILES IDX 40 67 42 68 39 69 61 70 62 71 67 72 63 73 64 74 66 75 68 76
REMARK SMILES IDX 65 77 49 78 50 79 55 80 51 81 52 82 54 83 56 84 53 85
REMARK H PARENT 19 4 23 28 73 47 47 58
REMARK Flexibility Score: inf
ROOT
ATOM      1  C   UNL A   1      30.034  29.661  23.332  1.00  0.00     0.244 C 
ATOM      2  O   UNL A   1      29.180  29.827  22.464  1.00  0.00    -0.270 OA
ATOM      3  N   UNL A   1      30.288  30.647  24.235  1.00  0.00    -0.352 N 
ATOM      4  H   UNL A   1      29.821  31.496  24.060  1.00  0.00     0.163 HD
ENDROOT
BRANCH   1   5
ATOM      5  C   UNL A   1      30.714  28.352  23.447  1.00  0.00     0.072 C 
ATOM      6  C   UNL A   1      31.911  28.111  22.892  1.00  0.00     0.015 C 
BRANCH   6   7
ATOM      7  C   UNL A   1      32.676  26.862  22.999  1.00  0.00    -0.007 A 
ATOM      8  C   UNL A   1      34.137  24.556  23.266  1.00  0.00     0.128 A 
ATOM      9  C   UNL A   1      34.029  25.391  24.366  1.00  0.00     0.035 A 
ATOM     10  N   UNL A   1      33.565  24.801  22.061  1.00  0.00    -0.250 NA
ATOM     11  C   UNL A   1      33.270  26.549  24.229  1.00  0.00     0.012 A 
ATOM     12  C   UNL A   1      32.873  25.961  21.953  1.00  0.00     0.120 A 
BRANCH   8  13
ATOM     13  C   UNL A   1      34.966  23.334  23.383  1.00  0.00     0.272 C 
ATOM     14  O   UNL A   1      35.800  23.127  22.503  1.00  0.00    -0.267 OA
BRANCH  13  15
ATOM     15  N   UNL A   1      34.780  22.500  24.490  1.00  0.00    -0.337 N 
BRANCH  15  16
ATOM     16  C   UNL A   1      33.453  21.920  24.701  1.00  0.00     0.123 C 
BRANCH  16  17
ATOM     17  C   UNL A   1      33.369  20.411  24.358  1.00  0.00     0.005 C 
ATOM     18  C   UNL A   1      32.980  19.567  25.576  1.00  0.00     0.009 C 
BRANCH  17  19
ATOM     19  C   UNL A   1      32.418  20.234  23.148  1.00  0.00     0.002 C 
ATOM     20  C   UNL A   1      31.899  21.509  22.499  1.00  0.00     0.004 C 
ENDBRANCH  17  19
ENDBRANCH  16  17
ENDBRANCH  15  16
BRANCH  15  21
ATOM     21  C   UNL A   1      35.848  22.106  25.412  1.00  0.00     0.116 C 
ATOM     22  C   UNL A   1      36.810  23.261  25.679  1.00  0.00     0.027 C 
ENDBRANCH  15  21
ENDBRANCH  13  15
ENDBRANCH   8  13
ENDBRANCH   6   7
ENDBRANCH   1   5
BRANCH   3  23
ATOM     23  C   UNL A   1      31.135  30.650  25.417  1.00  0.00     0.118 C 
BRANCH  23  24
ATOM     24  C   UNL A   1      31.022  31.964  26.190  1.00  0.00     0.042 C 
BRANCH  24  25
ATOM     25  C   UNL A   1      32.307  32.363  26.912  1.00  0.00     0.118 C 
BRANCH  25  26
ATOM     26  N   UNL A   1      32.252  33.727  27.416  1.00  0.00    -0.352 N 
ATOM     27  C   UNL A   1      33.051  34.368  28.327  1.00  0.00     0.251 C 
ATOM     28  H   UNL A   1      31.526  34.278  27.043  1.00  0.00     0.163 HD
ATOM     29  O   UNL A   1      32.695  35.461  28.775  1.00  0.00    -0.269 OA
BRANCH  27  30
ATOM     30  C   UNL A   1      34.320  33.769  28.789  1.00  0.00     0.039 A 
ATOM     31  C   UNL A   1      35.496  34.072  28.095  1.00  0.00     0.014 A 
ATOM     32  C   UNL A   1      34.355  32.874  29.861  1.00  0.00     0.014 A 
ATOM     33  C   UNL A   1      36.713  33.524  28.512  1.00  0.00     0.010 A 
ATOM     34  C   UNL A   1      35.578  32.380  30.317  1.00  0.00     0.010 A 
ATOM     35  C   UNL A   1      36.767  32.699  29.645  1.00  0.00    -0.014 A 
BRANCH  35  36
ATOM     36  C   UNL A   1      38.061  32.174  30.152  1.00  0.00     0.031 A 
ATOM     37  C   UNL A   1      38.633  30.895  29.604  1.00  0.00     0.074 A 
ATOM     38  C   UNL A   1      38.684  32.813  31.161  1.00  0.00     0.049 A 
ATOM     39  N   UNL A   1      39.702  30.240  29.980  1.00  0.00    -0.248 NA
ATOM     40  C   UNL A   1      37.891  30.253  28.507  1.00  0.00     0.031 C 
ATOM     41  C   UNL A   1      38.206  34.034  31.813  1.00  0.00     0.029 A 
ATOM     42  N   UNL A   1      39.845  32.513  31.831  1.00  0.00    -0.354 N 
ATOM     43  C   UNL A   1      39.750  29.103  29.183  1.00  0.00     0.074 A 
ATOM     44  C   UNL A   1      38.581  29.136  28.330  1.00  0.00     0.031 C 
ATOM     45  C   UNL A   1      39.069  34.383  32.780  1.00  0.00     0.029 A 
ATOM     46  C   UNL A   1      40.141  33.395  32.841  1.00  0.00     0.049 A 
ATOM     47  H   UNL A   1      40.413  31.740  31.606  1.00  0.00     0.167 HD
ATOM     48  C   UNL A   1      40.690  28.128  29.157  1.00  0.00     0.037 A 
ATOM     49  C   UNL A   1      41.153  33.400  33.729  1.00  0.00     0.037 A 
ATOM     50  C   UNL A   1      41.869  28.116  29.982  1.00  0.00     0.049 A 
ATOM     51  C   UNL A   1      42.190  32.314  33.668  1.00  0.00     0.074 A 
ATOM     52  C   UNL A   1      42.921  27.218  29.968  1.00  0.00     0.029 A 
ATOM     53  N   UNL A   1      42.149  29.044  30.974  1.00  0.00    -0.354 N 
ATOM     54  N   UNL A   1      42.263  31.288  32.855  1.00  0.00    -0.248 NA
ATOM     55  C   UNL A   1      43.286  32.387  34.643  1.00  0.00     0.031 C 
ATOM     56  C   UNL A   1      43.817  27.576  30.981  1.00  0.00     0.029 A 
ATOM     57  C   UNL A   1      43.344  28.725  31.596  1.00  0.00     0.049 A 
ATOM     58  H   UNL A   1      41.582  29.816  31.202  1.00  0.00     0.167 HD
ATOM     59  C   UNL A   1      43.423  30.608  33.205  1.00  0.00     0.074 A 
ATOM     60  C   UNL A   1      44.030  31.347  34.292  1.00  0.00     0.031 C 
ATOM     61  C   UNL A   1      43.937  29.473  32.674  1.00  0.00     0.037 A 
BRANCH  48  62
ATOM     62  C   UNL A   1      40.485  26.988  28.201  1.00  0.00     0.057 A 
ATOM     63  C   UNL A   1      41.114  26.950  26.949  1.00  0.00     0.134 A 
ATOM     64  C   UNL A   1      39.693  25.890  28.559  1.00  0.00     0.134 A 
ATOM     65  F   UNL A   1      41.879  27.974  26.541  1.00  0.00    -0.206 F 
ATOM     66  C   UNL A   1      40.944  25.871  26.079  1.00  0.00     0.040 A 
ATOM     67  C   UNL A   1      39.536  24.794  27.709  1.00  0.00     0.040 A 
ATOM     68  F   UNL A   1      39.069  25.859  29.746  1.00  0.00    -0.206 F 
ATOM     69  C   UNL A   1      40.159  24.785  26.463  1.00  0.00     0.006 A 
ENDBRANCH  48  62
BRANCH  49  70
ATOM     70  C   UNL A   1      41.241  34.475  34.749  1.00  0.00     0.057 A 
ATOM     71  C   UNL A   1      40.603  34.351  35.987  1.00  0.00     0.134 A 
ATOM     72  C   UNL A   1      41.957  35.654  34.507  1.00  0.00     0.134 A 
ATOM     73  F   UNL A   1      39.887  33.253  36.271  1.00  0.00    -0.206 F 
ATOM     74  C   UNL A   1      40.656  35.367  36.943  1.00  0.00     0.040 A 
ATOM     75  C   UNL A   1      42.038  36.668  35.461  1.00  0.00     0.040 A 
ATOM     76  F   UNL A   1      42.598  35.830  33.341  1.00  0.00    -0.206 F 
ATOM     77  C   UNL A   1      41.380  36.529  36.681  1.00  0.00     0.006 A 
ENDBRANCH  49  70
BRANCH  61  78
ATOM     78  C   UNL A   1      45.233  28.976  33.245  1.00  0.00     0.057 A 
ATOM     79  C   UNL A   1      46.470  29.415  32.758  1.00  0.00     0.134 A 
ATOM     80  C   UNL A   1      45.241  28.077  34.319  1.00  0.00     0.134 A 
ATOM     81  F   UNL A   1      46.529  30.266  31.722  1.00  0.00    -0.206 F 
ATOM     82  C   UNL A   1      47.671  28.962  33.306  1.00  0.00     0.040 A 
ATOM     83  C   UNL A   1      46.435  27.637  34.892  1.00  0.00     0.040 A 
ATOM     84  F   UNL A   1      44.090  27.623  34.837  1.00  0.00    -0.206 F 
ATOM     85  C   UNL A   1      47.654  28.075  34.381  1.00  0.00     0.006 A 
ENDBRANCH  61  78
ENDBRANCH  35  36
ENDBRANCH  27  30
ENDBRANCH  25  26
ENDBRANCH  24  25
ENDBRANCH  23  24
ENDBRANCH   3  23
TORSDOF 17
ENDMDL
MODEL 3
REMARK VINA RESULT:     -10.7      1.573      6.441
REMARK SMILES CC[C@H](C)CN(CC)C(=O)c1ccc(/C=C/C(=O)NCCCNC(=O)c2ccc(-c3c4nc(c(-c5c(F)cccc5F)c5ccc([nH]5)c(-c5c(F)cccc5F)c5nc(c(-c6c(F)cccc6F)c6ccc3[nH]6)C=C5)C=C4)cc2)cn1
REMARK SMILES IDX 17 1 18 2 19 3 16 5 15 6 14 7 11 8 12 9 81 10 13 11 80 12
REMARK SMILES IDX 9 13 10 14 6 15 5 16 3 17 4 18 2 19 1 20 7 21 8 22 20 23
REMARK SMILES IDX 21 24 22 25 23 26 24 27 25 29 26 30 27 31 79 32 28 33 78 34
REMARK SMILES IDX 29 35 30 36 31 37 72 38 32 39 77 40 71 41 73 42 33 43 76 44
REMARK SMILES IDX 70 45 69 46 34 48 60 49 43 50 59 51 44 52 47 53 58 54 74 55
REMARK SMILES IDX 45 56 46 57 57 59 75 60 48 61 35 62 36 63 41 64 37 65 38 66
REMARK SMILES IDX 40 67 42 68 39 69 61 70 62 71 67 72 63 73 64 74 66 75 68 76
REMARK SMILES IDX 65 77 49 78 50 79 55 80 51 81 52 82 54 83 56 84 53 85
REMARK H PARENT 19 4 23 28 73 47 47 58
REMARK Flexibility Score: inf
ROOT
ATOM      1  C   UNL A   1      30.181  29.736  23.669  1.00  0.00     0.244 C 
ATOM      2  O   UNL A   1      29.342  29.935  22.794  1.00  0.00    -0.270 OA
ATOM      3  N   UNL A   1      30.492  30.724  24.551  1.00  0.00    -0.352 N 
ATOM      4  H   UNL A   1      30.078  31.596  24.356  1.00  0.00     0.163 HD
ENDROOT
BRANCH   1   5
ATOM      5  C   UNL A   1      30.781  28.391  23.814  1.00  0.00     0.072 C 
ATOM      6  C   UNL A   1      30.346  27.330  23.120  1.00  0.00     0.015 C 
BRANCH   6   7
ATOM      7  C   UNL A   1      30.914  25.977  23.167  1.00  0.00    -0.007 A 
ATOM      8  C   UNL A   1      32.002  23.459  23.182  1.00  0.00     0.128 A 
ATOM      9  C   UNL A   1      32.424  24.347  22.206  1.00  0.00     0.035 A 
ATOM     10  N   UNL A   1      31.085  23.752  24.137  1.00  0.00    -0.250 NA
ATOM     11  C   UNL A   1      31.883  25.628  22.217  1.00  0.00     0.012 A 
ATOM     12  C   UNL A   1      30.546  24.993  24.086  1.00  0.00     0.120 A 
BRANCH   8  13
ATOM     13  C   UNL A   1      32.544  22.081  23.169  1.00  0.00     0.272 C 
ATOM     14  O   UNL A   1      32.034  21.277  22.390  1.00  0.00    -0.267 OA
BRANCH  13  15
ATOM     15  N   UNL A   1      33.616  21.772  24.013  1.00  0.00    -0.337 N 
BRANCH  15  16
ATOM     16  C   UNL A   1      34.738  22.710  24.073  1.00  0.00     0.123 C 
BRANCH  16  17
ATOM     17  C   UNL A   1      34.787  23.543  25.380  1.00  0.00     0.005 C 
ATOM     18  C   UNL A   1      36.083  23.305  26.162  1.00  0.00     0.009 C 
BRANCH  17  19
ATOM     19  C   UNL A   1      34.536  25.030  25.025  1.00  0.00     0.002 C 
ATOM     20  C   UNL A   1      33.537  25.778  25.895  1.00  0.00     0.004 C 
ENDBRANCH  17  19
ENDBRANCH  16  17
ENDBRANCH  15  16
BRANCH  15  21
ATOM     21  C   UNL A   1      33.655  20.608  24.900  1.00  0.00     0.116 C 
ATOM     22  C   UNL A   1      35.025  19.934  24.879  1.00  0.00     0.027 C 
ENDBRANCH  15  21
ENDBRANCH  13  15
ENDBRANCH   8  13
ENDBRANCH   6   7
ENDBRANCH   1   5
BRANCH   3  23
ATOM     23  C   UNL A   1      31.334  30.701  25.737  1.00  0.00     0.118 C 
BRANCH  23  24
ATOM     24  C   UNL A   1      31.209  31.993  26.544  1.00  0.00     0.042 C 
BRANCH  24  25
ATOM     25  C   UNL A   1      32.547  32.539  27.039  1.00  0.00     0.118 C 
BRANCH  25  26
ATOM     26  N   UNL A   1      32.436  33.907  27.523  1.00  0.00    -0.352 N 
ATOM     27  C   UNL A   1      33.146  34.564  28.494  1.00  0.00     0.251 C 
ATOM     28  H   UNL A   1      31.741  34.447  27.083  1.00  0.00     0.163 HD
ATOM     29  O   UNL A   1      32.744  35.656  28.898  1.00  0.00    -0.269 OA
BRANCH  27  30
ATOM     30  C   UNL A   1      34.376  33.980  29.070  1.00  0.00     0.039 A 
ATOM     31  C   UNL A   1      34.262  33.137  30.180  1.00  0.00     0.014 A 
ATOM     32  C   UNL A   1      35.639  34.296  28.563  1.00  0.00     0.014 A 
ATOM     33  C   UNL A   1      35.407  32.567  30.744  1.00  0.00     0.010 A 
ATOM     34  C   UNL A   1      36.775  33.676  29.084  1.00  0.00     0.010 A 
ATOM     35  C   UNL A   1      36.669  32.807  30.180  1.00  0.00    -0.014 A 
BRANCH  35  36
ATOM     36  C   UNL A   1      37.887  32.145  30.714  1.00  0.00     0.031 A 
ATOM     37  C   UNL A   1      38.605  32.715  31.907  1.00  0.00     0.074 A 
ATOM     38  C   UNL A   1      38.390  31.070  30.075  1.00  0.00     0.049 A 
ATOM     39  N   UNL A   1      39.726  32.326  32.460  1.00  0.00    -0.248 NA
ATOM     40  C   UNL A   1      37.997  33.894  32.546  1.00  0.00     0.031 C 
ATOM     41  C   UNL A   1      37.815  30.453  28.878  1.00  0.00     0.029 A 
ATOM     42  N   UNL A   1      39.509  30.318  30.331  1.00  0.00    -0.354 N 
ATOM     43  C   UNL A   1      39.968  33.222  33.495  1.00  0.00     0.074 A 
ATOM     44  C   UNL A   1      38.898  34.196  33.468  1.00  0.00     0.031 C 
ATOM     45  C   UNL A   1      38.580  29.413  28.510  1.00  0.00     0.029 A 
ATOM     46  C   UNL A   1      39.715  29.310  29.420  1.00  0.00     0.049 A 
ATOM     47  H   UNL A   1      40.107  30.484  31.096  1.00  0.00     0.167 HD
ATOM     48  C   UNL A   1      40.982  33.221  34.393  1.00  0.00     0.037 A 
ATOM     49  C   UNL A   1      40.714  28.414  29.320  1.00  0.00     0.037 A 
ATOM     50  C   UNL A   1      42.025  32.230  34.438  1.00  0.00     0.049 A 
ATOM     51  C   UNL A   1      41.820  28.427  30.338  1.00  0.00     0.074 A 
ATOM     52  C   UNL A   1      43.046  32.095  35.362  1.00  0.00     0.029 A 
ATOM     53  N   UNL A   1      42.182  31.206  33.516  1.00  0.00    -0.354 N 
ATOM     54  N   UNL A   1      41.991  29.232  31.359  1.00  0.00    -0.248 NA
ATOM     55  C   UNL A   1      42.867  27.407  30.195  1.00  0.00     0.031 C 
ATOM     56  C   UNL A   1      43.848  31.017  34.974  1.00  0.00     0.029 A 
ATOM     57  C   UNL A   1      43.299  30.452  33.834  1.00  0.00     0.049 A 
ATOM     58  H   UNL A   1      41.588  31.040  32.749  1.00  0.00     0.167 HD
ATOM     59  C   UNL A   1      43.151  28.801  31.992  1.00  0.00     0.074 A 
ATOM     60  C   UNL A   1      43.631  27.654  31.250  1.00  0.00     0.031 C 
ATOM     61  C   UNL A   1      43.763  29.311  33.087  1.00  0.00     0.037 A 
BRANCH  48  62
ATOM     62  C   UNL A   1      41.015  34.327  35.407  1.00  0.00     0.057 A 
ATOM     63  C   UNL A   1      40.304  34.249  36.612  1.00  0.00     0.134 A 
ATOM     64  C   UNL A   1      41.811  35.462  35.200  1.00  0.00     0.134 A 
ATOM     65  F   UNL A   1      39.517  33.194  36.869  1.00  0.00    -0.206 F 
ATOM     66  C   UNL A   1      40.366  35.268  37.564  1.00  0.00     0.040 A 
ATOM     67  C   UNL A   1      41.901  36.475  36.155  1.00  0.00     0.040 A 
ATOM     68  F   UNL A   1      42.524  35.596  34.071  1.00  0.00    -0.206 F 
ATOM     69  C   UNL A   1      41.174  36.382  37.340  1.00  0.00     0.006 A 
ENDBRANCH  48  62
BRANCH  49  70
ATOM     70  C   UNL A   1      40.712  27.421  28.217  1.00  0.00     0.057 A 
ATOM     71  C   UNL A   1      41.369  27.681  27.009  1.00  0.00     0.134 A 
ATOM     72  C   UNL A   1      40.049  26.194  28.340  1.00  0.00     0.134 A 
ATOM     73  F   UNL A   1      42.006  28.846  26.824  1.00  0.00    -0.206 F 
ATOM     74  C   UNL A   1      41.350  26.766  25.955  1.00  0.00     0.040 A 
ATOM     75  C   UNL A   1      40.042  25.260  27.304  1.00  0.00     0.040 A 
ATOM     76  F   UNL A   1      39.409  25.881  29.477  1.00  0.00    -0.206 F 
ATOM     77  C   UNL A   1      40.688  25.548  26.104  1.00  0.00     0.006 A 
ENDBRANCH  49  70
BRANCH  61  78
ATOM     78  C   UNL A   1      45.004  28.616  33.564  1.00  0.00     0.057 A 
ATOM     79  C   UNL A   1      44.950  27.535  34.452  1.00  0.00     0.134 A 
ATOM     80  C   UNL A   1      46.265  29.010  33.098  1.00  0.00     0.134 A 
ATOM     81  F   UNL A   1      43.773  27.119  34.945  1.00  0.00    -0.206 F 
ATOM     82  C   UNL A   1      46.108  26.882  34.876  1.00  0.00     0.040 A 
ATOM     83  C   UNL A   1      47.428  28.348  33.495  1.00  0.00     0.040 A 
ATOM     84  F   UNL A   1      46.386  30.034  32.240  1.00  0.00    -0.206 F 
ATOM     85  C   UNL A   1      47.351  27.285  34.392  1.00  0.00     0.006 A 
ENDBRANCH  61  78
ENDBRANCH  35  36
ENDBRANCH  27  30
ENDBRANCH  25  26
ENDBRANCH  24  25
ENDBRANCH  23  24
ENDBRANCH   3  23
TORSDOF 17
ENDMDL
