MODEL 1
REMARK VINA RESULT:     -12.4      0.000      0.000
REMARK SMILES CC(=O)Nc1cccc(-c2ccc(F)c(C(=O)NCCCNC(=O)c3ccc(-c4c5nc(c(-c6c(F)cccc6F)c6ccc([nH]6)c(-c6c(F)cccc6F)c6nc(c(-c7c(F)cccc7F)c7ccc4[nH]7)C=C6)C=C5)cc3)c2)c1
REMARK SMILES IDX 20 1 19 2 18 3 16 4 17 5 15 7 10 8 11 9 79 10 12 11 13 12
REMARK SMILES IDX 14 13 9 14 5 15 6 16 80 17 7 18 8 19 4 20 1 21 2 22 3 23
REMARK SMILES IDX 21 25 22 26 23 27 24 29 25 30 26 31 78 32 27 33 77 34 28 35
REMARK SMILES IDX 29 36 30 37 71 38 31 39 76 40 70 41 72 42 32 43 75 44 69 45
REMARK SMILES IDX 68 46 33 48 59 49 42 50 58 51 43 52 46 53 57 54 73 55 44 56
REMARK SMILES IDX 45 57 56 59 74 60 47 61 34 62 35 63 40 64 36 65 37 66 39 67
REMARK SMILES IDX 41 68 38 69 60 70 61 71 66 72 62 73 63 74 65 75 67 76 64 77
REMARK SMILES IDX 48 78 49 79 54 80 50 81 51 82 53 83 55 84 52 85
REMARK H PARENT 18 6 4 24 22 28 72 47 46 58
REMARK Flexibility Score: inf
ROOT
ATOM      1  C   UNL A   1      37.995  20.014  24.876  1.00  0.00     0.042 C 
ENDROOT
BRANCH   1   2
ATOM      2  C   UNL A   1      37.341  21.292  24.373  1.00  0.00     0.118 C 
BRANCH   2   3
ATOM      3  N   UNL A   1      37.743  22.480  25.119  1.00  0.00    -0.352 N 
ATOM      4  C   UNL A   1      37.139  23.517  25.795  1.00  0.00     0.254 C 
ATOM      5  O   UNL A   1      37.918  24.300  26.341  1.00  0.00    -0.269 OA
ATOM      6  H   UNL A   1      38.723  22.564  25.147  1.00  0.00     0.163 HD
BRANCH   4   7
ATOM      7  C   UNL A   1      35.671  23.768  25.884  1.00  0.00     0.076 A 
ATOM      8  C   UNL A   1      33.718  25.269  25.715  1.00  0.00    -0.017 A 
ATOM      9  C   UNL A   1      32.901  24.275  26.245  1.00  0.00     0.012 A 
ATOM     10  C   UNL A   1      35.074  24.959  25.492  1.00  0.00     0.025 A 
ATOM     11  C   UNL A   1      33.447  23.026  26.559  1.00  0.00     0.041 A 
ATOM     12  C   UNL A   1      34.818  22.789  26.402  1.00  0.00     0.135 A 
ATOM     13  F   UNL A   1      35.275  21.585  26.780  1.00  0.00    -0.206 F 
BRANCH   8  14
ATOM     14  C   UNL A   1      33.287  26.657  25.466  1.00  0.00    -0.016 A 
ATOM     15  C   UNL A   1      32.269  28.276  23.930  1.00  0.00     0.041 A 
ATOM     16  C   UNL A   1      32.894  29.312  24.626  1.00  0.00     0.026 A 
ATOM     17  C   UNL A   1      32.478  26.962  24.353  1.00  0.00     0.034 A 
ATOM     18  C   UNL A   1      33.649  29.038  25.769  1.00  0.00     0.003 A 
ATOM     19  C   UNL A   1      33.840  27.721  26.189  1.00  0.00     0.009 A 
BRANCH  15  20
ATOM     20  N   UNL A   1      31.544  28.606  22.774  1.00  0.00    -0.326 N 
ATOM     21  C   UNL A   1      29.759  30.045  23.752  1.00  0.00     0.114 C 
ATOM     22  C   UNL A   1      30.352  29.256  22.615  1.00  0.00     0.221 C 
ATOM     23  O   UNL A   1      29.805  29.236  21.511  1.00  0.00    -0.275 OA
ATOM     24  H   UNL A   1      31.967  28.320  21.932  1.00  0.00     0.169 HD
ENDBRANCH  15  20
ENDBRANCH   8  14
ENDBRANCH   4   7
ENDBRANCH   2   3
ENDBRANCH   1   2
BRANCH   1  25
ATOM     25  C   UNL A   1      39.047  20.279  25.947  1.00  0.00     0.118 C 
BRANCH  25  26
ATOM     26  N   UNL A   1      40.106  19.270  25.944  1.00  0.00    -0.352 N 
ATOM     27  C   UNL A   1      41.470  19.389  26.046  1.00  0.00     0.251 C 
ATOM     28  H   UNL A   1      39.785  18.344  25.854  1.00  0.00     0.163 HD
ATOM     29  O   UNL A   1      42.188  18.438  25.759  1.00  0.00    -0.269 OA
BRANCH  27  30
ATOM     30  C   UNL A   1      42.076  20.660  26.490  1.00  0.00     0.039 A 
ATOM     31  C   UNL A   1      42.564  21.558  25.537  1.00  0.00     0.014 A 
ATOM     32  C   UNL A   1      42.182  20.956  27.849  1.00  0.00     0.014 A 
ATOM     33  C   UNL A   1      43.071  22.793  25.946  1.00  0.00     0.010 A 
ATOM     34  C   UNL A   1      42.592  22.220  28.250  1.00  0.00     0.010 A 
ATOM     35  C   UNL A   1      43.037  23.153  27.303  1.00  0.00    -0.014 A 
BRANCH  35  36
ATOM     36  C   UNL A   1      43.443  24.503  27.766  1.00  0.00     0.031 A 
ATOM     37  C   UNL A   1      42.399  25.536  28.078  1.00  0.00     0.074 A 
ATOM     38  C   UNL A   1      44.751  24.824  27.803  1.00  0.00     0.049 A 
ATOM     39  N   UNL A   1      42.550  26.804  28.367  1.00  0.00    -0.248 NA
ATOM     40  C   UNL A   1      40.996  25.095  28.030  1.00  0.00     0.031 C 
ATOM     41  C   UNL A   1      45.856  23.919  27.481  1.00  0.00     0.029 A 
ATOM     42  N   UNL A   1      45.372  26.009  28.111  1.00  0.00    -0.354 N 
ATOM     43  C   UNL A   1      41.265  27.311  28.519  1.00  0.00     0.074 A 
ATOM     44  C   UNL A   1      40.347  26.231  28.231  1.00  0.00     0.031 C 
ATOM     45  C   UNL A   1      47.019  24.573  27.631  1.00  0.00     0.029 A 
ATOM     46  C   UNL A   1      46.742  25.955  28.007  1.00  0.00     0.049 A 
ATOM     47  H   UNL A   1      44.883  26.819  28.381  1.00  0.00     0.167 HD
ATOM     48  C   UNL A   1      40.887  28.557  28.889  1.00  0.00     0.037 A 
ATOM     49  C   UNL A   1      47.667  26.917  28.178  1.00  0.00     0.037 A 
ATOM     50  C   UNL A   1      41.809  29.622  29.187  1.00  0.00     0.049 A 
ATOM     51  C   UNL A   1      47.220  28.305  28.544  1.00  0.00     0.074 A 
ATOM     52  C   UNL A   1      41.530  30.906  29.623  1.00  0.00     0.029 A 
ATOM     53  N   UNL A   1      43.187  29.528  29.072  1.00  0.00    -0.354 N 
ATOM     54  N   UNL A   1      46.006  28.755  28.751  1.00  0.00    -0.248 NA
ATOM     55  C   UNL A   1      48.270  29.320  28.700  1.00  0.00     0.031 C 
ATOM     56  C   UNL A   1      42.737  31.604  29.718  1.00  0.00     0.029 A 
ATOM     57  C   UNL A   1      43.772  30.741  29.396  1.00  0.00     0.049 A 
ATOM     58  H   UNL A   1      43.678  28.719  28.798  1.00  0.00     0.167 HD
ATOM     59  C   UNL A   1      46.147  30.095  29.086  1.00  0.00     0.074 A 
ATOM     60  C   UNL A   1      47.567  30.381  29.069  1.00  0.00     0.031 C 
ATOM     61  C   UNL A   1      45.188  31.006  29.381  1.00  0.00     0.037 A 
BRANCH  48  62
ATOM     62  C   UNL A   1      39.413  28.833  28.990  1.00  0.00     0.057 A 
ATOM     63  C   UNL A   1      38.709  28.657  30.188  1.00  0.00     0.134 A 
ATOM     64  C   UNL A   1      38.695  29.302  27.884  1.00  0.00     0.134 A 
ATOM     65  F   UNL A   1      39.334  28.199  31.284  1.00  0.00    -0.206 F 
ATOM     66  C   UNL A   1      37.338  28.905  30.274  1.00  0.00     0.040 A 
ATOM     67  C   UNL A   1      37.330  29.585  27.965  1.00  0.00     0.040 A 
ATOM     68  F   UNL A   1      39.307  29.500  26.706  1.00  0.00    -0.206 F 
ATOM     69  C   UNL A   1      36.646  29.378  29.162  1.00  0.00     0.006 A 
ENDBRANCH  48  62
BRANCH  49  70
ATOM     70  C   UNL A   1      49.109  26.602  28.017  1.00  0.00     0.057 A 
ATOM     71  C   UNL A   1      49.908  26.301  29.126  1.00  0.00     0.134 A 
ATOM     72  C   UNL A   1      49.726  26.596  26.759  1.00  0.00     0.134 A 
ATOM     73  F   UNL A   1      49.379  26.307  30.358  1.00  0.00    -0.206 F 
ATOM     74  C   UNL A   1      51.270  26.028  28.996  1.00  0.00     0.040 A 
ATOM     75  C   UNL A   1      51.081  26.297  26.611  1.00  0.00     0.040 A 
ATOM     76  F   UNL A   1      49.016  26.865  25.653  1.00  0.00    -0.206 F 
ATOM     77  C   UNL A   1      51.860  26.020  27.733  1.00  0.00     0.006 A 
ENDBRANCH  49  70
BRANCH  61  78
ATOM     78  C   UNL A   1      45.641  32.392  29.739  1.00  0.00     0.057 A 
ATOM     79  C   UNL A   1      45.957  32.751  31.055  1.00  0.00     0.134 A 
ATOM     80  C   UNL A   1      45.818  33.363  28.743  1.00  0.00     0.134 A 
ATOM     81  F   UNL A   1      45.795  31.872  32.057  1.00  0.00    -0.206 F 
ATOM     82  C   UNL A   1      46.419  34.029  31.371  1.00  0.00     0.040 A 
ATOM     83  C   UNL A   1      46.306  34.634  29.043  1.00  0.00     0.040 A 
ATOM     84  F   UNL A   1      45.541  33.081  27.461  1.00  0.00    -0.206 F 
ATOM     85  C   UNL A   1      46.604  34.972  30.361  1.00  0.00     0.006 A 
ENDBRANCH  61  78
ENDBRANCH  35  36
ENDBRANCH  27  30
ENDBRANCH  25  26
ENDBRANCH   1  25
TORSDOF 12
ENDMDL
MODEL 2
REMARK VINA RESULT:     -12.2      2.701      7.795
REMARK SMILES CC(=O)Nc1cccc(-c2ccc(F)c(C(=O)NCCCNC(=O)c3ccc(-c4c5nc(c(-c6c(F)cccc6F)c6ccc([nH]6)c(-c6c(F)cccc6F)c6nc(c(-c7c(F)cccc7F)c7ccc4[nH]7)C=C6)C=C5)cc3)c2)c1
REMARK SMILES IDX 20 1 19 2 18 3 16 4 17 5 15 7 10 8 11 9 79 10 12 11 13 12
REMARK SMILES IDX 14 13 9 14 5 15 6 16 80 17 7 18 8 19 4 20 1 21 2 22 3 23
REMARK SMILES IDX 21 25 22 26 23 27 24 29 25 30 26 31 78 32 27 33 77 34 28 35
REMARK SMILES IDX 29 36 30 37 71 38 31 39 76 40 70 41 72 42 32 43 75 44 69 45
REMARK SMILES IDX 68 46 33 48 59 49 42 50 58 51 43 52 46 53 57 54 73 55 44 56
REMARK SMILES IDX 45 57 56 59 74 60 47 61 34 62 35 63 40 64 36 65 37 66 39 67
REMARK SMILES IDX 41 68 38 69 60 70 61 71 66 72 62 73 63 74 65 75 67 76 64 77
REMARK SMILES IDX 48 78 49 79 54 80 50 81 51 82 53 83 55 84 52 85
REMARK H PARENT 18 6 4 24 22 28 72 47 46 58
REMARK Flexibility Score: inf
ROOT
ATOM      1  C   UNL A   1      32.499  28.655  26.488  1.00  0.00     0.042 C 
ENDROOT
BRANCH   1   2
ATOM      2  C   UNL A   1      32.359  29.621  25.321  1.00  0.00     0.118 C 
BRANCH   2   3
ATOM      3  N   UNL A   1      33.285  29.344  24.227  1.00  0.00    -0.352 N 
ATOM      4  C   UNL A   1      33.544  28.323  23.340  1.00  0.00     0.254 C 
ATOM      5  O   UNL A   1      34.431  28.566  22.519  1.00  0.00    -0.269 OA
ATOM      6  H   UNL A   1      33.898  30.100  24.084  1.00  0.00     0.163 HD
BRANCH   4   7
ATOM      7  C   UNL A   1      32.879  26.989  23.321  1.00  0.00     0.076 A 
ATOM      8  C   UNL A   1      32.954  24.529  23.521  1.00  0.00    -0.017 A 
ATOM      9  C   UNL A   1      31.633  24.447  23.090  1.00  0.00     0.012 A 
ATOM     10  C   UNL A   1      33.517  25.810  23.683  1.00  0.00     0.025 A 
ATOM     11  C   UNL A   1      30.924  25.619  22.812  1.00  0.00     0.041 A 
ATOM     12  C   UNL A   1      31.549  26.870  22.904  1.00  0.00     0.135 A 
ATOM     13  F   UNL A   1      30.819  27.942  22.564  1.00  0.00    -0.206 F 
BRANCH   8  14
ATOM     14  C   UNL A   1      33.839  23.366  23.721  1.00  0.00    -0.016 A 
ATOM     15  C   UNL A   1      34.186  21.169  24.755  1.00  0.00     0.041 A 
ATOM     16  C   UNL A   1      35.566  21.342  24.630  1.00  0.00     0.026 A 
ATOM     17  C   UNL A   1      33.341  22.185  24.306  1.00  0.00     0.034 A 
ATOM     18  C   UNL A   1      36.081  22.476  23.997  1.00  0.00     0.003 A 
ATOM     19  C   UNL A   1      35.223  23.478  23.541  1.00  0.00     0.009 A 
BRANCH  15  20
ATOM     20  N   UNL A   1      33.726  20.023  25.422  1.00  0.00    -0.326 N 
ATOM     21  C   UNL A   1      32.663  18.793  23.533  1.00  0.00     0.114 C 
ATOM     22  C   UNL A   1      32.927  18.997  25.001  1.00  0.00     0.221 C 
ATOM     23  O   UNL A   1      32.478  18.209  25.836  1.00  0.00    -0.275 OA
ATOM     24  H   UNL A   1      34.033  19.944  26.354  1.00  0.00     0.169 HD
ENDBRANCH  15  20
ENDBRANCH   8  14
ENDBRANCH   4   7
ENDBRANCH   2   3
ENDBRANCH   1   2
BRANCH   1  25
ATOM     25  C   UNL A   1      33.797  28.856  27.261  1.00  0.00     0.118 C 
BRANCH  25  26
ATOM     26  N   UNL A   1      33.905  30.203  27.820  1.00  0.00    -0.352 N 
ATOM     27  C   UNL A   1      34.902  30.803  28.549  1.00  0.00     0.251 C 
ATOM     28  H   UNL A   1      33.129  30.781  27.643  1.00  0.00     0.163 HD
ATOM     29  O   UNL A   1      34.678  31.853  29.140  1.00  0.00    -0.269 OA
BRANCH  27  30
ATOM     30  C   UNL A   1      36.241  30.184  28.632  1.00  0.00     0.039 A 
ATOM     31  C   UNL A   1      37.086  30.226  27.520  1.00  0.00     0.014 A 
ATOM     32  C   UNL A   1      36.653  29.543  29.800  1.00  0.00     0.014 A 
ATOM     33  C   UNL A   1      38.379  29.708  27.615  1.00  0.00     0.010 A 
ATOM     34  C   UNL A   1      37.968  29.119  29.928  1.00  0.00     0.010 A 
ATOM     35  C   UNL A   1      38.847  29.201  28.837  1.00  0.00    -0.014 A 
BRANCH  35  36
ATOM     36  C   UNL A   1      40.252  28.762  29.018  1.00  0.00     0.031 A 
ATOM     37  C   UNL A   1      41.280  29.727  29.536  1.00  0.00     0.074 A 
ATOM     38  C   UNL A   1      40.617  27.529  28.618  1.00  0.00     0.049 A 
ATOM     39  N   UNL A   1      42.577  29.578  29.639  1.00  0.00    -0.248 NA
ATOM     40  C   UNL A   1      40.791  31.046  29.967  1.00  0.00     0.031 C 
ATOM     41  C   UNL A   1      39.717  26.517  28.060  1.00  0.00     0.029 A 
ATOM     42  N   UNL A   1      41.848  26.921  28.602  1.00  0.00    -0.354 N 
ATOM     43  C   UNL A   1      43.056  30.786  30.131  1.00  0.00     0.074 A 
ATOM     44  C   UNL A   1      41.922  31.675  30.247  1.00  0.00     0.031 C 
ATOM     45  C   UNL A   1      40.420  25.409  27.779  1.00  0.00     0.029 A 
ATOM     46  C   UNL A   1      41.827  25.648  28.085  1.00  0.00     0.049 A 
ATOM     47  H   UNL A   1      42.667  27.357  28.930  1.00  0.00     0.167 HD
ATOM     48  C   UNL A   1      44.323  31.114  30.476  1.00  0.00     0.037 A 
ATOM     49  C   UNL A   1      42.831  24.779  27.868  1.00  0.00     0.037 A 
ATOM     50  C   UNL A   1      45.444  30.217  30.369  1.00  0.00     0.049 A 
ATOM     51  C   UNL A   1      44.236  25.183  28.217  1.00  0.00     0.074 A 
ATOM     52  C   UNL A   1      46.759  30.432  30.743  1.00  0.00     0.029 A 
ATOM     53  N   UNL A   1      45.381  28.935  29.844  1.00  0.00    -0.354 N 
ATOM     54  N   UNL A   1      44.667  26.303  28.744  1.00  0.00    -0.248 NA
ATOM     55  C   UNL A   1      45.295  24.204  27.940  1.00  0.00     0.031 C 
ATOM     56  C   UNL A   1      47.502  29.302  30.392  1.00  0.00     0.029 A 
ATOM     57  C   UNL A   1      46.641  28.360  29.852  1.00  0.00     0.049 A 
ATOM     58  H   UNL A   1      44.563  28.500  29.512  1.00  0.00     0.167 HD
ATOM     59  C   UNL A   1      46.041  26.154  28.887  1.00  0.00     0.074 A 
ATOM     60  C   UNL A   1      46.368  24.829  28.404  1.00  0.00     0.031 C 
ATOM     61  C   UNL A   1      46.948  27.035  29.373  1.00  0.00     0.037 A 
BRANCH  48  62
ATOM     62  C   UNL A   1      44.561  32.502  31.000  1.00  0.00     0.057 A 
ATOM     63  C   UNL A   1      44.499  32.795  32.369  1.00  0.00     0.134 A 
ATOM     64  C   UNL A   1      44.879  33.551  30.130  1.00  0.00     0.134 A 
ATOM     65  F   UNL A   1      44.187  31.839  33.257  1.00  0.00    -0.206 F 
ATOM     66  C   UNL A   1      44.711  34.089  32.850  1.00  0.00     0.040 A 
ATOM     67  C   UNL A   1      45.126  34.842  30.601  1.00  0.00     0.040 A 
ATOM     68  F   UNL A   1      44.963  33.340  28.808  1.00  0.00    -0.206 F 
ATOM     69  C   UNL A   1      45.034  35.115  31.965  1.00  0.00     0.006 A 
ENDBRANCH  48  62
BRANCH  49  70
ATOM     70  C   UNL A   1      42.545  23.437  27.299  1.00  0.00     0.057 A 
ATOM     71  C   UNL A   1      42.181  22.369  28.127  1.00  0.00     0.134 A 
ATOM     72  C   UNL A   1      42.632  23.185  25.925  1.00  0.00     0.134 A 
ATOM     73  F   UNL A   1      42.097  22.543  29.454  1.00  0.00    -0.206 F 
ATOM     74  C   UNL A   1      41.934  21.095  27.614  1.00  0.00     0.040 A 
ATOM     75  C   UNL A   1      42.361  21.922  25.394  1.00  0.00     0.040 A 
ATOM     76  F   UNL A   1      42.966  24.167  25.074  1.00  0.00    -0.206 F 
ATOM     77  C   UNL A   1      42.019  20.870  26.241  1.00  0.00     0.006 A 
ENDBRANCH  49  70
BRANCH  61  78
ATOM     78  C   UNL A   1      48.379  26.587  29.437  1.00  0.00     0.057 A 
ATOM     79  C   UNL A   1      49.289  26.867  28.411  1.00  0.00     0.134 A 
ATOM     80  C   UNL A   1      48.865  25.915  30.567  1.00  0.00     0.134 A 
ATOM     81  F   UNL A   1      48.884  27.494  27.295  1.00  0.00    -0.206 F 
ATOM     82  C   UNL A   1      50.628  26.484  28.499  1.00  0.00     0.040 A 
ATOM     83  C   UNL A   1      50.207  25.553  30.680  1.00  0.00     0.040 A 
ATOM     84  F   UNL A   1      48.047  25.623  31.590  1.00  0.00    -0.206 F 
ATOM     85  C   UNL A   1      51.092  25.833  29.642  1.00  0.00     0.006 A 
ENDBRANCH  61  78
ENDBRANCH  35  36
ENDBRANCH  27  30
ENDBRANCH  25  26
ENDBRANCH   1  25
TORSDOF 12
ENDMDL
MODEL 3
REMARK VINA RESULT:     -12.2      0.768      6.248
REMARK SMILES CC(=O)Nc1cccc(-c2ccc(F)c(C(=O)NCCCNC(=O)c3ccc(-c4c5nc(c(-c6c(F)cccc6F)c6ccc([nH]6)c(-c6c(F)cccc6F)c6nc(c(-c7c(F)cccc7F)c7ccc4[nH]7)C=C6)C=C5)cc3)c2)c1
REMARK SMILES IDX 20 1 19 2 18 3 16 4 17 5 15 7 10 8 11 9 79 10 12 11 13 12
REMARK SMILES IDX 14 13 9 14 5 15 6 16 80 17 7 18 8 19 4 20 1 21 2 22 3 23
REMARK SMILES IDX 21 25 22 26 23 27 24 29 25 30 26 31 78 32 27 33 77 34 28 35
REMARK SMILES IDX 29 36 30 37 71 38 31 39 76 40 70 41 72 42 32 43 75 44 69 45
REMARK SMILES IDX 68 46 33 48 59 49 42 50 58 51 43 52 46 53 57 54 73 55 44 56
REMARK SMILES IDX 45 57 56 59 74 60 47 61 34 62 35 63 40 64 36 65 37 66 39 67
REMARK SMILES IDX 41 68 38 69 60 70 61 71 66 72 62 73 63 74 65 75 67 76 64 77
REMARK SMILES IDX 48 78 49 79 54 80 50 81 51 82 53 83 55 84 52 85
REMARK H PARENT 18 6 4 24 22 28 72 47 46 58
REMARK Flexibility Score: inf
ROOT
ATOM      1  C   UNL A   1      38.156  19.858  24.920  1.00  0.00     0.042 C 
ENDROOT
BRANCH   1   2
ATOM      2  C   UNL A   1      37.374  21.094  24.500  1.00  0.00     0.118 C 
BRANCH   2   3
ATOM      3  N   UNL A   1      37.775  22.302  25.214  1.00  0.00    -0.352 N 
ATOM      4  C   UNL A   1      37.171  23.368  25.841  1.00  0.00     0.254 C 
ATOM      5  O   UNL A   1      37.948  24.160  26.377  1.00  0.00    -0.269 OA
ATOM      6  H   UNL A   1      38.755  22.375  25.260  1.00  0.00     0.163 HD
BRANCH   4   7
ATOM      7  C   UNL A   1      35.705  23.640  25.891  1.00  0.00     0.076 A 
ATOM      8  C   UNL A   1      33.779  25.169  25.670  1.00  0.00    -0.017 A 
ATOM      9  C   UNL A   1      32.933  24.186  26.177  1.00  0.00     0.012 A 
ATOM     10  C   UNL A   1      35.135  24.840  25.485  1.00  0.00     0.025 A 
ATOM     11  C   UNL A   1      33.453  22.930  26.505  1.00  0.00     0.041 A 
ATOM     12  C   UNL A   1      34.825  22.673  26.384  1.00  0.00     0.135 A 
ATOM     13  F   UNL A   1      35.254  21.463  26.773  1.00  0.00    -0.206 F 
BRANCH   8  14
ATOM     14  C   UNL A   1      33.374  26.563  25.411  1.00  0.00    -0.016 A 
ATOM     15  C   UNL A   1      32.331  28.178  23.889  1.00  0.00     0.041 A 
ATOM     16  C   UNL A   1      33.015  29.210  24.534  1.00  0.00     0.026 A 
ATOM     17  C   UNL A   1      32.524  26.868  24.330  1.00  0.00     0.034 A 
ATOM     18  C   UNL A   1      33.814  28.939  25.647  1.00  0.00     0.003 A 
ATOM     19  C   UNL A   1      33.988  27.625  26.086  1.00  0.00     0.009 A 
BRANCH  15  20
ATOM     20  N   UNL A   1      31.563  28.505  22.761  1.00  0.00    -0.326 N 
ATOM     21  C   UNL A   1      29.809  29.937  23.803  1.00  0.00     0.114 C 
ATOM     22  C   UNL A   1      30.364  29.150  22.645  1.00  0.00     0.221 C 
ATOM     23  O   UNL A   1      29.776  29.128  21.561  1.00  0.00    -0.275 OA
ATOM     24  H   UNL A   1      31.956  28.221  21.903  1.00  0.00     0.169 HD
ENDBRANCH  15  20
ENDBRANCH   8  14
ENDBRANCH   4   7
ENDBRANCH   2   3
ENDBRANCH   1   2
BRANCH   1  25
ATOM     25  C   UNL A   1      39.144  20.146  26.044  1.00  0.00     0.118 C 
BRANCH  25  26
ATOM     26  N   UNL A   1      40.291  19.238  26.019  1.00  0.00    -0.352 N 
ATOM     27  C   UNL A   1      41.640  19.482  26.095  1.00  0.00     0.251 C 
ATOM     28  H   UNL A   1      40.054  18.287  25.932  1.00  0.00     0.163 HD
ATOM     29  O   UNL A   1      42.436  18.601  25.792  1.00  0.00    -0.269 OA
BRANCH  27  30
ATOM     30  C   UNL A   1      42.135  20.803  26.531  1.00  0.00     0.039 A 
ATOM     31  C   UNL A   1      42.586  21.716  25.574  1.00  0.00     0.014 A 
ATOM     32  C   UNL A   1      42.175  21.131  27.886  1.00  0.00     0.014 A 
ATOM     33  C   UNL A   1      42.986  22.993  25.972  1.00  0.00     0.010 A 
ATOM     34  C   UNL A   1      42.476  22.430  28.272  1.00  0.00     0.010 A 
ATOM     35  C   UNL A   1      42.882  23.376  27.319  1.00  0.00    -0.014 A 
BRANCH  35  36
ATOM     36  C   UNL A   1      43.171  24.760  27.766  1.00  0.00     0.031 A 
ATOM     37  C   UNL A   1      44.582  25.167  28.086  1.00  0.00     0.074 A 
ATOM     38  C   UNL A   1      42.152  25.614  27.980  1.00  0.00     0.049 A 
ATOM     39  N   UNL A   1      45.022  26.281  28.613  1.00  0.00    -0.248 NA
ATOM     40  C   UNL A   1      45.635  24.179  27.805  1.00  0.00     0.031 C 
ATOM     41  C   UNL A   1      40.737  25.321  27.745  1.00  0.00     0.029 A 
ATOM     42  N   UNL A   1      42.148  26.899  28.461  1.00  0.00    -0.354 N 
ATOM     43  C   UNL A   1      46.396  26.121  28.740  1.00  0.00     0.074 A 
ATOM     44  C   UNL A   1      46.709  24.782  28.292  1.00  0.00     0.031 C 
ATOM     45  C   UNL A   1      40.005  26.400  28.061  1.00  0.00     0.029 A 
ATOM     46  C   UNL A   1      40.890  27.443  28.569  1.00  0.00     0.049 A 
ATOM     47  H   UNL A   1      42.968  27.386  28.706  1.00  0.00     0.167 HD
ATOM     48  C   UNL A   1      47.315  27.017  29.168  1.00  0.00     0.037 A 
ATOM     49  C   UNL A   1      40.495  28.640  29.041  1.00  0.00     0.037 A 
ATOM     50  C   UNL A   1      46.996  28.353  29.599  1.00  0.00     0.049 A 
ATOM     51  C   UNL A   1      41.531  29.602  29.553  1.00  0.00     0.074 A 
ATOM     52  C   UNL A   1      47.859  29.359  29.999  1.00  0.00     0.029 A 
ATOM     53  N   UNL A   1      45.711  28.867  29.691  1.00  0.00    -0.354 N 
ATOM     54  N   UNL A   1      42.834  29.464  29.605  1.00  0.00    -0.248 NA
ATOM     55  C   UNL A   1      41.043  30.886  30.074  1.00  0.00     0.031 C 
ATOM     56  C   UNL A   1      47.092  30.461  30.387  1.00  0.00     0.029 A 
ATOM     57  C   UNL A   1      45.755  30.164  30.175  1.00  0.00     0.049 A 
ATOM     58  H   UNL A   1      44.890  28.381  29.451  1.00  0.00     0.167 HD
ATOM     59  C   UNL A   1      43.323  30.650  30.137  1.00  0.00     0.074 A 
ATOM     60  C   UNL A   1      42.176  31.501  30.379  1.00  0.00     0.031 C 
ATOM     61  C   UNL A   1      44.604  31.001  30.403  1.00  0.00     0.037 A 
BRANCH  48  62
ATOM     62  C   UNL A   1      48.752  26.579  29.190  1.00  0.00     0.057 A 
ATOM     63  C   UNL A   1      49.585  26.720  28.073  1.00  0.00     0.134 A 
ATOM     64  C   UNL A   1      49.316  26.032  30.349  1.00  0.00     0.134 A 
ATOM     65  F   UNL A   1      49.107  27.227  26.926  1.00  0.00    -0.206 F 
ATOM     66  C   UNL A   1      50.917  26.303  28.096  1.00  0.00     0.040 A 
ATOM     67  C   UNL A   1      50.655  25.640  30.395  1.00  0.00     0.040 A 
ATOM     68  F   UNL A   1      48.578  25.874  31.458  1.00  0.00    -0.206 F 
ATOM     69  C   UNL A   1      51.458  25.767  29.263  1.00  0.00     0.006 A 
ENDBRANCH  48  62
BRANCH  49  70
ATOM     70  C   UNL A   1      39.055  29.003  29.042  1.00  0.00     0.057 A 
ATOM     71  C   UNL A   1      38.277  28.851  30.195  1.00  0.00     0.134 A 
ATOM     72  C   UNL A   1      38.420  29.503  27.898  1.00  0.00     0.134 A 
ATOM     73  F   UNL A   1      38.823  28.361  31.317  1.00  0.00    -0.206 F 
ATOM     74  C   UNL A   1      36.917  29.161  30.207  1.00  0.00     0.040 A 
ATOM     75  C   UNL A   1      37.066  29.844  27.903  1.00  0.00     0.040 A 
ATOM     76  F   UNL A   1      39.110  29.682  26.762  1.00  0.00    -0.206 F 
ATOM     77  C   UNL A   1      36.308  29.665  29.059  1.00  0.00     0.006 A 
ENDBRANCH  49  70
BRANCH  61  78
ATOM     78  C   UNL A   1      44.842  32.375  30.957  1.00  0.00     0.057 A 
ATOM     79  C   UNL A   1      44.922  32.615  32.334  1.00  0.00     0.134 A 
ATOM     80  C   UNL A   1      45.050  33.463  30.098  1.00  0.00     0.134 A 
ATOM     81  F   UNL A   1      44.717  31.619  33.210  1.00  0.00    -0.206 F 
ATOM     82  C   UNL A   1      45.187  33.888  32.838  1.00  0.00     0.040 A 
ATOM     83  C   UNL A   1      45.344  34.735  30.589  1.00  0.00     0.040 A 
ATOM     84  F   UNL A   1      44.995  33.300  28.767  1.00  0.00    -0.206 F 
ATOM     85  C   UNL A   1      45.409  34.952  31.963  1.00  0.00     0.006 A 
ENDBRANCH  61  78
ENDBRANCH  35  36
ENDBRANCH  27  30
ENDBRANCH  25  26
ENDBRANCH   1  25
TORSDOF 12
ENDMDL
