MODEL 1
REMARK VINA RESULT:     -10.5      0.000      0.000
REMARK SMILES C=CCNC(=O)C[NH2+][C@](C)(C(=O)NCCCNC(=O)c1ccc(-c2c3nc(c(-c4c(F)cccc4F)c4ccc([nH]4)c(-c4c(F)cccc4F)c4nc(c(-c5c(F)cccc5F)c5ccc2[nH]5)C=C4)C=C3)cc1)C(F)(F)F
REMARK SMILES IDX 11 1 12 2 13 3 9 5 10 6 8 7 7 10 5 11 4 12 6 14 3 15 2 16
REMARK SMILES IDX 1 17 74 18 75 19 76 20 77 21 14 22 15 23 16 24 17 25 18 26
REMARK SMILES IDX 19 28 20 29 21 30 73 31 22 32 72 33 23 34 24 35 25 36 66 37
REMARK SMILES IDX 26 38 71 39 65 40 67 41 27 42 70 43 64 44 63 45 28 47 54 48
REMARK SMILES IDX 37 49 53 50 38 51 41 52 52 53 68 54 39 55 40 56 51 58 69 59
REMARK SMILES IDX 42 60 29 61 30 62 35 63 31 64 32 65 34 66 36 67 33 68 55 69
REMARK SMILES IDX 56 70 61 71 57 72 58 73 60 74 62 75 59 76 43 77 44 78 49 79
REMARK SMILES IDX 45 80 46 81 48 82 50 83 47 84
REMARK H PARENT 13 4 8 8 8 9 4 13 17 27 67 46 41 57
REMARK Flexibility Score: inf
ROOT
ATOM      1  C   UNL A   1      31.764  28.350  27.205  1.00  0.00     0.290 C 
ATOM      2  O   UNL A   1      31.576  27.811  28.297  1.00  0.00    -0.267 OA
ATOM      3  N   UNL A   1      31.653  29.715  27.198  1.00  0.00    -0.350 N 
ATOM      4  H   UNL A   1      31.500  30.101  28.090  1.00  0.00     0.163 HD
ENDROOT
BRANCH   1   5
ATOM      5  C   UNL A   1      32.157  27.563  25.938  1.00  0.00     0.268 C 
ATOM      6  C   UNL A   1      31.793  26.067  26.089  1.00  0.00     0.101 C 
BRANCH   5   7
ATOM      7  N   UNL A   1      31.358  28.088  24.773  1.00  0.00    -0.318 N 
ATOM      8  H   UNL A   1      30.598  28.660  25.144  1.00  0.00     0.347 HD
ATOM      9  H   UNL A   1      32.013  28.609  24.192  1.00  0.00     0.347 HD
BRANCH   7  10
ATOM     10  C   UNL A   1      30.767  27.058  23.904  1.00  0.00     0.362 C 
BRANCH  10  11
ATOM     11  C   UNL A   1      30.995  27.459  22.441  1.00  0.00     0.275 C 
ATOM     12  N   UNL A   1      32.144  27.055  21.817  1.00  0.00    -0.348 N 
ATOM     13  H   UNL A   1      32.273  27.387  20.899  1.00  0.00     0.163 HD
ATOM     14  O   UNL A   1      30.175  28.136  21.821  1.00  0.00    -0.268 OA
BRANCH  12  15
ATOM     15  C   UNL A   1      33.193  26.203  22.332  1.00  0.00     0.143 C 
BRANCH  15  16
ATOM     16  C   UNL A   1      32.866  24.798  21.929  1.00  0.00    -0.014 C 
ATOM     17  C   UNL A   1      32.328  23.885  22.748  1.00  0.00     0.006 C 
ENDBRANCH  15  16
ENDBRANCH  12  15
ENDBRANCH  10  11
ENDBRANCH   7  10
ENDBRANCH   5   7
BRANCH   5  18
ATOM     18  C   UNL A   1      33.713  27.629  25.842  1.00  0.00     0.453 C 
ATOM     19  F   UNL A   1      34.270  26.409  25.667  1.00  0.00    -0.164 F 
ATOM     20  F   UNL A   1      34.081  28.376  24.762  1.00  0.00    -0.164 F 
ATOM     21  F   UNL A   1      34.295  28.211  26.914  1.00  0.00    -0.164 F 
ENDBRANCH   5  18
ENDBRANCH   1   5
BRANCH   3  22
ATOM     22  C   UNL A   1      31.716  30.706  26.136  1.00  0.00     0.118 C 
BRANCH  22  23
ATOM     23  C   UNL A   1      31.453  32.117  26.649  1.00  0.00     0.042 C 
BRANCH  23  24
ATOM     24  C   UNL A   1      32.692  32.825  27.183  1.00  0.00     0.118 C 
BRANCH  24  25
ATOM     25  N   UNL A   1      32.425  34.197  27.590  1.00  0.00    -0.352 N 
ATOM     26  C   UNL A   1      32.992  34.951  28.586  1.00  0.00     0.251 C 
ATOM     27  H   UNL A   1      31.727  34.657  27.069  1.00  0.00     0.163 HD
ATOM     28  O   UNL A   1      32.492  36.034  28.888  1.00  0.00    -0.269 OA
BRANCH  26  29
ATOM     29  C   UNL A   1      34.182  34.464  29.317  1.00  0.00     0.039 A 
ATOM     30  C   UNL A   1      34.010  33.894  30.581  1.00  0.00     0.014 A 
ATOM     31  C   UNL A   1      35.463  34.580  28.773  1.00  0.00     0.014 A 
ATOM     32  C   UNL A   1      35.112  33.377  31.264  1.00  0.00     0.010 A 
ATOM     33  C   UNL A   1      36.545  33.985  29.413  1.00  0.00     0.010 A 
ATOM     34  C   UNL A   1      36.384  33.379  30.667  1.00  0.00    -0.014 A 
BRANCH  34  35
ATOM     35  C   UNL A   1      37.552  32.753  31.339  1.00  0.00     0.031 A 
ATOM     36  C   UNL A   1      38.218  31.547  30.735  1.00  0.00     0.074 A 
ATOM     37  C   UNL A   1      37.974  33.232  32.526  1.00  0.00     0.049 A 
ATOM     38  N   UNL A   1      39.201  30.822  31.206  1.00  0.00    -0.248 NA
ATOM     39  C   UNL A   1      37.695  31.078  29.442  1.00  0.00     0.031 C 
ATOM     40  C   UNL A   1      37.384  34.367  33.239  1.00  0.00     0.029 A 
ATOM     41  N   UNL A   1      38.991  32.817  33.349  1.00  0.00    -0.354 N 
ATOM     42  C   UNL A   1      39.404  29.810  30.277  1.00  0.00     0.074 A 
ATOM     43  C   UNL A   1      38.405  29.977  29.245  1.00  0.00     0.031 C 
ATOM     44  C   UNL A   1      38.066  34.574  34.377  1.00  0.00     0.029 A 
ATOM     45  C   UNL A   1      39.109  33.561  34.498  1.00  0.00     0.049 A 
ATOM     46  H   UNL A   1      39.581  32.058  33.135  1.00  0.00     0.167 HD
ATOM     47  C   UNL A   1      40.352  28.843  30.271  1.00  0.00     0.037 A 
ATOM     48  C   UNL A   1      39.956  33.435  35.537  1.00  0.00     0.037 A 
ATOM     49  C   UNL A   1      41.356  28.688  31.291  1.00  0.00     0.049 A 
ATOM     50  C   UNL A   1      40.984  32.337  35.518  1.00  0.00     0.074 A 
ATOM     51  C   UNL A   1      42.392  27.772  31.348  1.00  0.00     0.029 A 
ATOM     52  N   UNL A   1      41.448  29.467  32.434  1.00  0.00    -0.354 N 
ATOM     53  N   UNL A   1      41.206  31.428  34.600  1.00  0.00    -0.248 NA
ATOM     54  C   UNL A   1      41.883  32.250  36.677  1.00  0.00     0.031 C 
ATOM     55  C   UNL A   1      43.079  27.962  32.552  1.00  0.00     0.029 A 
ATOM     56  C   UNL A   1      42.507  29.036  33.216  1.00  0.00     0.049 A 
ATOM     57  H   UNL A   1      40.849  30.216  32.658  1.00  0.00     0.167 HD
ATOM     58  C   UNL A   1      42.289  30.685  35.054  1.00  0.00     0.074 A 
ATOM     59  C   UNL A   1      42.687  31.259  36.322  1.00  0.00     0.031 C 
ATOM     60  C   UNL A   1      42.899  29.622  34.472  1.00  0.00     0.037 A 
BRANCH  47  61
ATOM     61  C   UNL A   1      40.350  27.874  29.122  1.00  0.00     0.057 A 
ATOM     62  C   UNL A   1      39.548  26.724  29.126  1.00  0.00     0.134 A 
ATOM     63  C   UNL A   1      41.126  28.115  27.982  1.00  0.00     0.134 A 
ATOM     64  F   UNL A   1      38.789  26.428  30.191  1.00  0.00    -0.206 F 
ATOM     65  C   UNL A   1      39.537  25.837  28.048  1.00  0.00     0.040 A 
ATOM     66  C   UNL A   1      41.101  27.250  26.885  1.00  0.00     0.040 A 
ATOM     67  F   UNL A   1      41.911  29.200  27.907  1.00  0.00    -0.206 F 
ATOM     68  C   UNL A   1      40.311  26.104  26.920  1.00  0.00     0.006 A 
ENDBRANCH  47  61
BRANCH  48  69
ATOM     69  C   UNL A   1      39.881  34.379  36.682  1.00  0.00     0.057 A 
ATOM     70  C   UNL A   1      39.135  34.070  37.826  1.00  0.00     0.134 A 
ATOM     71  C   UNL A   1      40.529  35.619  36.653  1.00  0.00     0.134 A 
ATOM     72  F   UNL A   1      38.476  32.904  37.906  1.00  0.00    -0.206 F 
ATOM     73  C   UNL A   1      39.016  34.967  38.888  1.00  0.00     0.040 A 
ATOM     74  C   UNL A   1      40.443  36.515  37.721  1.00  0.00     0.040 A 
ATOM     75  F   UNL A   1      41.267  35.975  35.591  1.00  0.00    -0.206 F 
ATOM     76  C   UNL A   1      39.674  36.193  38.838  1.00  0.00     0.006 A 
ENDBRANCH  48  69
BRANCH  60  77
ATOM     77  C   UNL A   1      44.089  29.039  35.179  1.00  0.00     0.057 A 
ATOM     78  C   UNL A   1      43.961  28.020  36.132  1.00  0.00     0.134 A 
ATOM     79  C   UNL A   1      45.383  29.480  34.873  1.00  0.00     0.134 A 
ATOM     80  F   UNL A   1      42.749  27.561  36.480  1.00  0.00    -0.206 F 
ATOM     81  C   UNL A   1      45.077  27.478  36.772  1.00  0.00     0.040 A 
ATOM     82  C   UNL A   1      46.508  28.924  35.485  1.00  0.00     0.040 A 
ATOM     83  F   UNL A   1      45.577  30.446  33.964  1.00  0.00    -0.206 F 
ATOM     84  C   UNL A   1      46.355  27.925  36.443  1.00  0.00     0.006 A 
ENDBRANCH  60  77
ENDBRANCH  34  35
ENDBRANCH  26  29
ENDBRANCH  24  25
ENDBRANCH  23  24
ENDBRANCH  22  23
ENDBRANCH   3  22
TORSDOF 16
ENDMDL
MODEL 2
REMARK VINA RESULT:     -10.4      5.967     10.655
REMARK SMILES C=CCNC(=O)C[NH2+][C@](C)(C(=O)NCCCNC(=O)c1ccc(-c2c3nc(c(-c4c(F)cccc4F)c4ccc([nH]4)c(-c4c(F)cccc4F)c4nc(c(-c5c(F)cccc5F)c5ccc2[nH]5)C=C4)C=C3)cc1)C(F)(F)F
REMARK SMILES IDX 11 1 12 2 13 3 9 5 10 6 8 7 7 10 5 11 4 12 6 14 3 15 2 16
REMARK SMILES IDX 1 17 74 18 75 19 76 20 77 21 14 22 15 23 16 24 17 25 18 26
REMARK SMILES IDX 19 28 20 29 21 30 73 31 22 32 72 33 23 34 24 35 25 36 66 37
REMARK SMILES IDX 26 38 71 39 65 40 67 41 27 42 70 43 64 44 63 45 28 47 54 48
REMARK SMILES IDX 37 49 53 50 38 51 41 52 52 53 68 54 39 55 40 56 51 58 69 59
REMARK SMILES IDX 42 60 29 61 30 62 35 63 31 64 32 65 34 66 36 67 33 68 55 69
REMARK SMILES IDX 56 70 61 71 57 72 58 73 60 74 62 75 59 76 43 77 44 78 49 79
REMARK SMILES IDX 45 80 46 81 48 82 50 83 47 84
REMARK H PARENT 13 4 8 8 8 9 4 13 17 27 67 46 41 57
REMARK Flexibility Score: inf
ROOT
ATOM      1  C   UNL A   1      36.452  22.756  23.617  1.00  0.00     0.290 C 
ATOM      2  O   UNL A   1      36.985  23.449  22.749  1.00  0.00    -0.267 OA
ATOM      3  N   UNL A   1      37.178  21.671  24.028  1.00  0.00    -0.350 N 
ATOM      4  H   UNL A   1      38.073  21.619  23.621  1.00  0.00     0.163 HD
ENDROOT
BRANCH   1   5
ATOM      5  C   UNL A   1      35.088  23.105  24.248  1.00  0.00     0.268 C 
ATOM      6  C   UNL A   1      34.350  24.167  23.400  1.00  0.00     0.101 C 
BRANCH   5   7
ATOM      7  N   UNL A   1      34.223  21.871  24.247  1.00  0.00    -0.318 N 
ATOM      8  H   UNL A   1      34.491  21.299  23.446  1.00  0.00     0.347 HD
ATOM      9  H   UNL A   1      34.380  21.414  25.145  1.00  0.00     0.347 HD
BRANCH   7  10
ATOM     10  C   UNL A   1      32.776  22.121  24.162  1.00  0.00     0.362 C 
BRANCH  10  11
ATOM     11  C   UNL A   1      32.065  21.263  25.215  1.00  0.00     0.275 C 
ATOM     12  N   UNL A   1      31.739  21.828  26.417  1.00  0.00    -0.348 N 
ATOM     13  H   UNL A   1      31.338  21.222  27.082  1.00  0.00     0.163 HD
ATOM     14  O   UNL A   1      31.787  20.082  25.006  1.00  0.00    -0.268 OA
BRANCH  12  15
ATOM     15  C   UNL A   1      31.905  23.202  26.838  1.00  0.00     0.143 C 
BRANCH  15  16
ATOM     16  C   UNL A   1      30.652  23.936  26.473  1.00  0.00    -0.014 C 
ATOM     17  C   UNL A   1      30.624  25.086  25.786  1.00  0.00     0.006 C 
ENDBRANCH  15  16
ENDBRANCH  12  15
ENDBRANCH  10  11
ENDBRANCH   7  10
ENDBRANCH   5   7
BRANCH   5  18
ATOM     18  C   UNL A   1      35.397  23.777  25.622  1.00  0.00     0.453 C 
ATOM     19  F   UNL A   1      34.605  24.846  25.862  1.00  0.00    -0.164 F 
ATOM     20  F   UNL A   1      35.164  22.894  26.634  1.00  0.00    -0.164 F 
ATOM     21  F   UNL A   1      36.685  24.165  25.754  1.00  0.00    -0.164 F 
ENDBRANCH   5  18
ENDBRANCH   1   5
BRANCH   3  22
ATOM     22  C   UNL A   1      36.892  20.580  24.946  1.00  0.00     0.118 C 
BRANCH  22  23
ATOM     23  C   UNL A   1      38.022  19.560  25.000  1.00  0.00     0.042 C 
BRANCH  23  24
ATOM     24  C   UNL A   1      39.258  20.042  25.751  1.00  0.00     0.118 C 
BRANCH  24  25
ATOM     25  N   UNL A   1      40.305  19.033  25.818  1.00  0.00    -0.352 N 
ATOM     26  C   UNL A   1      41.657  19.171  26.007  1.00  0.00     0.251 C 
ATOM     27  H   UNL A   1      39.995  18.104  25.709  1.00  0.00     0.163 HD
ATOM     28  O   UNL A   1      42.396  18.200  25.845  1.00  0.00    -0.269 OA
BRANCH  26  29
ATOM     29  C   UNL A   1      42.236  20.480  26.380  1.00  0.00     0.039 A 
ATOM     30  C   UNL A   1      42.779  21.287  25.377  1.00  0.00     0.014 A 
ATOM     31  C   UNL A   1      42.263  20.906  27.710  1.00  0.00     0.014 A 
ATOM     32  C   UNL A   1      43.281  22.549  25.698  1.00  0.00     0.010 A 
ATOM     33  C   UNL A   1      42.680  22.199  28.015  1.00  0.00     0.010 A 
ATOM     34  C   UNL A   1      43.196  23.034  27.014  1.00  0.00    -0.014 A 
BRANCH  34  35
ATOM     35  C   UNL A   1      43.641  24.409  27.359  1.00  0.00     0.031 A 
ATOM     36  C   UNL A   1      42.638  25.448  27.782  1.00  0.00     0.074 A 
ATOM     37  C   UNL A   1      44.941  24.741  27.231  1.00  0.00     0.049 A 
ATOM     38  N   UNL A   1      42.825  26.715  28.053  1.00  0.00    -0.248 NA
ATOM     39  C   UNL A   1      41.237  25.012  27.889  1.00  0.00     0.031 C 
ATOM     40  C   UNL A   1      46.006  23.838  26.788  1.00  0.00     0.029 A 
ATOM     41  N   UNL A   1      45.588  25.931  27.452  1.00  0.00    -0.354 N 
ATOM     42  C   UNL A   1      41.568  27.227  28.351  1.00  0.00     0.074 A 
ATOM     43  C   UNL A   1      40.619  26.150  28.169  1.00  0.00     0.031 C 
ATOM     44  C   UNL A   1      47.174  24.499  26.795  1.00  0.00     0.029 A 
ATOM     45  C   UNL A   1      46.937  25.881  27.199  1.00  0.00     0.049 A 
ATOM     46  H   UNL A   1      45.128  26.744  27.764  1.00  0.00     0.167 HD
ATOM     47  C   UNL A   1      41.236  28.474  28.762  1.00  0.00     0.037 A 
ATOM     48  C   UNL A   1      47.877  26.843  27.272  1.00  0.00     0.037 A 
ATOM     49  C   UNL A   1      42.184  29.539  28.959  1.00  0.00     0.049 A 
ATOM     50  C   UNL A   1      47.478  28.226  27.708  1.00  0.00     0.074 A 
ATOM     51  C   UNL A   1      41.953  30.822  29.423  1.00  0.00     0.029 A 
ATOM     52  N   UNL A   1      43.543  29.446  28.699  1.00  0.00    -0.354 N 
ATOM     53  N   UNL A   1      46.296  28.678  28.050  1.00  0.00    -0.248 NA
ATOM     54  C   UNL A   1      48.546  29.234  27.773  1.00  0.00     0.031 C 
ATOM     55  C   UNL A   1      43.164  31.522  29.394  1.00  0.00     0.029 A 
ATOM     56  C   UNL A   1      44.159  30.657  28.969  1.00  0.00     0.049 A 
ATOM     57  H   UNL A   1      44.002  28.639  28.372  1.00  0.00     0.167 HD
ATOM     58  C   UNL A   1      46.484  30.008  28.402  1.00  0.00     0.074 A 
ATOM     59  C   UNL A   1      47.895  30.286  28.246  1.00  0.00     0.031 C 
ATOM     60  C   UNL A   1      45.568  30.918  28.818  1.00  0.00     0.037 A 
BRANCH  47  61
ATOM     61  C   UNL A   1      39.784  28.755  29.029  1.00  0.00     0.057 A 
ATOM     62  C   UNL A   1      39.231  28.631  30.311  1.00  0.00     0.134 A 
ATOM     63  C   UNL A   1      38.940  29.193  28.002  1.00  0.00     0.134 A 
ATOM     64  F   UNL A   1      39.981  28.206  31.338  1.00  0.00    -0.206 F 
ATOM     65  C   UNL A   1      37.885  28.910  30.556  1.00  0.00     0.040 A 
ATOM     66  C   UNL A   1      37.599  29.503  28.241  1.00  0.00     0.040 A 
ATOM     67  F   UNL A   1      39.404  29.340  26.752  1.00  0.00    -0.206 F 
ATOM     68  C   UNL A   1      37.067  29.355  29.519  1.00  0.00     0.006 A 
ENDBRANCH  47  61
BRANCH  48  69
ATOM     69  C   UNL A   1      49.292  26.534  26.938  1.00  0.00     0.057 A 
ATOM     70  C   UNL A   1      50.211  26.189  27.937  1.00  0.00     0.134 A 
ATOM     71  C   UNL A   1      49.764  26.595  25.623  1.00  0.00     0.134 A 
ATOM     72  F   UNL A   1      49.823  26.131  29.220  1.00  0.00    -0.206 F 
ATOM     73  C   UNL A   1      51.553  25.943  27.644  1.00  0.00     0.040 A 
ATOM     74  C   UNL A   1      51.098  26.323  25.311  1.00  0.00     0.040 A 
ATOM     75  F   UNL A   1      48.935  26.910  24.617  1.00  0.00    -0.206 F 
ATOM     76  C   UNL A   1      51.999  26.007  26.327  1.00  0.00     0.006 A 
ENDBRANCH  48  69
BRANCH  60  77
ATOM     77  C   UNL A   1      46.071  32.287  29.176  1.00  0.00     0.057 A 
ATOM     78  C   UNL A   1      46.522  32.599  30.465  1.00  0.00     0.134 A 
ATOM     79  C   UNL A   1      46.140  33.295  28.205  1.00  0.00     0.134 A 
ATOM     80  F   UNL A   1      46.473  31.683  31.444  1.00  0.00    -0.206 F 
ATOM     81  C   UNL A   1      47.000  33.873  30.781  1.00  0.00     0.040 A 
ATOM     82  C   UNL A   1      46.643  34.563  28.502  1.00  0.00     0.040 A 
ATOM     83  F   UNL A   1      45.732  33.060  26.949  1.00  0.00    -0.206 F 
ATOM     84  C   UNL A   1      47.068  34.856  29.796  1.00  0.00     0.006 A 
ENDBRANCH  60  77
ENDBRANCH  34  35
ENDBRANCH  26  29
ENDBRANCH  24  25
ENDBRANCH  23  24
ENDBRANCH  22  23
ENDBRANCH   3  22
TORSDOF 16
ENDMDL
MODEL 3
REMARK VINA RESULT:     -10.3      4.934      9.610
REMARK SMILES C=CCNC(=O)C[NH2+][C@](C)(C(=O)NCCCNC(=O)c1ccc(-c2c3nc(c(-c4c(F)cccc4F)c4ccc([nH]4)c(-c4c(F)cccc4F)c4nc(c(-c5c(F)cccc5F)c5ccc2[nH]5)C=C4)C=C3)cc1)C(F)(F)F
REMARK SMILES IDX 11 1 12 2 13 3 9 5 10 6 8 7 7 10 5 11 4 12 6 14 3 15 2 16
REMARK SMILES IDX 1 17 74 18 75 19 76 20 77 21 14 22 15 23 16 24 17 25 18 26
REMARK SMILES IDX 19 28 20 29 21 30 73 31 22 32 72 33 23 34 24 35 25 36 66 37
REMARK SMILES IDX 26 38 71 39 65 40 67 41 27 42 70 43 64 44 63 45 28 47 54 48
REMARK SMILES IDX 37 49 53 50 38 51 41 52 52 53 68 54 39 55 40 56 51 58 69 59
REMARK SMILES IDX 42 60 29 61 30 62 35 63 31 64 32 65 34 66 36 67 33 68 55 69
REMARK SMILES IDX 56 70 61 71 57 72 58 73 60 74 62 75 59 76 43 77 44 78 49 79
REMARK SMILES IDX 45 80 46 81 48 82 50 83 47 84
REMARK H PARENT 13 4 8 8 8 9 4 13 17 27 67 46 41 57
REMARK Flexibility Score: inf
ROOT
ATOM      1  C   UNL A   1      34.759  21.949  26.590  1.00  0.00     0.290 C 
ATOM      2  O   UNL A   1      34.481  21.748  27.774  1.00  0.00    -0.267 OA
ATOM      3  N   UNL A   1      35.663  21.078  26.044  1.00  0.00    -0.350 N 
ATOM      4  H   UNL A   1      35.929  20.353  26.654  1.00  0.00     0.163 HD
ENDROOT
BRANCH   1   5
ATOM      5  C   UNL A   1      34.099  23.064  25.752  1.00  0.00     0.268 C 
ATOM      6  C   UNL A   1      33.663  22.523  24.370  1.00  0.00     0.101 C 
BRANCH   5   7
ATOM      7  N   UNL A   1      32.847  23.521  26.454  1.00  0.00    -0.318 N 
ATOM      8  H   UNL A   1      32.750  22.978  27.313  1.00  0.00     0.347 HD
ATOM      9  H   UNL A   1      32.962  24.522  26.617  1.00  0.00     0.347 HD
BRANCH   7  10
ATOM     10  C   UNL A   1      31.605  23.372  25.680  1.00  0.00     0.362 C 
BRANCH  10  11
ATOM     11  C   UNL A   1      30.423  23.811  26.554  1.00  0.00     0.275 C 
ATOM     12  N   UNL A   1      29.826  25.015  26.301  1.00  0.00    -0.348 N 
ATOM     13  H   UNL A   1      29.113  25.280  26.925  1.00  0.00     0.163 HD
ATOM     14  O   UNL A   1      30.006  23.110  27.476  1.00  0.00    -0.268 OA
BRANCH  12  15
ATOM     15  C   UNL A   1      30.107  25.950  25.233  1.00  0.00     0.143 C 
BRANCH  15  16
ATOM     16  C   UNL A   1      30.837  27.110  25.835  1.00  0.00    -0.014 C 
ATOM     17  C   UNL A   1      31.960  27.003  26.559  1.00  0.00     0.006 C 
ENDBRANCH  15  16
ENDBRANCH  12  15
ENDBRANCH  10  11
ENDBRANCH   7  10
ENDBRANCH   5   7
BRANCH   5  18
ATOM     18  C   UNL A   1      35.210  24.125  25.479  1.00  0.00     0.453 C 
ATOM     19  F   UNL A   1      36.306  23.931  26.248  1.00  0.00    -0.164 F 
ATOM     20  F   UNL A   1      35.630  24.036  24.185  1.00  0.00    -0.164 F 
ATOM     21  F   UNL A   1      34.792  25.399  25.649  1.00  0.00    -0.164 F 
ENDBRANCH   5  18
ENDBRANCH   1   5
BRANCH   3  22
ATOM     22  C   UNL A   1      36.308  21.009  24.742  1.00  0.00     0.118 C 
BRANCH  22  23
ATOM     23  C   UNL A   1      37.491  20.050  24.735  1.00  0.00     0.042 C 
BRANCH  23  24
ATOM     24  C   UNL A   1      38.665  20.504  25.593  1.00  0.00     0.118 C 
BRANCH  24  25
ATOM     25  N   UNL A   1      39.705  19.492  25.707  1.00  0.00    -0.352 N 
ATOM     26  C   UNL A   1      41.023  19.614  26.069  1.00  0.00     0.251 C 
ATOM     27  H   UNL A   1      39.418  18.575  25.489  1.00  0.00     0.163 HD
ATOM     28  O   UNL A   1      41.784  18.657  25.922  1.00  0.00    -0.269 OA
BRANCH  26  29
ATOM     29  C   UNL A   1      41.542  20.888  26.609  1.00  0.00     0.039 A 
ATOM     30  C   UNL A   1      41.891  21.906  25.718  1.00  0.00     0.014 A 
ATOM     31  C   UNL A   1      41.704  21.078  27.983  1.00  0.00     0.014 A 
ATOM     32  C   UNL A   1      42.330  23.137  26.209  1.00  0.00     0.010 A 
ATOM     33  C   UNL A   1      42.056  22.333  28.473  1.00  0.00     0.010 A 
ATOM     34  C   UNL A   1      42.376  23.375  27.592  1.00  0.00    -0.014 A 
BRANCH  34  35
ATOM     35  C   UNL A   1      42.754  24.706  28.133  1.00  0.00     0.031 A 
ATOM     36  C   UNL A   1      41.705  25.763  28.351  1.00  0.00     0.074 A 
ATOM     37  C   UNL A   1      44.051  24.986  28.369  1.00  0.00     0.049 A 
ATOM     38  N   UNL A   1      41.850  27.002  28.747  1.00  0.00    -0.248 NA
ATOM     39  C   UNL A   1      40.313  25.385  28.062  1.00  0.00     0.031 C 
ATOM     40  C   UNL A   1      45.169  24.064  28.156  1.00  0.00     0.029 A 
ATOM     41  N   UNL A   1      44.651  26.131  28.830  1.00  0.00    -0.354 N 
ATOM     42  C   UNL A   1      40.574  27.552  28.743  1.00  0.00     0.074 A 
ATOM     43  C   UNL A   1      39.676  26.531  28.249  1.00  0.00     0.031 C 
ATOM     44  C   UNL A   1      46.313  24.670  28.510  1.00  0.00     0.029 A 
ATOM     45  C   UNL A   1      46.018  26.035  28.932  1.00  0.00     0.049 A 
ATOM     46  H   UNL A   1      44.149  26.944  29.067  1.00  0.00     0.167 HD
ATOM     47  C   UNL A   1      40.182  28.787  29.138  1.00  0.00     0.037 A 
ATOM     48  C   UNL A   1      46.933  26.948  29.311  1.00  0.00     0.037 A 
ATOM     49  C   UNL A   1      41.075  29.795  29.645  1.00  0.00     0.049 A 
ATOM     50  C   UNL A   1      46.473  28.320  29.721  1.00  0.00     0.074 A 
ATOM     51  C   UNL A   1      40.768  31.058  30.120  1.00  0.00     0.029 A 
ATOM     52  N   UNL A   1      42.452  29.657  29.740  1.00  0.00    -0.354 N 
ATOM     53  N   UNL A   1      45.256  28.804  29.775  1.00  0.00    -0.248 NA
ATOM     54  C   UNL A   1      47.515  29.274  30.129  1.00  0.00     0.031 C 
ATOM     55  C   UNL A   1      41.963  31.704  30.453  1.00  0.00     0.029 A 
ATOM     56  C   UNL A   1      43.010  30.821  30.242  1.00  0.00     0.049 A 
ATOM     57  H   UNL A   1      42.957  28.850  29.489  1.00  0.00     0.167 HD
ATOM     58  C   UNL A   1      45.383  30.102  30.254  1.00  0.00     0.074 A 
ATOM     59  C   UNL A   1      46.794  30.325  30.487  1.00  0.00     0.031 C 
ATOM     60  C   UNL A   1      44.416  31.027  30.479  1.00  0.00     0.037 A 
BRANCH  47  61
ATOM     61  C   UNL A   1      38.719  29.117  29.039  1.00  0.00     0.057 A 
ATOM     62  C   UNL A   1      37.868  29.046  30.150  1.00  0.00     0.134 A 
ATOM     63  C   UNL A   1      38.164  29.551  27.828  1.00  0.00     0.134 A 
ATOM     64  F   UNL A   1      38.333  28.628  31.337  1.00  0.00    -0.206 F 
ATOM     65  C   UNL A   1      36.514  29.370  30.055  1.00  0.00     0.040 A 
ATOM     66  C   UNL A   1      36.817  29.906  27.728  1.00  0.00     0.040 A 
ATOM     67  F   UNL A   1      38.922  29.649  26.726  1.00  0.00    -0.206 F 
ATOM     68  C   UNL A   1      35.987  29.808  28.842  1.00  0.00     0.006 A 
ENDBRANCH  47  61
BRANCH  48  69
ATOM     69  C   UNL A   1      48.376  26.596  29.334  1.00  0.00     0.057 A 
ATOM     70  C   UNL A   1      48.976  26.083  30.491  1.00  0.00     0.134 A 
ATOM     71  C   UNL A   1      49.194  26.782  28.214  1.00  0.00     0.134 A 
ATOM     72  F   UNL A   1      48.248  25.900  31.604  1.00  0.00    -0.206 F 
ATOM     73  C   UNL A   1      50.339  25.793  30.542  1.00  0.00     0.040 A 
ATOM     74  C   UNL A   1      50.555  26.468  28.242  1.00  0.00     0.040 A 
ATOM     75  F   UNL A   1      48.681  27.260  27.071  1.00  0.00    -0.206 F 
ATOM     76  C   UNL A   1      51.132  25.982  29.413  1.00  0.00     0.006 A 
ENDBRANCH  48  69
BRANCH  60  77
ATOM     77  C   UNL A   1      44.847  32.349  31.047  1.00  0.00     0.057 A 
ATOM     78  C   UNL A   1      45.166  33.440  30.230  1.00  0.00     0.134 A 
ATOM     79  C   UNL A   1      44.906  32.540  32.434  1.00  0.00     0.134 A 
ATOM     80  F   UNL A   1      45.142  33.320  28.893  1.00  0.00    -0.206 F 
ATOM     81  C   UNL A   1      45.553  34.668  30.772  1.00  0.00     0.040 A 
ATOM     82  C   UNL A   1      45.262  33.771  32.987  1.00  0.00     0.040 A 
ATOM     83  F   UNL A   1      44.604  31.539  33.274  1.00  0.00    -0.206 F 
ATOM     84  C   UNL A   1      45.594  34.837  32.154  1.00  0.00     0.006 A 
ENDBRANCH  60  77
ENDBRANCH  34  35
ENDBRANCH  26  29
ENDBRANCH  24  25
ENDBRANCH  23  24
ENDBRANCH  22  23
ENDBRANCH   3  22
TORSDOF 16
ENDMDL
