MODEL 1
REMARK VINA RESULT:     -14.3      0.000      0.000
REMARK SMILES Cc1ccc(NC(=O)c2ccccc2NC(=O)[C@H]2CCCC[C@H]2C(=O)NCCCNC(=O)c2ccc(-c3c4nc(c(-c5c(F)cccc5F)c5ccc([nH]5)c(-c5c(F)cccc5F)c5nc(c(-c6c(F)cccc6F)c6ccc3[nH]6)C=C5)C=C4)cc2)cc1
REMARK SMILES IDX 27 1 26 2 24 3 25 4 23 6 18 7 19 8 20 9 22 10 21 11 16 12
REMARK SMILES IDX 15 13 17 15 14 16 9 17 10 18 11 19 13 20 12 21 7 22 6 23
REMARK SMILES IDX 8 25 5 26 1 27 2 28 3 29 88 30 4 31 87 32 28 33 29 34 30 35
REMARK SMILES IDX 31 36 32 38 33 39 34 40 86 41 35 42 85 43 36 44 37 45 38 46
REMARK SMILES IDX 79 47 39 48 84 49 78 50 80 51 40 52 83 53 77 54 76 55 41 57
REMARK SMILES IDX 67 58 50 59 66 60 51 61 54 62 65 63 81 64 52 65 53 66 64 68
REMARK SMILES IDX 82 69 55 70 42 71 43 72 48 73 44 74 45 75 47 76 49 77 46 78
REMARK SMILES IDX 68 79 69 80 74 81 70 82 71 83 73 84 75 85 72 86 56 87 57 88
REMARK SMILES IDX 62 89 58 90 59 91 61 92 63 93 60 94
REMARK H PARENT 26 5 15 14 6 24 30 37 80 56 54 67
REMARK Flexibility Score: inf
ROOT
ATOM      1  C   UNL A   1      34.381  29.573  27.435  1.00  0.00     0.117 C 
ENDROOT
BRANCH   1   2
ATOM      2  N   UNL A   1      33.151  28.832  27.689  1.00  0.00    -0.356 N 
ATOM      3  C   UNL A   1      32.197  28.268  26.913  1.00  0.00     0.223 C 
ATOM      4  O   UNL A   1      31.216  27.818  27.521  1.00  0.00    -0.275 OA
ATOM      5  H   UNL A   1      32.975  28.713  28.651  1.00  0.00     0.163 HD
BRANCH   3   6
ATOM      6  C   UNL A   1      32.194  28.191  25.384  1.00  0.00     0.091 C 
ATOM      7  C   UNL A   1      33.073  27.037  24.848  1.00  0.00     0.091 C 
ATOM      8  C   UNL A   1      33.162  27.059  23.309  1.00  0.00     0.014 C 
ATOM      9  C   UNL A   1      31.815  27.279  22.610  1.00  0.00     0.001 C 
ATOM     10  C   UNL A   1      30.868  28.399  24.657  1.00  0.00     0.014 C 
ATOM     11  C   UNL A   1      31.083  28.504  23.148  1.00  0.00     0.001 C 
BRANCH   7  12
ATOM     12  C   UNL A   1      32.548  25.690  25.279  1.00  0.00     0.228 C 
ATOM     13  N   UNL A   1      33.296  24.562  25.396  1.00  0.00    -0.325 N 
ATOM     14  H   UNL A   1      32.837  23.890  25.949  1.00  0.00     0.169 HD
ATOM     15  O   UNL A   1      31.355  25.589  25.591  1.00  0.00    -0.274 OA
BRANCH  13  16
ATOM     16  C   UNL A   1      34.544  24.082  24.949  1.00  0.00     0.054 A 
ATOM     17  C   UNL A   1      34.658  23.487  23.665  1.00  0.00     0.063 A 
ATOM     18  C   UNL A   1      35.894  22.929  23.262  1.00  0.00     0.016 A 
ATOM     19  C   UNL A   1      37.015  22.994  24.079  1.00  0.00     0.001 A 
ATOM     20  C   UNL A   1      35.711  24.206  25.714  1.00  0.00     0.027 A 
ATOM     21  C   UNL A   1      36.926  23.651  25.296  1.00  0.00     0.002 A 
BRANCH  17  22
ATOM     22  C   UNL A   1      33.570  23.232  22.678  1.00  0.00     0.257 C 
ATOM     23  N   UNL A   1      32.717  22.156  22.657  1.00  0.00    -0.322 N 
ATOM     24  H   UNL A   1      32.102  22.185  21.889  1.00  0.00     0.170 HD
ATOM     25  O   UNL A   1      33.433  24.046  21.756  1.00  0.00    -0.269 OA
BRANCH  23  26
ATOM     26  C   UNL A   1      32.511  21.033  23.459  1.00  0.00     0.041 A 
ATOM     27  C   UNL A   1      32.945  17.264  25.451  1.00  0.00     0.044 C 
ATOM     28  C   UNL A   1      32.658  18.574  24.779  1.00  0.00    -0.051 A 
ATOM     29  C   UNL A   1      32.765  19.774  25.494  1.00  0.00     0.005 A 
ATOM     30  C   UNL A   1      32.346  18.617  23.419  1.00  0.00     0.005 A 
ATOM     31  C   UNL A   1      32.684  21.006  24.838  1.00  0.00     0.026 A 
ATOM     32  C   UNL A   1      32.244  19.845  22.768  1.00  0.00     0.026 A 
ENDBRANCH  23  26
ENDBRANCH  17  22
ENDBRANCH  13  16
ENDBRANCH   7  12
ENDBRANCH   3   6
ENDBRANCH   1   2
BRANCH   1  33
ATOM     33  C   UNL A   1      34.306  31.000  27.977  1.00  0.00     0.042 C 
BRANCH  33  34
ATOM     34  C   UNL A   1      35.582  31.817  27.849  1.00  0.00     0.118 C 
BRANCH  34  35
ATOM     35  N   UNL A   1      36.214  32.087  29.144  1.00  0.00    -0.352 N 
ATOM     36  C   UNL A   1      37.142  31.312  29.825  1.00  0.00     0.251 C 
ATOM     37  H   UNL A   1      35.944  32.924  29.588  1.00  0.00     0.163 HD
ATOM     38  O   UNL A   1      37.688  31.700  30.841  1.00  0.00    -0.269 OA
BRANCH  36  39
ATOM     39  C   UNL A   1      37.479  30.006  29.225  1.00  0.00     0.039 A 
ATOM     40  C   UNL A   1      37.641  28.930  30.095  1.00  0.00     0.014 A 
ATOM     41  C   UNL A   1      38.046  30.010  27.954  1.00  0.00     0.014 A 
ATOM     42  C   UNL A   1      38.613  27.982  29.797  1.00  0.00     0.010 A 
ATOM     43  C   UNL A   1      39.057  29.105  27.687  1.00  0.00     0.010 A 
ATOM     44  C   UNL A   1      39.404  28.156  28.656  1.00  0.00    -0.014 A 
BRANCH  44  45
ATOM     45  C   UNL A   1      40.707  27.511  28.527  1.00  0.00     0.031 A 
ATOM     46  C   UNL A   1      40.804  26.073  28.221  1.00  0.00     0.074 A 
ATOM     47  C   UNL A   1      41.850  28.208  28.729  1.00  0.00     0.049 A 
ATOM     48  N   UNL A   1      41.690  25.290  28.741  1.00  0.00    -0.248 NA
ATOM     49  C   UNL A   1      39.878  25.400  27.321  1.00  0.00     0.031 C 
ATOM     50  C   UNL A   1      43.214  27.740  28.492  1.00  0.00     0.029 A 
ATOM     51  N   UNL A   1      42.013  29.433  29.391  1.00  0.00    -0.354 N 
ATOM     52  C   UNL A   1      41.629  24.096  28.061  1.00  0.00     0.074 A 
ATOM     53  C   UNL A   1      40.440  24.189  27.242  1.00  0.00     0.031 C 
ATOM     54  C   UNL A   1      44.059  28.477  29.228  1.00  0.00     0.029 A 
ATOM     55  C   UNL A   1      43.265  29.380  30.041  1.00  0.00     0.049 A 
ATOM     56  H   UNL A   1      41.377  30.185  29.401  1.00  0.00     0.167 HD
ATOM     57  C   UNL A   1      42.659  23.207  28.141  1.00  0.00     0.037 A 
ATOM     58  C   UNL A   1      43.394  29.557  31.386  1.00  0.00     0.037 A 
ATOM     59  C   UNL A   1      43.759  23.721  28.951  1.00  0.00     0.049 A 
ATOM     60  C   UNL A   1      43.995  28.377  32.110  1.00  0.00     0.074 A 
ATOM     61  C   UNL A   1      44.934  24.369  28.603  1.00  0.00     0.029 A 
ATOM     62  N   UNL A   1      43.614  23.883  30.324  1.00  0.00    -0.354 N 
ATOM     63  N   UNL A   1      44.150  27.202  31.569  1.00  0.00    -0.248 NA
ATOM     64  C   UNL A   1      44.403  28.401  33.513  1.00  0.00     0.031 C 
ATOM     65  C   UNL A   1      45.484  24.947  29.768  1.00  0.00     0.029 A 
ATOM     66  C   UNL A   1      44.649  24.648  30.829  1.00  0.00     0.049 A 
ATOM     67  H   UNL A   1      42.879  23.505  30.860  1.00  0.00     0.167 HD
ATOM     68  C   UNL A   1      44.584  26.315  32.518  1.00  0.00     0.074 A 
ATOM     69  C   UNL A   1      44.769  27.122  33.709  1.00  0.00     0.031 C 
ATOM     70  C   UNL A   1      44.718  24.985  32.242  1.00  0.00     0.037 A 
BRANCH  57  71
ATOM     71  C   UNL A   1      42.789  22.033  27.200  1.00  0.00     0.057 A 
ATOM     72  C   UNL A   1      42.006  20.874  27.356  1.00  0.00     0.134 A 
ATOM     73  C   UNL A   1      43.713  21.973  26.144  1.00  0.00     0.134 A 
ATOM     74  F   UNL A   1      40.989  20.819  28.224  1.00  0.00    -0.206 F 
ATOM     75  C   UNL A   1      42.229  19.701  26.624  1.00  0.00     0.040 A 
ATOM     76  C   UNL A   1      43.986  20.791  25.439  1.00  0.00     0.040 A 
ATOM     77  F   UNL A   1      44.368  23.068  25.731  1.00  0.00    -0.206 F 
ATOM     78  C   UNL A   1      43.255  19.641  25.695  1.00  0.00     0.006 A 
ENDBRANCH  57  71
BRANCH  58  79
ATOM     79  C   UNL A   1      42.378  30.475  31.954  1.00  0.00     0.057 A 
ATOM     80  C   UNL A   1      41.219  29.921  32.524  1.00  0.00     0.134 A 
ATOM     81  C   UNL A   1      42.693  31.791  32.295  1.00  0.00     0.134 A 
ATOM     82  F   UNL A   1      40.861  28.660  32.232  1.00  0.00    -0.206 F 
ATOM     83  C   UNL A   1      40.475  30.601  33.489  1.00  0.00     0.040 A 
ATOM     84  C   UNL A   1      41.950  32.487  33.254  1.00  0.00     0.040 A 
ATOM     85  F   UNL A   1      43.791  32.382  31.801  1.00  0.00    -0.206 F 
ATOM     86  C   UNL A   1      40.867  31.876  33.886  1.00  0.00     0.006 A 
ENDBRANCH  58  79
BRANCH  70  87
ATOM     87  C   UNL A   1      45.010  23.898  33.242  1.00  0.00     0.057 A 
ATOM     88  C   UNL A   1      44.099  22.896  33.610  1.00  0.00     0.134 A 
ATOM     89  C   UNL A   1      46.308  23.756  33.781  1.00  0.00     0.134 A 
ATOM     90  F   UNL A   1      42.867  22.844  33.087  1.00  0.00    -0.206 F 
ATOM     91  C   UNL A   1      44.437  21.863  34.495  1.00  0.00     0.040 A 
ATOM     92  C   UNL A   1      46.670  22.703  34.625  1.00  0.00     0.040 A 
ATOM     93  F   UNL A   1      47.287  24.628  33.494  1.00  0.00    -0.206 F 
ATOM     94  C   UNL A   1      45.728  21.758  34.999  1.00  0.00     0.006 A 
ENDBRANCH  70  87
ENDBRANCH  44  45
ENDBRANCH  36  39
ENDBRANCH  34  35
ENDBRANCH  33  34
ENDBRANCH   1  33
TORSDOF 14
ENDMDL
MODEL 2
REMARK VINA RESULT:     -14.1      3.545      9.458
REMARK SMILES Cc1ccc(NC(=O)c2ccccc2NC(=O)[C@H]2CCCC[C@H]2C(=O)NCCCNC(=O)c2ccc(-c3c4nc(c(-c5c(F)cccc5F)c5ccc([nH]5)c(-c5c(F)cccc5F)c5nc(c(-c6c(F)cccc6F)c6ccc3[nH]6)C=C5)C=C4)cc2)cc1
REMARK SMILES IDX 27 1 26 2 24 3 25 4 23 6 18 7 19 8 20 9 22 10 21 11 16 12
REMARK SMILES IDX 15 13 17 15 14 16 9 17 10 18 11 19 13 20 12 21 7 22 6 23
REMARK SMILES IDX 8 25 5 26 1 27 2 28 3 29 88 30 4 31 87 32 28 33 29 34 30 35
REMARK SMILES IDX 31 36 32 38 33 39 34 40 86 41 35 42 85 43 36 44 37 45 38 46
REMARK SMILES IDX 79 47 39 48 84 49 78 50 80 51 40 52 83 53 77 54 76 55 41 57
REMARK SMILES IDX 67 58 50 59 66 60 51 61 54 62 65 63 81 64 52 65 53 66 64 68
REMARK SMILES IDX 82 69 55 70 42 71 43 72 48 73 44 74 45 75 47 76 49 77 46 78
REMARK SMILES IDX 68 79 69 80 74 81 70 82 71 83 73 84 75 85 72 86 56 87 57 88
REMARK SMILES IDX 62 89 58 90 59 91 61 92 63 93 60 94
REMARK H PARENT 26 5 15 14 6 24 30 37 80 56 54 67
REMARK Flexibility Score: inf
ROOT
ATOM      1  C   UNL A   1      37.840  23.540  25.888  1.00  0.00     0.117 C 
ENDROOT
BRANCH   1   2
ATOM      2  N   UNL A   1      37.304  23.419  24.537  1.00  0.00    -0.356 N 
ATOM      3  C   UNL A   1      36.156  22.943  24.003  1.00  0.00     0.223 C 
ATOM      4  O   UNL A   1      36.122  22.904  22.766  1.00  0.00    -0.275 OA
ATOM      5  H   UNL A   1      37.922  23.768  23.854  1.00  0.00     0.163 HD
BRANCH   3   6
ATOM      6  C   UNL A   1      34.947  22.405  24.774  1.00  0.00     0.091 C 
ATOM      7  C   UNL A   1      34.074  23.534  25.367  1.00  0.00     0.091 C 
ATOM      8  C   UNL A   1      32.940  22.972  26.247  1.00  0.00     0.014 C 
ATOM      9  C   UNL A   1      32.197  21.783  25.624  1.00  0.00     0.001 C 
ATOM     10  C   UNL A   1      34.182  21.227  24.177  1.00  0.00     0.014 C 
ATOM     11  C   UNL A   1      33.153  20.685  25.168  1.00  0.00     0.001 C 
BRANCH   7  12
ATOM     12  C   UNL A   1      33.461  24.391  24.286  1.00  0.00     0.228 C 
ATOM     13  N   UNL A   1      33.115  25.697  24.430  1.00  0.00    -0.325 N 
ATOM     14  H   UNL A   1      33.007  26.132  23.553  1.00  0.00     0.169 HD
ATOM     15  O   UNL A   1      33.287  23.900  23.165  1.00  0.00    -0.274 OA
BRANCH  13  16
ATOM     16  C   UNL A   1      32.866  26.605  25.478  1.00  0.00     0.054 A 
ATOM     17  C   UNL A   1      31.596  26.625  26.116  1.00  0.00     0.063 A 
ATOM     18  C   UNL A   1      31.327  27.599  27.105  1.00  0.00     0.016 A 
ATOM     19  C   UNL A   1      32.298  28.509  27.504  1.00  0.00     0.001 A 
ATOM     20  C   UNL A   1      33.847  27.481  25.959  1.00  0.00     0.027 A 
ATOM     21  C   UNL A   1      33.563  28.435  26.943  1.00  0.00     0.002 A 
BRANCH  17  22
ATOM     22  C   UNL A   1      30.395  25.807  25.780  1.00  0.00     0.257 C 
ATOM     23  N   UNL A   1      29.473  26.069  24.798  1.00  0.00    -0.322 N 
ATOM     24  H   UNL A   1      28.745  25.407  24.785  1.00  0.00     0.170 HD
ATOM     25  O   UNL A   1      30.173  24.807  26.475  1.00  0.00    -0.269 OA
BRANCH  23  26
ATOM     26  C   UNL A   1      29.317  27.045  23.813  1.00  0.00     0.041 A 
ATOM     27  C   UNL A   1      28.615  30.736  21.753  1.00  0.00     0.044 C 
ATOM     28  C   UNL A   1      28.833  29.380  22.355  1.00  0.00    -0.051 A 
ATOM     29  C   UNL A   1      30.122  28.835  22.419  1.00  0.00     0.005 A 
ATOM     30  C   UNL A   1      27.767  28.676  22.918  1.00  0.00     0.005 A 
ATOM     31  C   UNL A   1      30.366  27.662  23.141  1.00  0.00     0.026 A 
ATOM     32  C   UNL A   1      28.007  27.497  23.620  1.00  0.00     0.026 A 
ENDBRANCH  23  26
ENDBRANCH  17  22
ENDBRANCH  13  16
ENDBRANCH   7  12
ENDBRANCH   3   6
ENDBRANCH   1   2
BRANCH   1  33
ATOM     33  C   UNL A   1      39.060  22.643  26.097  1.00  0.00     0.042 C 
BRANCH  33  34
ATOM     34  C   UNL A   1      39.892  22.946  27.332  1.00  0.00     0.118 C 
BRANCH  34  35
ATOM     35  N   UNL A   1      41.224  23.463  27.004  1.00  0.00    -0.352 N 
ATOM     36  C   UNL A   1      41.623  24.785  26.872  1.00  0.00     0.251 C 
ATOM     37  H   UNL A   1      41.924  22.786  26.858  1.00  0.00     0.163 HD
ATOM     38  O   UNL A   1      42.789  25.097  26.715  1.00  0.00    -0.269 OA
BRANCH  36  39
ATOM     39  C   UNL A   1      40.565  25.808  26.985  1.00  0.00     0.039 A 
ATOM     40  C   UNL A   1      40.791  27.029  26.352  1.00  0.00     0.014 A 
ATOM     41  C   UNL A   1      39.664  25.688  28.039  1.00  0.00     0.014 A 
ATOM     42  C   UNL A   1      40.328  28.186  26.967  1.00  0.00     0.010 A 
ATOM     43  C   UNL A   1      39.257  26.840  28.686  1.00  0.00     0.010 A 
ATOM     44  C   UNL A   1      39.677  28.085  28.202  1.00  0.00    -0.014 A 
BRANCH  44  45
ATOM     45  C   UNL A   1      39.590  29.222  29.113  1.00  0.00     0.031 A 
ATOM     46  C   UNL A   1      38.528  30.231  28.952  1.00  0.00     0.074 A 
ATOM     47  C   UNL A   1      40.505  29.398  30.095  1.00  0.00     0.049 A 
ATOM     48  N   UNL A   1      38.710  31.497  29.137  1.00  0.00    -0.248 NA
ATOM     49  C   UNL A   1      37.177  29.886  28.533  1.00  0.00     0.031 C 
ATOM     50  C   UNL A   1      40.464  30.395  31.162  1.00  0.00     0.029 A 
ATOM     51  N   UNL A   1      41.781  28.826  30.202  1.00  0.00    -0.354 N 
ATOM     52  C   UNL A   1      37.472  32.094  29.127  1.00  0.00     0.074 A 
ATOM     53  C   UNL A   1      36.561  31.065  28.674  1.00  0.00     0.031 C 
ATOM     54  C   UNL A   1      41.708  30.585  31.626  1.00  0.00     0.029 A 
ATOM     55  C   UNL A   1      42.610  29.795  30.810  1.00  0.00     0.049 A 
ATOM     56  H   UNL A   1      42.047  27.924  29.911  1.00  0.00     0.167 HD
ATOM     57  C   UNL A   1      37.309  33.347  29.640  1.00  0.00     0.037 A 
ATOM     58  C   UNL A   1      43.749  30.250  30.218  1.00  0.00     0.037 A 
ATOM     59  C   UNL A   1      38.551  33.870  30.200  1.00  0.00     0.049 A 
ATOM     60  C   UNL A   1      43.757  31.736  29.955  1.00  0.00     0.074 A 
ATOM     61  C   UNL A   1      39.041  33.888  31.496  1.00  0.00     0.029 A 
ATOM     62  N   UNL A   1      39.619  34.200  29.372  1.00  0.00    -0.354 N 
ATOM     63  N   UNL A   1      42.698  32.489  30.043  1.00  0.00    -0.248 NA
ATOM     64  C   UNL A   1      44.933  32.481  29.506  1.00  0.00     0.031 C 
ATOM     65  C   UNL A   1      40.417  34.203  31.447  1.00  0.00     0.029 A 
ATOM     66  C   UNL A   1      40.766  34.383  30.121  1.00  0.00     0.049 A 
ATOM     67  H   UNL A   1      39.564  34.291  28.393  1.00  0.00     0.167 HD
ATOM     68  C   UNL A   1      42.998  33.753  29.607  1.00  0.00     0.074 A 
ATOM     69  C   UNL A   1      44.419  33.710  29.323  1.00  0.00     0.031 C 
ATOM     70  C   UNL A   1      42.034  34.713  29.489  1.00  0.00     0.037 A 
BRANCH  57  71
ATOM     71  C   UNL A   1      35.947  33.931  29.930  1.00  0.00     0.057 A 
ATOM     72  C   UNL A   1      35.109  34.390  28.897  1.00  0.00     0.134 A 
ATOM     73  C   UNL A   1      35.431  34.111  31.224  1.00  0.00     0.134 A 
ATOM     74  F   UNL A   1      35.389  34.172  27.607  1.00  0.00    -0.206 F 
ATOM     75  C   UNL A   1      33.928  35.105  29.138  1.00  0.00     0.040 A 
ATOM     76  C   UNL A   1      34.281  34.871  31.484  1.00  0.00     0.040 A 
ATOM     77  F   UNL A   1      36.004  33.530  32.288  1.00  0.00    -0.206 F 
ATOM     78  C   UNL A   1      33.535  35.391  30.435  1.00  0.00     0.006 A 
ENDBRANCH  57  71
BRANCH  58  79
ATOM     79  C   UNL A   1      44.413  29.234  29.366  1.00  0.00     0.057 A 
ATOM     80  C   UNL A   1      44.171  29.259  27.982  1.00  0.00     0.134 A 
ATOM     81  C   UNL A   1      45.535  28.531  29.809  1.00  0.00     0.134 A 
ATOM     82  F   UNL A   1      43.106  29.915  27.495  1.00  0.00    -0.206 F 
ATOM     83  C   UNL A   1      45.076  28.718  27.067  1.00  0.00     0.040 A 
ATOM     84  C   UNL A   1      46.443  27.976  28.901  1.00  0.00     0.040 A 
ATOM     85  F   UNL A   1      45.835  28.475  31.114  1.00  0.00    -0.206 F 
ATOM     86  C   UNL A   1      46.238  28.108  27.528  1.00  0.00     0.006 A 
ENDBRANCH  58  79
BRANCH  70  87
ATOM     87  C   UNL A   1      42.208  36.069  28.858  1.00  0.00     0.057 A 
ATOM     88  C   UNL A   1      42.874  37.145  29.464  1.00  0.00     0.134 A 
ATOM     89  C   UNL A   1      41.804  36.289  27.522  1.00  0.00     0.134 A 
ATOM     90  F   UNL A   1      43.407  37.037  30.688  1.00  0.00    -0.206 F 
ATOM     91  C   UNL A   1      43.071  38.370  28.810  1.00  0.00     0.040 A 
ATOM     92  C   UNL A   1      42.039  37.488  26.844  1.00  0.00     0.040 A 
ATOM     93  F   UNL A   1      41.179  35.338  26.811  1.00  0.00    -0.206 F 
ATOM     94  C   UNL A   1      42.662  38.542  27.493  1.00  0.00     0.006 A 
ENDBRANCH  70  87
ENDBRANCH  44  45
ENDBRANCH  36  39
ENDBRANCH  34  35
ENDBRANCH  33  34
ENDBRANCH   1  33
TORSDOF 14
ENDMDL
MODEL 3
REMARK VINA RESULT:     -13.8      3.726      9.502
REMARK SMILES Cc1ccc(NC(=O)c2ccccc2NC(=O)[C@H]2CCCC[C@H]2C(=O)NCCCNC(=O)c2ccc(-c3c4nc(c(-c5c(F)cccc5F)c5ccc([nH]5)c(-c5c(F)cccc5F)c5nc(c(-c6c(F)cccc6F)c6ccc3[nH]6)C=C5)C=C4)cc2)cc1
REMARK SMILES IDX 27 1 26 2 24 3 25 4 23 6 18 7 19 8 20 9 22 10 21 11 16 12
REMARK SMILES IDX 15 13 17 15 14 16 9 17 10 18 11 19 13 20 12 21 7 22 6 23
REMARK SMILES IDX 8 25 5 26 1 27 2 28 3 29 88 30 4 31 87 32 28 33 29 34 30 35
REMARK SMILES IDX 31 36 32 38 33 39 34 40 86 41 35 42 85 43 36 44 37 45 38 46
REMARK SMILES IDX 79 47 39 48 84 49 78 50 80 51 40 52 83 53 77 54 76 55 41 57
REMARK SMILES IDX 67 58 50 59 66 60 51 61 54 62 65 63 81 64 52 65 53 66 64 68
REMARK SMILES IDX 82 69 55 70 42 71 43 72 48 73 44 74 45 75 47 76 49 77 46 78
REMARK SMILES IDX 68 79 69 80 74 81 70 82 71 83 73 84 75 85 72 86 56 87 57 88
REMARK SMILES IDX 62 89 58 90 59 91 61 92 63 93 60 94
REMARK H PARENT 26 5 15 14 6 24 30 37 80 56 54 67
REMARK Flexibility Score: inf
ROOT
ATOM      1  C   UNL A   1      36.669  21.576  25.365  1.00  0.00     0.117 C 
ENDROOT
BRANCH   1   2
ATOM      2  N   UNL A   1      35.815  21.905  26.501  1.00  0.00    -0.356 N 
ATOM      3  C   UNL A   1      34.508  22.219  26.655  1.00  0.00     0.223 C 
ATOM      4  O   UNL A   1      34.175  22.560  27.798  1.00  0.00    -0.275 OA
ATOM      5  H   UNL A   1      36.303  21.894  27.356  1.00  0.00     0.163 HD
BRANCH   3   6
ATOM      6  C   UNL A   1      33.442  22.247  25.556  1.00  0.00     0.091 C 
ATOM      7  C   UNL A   1      32.799  23.644  25.391  1.00  0.00     0.091 C 
ATOM      8  C   UNL A   1      31.640  23.619  24.374  1.00  0.00     0.014 C 
ATOM      9  C   UNL A   1      31.958  22.851  23.085  1.00  0.00     0.001 C 
ATOM     10  C   UNL A   1      33.729  21.499  24.257  1.00  0.00     0.014 C 
ATOM     11  C   UNL A   1      32.488  21.449  23.368  1.00  0.00     0.001 C 
BRANCH   7  12
ATOM     12  C   UNL A   1      33.809  24.672  24.942  1.00  0.00     0.228 C 
ATOM     13  N   UNL A   1      33.506  25.915  24.486  1.00  0.00    -0.325 N 
ATOM     14  H   UNL A   1      34.292  26.505  24.520  1.00  0.00     0.169 HD
ATOM     15  O   UNL A   1      35.013  24.398  25.022  1.00  0.00    -0.274 OA
BRANCH  13  16
ATOM     16  C   UNL A   1      32.383  26.598  23.977  1.00  0.00     0.054 A 
ATOM     17  C   UNL A   1      31.413  27.134  24.866  1.00  0.00     0.063 A 
ATOM     18  C   UNL A   1      30.246  27.739  24.344  1.00  0.00     0.016 A 
ATOM     19  C   UNL A   1      30.050  27.865  22.975  1.00  0.00     0.001 A 
ATOM     20  C   UNL A   1      32.196  26.815  22.606  1.00  0.00     0.027 A 
ATOM     21  C   UNL A   1      31.036  27.420  22.108  1.00  0.00     0.002 A 
BRANCH  17  22
ATOM     22  C   UNL A   1      31.381  27.026  26.353  1.00  0.00     0.257 C 
ATOM     23  N   UNL A   1      32.114  27.768  27.245  1.00  0.00    -0.322 N 
ATOM     24  H   UNL A   1      31.953  27.495  28.177  1.00  0.00     0.170 HD
ATOM     25  O   UNL A   1      30.652  26.156  26.847  1.00  0.00    -0.269 OA
BRANCH  23  26
ATOM     26  C   UNL A   1      33.033  28.815  27.152  1.00  0.00     0.041 A 
ATOM     27  C   UNL A   1      35.492  32.218  28.007  1.00  0.00     0.044 C 
ATOM     28  C   UNL A   1      34.649  31.056  27.574  1.00  0.00    -0.051 A 
ATOM     29  C   UNL A   1      35.218  29.783  27.435  1.00  0.00     0.005 A 
ATOM     30  C   UNL A   1      33.277  31.214  27.371  1.00  0.00     0.005 A 
ATOM     31  C   UNL A   1      34.413  28.661  27.216  1.00  0.00     0.026 A 
ATOM     32  C   UNL A   1      32.477  30.099  27.132  1.00  0.00     0.026 A 
ENDBRANCH  23  26
ENDBRANCH  17  22
ENDBRANCH  13  16
ENDBRANCH   7  12
ENDBRANCH   3   6
ENDBRANCH   1   2
BRANCH   1  33
ATOM     33  C   UNL A   1      38.150  21.719  25.709  1.00  0.00     0.042 C 
BRANCH  33  34
ATOM     34  C   UNL A   1      38.600  23.118  26.100  1.00  0.00     0.118 C 
BRANCH  34  35
ATOM     35  N   UNL A   1      40.049  23.211  26.300  1.00  0.00    -0.352 N 
ATOM     36  C   UNL A   1      40.776  24.262  26.840  1.00  0.00     0.251 C 
ATOM     37  H   UNL A   1      40.574  22.429  26.012  1.00  0.00     0.163 HD
ATOM     38  O   UNL A   1      41.968  24.176  27.067  1.00  0.00    -0.269 OA
BRANCH  36  39
ATOM     39  C   UNL A   1      40.017  25.483  27.180  1.00  0.00     0.039 A 
ATOM     40  C   UNL A   1      40.396  26.664  26.545  1.00  0.00     0.014 A 
ATOM     41  C   UNL A   1      39.320  25.492  28.385  1.00  0.00     0.014 A 
ATOM     42  C   UNL A   1      40.330  27.850  27.266  1.00  0.00     0.010 A 
ATOM     43  C   UNL A   1      39.312  26.659  29.126  1.00  0.00     0.010 A 
ATOM     44  C   UNL A   1      39.910  27.811  28.600  1.00  0.00    -0.014 A 
BRANCH  44  45
ATOM     45  C   UNL A   1      40.251  28.877  29.538  1.00  0.00     0.031 A 
ATOM     46  C   UNL A   1      39.246  29.879  29.931  1.00  0.00     0.074 A 
ATOM     47  C   UNL A   1      41.508  28.993  30.030  1.00  0.00     0.049 A 
ATOM     48  N   UNL A   1      39.516  31.130  30.111  1.00  0.00    -0.248 NA
ATOM     49  C   UNL A   1      37.842  29.547  30.122  1.00  0.00     0.031 C 
ATOM     50  C   UNL A   1      41.956  29.907  31.077  1.00  0.00     0.029 A 
ATOM     51  N   UNL A   1      42.690  28.433  29.526  1.00  0.00    -0.354 N 
ATOM     52  C   UNL A   1      38.409  31.708  30.687  1.00  0.00     0.074 A 
ATOM     53  C   UNL A   1      37.372  30.702  30.605  1.00  0.00     0.031 C 
ATOM     54  C   UNL A   1      43.282  30.081  30.962  1.00  0.00     0.029 A 
ATOM     55  C   UNL A   1      43.720  29.366  29.779  1.00  0.00     0.049 A 
ATOM     56  H   UNL A   1      42.785  27.559  29.083  1.00  0.00     0.167 HD
ATOM     57  C   UNL A   1      38.512  32.917  31.309  1.00  0.00     0.037 A 
ATOM     58  C   UNL A   1      44.494  29.881  28.782  1.00  0.00     0.037 A 
ATOM     59  C   UNL A   1      39.883  33.415  31.306  1.00  0.00     0.049 A 
ATOM     60  C   UNL A   1      44.415  31.382  28.652  1.00  0.00     0.074 A 
ATOM     61  C   UNL A   1      40.891  33.344  32.255  1.00  0.00     0.029 A 
ATOM     62  N   UNL A   1      40.487  33.821  30.121  1.00  0.00    -0.354 N 
ATOM     63  N   UNL A   1      43.516  32.111  29.250  1.00  0.00    -0.248 NA
ATOM     64  C   UNL A   1      45.290  32.175  27.790  1.00  0.00     0.031 C 
ATOM     65  C   UNL A   1      42.112  33.682  31.631  1.00  0.00     0.029 A 
ATOM     66  C   UNL A   1      41.850  33.965  30.303  1.00  0.00     0.049 A 
ATOM     67  H   UNL A   1      40.012  33.984  29.274  1.00  0.00     0.167 HD
ATOM     68  C   UNL A   1      43.620  33.408  28.820  1.00  0.00     0.074 A 
ATOM     69  C   UNL A   1      44.772  33.407  27.941  1.00  0.00     0.031 C 
ATOM     70  C   UNL A   1      42.720  34.360  29.207  1.00  0.00     0.037 A 
BRANCH  57  71
ATOM     71  C   UNL A   1      37.426  33.459  32.208  1.00  0.00     0.057 A 
ATOM     72  C   UNL A   1      36.324  34.164  31.689  1.00  0.00     0.134 A 
ATOM     73  C   UNL A   1      37.442  33.354  33.609  1.00  0.00     0.134 A 
ATOM     74  F   UNL A   1      36.087  34.237  30.374  1.00  0.00    -0.206 F 
ATOM     75  C   UNL A   1      35.402  34.839  32.499  1.00  0.00     0.040 A 
ATOM     76  C   UNL A   1      36.560  34.066  34.434  1.00  0.00     0.040 A 
ATOM     77  F   UNL A   1      38.296  32.530  34.234  1.00  0.00    -0.206 F 
ATOM     78  C   UNL A   1      35.546  34.832  33.877  1.00  0.00     0.006 A 
ENDBRANCH  57  71
BRANCH  58  79
ATOM     79  C   UNL A   1      44.698  28.940  27.655  1.00  0.00     0.057 A 
ATOM     80  C   UNL A   1      45.604  27.879  27.824  1.00  0.00     0.134 A 
ATOM     81  C   UNL A   1      43.771  28.832  26.617  1.00  0.00     0.134 A 
ATOM     82  F   UNL A   1      46.522  27.925  28.802  1.00  0.00    -0.206 F 
ATOM     83  C   UNL A   1      45.509  26.704  27.076  1.00  0.00     0.040 A 
ATOM     84  C   UNL A   1      43.673  27.664  25.855  1.00  0.00     0.040 A 
ATOM     85  F   UNL A   1      42.868  29.800  26.405  1.00  0.00    -0.206 F 
ATOM     86  C   UNL A   1      44.512  26.580  26.113  1.00  0.00     0.006 A 
ENDBRANCH  58  79
BRANCH  70  87
ATOM     87  C   UNL A   1      42.626  35.762  28.664  1.00  0.00     0.057 A 
ATOM     88  C   UNL A   1      42.991  36.912  29.377  1.00  0.00     0.134 A 
ATOM     89  C   UNL A   1      42.273  35.979  27.313  1.00  0.00     0.134 A 
ATOM     90  F   UNL A   1      43.452  36.840  30.633  1.00  0.00    -0.206 F 
ATOM     91  C   UNL A   1      42.951  38.193  28.808  1.00  0.00     0.040 A 
ATOM     92  C   UNL A   1      42.278  37.245  26.721  1.00  0.00     0.040 A 
ATOM     93  F   UNL A   1      41.927  34.966  26.505  1.00  0.00    -0.206 F 
ATOM     94  C   UNL A   1      42.603  38.362  27.473  1.00  0.00     0.006 A 
ENDBRANCH  70  87
ENDBRANCH  44  45
ENDBRANCH  36  39
ENDBRANCH  34  35
ENDBRANCH  33  34
ENDBRANCH   1  33
TORSDOF 14
ENDMDL
