MODEL 1
REMARK VINA RESULT:     -11.4      0.000      0.000
REMARK SMILES CCc1cc2ccccc2c(=O)n1CC(=O)NCCCNC(=O)c1ccc(-c2c3nc(c(-c4c(F)cccc4F)c4ccc([nH]4)c(-c4c(F)cccc4F)c4nc(c(-c5c(F)cccc5F)c5ccc2[nH]5)C=C4)C=C3)cc1
REMARK SMILES IDX 19 1 18 2 17 3 15 4 16 5 14 7 13 8 3 9 4 10 5 11 11 12 6 13
REMARK SMILES IDX 10 14 12 15 7 16 9 17 8 18 2 19 1 20 20 21 21 22 22 23 23 25
REMARK SMILES IDX 24 26 25 27 77 28 26 29 76 30 27 31 28 32 29 33 70 34 30 35
REMARK SMILES IDX 75 36 69 37 71 38 31 39 74 40 68 41 67 42 32 44 58 45 41 46
REMARK SMILES IDX 57 47 42 48 45 49 56 50 72 51 43 52 44 53 55 55 73 56 46 57
REMARK SMILES IDX 33 58 34 59 39 60 35 61 36 62 38 63 40 64 37 65 59 66 60 67
REMARK SMILES IDX 65 68 61 69 62 70 64 71 66 72 63 73 47 74 48 75 53 76 49 77
REMARK SMILES IDX 50 78 52 79 54 80 51 81
REMARK H PARENT 17 6 21 24 71 43 45 54
REMARK Flexibility Score: inf
ROOT
ATOM      1  C   UNL A   1      31.993  28.226  27.277  1.00  0.00     0.042 C 
ENDROOT
BRANCH   1   2
ATOM      2  C   UNL A   1      31.802  27.086  26.291  1.00  0.00     0.117 C 
BRANCH   2   3
ATOM      3  N   UNL A   1      31.425  25.844  26.924  1.00  0.00    -0.354 N 
ATOM      4  C   UNL A   1      31.702  24.567  26.523  1.00  0.00     0.240 C 
ATOM      5  O   UNL A   1      31.607  23.680  27.376  1.00  0.00    -0.273 OA
ATOM      6  H   UNL A   1      30.900  25.928  27.754  1.00  0.00     0.163 HD
BRANCH   4   7
ATOM      7  C   UNL A   1      32.294  24.282  25.129  1.00  0.00     0.225 C 
BRANCH   7   8
ATOM      8  N   UNL A   1      33.476  23.411  25.114  1.00  0.00    -0.303 N 
ATOM      9  C   UNL A   1      33.451  22.069  24.699  1.00  0.00     0.022 A 
ATOM     10  C   UNL A   1      34.584  21.340  24.710  1.00  0.00     0.030 A 
ATOM     11  C   UNL A   1      35.859  21.914  25.127  1.00  0.00    -0.011 A 
ATOM     12  C   UNL A   1      34.689  24.082  25.384  1.00  0.00     0.259 A 
ATOM     13  C   UNL A   1      37.018  21.135  25.213  1.00  0.00     0.009 A 
ATOM     14  C   UNL A   1      35.927  23.272  25.434  1.00  0.00     0.047 A 
ATOM     15  O   UNL A   1      34.764  25.288  25.608  1.00  0.00    -0.269 OA
ATOM     16  C   UNL A   1      38.230  21.714  25.606  1.00  0.00     0.001 A 
ATOM     17  C   UNL A   1      37.142  23.857  25.817  1.00  0.00     0.014 A 
ATOM     18  C   UNL A   1      38.292  23.075  25.903  1.00  0.00     0.001 A 
BRANCH   9  19
ATOM     19  C   UNL A   1      32.168  21.393  24.244  1.00  0.00     0.051 C 
ATOM     20  C   UNL A   1      32.121  21.054  22.759  1.00  0.00     0.010 C 
ENDBRANCH   9  19
ENDBRANCH   7   8
ENDBRANCH   4   7
ENDBRANCH   2   3
ENDBRANCH   1   2
BRANCH   1  21
ATOM     21  C   UNL A   1      33.425  28.744  27.326  1.00  0.00     0.118 C 
BRANCH  21  22
ATOM     22  N   UNL A   1      33.513  30.129  27.778  1.00  0.00    -0.352 N 
ATOM     23  C   UNL A   1      34.565  30.806  28.348  1.00  0.00     0.251 C 
ATOM     24  H   UNL A   1      32.693  30.661  27.656  1.00  0.00     0.163 HD
ATOM     25  O   UNL A   1      34.401  31.933  28.800  1.00  0.00    -0.269 OA
BRANCH  23  26
ATOM     26  C   UNL A   1      35.887  30.153  28.450  1.00  0.00     0.039 A 
ATOM     27  C   UNL A   1      36.273  29.510  29.626  1.00  0.00     0.014 A 
ATOM     28  C   UNL A   1      36.762  30.219  27.361  1.00  0.00     0.014 A 
ATOM     29  C   UNL A   1      37.592  29.105  29.785  1.00  0.00     0.010 A 
ATOM     30  C   UNL A   1      38.063  29.728  27.493  1.00  0.00     0.010 A 
ATOM     31  C   UNL A   1      38.505  29.221  28.725  1.00  0.00    -0.014 A 
BRANCH  31  32
ATOM     32  C   UNL A   1      39.923  28.839  28.937  1.00  0.00     0.031 A 
ATOM     33  C   UNL A   1      40.866  29.775  29.644  1.00  0.00     0.074 A 
ATOM     34  C   UNL A   1      40.347  27.624  28.542  1.00  0.00     0.049 A 
ATOM     35  N   UNL A   1      42.142  29.624  29.902  1.00  0.00    -0.248 NA
ATOM     36  C   UNL A   1      40.308  31.051  30.120  1.00  0.00     0.031 C 
ATOM     37  C   UNL A   1      39.521  26.620  27.869  1.00  0.00     0.029 A 
ATOM     38  N   UNL A   1      41.570  27.019  28.667  1.00  0.00    -0.354 N 
ATOM     39  C   UNL A   1      42.542  30.792  30.541  1.00  0.00     0.074 A 
ATOM     40  C   UNL A   1      41.382  31.653  30.613  1.00  0.00     0.031 C 
ATOM     41  C   UNL A   1      40.247  25.509  27.680  1.00  0.00     0.029 A 
ATOM     42  C   UNL A   1      41.604  25.744  28.160  1.00  0.00     0.049 A 
ATOM     43  H   UNL A   1      42.349  27.456  29.083  1.00  0.00     0.167 HD
ATOM     44  C   UNL A   1      43.764  31.112  31.029  1.00  0.00     0.037 A 
ATOM     45  C   UNL A   1      42.622  24.869  28.067  1.00  0.00     0.037 A 
ATOM     46  C   UNL A   1      44.909  30.242  30.984  1.00  0.00     0.049 A 
ATOM     47  C   UNL A   1      43.976  25.268  28.577  1.00  0.00     0.074 A 
ATOM     48  C   UNL A   1      46.183  30.463  31.477  1.00  0.00     0.029 A 
ATOM     49  N   UNL A   1      44.916  28.978  30.411  1.00  0.00    -0.354 N 
ATOM     50  N   UNL A   1      44.340  26.376  29.176  1.00  0.00    -0.248 NA
ATOM     51  C   UNL A   1      45.065  24.301  28.383  1.00  0.00     0.031 C 
ATOM     52  C   UNL A   1      46.971  29.348  31.170  1.00  0.00     0.029 A 
ATOM     53  C   UNL A   1      46.178  28.417  30.520  1.00  0.00     0.049 A 
ATOM     54  H   UNL A   1      44.139  28.544  29.990  1.00  0.00     0.167 HD
ATOM     55  C   UNL A   1      45.695  26.236  29.439  1.00  0.00     0.074 A 
ATOM     56  C   UNL A   1      46.084  24.927  28.954  1.00  0.00     0.031 C 
ATOM     57  C   UNL A   1      46.544  27.114  30.027  1.00  0.00     0.037 A 
BRANCH  44  58
ATOM     58  C   UNL A   1      43.929  32.474  31.638  1.00  0.00     0.057 A 
ATOM     59  C   UNL A   1      43.689  32.676  33.004  1.00  0.00     0.134 A 
ATOM     60  C   UNL A   1      44.296  33.590  30.877  1.00  0.00     0.134 A 
ATOM     61  F   UNL A   1      43.329  31.651  33.791  1.00  0.00    -0.206 F 
ATOM     62  C   UNL A   1      43.807  33.937  33.589  1.00  0.00     0.040 A 
ATOM     63  C   UNL A   1      44.439  34.854  31.454  1.00  0.00     0.040 A 
ATOM     64  F   UNL A   1      44.557  33.463  29.566  1.00  0.00    -0.206 F 
ATOM     65  C   UNL A   1      44.190  35.030  32.813  1.00  0.00     0.006 A 
ENDBRANCH  44  58
BRANCH  45  66
ATOM     66  C   UNL A   1      42.401  23.542  27.447  1.00  0.00     0.057 A 
ATOM     67  C   UNL A   1      42.084  22.420  28.223  1.00  0.00     0.134 A 
ATOM     68  C   UNL A   1      42.503  23.363  26.064  1.00  0.00     0.134 A 
ATOM     69  F   UNL A   1      41.976  22.527  29.556  1.00  0.00    -0.206 F 
ATOM     70  C   UNL A   1      41.893  21.163  27.648  1.00  0.00     0.040 A 
ATOM     71  C   UNL A   1      42.290  22.117  25.472  1.00  0.00     0.040 A 
ATOM     72  F   UNL A   1      42.785  24.404  25.267  1.00  0.00    -0.206 F 
ATOM     73  C   UNL A   1      41.990  21.011  26.266  1.00  0.00     0.006 A 
ENDBRANCH  45  66
BRANCH  57  74
ATOM     74  C   UNL A   1      47.967  26.675  30.187  1.00  0.00     0.057 A 
ATOM     75  C   UNL A   1      48.366  25.939  31.309  1.00  0.00     0.134 A 
ATOM     76  C   UNL A   1      48.947  26.999  29.240  1.00  0.00     0.134 A 
ATOM     77  F   UNL A   1      47.476  25.601  32.254  1.00  0.00    -0.206 F 
ATOM     78  C   UNL A   1      49.692  25.541  31.485  1.00  0.00     0.040 A 
ATOM     79  C   UNL A   1      50.271  26.589  29.395  1.00  0.00     0.040 A 
ATOM     80  F   UNL A   1      48.623  27.689  28.136  1.00  0.00    -0.206 F 
ATOM     81  C   UNL A   1      50.647  25.862  30.523  1.00  0.00     0.006 A 
ENDBRANCH  57  74
ENDBRANCH  31  32
ENDBRANCH  23  26
ENDBRANCH  21  22
ENDBRANCH   1  21
TORSDOF 12
ENDMDL
MODEL 2
REMARK VINA RESULT:     -11.3      1.986      7.521
REMARK SMILES CCc1cc2ccccc2c(=O)n1CC(=O)NCCCNC(=O)c1ccc(-c2c3nc(c(-c4c(F)cccc4F)c4ccc([nH]4)c(-c4c(F)cccc4F)c4nc(c(-c5c(F)cccc5F)c5ccc2[nH]5)C=C4)C=C3)cc1
REMARK SMILES IDX 19 1 18 2 17 3 15 4 16 5 14 7 13 8 3 9 4 10 5 11 11 12 6 13
REMARK SMILES IDX 10 14 12 15 7 16 9 17 8 18 2 19 1 20 20 21 21 22 22 23 23 25
REMARK SMILES IDX 24 26 25 27 77 28 26 29 76 30 27 31 28 32 29 33 70 34 30 35
REMARK SMILES IDX 75 36 69 37 71 38 31 39 74 40 68 41 67 42 32 44 58 45 41 46
REMARK SMILES IDX 57 47 42 48 45 49 56 50 72 51 43 52 44 53 55 55 73 56 46 57
REMARK SMILES IDX 33 58 34 59 39 60 35 61 36 62 38 63 40 64 37 65 59 66 60 67
REMARK SMILES IDX 65 68 61 69 62 70 64 71 66 72 63 73 47 74 48 75 53 76 49 77
REMARK SMILES IDX 50 78 52 79 54 80 51 81
REMARK H PARENT 17 6 21 24 71 43 45 54
REMARK Flexibility Score: inf
ROOT
ATOM      1  C   UNL A   1      37.503  20.291  24.992  1.00  0.00     0.042 C 
ENDROOT
BRANCH   1   2
ATOM      2  C   UNL A   1      36.447  21.383  25.014  1.00  0.00     0.117 C 
BRANCH   2   3
ATOM      3  N   UNL A   1      35.651  21.381  26.219  1.00  0.00    -0.354 N 
ATOM      4  C   UNL A   1      34.344  21.748  26.375  1.00  0.00     0.240 C 
ATOM      5  O   UNL A   1      33.763  21.335  27.383  1.00  0.00    -0.273 OA
ATOM      6  H   UNL A   1      36.109  21.073  27.035  1.00  0.00     0.163 HD
BRANCH   4   7
ATOM      7  C   UNL A   1      33.583  22.476  25.250  1.00  0.00     0.225 C 
BRANCH   7   8
ATOM      8  N   UNL A   1      32.932  23.732  25.642  1.00  0.00    -0.303 N 
ATOM      9  C   UNL A   1      31.597  23.819  26.071  1.00  0.00     0.022 A 
ATOM     10  C   UNL A   1      31.079  25.013  26.419  1.00  0.00     0.030 A 
ATOM     11  C   UNL A   1      31.877  26.234  26.383  1.00  0.00    -0.011 A 
ATOM     12  C   UNL A   1      33.811  24.834  25.725  1.00  0.00     0.259 A 
ATOM     13  C   UNL A   1      31.315  27.484  26.669  1.00  0.00     0.009 A 
ATOM     14  C   UNL A   1      33.232  26.152  26.070  1.00  0.00     0.047 A 
ATOM     15  O   UNL A   1      35.017  24.761  25.497  1.00  0.00    -0.269 OA
ATOM     16  C   UNL A   1      32.107  28.637  26.637  1.00  0.00     0.001 A 
ATOM     17  C   UNL A   1      34.031  27.304  26.049  1.00  0.00     0.014 A 
ATOM     18  C   UNL A   1      33.464  28.546  26.331  1.00  0.00     0.001 A 
BRANCH   9  19
ATOM     19  C   UNL A   1      30.696  22.598  26.144  1.00  0.00     0.051 C 
ATOM     20  C   UNL A   1      29.552  22.711  27.143  1.00  0.00     0.010 C 
ENDBRANCH   9  19
ENDBRANCH   7   8
ENDBRANCH   4   7
ENDBRANCH   2   3
ENDBRANCH   1   2
BRANCH   1  21
ATOM     21  C   UNL A   1      38.780  20.675  25.727  1.00  0.00     0.118 C 
BRANCH  21  22
ATOM     22  N   UNL A   1      39.792  19.623  25.697  1.00  0.00    -0.352 N 
ATOM     23  C   UNL A   1      41.131  19.676  26.007  1.00  0.00     0.251 C 
ATOM     24  H   UNL A   1      39.466  18.739  25.410  1.00  0.00     0.163 HD
ATOM     25  O   UNL A   1      41.855  18.716  25.776  1.00  0.00    -0.269 OA
BRANCH  23  26
ATOM     26  C   UNL A   1      41.700  20.913  26.583  1.00  0.00     0.039 A 
ATOM     27  C   UNL A   1      41.691  21.122  27.962  1.00  0.00     0.014 A 
ATOM     28  C   UNL A   1      42.214  21.888  25.724  1.00  0.00     0.014 A 
ATOM     29  C   UNL A   1      42.015  22.376  28.467  1.00  0.00     0.010 A 
ATOM     30  C   UNL A   1      42.625  23.117  26.244  1.00  0.00     0.010 A 
ATOM     31  C   UNL A   1      42.473  23.391  27.612  1.00  0.00    -0.014 A 
BRANCH  31  32
ATOM     32  C   UNL A   1      42.754  24.739  28.166  1.00  0.00     0.031 A 
ATOM     33  C   UNL A   1      44.164  25.144  28.505  1.00  0.00     0.074 A 
ATOM     34  C   UNL A   1      41.746  25.617  28.309  1.00  0.00     0.049 A 
ATOM     35  N   UNL A   1      44.600  26.267  29.017  1.00  0.00    -0.248 NA
ATOM     36  C   UNL A   1      45.223  24.156  28.243  1.00  0.00     0.031 C 
ATOM     37  C   UNL A   1      40.342  25.350  27.992  1.00  0.00     0.029 A 
ATOM     38  N   UNL A   1      41.748  26.918  28.740  1.00  0.00    -0.354 N 
ATOM     39  C   UNL A   1      45.973  26.112  29.163  1.00  0.00     0.074 A 
ATOM     40  C   UNL A   1      46.298  24.778  28.707  1.00  0.00     0.031 C 
ATOM     41  C   UNL A   1      39.625  26.466  28.196  1.00  0.00     0.029 A 
ATOM     42  C   UNL A   1      40.506  27.504  28.718  1.00  0.00     0.049 A 
ATOM     43  H   UNL A   1      42.561  27.389  29.035  1.00  0.00     0.167 HD
ATOM     44  C   UNL A   1      46.881  27.004  29.627  1.00  0.00     0.037 A 
ATOM     45  C   UNL A   1      40.115  28.733  29.100  1.00  0.00     0.037 A 
ATOM     46  C   UNL A   1      46.560  28.341  30.050  1.00  0.00     0.049 A 
ATOM     47  C   UNL A   1      41.135  29.686  29.652  1.00  0.00     0.074 A 
ATOM     48  C   UNL A   1      47.412  29.331  30.509  1.00  0.00     0.029 A 
ATOM     49  N   UNL A   1      45.281  28.878  30.064  1.00  0.00    -0.354 N 
ATOM     50  N   UNL A   1      42.429  29.524  29.786  1.00  0.00    -0.248 NA
ATOM     51  C   UNL A   1      40.637  30.986  30.119  1.00  0.00     0.031 C 
ATOM     52  C   UNL A   1      46.644  30.454  30.835  1.00  0.00     0.029 A 
ATOM     53  C   UNL A   1      45.318  30.177  30.544  1.00  0.00     0.049 A 
ATOM     54  H   UNL A   1      44.467  28.406  29.775  1.00  0.00     0.167 HD
ATOM     55  C   UNL A   1      42.902  30.703  30.344  1.00  0.00     0.074 A 
ATOM     56  C   UNL A   1      41.759  31.580  30.504  1.00  0.00     0.031 C 
ATOM     57  C   UNL A   1      44.169  31.030  30.697  1.00  0.00     0.037 A 
BRANCH  44  58
ATOM     58  C   UNL A   1      48.309  26.552  29.720  1.00  0.00     0.057 A 
ATOM     59  C   UNL A   1      49.199  26.785  28.662  1.00  0.00     0.134 A 
ATOM     60  C   UNL A   1      48.800  25.863  30.835  1.00  0.00     0.134 A 
ATOM     61  F   UNL A   1      48.793  27.435  27.562  1.00  0.00    -0.206 F 
ATOM     62  C   UNL A   1      50.524  26.349  28.712  1.00  0.00     0.040 A 
ATOM     63  C   UNL A   1      50.130  25.440  30.906  1.00  0.00     0.040 A 
ATOM     64  F   UNL A   1      48.006  25.620  31.889  1.00  0.00    -0.206 F 
ATOM     65  C   UNL A   1      50.994  25.679  29.840  1.00  0.00     0.006 A 
ENDBRANCH  44  58
BRANCH  45  66
ATOM     66  C   UNL A   1      38.688  29.121  28.993  1.00  0.00     0.057 A 
ATOM     67  C   UNL A   1      38.146  29.576  27.785  1.00  0.00     0.134 A 
ATOM     68  C   UNL A   1      37.834  29.047  30.098  1.00  0.00     0.134 A 
ATOM     69  F   UNL A   1      38.916  29.672  26.691  1.00  0.00    -0.206 F 
ATOM     70  C   UNL A   1      36.809  29.959  27.683  1.00  0.00     0.040 A 
ATOM     71  C   UNL A   1      36.488  29.404  30.004  1.00  0.00     0.040 A 
ATOM     72  F   UNL A   1      38.291  28.600  31.277  1.00  0.00    -0.206 F 
ATOM     73  C   UNL A   1      35.974  29.868  28.794  1.00  0.00     0.006 A 
ENDBRANCH  45  66
BRANCH  57  74
ATOM     74  C   UNL A   1      44.378  32.397  31.274  1.00  0.00     0.057 A 
ATOM     75  C   UNL A   1      44.310  32.607  32.657  1.00  0.00     0.134 A 
ATOM     76  C   UNL A   1      44.625  33.508  30.459  1.00  0.00     0.134 A 
ATOM     77  F   UNL A   1      44.071  31.583  33.490  1.00  0.00    -0.206 F 
ATOM     78  C   UNL A   1      44.480  33.877  33.209  1.00  0.00     0.040 A 
ATOM     79  C   UNL A   1      44.818  34.779  31.002  1.00  0.00     0.040 A 
ATOM     80  F   UNL A   1      44.718  33.368  29.128  1.00  0.00    -0.206 F 
ATOM     81  C   UNL A   1      44.740  34.966  32.381  1.00  0.00     0.006 A 
ENDBRANCH  57  74
ENDBRANCH  31  32
ENDBRANCH  23  26
ENDBRANCH  21  22
ENDBRANCH   1  21
TORSDOF 12
ENDMDL
MODEL 3
REMARK VINA RESULT:     -11.3      4.211      9.564
REMARK SMILES CCc1cc2ccccc2c(=O)n1CC(=O)NCCCNC(=O)c1ccc(-c2c3nc(c(-c4c(F)cccc4F)c4ccc([nH]4)c(-c4c(F)cccc4F)c4nc(c(-c5c(F)cccc5F)c5ccc2[nH]5)C=C4)C=C3)cc1
REMARK SMILES IDX 19 1 18 2 17 3 15 4 16 5 14 7 13 8 3 9 4 10 5 11 11 12 6 13
REMARK SMILES IDX 10 14 12 15 7 16 9 17 8 18 2 19 1 20 20 21 21 22 22 23 23 25
REMARK SMILES IDX 24 26 25 27 77 28 26 29 76 30 27 31 28 32 29 33 70 34 30 35
REMARK SMILES IDX 75 36 69 37 71 38 31 39 74 40 68 41 67 42 32 44 58 45 41 46
REMARK SMILES IDX 57 47 42 48 45 49 56 50 72 51 43 52 44 53 55 55 73 56 46 57
REMARK SMILES IDX 33 58 34 59 39 60 35 61 36 62 38 63 40 64 37 65 59 66 60 67
REMARK SMILES IDX 65 68 61 69 62 70 64 71 66 72 63 73 47 74 48 75 53 76 49 77
REMARK SMILES IDX 50 78 52 79 54 80 51 81
REMARK H PARENT 17 6 21 24 71 43 45 54
REMARK Flexibility Score: inf
ROOT
ATOM      1  C   UNL A   1      44.904  21.123  24.507  1.00  0.00     0.042 C 
ENDROOT
BRANCH   1   2
ATOM      2  C   UNL A   1      46.393  21.387  24.365  1.00  0.00     0.117 C 
BRANCH   2   3
ATOM      3  N   UNL A   1      46.689  22.655  23.740  1.00  0.00    -0.354 N 
ATOM      4  C   UNL A   1      46.824  23.882  24.327  1.00  0.00     0.240 C 
ATOM      5  O   UNL A   1      47.423  24.748  23.682  1.00  0.00    -0.273 OA
ATOM      6  H   UNL A   1      46.809  22.633  22.762  1.00  0.00     0.163 HD
BRANCH   4   7
ATOM      7  C   UNL A   1      46.424  24.108  25.798  1.00  0.00     0.225 C 
BRANCH   7   8
ATOM      8  N   UNL A   1      45.803  25.406  26.088  1.00  0.00    -0.303 N 
ATOM      9  C   UNL A   1      46.478  26.474  26.703  1.00  0.00     0.022 A 
ATOM     10  C   UNL A   1      45.835  27.636  26.929  1.00  0.00     0.030 A 
ATOM     11  C   UNL A   1      44.445  27.832  26.529  1.00  0.00    -0.011 A 
ATOM     12  C   UNL A   1      44.513  25.564  25.536  1.00  0.00     0.259 A 
ATOM     13  C   UNL A   1      43.756  29.011  26.834  1.00  0.00     0.009 A 
ATOM     14  C   UNL A   1      43.794  26.827  25.816  1.00  0.00     0.047 A 
ATOM     15  O   UNL A   1      43.950  24.701  24.865  1.00  0.00    -0.269 OA
ATOM     16  C   UNL A   1      42.426  29.175  26.429  1.00  0.00     0.001 A 
ATOM     17  C   UNL A   1      42.466  26.993  25.400  1.00  0.00     0.014 A 
ATOM     18  C   UNL A   1      41.784  28.169  25.709  1.00  0.00     0.001 A 
BRANCH   9  19
ATOM     19  C   UNL A   1      47.927  26.359  27.147  1.00  0.00     0.051 C 
ATOM     20  C   UNL A   1      48.942  26.897  26.146  1.00  0.00     0.010 C 
ENDBRANCH   9  19
ENDBRANCH   7   8
ENDBRANCH   4   7
ENDBRANCH   2   3
ENDBRANCH   1   2
BRANCH   1  21
ATOM     21  C   UNL A   1      44.580  20.056  25.545  1.00  0.00     0.118 C 
BRANCH  21  22
ATOM     22  N   UNL A   1      43.254  19.473  25.365  1.00  0.00    -0.352 N 
ATOM     23  C   UNL A   1      42.037  19.876  25.862  1.00  0.00     0.251 C 
ATOM     24  H   UNL A   1      43.226  18.667  24.800  1.00  0.00     0.163 HD
ATOM     25  O   UNL A   1      41.048  19.168  25.721  1.00  0.00    -0.269 OA
BRANCH  23  26
ATOM     26  C   UNL A   1      41.936  21.151  26.603  1.00  0.00     0.039 A 
ATOM     27  C   UNL A   1      41.628  22.337  25.937  1.00  0.00     0.014 A 
ATOM     28  C   UNL A   1      42.189  21.159  27.978  1.00  0.00     0.014 A 
ATOM     29  C   UNL A   1      41.763  23.551  26.599  1.00  0.00     0.010 A 
ATOM     30  C   UNL A   1      42.235  22.376  28.663  1.00  0.00     0.010 A 
ATOM     31  C   UNL A   1      42.080  23.584  27.966  1.00  0.00    -0.014 A 
BRANCH  31  32
ATOM     32  C   UNL A   1      42.279  24.892  28.638  1.00  0.00     0.031 A 
ATOM     33  C   UNL A   1      43.611  25.242  29.246  1.00  0.00     0.074 A 
ATOM     34  C   UNL A   1      41.274  25.788  28.651  1.00  0.00     0.049 A 
ATOM     35  N   UNL A   1      43.966  26.325  29.891  1.00  0.00    -0.248 NA
ATOM     36  C   UNL A   1      44.684  24.243  29.120  1.00  0.00     0.031 C 
ATOM     37  C   UNL A   1      39.946  25.574  28.073  1.00  0.00     0.029 A 
ATOM     38  N   UNL A   1      41.220  27.063  29.149  1.00  0.00    -0.354 N 
ATOM     39  C   UNL A   1      45.288  26.127  30.271  1.00  0.00     0.074 A 
ATOM     40  C   UNL A   1      45.668  24.811  29.803  1.00  0.00     0.031 C 
ATOM     41  C   UNL A   1      39.222  26.695  28.211  1.00  0.00     0.029 A 
ATOM     42  C   UNL A   1      40.011  27.681  28.941  1.00  0.00     0.049 A 
ATOM     43  H   UNL A   1      41.975  27.496  29.611  1.00  0.00     0.167 HD
ATOM     44  C   UNL A   1      46.111  26.969  30.939  1.00  0.00     0.037 A 
ATOM     45  C   UNL A   1      39.577  28.897  29.317  1.00  0.00     0.037 A 
ATOM     46  C   UNL A   1      45.741  28.289  31.376  1.00  0.00     0.049 A 
ATOM     47  C   UNL A   1      40.497  29.792  30.096  1.00  0.00     0.074 A 
ATOM     48  C   UNL A   1      46.512  29.230  32.035  1.00  0.00     0.029 A 
ATOM     49  N   UNL A   1      44.489  28.856  31.192  1.00  0.00    -0.354 N 
ATOM     50  N   UNL A   1      41.743  29.590  30.449  1.00  0.00    -0.248 NA
ATOM     51  C   UNL A   1      39.943  31.078  30.542  1.00  0.00     0.031 C 
ATOM     52  C   UNL A   1      45.715  30.353  32.284  1.00  0.00     0.029 A 
ATOM     53  C   UNL A   1      44.459  30.127  31.745  1.00  0.00     0.049 A 
ATOM     54  H   UNL A   1      43.732  28.422  30.737  1.00  0.00     0.167 HD
ATOM     55  C   UNL A   1      42.126  30.724  31.149  1.00  0.00     0.074 A 
ATOM     56  C   UNL A   1      40.987  31.620  31.154  1.00  0.00     0.031 C 
ATOM     57  C   UNL A   1      43.314  30.999  31.741  1.00  0.00     0.037 A 
BRANCH  44  58
ATOM     58  C   UNL A   1      47.493  26.475  31.259  1.00  0.00     0.057 A 
ATOM     59  C   UNL A   1      47.699  25.572  32.311  1.00  0.00     0.134 A 
ATOM     60  C   UNL A   1      48.620  26.911  30.553  1.00  0.00     0.134 A 
ATOM     61  F   UNL A   1      46.663  25.118  33.031  1.00  0.00    -0.206 F 
ATOM     62  C   UNL A   1      48.976  25.121  32.647  1.00  0.00     0.040 A 
ATOM     63  C   UNL A   1      49.901  26.450  30.865  1.00  0.00     0.040 A 
ATOM     64  F   UNL A   1      48.491  27.763  29.524  1.00  0.00    -0.206 F 
ATOM     65  C   UNL A   1      50.082  25.556  31.918  1.00  0.00     0.006 A 
ENDBRANCH  44  58
BRANCH  45  66
ATOM     66  C   UNL A   1      38.199  29.326  28.981  1.00  0.00     0.057 A 
ATOM     67  C   UNL A   1      37.179  29.313  29.939  1.00  0.00     0.134 A 
ATOM     68  C   UNL A   1      37.870  29.757  27.692  1.00  0.00     0.134 A 
ATOM     69  F   UNL A   1      37.431  28.906  31.192  1.00  0.00    -0.206 F 
ATOM     70  C   UNL A   1      35.875  29.697  29.624  1.00  0.00     0.040 A 
ATOM     71  C   UNL A   1      36.575  30.169  27.369  1.00  0.00     0.040 A 
ATOM     72  F   UNL A   1      38.810  29.811  26.736  1.00  0.00    -0.206 F 
ATOM     73  C   UNL A   1      35.572  30.133  28.336  1.00  0.00     0.006 A 
ENDBRANCH  45  66
BRANCH  57  74
ATOM     74  C   UNL A   1      43.438  32.327  32.424  1.00  0.00     0.057 A 
ATOM     75  C   UNL A   1      43.125  32.464  33.782  1.00  0.00     0.134 A 
ATOM     76  C   UNL A   1      43.846  33.474  31.732  1.00  0.00     0.134 A 
ATOM     77  F   UNL A   1      42.724  31.403  34.499  1.00  0.00    -0.206 F 
ATOM     78  C   UNL A   1      43.213  33.697  34.428  1.00  0.00     0.040 A 
ATOM     79  C   UNL A   1      43.958  34.708  32.373  1.00  0.00     0.040 A 
ATOM     80  F   UNL A   1      44.175  33.403  30.433  1.00  0.00    -0.206 F 
ATOM     81  C   UNL A   1      43.636  34.822  33.724  1.00  0.00     0.006 A 
ENDBRANCH  57  74
ENDBRANCH  31  32
ENDBRANCH  23  26
ENDBRANCH  21  22
ENDBRANCH   1  21
TORSDOF 12
ENDMDL
