MODEL 1
REMARK VINA RESULT:     -12.2      0.000      0.000
REMARK SMILES O=C(NCCCNC(=O)[C@@H](CCCCl)P(=O)(c1ccccc1)c1ccccc1)c1ccc(-c2c3nc(c(-c4c(F)cccc4F)c4ccc([nH]4)c(-c4c(F)cccc4F)c4nc(c(-c5c(F)cccc5F)c5ccc2[nH]5)C=C4)C=C3)cc1
REMARK SMILES IDX 5 1 4 2 3 3 1 4 2 5 29 7 30 8 82 9 31 10 81 11 32 12 33 13
REMARK SMILES IDX 34 14 75 15 35 16 80 17 74 18 76 19 36 20 79 21 73 22 72 23
REMARK SMILES IDX 37 25 63 26 46 27 62 28 47 29 50 30 61 31 77 32 48 33 49 34
REMARK SMILES IDX 60 36 78 37 51 38 38 39 39 40 44 41 40 42 41 43 43 44 45 45
REMARK SMILES IDX 42 46 64 47 65 48 70 49 66 50 67 51 69 52 71 53 68 54 52 55
REMARK SMILES IDX 53 56 58 57 54 58 55 59 57 60 59 61 56 62 6 63 7 64 8 65
REMARK SMILES IDX 9 67 10 68 11 69 12 70 13 71 14 72 15 73 16 74 17 75 18 76
REMARK SMILES IDX 22 77 19 78 21 79 20 80 23 81 24 82 28 83 25 84 27 85 26 86
REMARK H PARENT 3 6 76 24 50 35 7 66
REMARK Flexibility Score: inf
ROOT
ATOM      1  C   UNL A   1      31.442  31.153  26.055  1.00  0.00     0.042 C 
ENDROOT
BRANCH   1   2
ATOM      2  C   UNL A   1      32.440  31.644  27.069  1.00  0.00     0.118 C 
BRANCH   2   3
ATOM      3  N   UNL A   1      32.295  33.062  27.321  1.00  0.00    -0.352 N 
ATOM      4  O   UNL A   1      32.535  34.978  28.460  1.00  0.00    -0.269 OA
ATOM      5  C   UNL A   1      33.013  33.889  28.151  1.00  0.00     0.251 C 
ATOM      6  H   UNL A   1      31.570  33.502  26.821  1.00  0.00     0.163 HD
BRANCH   5   7
ATOM      7  C   UNL A   1      34.341  33.490  28.683  1.00  0.00     0.039 A 
ATOM      8  C   UNL A   1      34.461  32.737  29.851  1.00  0.00     0.014 A 
ATOM      9  C   UNL A   1      35.494  33.799  27.951  1.00  0.00     0.014 A 
ATOM     10  C   UNL A   1      35.712  32.435  30.371  1.00  0.00     0.010 A 
ATOM     11  C   UNL A   1      36.747  33.362  28.396  1.00  0.00     0.010 A 
ATOM     12  C   UNL A   1      36.867  32.682  29.616  1.00  0.00    -0.014 A 
BRANCH  12  13
ATOM     13  C   UNL A   1      38.153  32.092  30.066  1.00  0.00     0.031 A 
ATOM     14  C   UNL A   1      39.032  32.790  31.061  1.00  0.00     0.074 A 
ATOM     15  C   UNL A   1      38.515  30.894  29.562  1.00  0.00     0.049 A 
ATOM     16  N   UNL A   1      40.186  32.408  31.547  1.00  0.00    -0.248 NA
ATOM     17  C   UNL A   1      38.564  34.087  31.571  1.00  0.00     0.031 C 
ATOM     18  C   UNL A   1      37.745  30.126  28.575  1.00  0.00     0.029 A 
ATOM     19  N   UNL A   1      39.604  30.100  29.814  1.00  0.00    -0.354 N 
ATOM     20  C   UNL A   1      40.592  33.421  32.404  1.00  0.00     0.074 A 
ATOM     21  C   UNL A   1      39.576  34.451  32.347  1.00  0.00     0.031 C 
ATOM     22  C   UNL A   1      38.354  28.955  28.351  1.00  0.00     0.029 A 
ATOM     23  C   UNL A   1      39.601  28.925  29.102  1.00  0.00     0.049 A 
ATOM     24  H   UNL A   1      40.318  30.348  30.444  1.00  0.00     0.167 HD
ATOM     25  C   UNL A   1      41.708  33.480  33.170  1.00  0.00     0.037 A 
ATOM     26  C   UNL A   1      40.515  27.940  29.031  1.00  0.00     0.037 A 
ATOM     27  C   UNL A   1      42.715  32.448  33.211  1.00  0.00     0.049 A 
ATOM     28  C   UNL A   1      41.767  28.062  29.846  1.00  0.00     0.074 A 
ATOM     29  C   UNL A   1      43.868  32.399  33.975  1.00  0.00     0.029 A 
ATOM     30  N   UNL A   1      42.698  31.291  32.443  1.00  0.00    -0.354 N 
ATOM     31  N   UNL A   1      42.118  29.007  30.683  1.00  0.00    -0.248 NA
ATOM     32  C   UNL A   1      42.753  26.983  29.703  1.00  0.00     0.031 C 
ATOM     33  C   UNL A   1      44.581  31.250  33.620  1.00  0.00     0.029 A 
ATOM     34  C   UNL A   1      43.838  30.541  32.690  1.00  0.00     0.049 A 
ATOM     35  H   UNL A   1      41.982  31.040  31.816  1.00  0.00     0.167 HD
ATOM     36  C   UNL A   1      43.354  28.626  31.187  1.00  0.00     0.074 A 
ATOM     37  C   UNL A   1      43.678  27.353  30.577  1.00  0.00     0.031 C 
ATOM     38  C   UNL A   1      44.148  29.275  32.074  1.00  0.00     0.037 A 
BRANCH  25  39
ATOM     39  C   UNL A   1      41.916  34.714  34.003  1.00  0.00     0.057 A 
ATOM     40  C   UNL A   1      42.573  35.850  33.507  1.00  0.00     0.134 A 
ATOM     41  C   UNL A   1      41.421  34.781  35.313  1.00  0.00     0.134 A 
ATOM     42  F   UNL A   1      43.081  35.853  32.265  1.00  0.00    -0.206 F 
ATOM     43  C   UNL A   1      42.757  36.991  34.291  1.00  0.00     0.040 A 
ATOM     44  C   UNL A   1      41.571  35.928  36.095  1.00  0.00     0.040 A 
ATOM     45  F   UNL A   1      40.775  33.737  35.851  1.00  0.00    -0.206 F 
ATOM     46  C   UNL A   1      42.248  37.033  35.588  1.00  0.00     0.006 A 
ENDBRANCH  25  39
BRANCH  26  47
ATOM     47  C   UNL A   1      40.283  26.774  28.140  1.00  0.00     0.057 A 
ATOM     48  C   UNL A   1      39.491  25.696  28.549  1.00  0.00     0.134 A 
ATOM     49  C   UNL A   1      40.844  26.712  26.857  1.00  0.00     0.134 A 
ATOM     50  F   UNL A   1      38.936  25.690  29.769  1.00  0.00    -0.206 F 
ATOM     51  C   UNL A   1      39.284  24.587  27.725  1.00  0.00     0.040 A 
ATOM     52  C   UNL A   1      40.618  25.626  26.011  1.00  0.00     0.040 A 
ATOM     53  F   UNL A   1      41.603  27.718  26.399  1.00  0.00    -0.206 F 
ATOM     54  C   UNL A   1      39.845  24.555  26.449  1.00  0.00     0.006 A 
ENDBRANCH  26  47
BRANCH  38  55
ATOM     55  C   UNL A   1      45.427  28.592  32.469  1.00  0.00     0.057 A 
ATOM     56  C   UNL A   1      45.485  27.666  33.518  1.00  0.00     0.134 A 
ATOM     57  C   UNL A   1      46.614  28.852  31.771  1.00  0.00     0.134 A 
ATOM     58  F   UNL A   1      44.389  27.384  34.238  1.00  0.00    -0.206 F 
ATOM     59  C   UNL A   1      46.683  27.045  33.878  1.00  0.00     0.040 A 
ATOM     60  C   UNL A   1      47.810  28.210  32.098  1.00  0.00     0.040 A 
ATOM     61  F   UNL A   1      46.629  29.722  30.751  1.00  0.00    -0.206 F 
ATOM     62  C   UNL A   1      47.847  27.311  33.161  1.00  0.00     0.006 A 
ENDBRANCH  38  55
ENDBRANCH  12  13
ENDBRANCH   5   7
ENDBRANCH   2   3
ENDBRANCH   1   2
BRANCH   1  63
ATOM     63  C   UNL A   1      31.697  29.761  25.478  1.00  0.00     0.117 C 
BRANCH  63  64
ATOM     64  N   UNL A   1      32.909  29.630  24.689  1.00  0.00    -0.355 N 
ATOM     65  C   UNL A   1      33.234  28.901  23.581  1.00  0.00     0.231 C 
ATOM     66  H   UNL A   1      33.652  30.184  25.022  1.00  0.00     0.163 HD
ATOM     67  O   UNL A   1      34.166  29.388  22.925  1.00  0.00    -0.274 OA
BRANCH  65  68
ATOM     68  C   UNL A   1      32.716  27.514  23.224  1.00  0.00     0.148 C 
BRANCH  68  69
ATOM     69  C   UNL A   1      33.417  26.388  23.961  1.00  0.00     0.023 C 
BRANCH  69  70
ATOM     70  C   UNL A   1      33.988  25.278  23.059  1.00  0.00     0.017 C 
BRANCH  70  71
ATOM     71  C   UNL A   1      34.815  23.845  23.598  1.00  0.00     0.109 C 
ATOM     72  Cl  UNL A   1      36.587  23.630  25.398  1.00  0.00    -0.127 Cl
ENDBRANCH  70  71
ENDBRANCH  69  70
ENDBRANCH  68  69
BRANCH  68  73
ATOM     73  P   UNL A   1      31.057  27.068  22.627  1.00  0.00     0.155 P 
ATOM     74  O   UNL A   1      31.179  26.543  21.210  1.00  0.00    -0.313 OA
BRANCH  73  75
ATOM     75  C   UNL A   1      30.375  25.599  23.785  1.00  0.00     0.017 A 
ATOM     76  C   UNL A   1      30.582  26.179  25.481  1.00  0.00     0.012 A 
ATOM     77  C   UNL A   1      30.704  23.840  23.411  1.00  0.00     0.012 A 
ATOM     78  C   UNL A   1      31.298  25.128  26.715  1.00  0.00     0.001 A 
ATOM     79  C   UNL A   1      31.427  22.770  24.705  1.00  0.00     0.001 A 
ATOM     80  C   UNL A   1      31.708  23.426  26.353  1.00  0.00     0.000 A 
ENDBRANCH  73  75
BRANCH  73  81
ATOM     81  C   UNL A   1      29.838  28.445  22.757  1.00  0.00     0.017 A 
ATOM     82  C   UNL A   1      28.512  28.325  23.220  1.00  0.00     0.012 A 
ATOM     83  C   UNL A   1      30.156  29.621  22.062  1.00  0.00     0.012 A 
ATOM     84  C   UNL A   1      27.507  29.210  22.802  1.00  0.00     0.001 A 
ATOM     85  C   UNL A   1      29.163  30.534  21.686  1.00  0.00     0.001 A 
ATOM     86  C   UNL A   1      27.829  30.297  22.005  1.00  0.00     0.000 A 
ENDBRANCH  73  81
ENDBRANCH  68  73
ENDBRANCH  65  68
ENDBRANCH  63  64
ENDBRANCH   1  63
TORSDOF 16
ENDMDL
MODEL 2
REMARK VINA RESULT:     -11.9      0.312      6.169
REMARK SMILES O=C(NCCCNC(=O)[C@@H](CCCCl)P(=O)(c1ccccc1)c1ccccc1)c1ccc(-c2c3nc(c(-c4c(F)cccc4F)c4ccc([nH]4)c(-c4c(F)cccc4F)c4nc(c(-c5c(F)cccc5F)c5ccc2[nH]5)C=C4)C=C3)cc1
REMARK SMILES IDX 5 1 4 2 3 3 1 4 2 5 29 7 30 8 82 9 31 10 81 11 32 12 33 13
REMARK SMILES IDX 34 14 75 15 35 16 80 17 74 18 76 19 36 20 79 21 73 22 72 23
REMARK SMILES IDX 37 25 63 26 46 27 62 28 47 29 50 30 61 31 77 32 48 33 49 34
REMARK SMILES IDX 60 36 78 37 51 38 38 39 39 40 44 41 40 42 41 43 43 44 45 45
REMARK SMILES IDX 42 46 64 47 65 48 70 49 66 50 67 51 69 52 71 53 68 54 52 55
REMARK SMILES IDX 53 56 58 57 54 58 55 59 57 60 59 61 56 62 6 63 7 64 8 65
REMARK SMILES IDX 9 67 10 68 11 69 12 70 13 71 14 72 15 73 16 74 17 75 18 76
REMARK SMILES IDX 22 77 19 78 21 79 20 80 23 81 24 82 28 83 25 84 27 85 26 86
REMARK H PARENT 3 6 76 24 50 35 7 66
REMARK Flexibility Score: inf
ROOT
ATOM      1  C   UNL A   1      31.383  31.067  26.070  1.00  0.00     0.042 C 
ENDROOT
BRANCH   1   2
ATOM      2  C   UNL A   1      32.461  31.578  26.987  1.00  0.00     0.118 C 
BRANCH   2   3
ATOM      3  N   UNL A   1      32.290  32.985  27.282  1.00  0.00    -0.352 N 
ATOM      4  O   UNL A   1      32.492  34.870  28.481  1.00  0.00    -0.269 OA
ATOM      5  C   UNL A   1      32.990  33.799  28.141  1.00  0.00     0.251 C 
ATOM      6  H   UNL A   1      31.559  33.428  26.793  1.00  0.00     0.163 HD
BRANCH   5   7
ATOM      7  C   UNL A   1      34.322  33.407  28.667  1.00  0.00     0.039 A 
ATOM      8  C   UNL A   1      34.450  32.631  29.819  1.00  0.00     0.014 A 
ATOM      9  C   UNL A   1      35.472  33.746  27.943  1.00  0.00     0.014 A 
ATOM     10  C   UNL A   1      35.705  32.336  30.335  1.00  0.00     0.010 A 
ATOM     11  C   UNL A   1      36.731  33.316  28.381  1.00  0.00     0.010 A 
ATOM     12  C   UNL A   1      36.858  32.613  29.587  1.00  0.00    -0.014 A 
BRANCH  12  13
ATOM     13  C   UNL A   1      38.151  32.031  30.028  1.00  0.00     0.031 A 
ATOM     14  C   UNL A   1      38.638  30.713  29.503  1.00  0.00     0.074 A 
ATOM     15  C   UNL A   1      38.893  32.727  30.914  1.00  0.00     0.049 A 
ATOM     16  N   UNL A   1      39.739  30.070  29.796  1.00  0.00    -0.248 NA
ATOM     17  C   UNL A   1      37.777  30.021  28.533  1.00  0.00     0.031 C 
ATOM     18  C   UNL A   1      38.513  34.016  31.505  1.00  0.00     0.029 A 
ATOM     19  N   UNL A   1      40.122  32.467  31.463  1.00  0.00    -0.354 N 
ATOM     20  C   UNL A   1      39.698  28.891  29.063  1.00  0.00     0.074 A 
ATOM     21  C   UNL A   1      38.446  28.893  28.337  1.00  0.00     0.031 C 
ATOM     22  C   UNL A   1      39.509  34.457  32.284  1.00  0.00     0.029 A 
ATOM     23  C   UNL A   1      40.556  33.445  32.324  1.00  0.00     0.049 A 
ATOM     24  H   UNL A   1      40.644  31.657  31.259  1.00  0.00     0.167 HD
ATOM     25  C   UNL A   1      40.625  27.904  29.002  1.00  0.00     0.037 A 
ATOM     26  C   UNL A   1      41.658  33.513  33.092  1.00  0.00     0.037 A 
ATOM     27  C   UNL A   1      41.865  27.914  29.737  1.00  0.00     0.049 A 
ATOM     28  C   UNL A   1      42.636  32.377  33.046  1.00  0.00     0.074 A 
ATOM     29  C   UNL A   1      42.884  26.977  29.722  1.00  0.00     0.029 A 
ATOM     30  N   UNL A   1      42.250  28.904  30.633  1.00  0.00    -0.354 N 
ATOM     31  N   UNL A   1      42.603  31.289  32.318  1.00  0.00    -0.248 NA
ATOM     32  C   UNL A   1      43.803  32.478  33.932  1.00  0.00     0.031 C 
ATOM     33  C   UNL A   1      43.849  27.363  30.657  1.00  0.00     0.029 A 
ATOM     34  C   UNL A   1      43.472  28.580  31.201  1.00  0.00     0.049 A 
ATOM     35  H   UNL A   1      41.730  29.716  30.834  1.00  0.00     0.167 HD
ATOM     36  C   UNL A   1      43.755  30.584  32.638  1.00  0.00     0.074 A 
ATOM     37  C   UNL A   1      44.475  31.383  33.609  1.00  0.00     0.031 C 
ATOM     38  C   UNL A   1      44.177  29.384  32.169  1.00  0.00     0.037 A 
BRANCH  25  39
ATOM     39  C   UNL A   1      40.319  26.715  28.134  1.00  0.00     0.057 A 
ATOM     40  C   UNL A   1      39.443  25.698  28.540  1.00  0.00     0.134 A 
ATOM     41  C   UNL A   1      40.883  26.604  26.855  1.00  0.00     0.134 A 
ATOM     42  F   UNL A   1      38.875  25.735  29.755  1.00  0.00    -0.206 F 
ATOM     43  C   UNL A   1      39.166  24.601  27.722  1.00  0.00     0.040 A 
ATOM     44  C   UNL A   1      40.587  25.528  26.016  1.00  0.00     0.040 A 
ATOM     45  F   UNL A   1      41.722  27.544  26.396  1.00  0.00    -0.206 F 
ATOM     46  C   UNL A   1      39.734  24.518  26.452  1.00  0.00     0.006 A 
ENDBRANCH  25  39
BRANCH  26  47
ATOM     47  C   UNL A   1      41.875  34.685  33.979  1.00  0.00     0.057 A 
ATOM     48  C   UNL A   1      41.430  34.682  35.306  1.00  0.00     0.134 A 
ATOM     49  C   UNL A   1      42.533  35.835  33.522  1.00  0.00     0.134 A 
ATOM     50  F   UNL A   1      40.783  33.616  35.798  1.00  0.00    -0.206 F 
ATOM     51  C   UNL A   1      41.612  35.787  36.139  1.00  0.00     0.040 A 
ATOM     52  C   UNL A   1      42.752  36.932  34.355  1.00  0.00     0.040 A 
ATOM     53  F   UNL A   1      42.995  35.898  32.265  1.00  0.00    -0.206 F 
ATOM     54  C   UNL A   1      42.281  36.914  35.665  1.00  0.00     0.006 A 
ENDBRANCH  26  47
BRANCH  38  55
ATOM     55  C   UNL A   1      45.501  28.883  32.673  1.00  0.00     0.057 A 
ATOM     56  C   UNL A   1      45.604  28.054  33.798  1.00  0.00     0.134 A 
ATOM     57  C   UNL A   1      46.687  29.219  32.008  1.00  0.00     0.134 A 
ATOM     58  F   UNL A   1      44.510  27.708  34.492  1.00  0.00    -0.206 F 
ATOM     59  C   UNL A   1      46.843  27.602  34.259  1.00  0.00     0.040 A 
ATOM     60  C   UNL A   1      47.926  28.743  32.437  1.00  0.00     0.040 A 
ATOM     61  F   UNL A   1      46.660  30.003  30.919  1.00  0.00    -0.206 F 
ATOM     62  C   UNL A   1      48.007  27.940  33.572  1.00  0.00     0.006 A 
ENDBRANCH  38  55
ENDBRANCH  12  13
ENDBRANCH   5   7
ENDBRANCH   2   3
ENDBRANCH   1   2
BRANCH   1  63
ATOM     63  C   UNL A   1      31.647  29.712  25.412  1.00  0.00     0.117 C 
BRANCH  63  64
ATOM     64  N   UNL A   1      32.848  29.642  24.599  1.00  0.00    -0.355 N 
ATOM     65  C   UNL A   1      33.189  28.925  23.488  1.00  0.00     0.231 C 
ATOM     66  H   UNL A   1      33.566  30.236  24.915  1.00  0.00     0.163 HD
ATOM     67  O   UNL A   1      34.081  29.456  22.811  1.00  0.00    -0.274 OA
BRANCH  65  68
ATOM     68  C   UNL A   1      32.738  27.510  23.148  1.00  0.00     0.148 C 
BRANCH  68  69
ATOM     69  C   UNL A   1      33.437  26.432  23.955  1.00  0.00     0.023 C 
BRANCH  69  70
ATOM     70  C   UNL A   1      33.982  25.252  23.130  1.00  0.00     0.017 C 
BRANCH  70  71
ATOM     71  C   UNL A   1      34.827  23.867  23.757  1.00  0.00     0.109 C 
ATOM     72  Cl  UNL A   1      35.770  23.514  26.084  1.00  0.00    -0.127 Cl
ENDBRANCH  70  71
ENDBRANCH  69  70
ENDBRANCH  68  69
BRANCH  68  73
ATOM     73  P   UNL A   1      31.130  26.987  22.479  1.00  0.00     0.155 P 
ATOM     74  O   UNL A   1      31.357  26.338  21.128  1.00  0.00    -0.313 OA
BRANCH  73  75
ATOM     75  C   UNL A   1      30.379  25.619  23.716  1.00  0.00     0.017 A 
ATOM     76  C   UNL A   1      30.559  26.309  25.372  1.00  0.00     0.012 A 
ATOM     77  C   UNL A   1      30.669  23.831  23.470  1.00  0.00     0.012 A 
ATOM     78  C   UNL A   1      31.214  25.327  26.695  1.00  0.00     0.001 A 
ATOM     79  C   UNL A   1      31.330  22.834  24.853  1.00  0.00     0.001 A 
ATOM     80  C   UNL A   1      31.587  23.594  26.460  1.00  0.00     0.000 A 
ENDBRANCH  73  75
BRANCH  73  81
ATOM     81  C   UNL A   1      29.894  28.353  22.397  1.00  0.00     0.017 A 
ATOM     82  C   UNL A   1      30.175  29.693  22.060  1.00  0.00     0.012 A 
ATOM     83  C   UNL A   1      28.656  28.105  23.006  1.00  0.00     0.012 A 
ATOM     84  C   UNL A   1      29.376  30.748  22.525  1.00  0.00     0.001 A 
ATOM     85  C   UNL A   1      27.830  29.154  23.427  1.00  0.00     0.001 A 
ATOM     86  C   UNL A   1      28.220  30.477  23.240  1.00  0.00     0.000 A 
ENDBRANCH  73  81
ENDBRANCH  68  73
ENDBRANCH  65  68
ENDBRANCH  63  64
ENDBRANCH   1  63
TORSDOF 16
ENDMDL
MODEL 3
REMARK VINA RESULT:     -11.9      1.425      6.145
REMARK SMILES O=C(NCCCNC(=O)[C@@H](CCCCl)P(=O)(c1ccccc1)c1ccccc1)c1ccc(-c2c3nc(c(-c4c(F)cccc4F)c4ccc([nH]4)c(-c4c(F)cccc4F)c4nc(c(-c5c(F)cccc5F)c5ccc2[nH]5)C=C4)C=C3)cc1
REMARK SMILES IDX 5 1 4 2 3 3 1 4 2 5 29 7 30 8 82 9 31 10 81 11 32 12 33 13
REMARK SMILES IDX 34 14 75 15 35 16 80 17 74 18 76 19 36 20 79 21 73 22 72 23
REMARK SMILES IDX 37 25 63 26 46 27 62 28 47 29 50 30 61 31 77 32 48 33 49 34
REMARK SMILES IDX 60 36 78 37 51 38 38 39 39 40 44 41 40 42 41 43 43 44 45 45
REMARK SMILES IDX 42 46 64 47 65 48 70 49 66 50 67 51 69 52 71 53 68 54 52 55
REMARK SMILES IDX 53 56 58 57 54 58 55 59 57 60 59 61 56 62 6 63 7 64 8 65
REMARK SMILES IDX 9 67 10 68 11 69 12 70 13 71 14 72 15 73 16 74 17 75 18 76
REMARK SMILES IDX 22 77 19 78 21 79 20 80 23 81 24 82 28 83 25 84 27 85 26 86
REMARK H PARENT 3 6 76 24 50 35 7 66
REMARK Flexibility Score: inf
ROOT
ATOM      1  C   UNL A   1      31.549  31.428  26.055  1.00  0.00     0.042 C 
ENDROOT
BRANCH   1   2
ATOM      2  C   UNL A   1      32.513  31.869  27.123  1.00  0.00     0.118 C 
BRANCH   2   3
ATOM      3  N   UNL A   1      32.454  33.299  27.343  1.00  0.00    -0.352 N 
ATOM      4  O   UNL A   1      32.704  35.211  28.487  1.00  0.00    -0.269 OA
ATOM      5  C   UNL A   1      33.127  34.082  28.250  1.00  0.00     0.251 C 
ATOM      6  H   UNL A   1      31.834  33.785  26.752  1.00  0.00     0.163 HD
BRANCH   5   7
ATOM      7  C   UNL A   1      34.341  33.588  28.948  1.00  0.00     0.039 A 
ATOM      8  C   UNL A   1      34.257  32.671  29.995  1.00  0.00     0.014 A 
ATOM      9  C   UNL A   1      35.604  33.983  28.489  1.00  0.00     0.014 A 
ATOM     10  C   UNL A   1      35.397  32.277  30.682  1.00  0.00     0.010 A 
ATOM     11  C   UNL A   1      36.761  33.466  29.083  1.00  0.00     0.010 A 
ATOM     12  C   UNL A   1      36.666  32.613  30.192  1.00  0.00    -0.014 A 
BRANCH  12  13
ATOM     13  C   UNL A   1      37.856  31.943  30.776  1.00  0.00     0.031 A 
ATOM     14  C   UNL A   1      38.579  30.851  30.046  1.00  0.00     0.074 A 
ATOM     15  C   UNL A   1      38.286  32.351  31.988  1.00  0.00     0.049 A 
ATOM     16  N   UNL A   1      39.627  30.164  30.425  1.00  0.00    -0.248 NA
ATOM     17  C   UNL A   1      38.056  30.470  28.726  1.00  0.00     0.031 C 
ATOM     18  C   UNL A   1      37.652  33.398  32.799  1.00  0.00     0.029 A 
ATOM     19  N   UNL A   1      39.357  31.955  32.747  1.00  0.00    -0.354 N 
ATOM     20  C   UNL A   1      39.880  29.259  29.403  1.00  0.00     0.074 A 
ATOM     21  C   UNL A   1      38.854  29.462  28.401  1.00  0.00     0.031 C 
ATOM     22  C   UNL A   1      38.376  33.599  33.908  1.00  0.00     0.029 A 
ATOM     23  C   UNL A   1      39.468  32.636  33.935  1.00  0.00     0.049 A 
ATOM     24  H   UNL A   1      39.986  31.251  32.466  1.00  0.00     0.167 HD
ATOM     25  C   UNL A   1      40.879  28.349  29.311  1.00  0.00     0.037 A 
ATOM     26  C   UNL A   1      40.332  32.485  34.954  1.00  0.00     0.037 A 
ATOM     27  C   UNL A   1      41.890  28.155  30.321  1.00  0.00     0.049 A 
ATOM     28  C   UNL A   1      41.392  31.429  34.848  1.00  0.00     0.074 A 
ATOM     29  C   UNL A   1      42.962  27.280  30.311  1.00  0.00     0.029 A 
ATOM     30  N   UNL A   1      41.945  28.835  31.532  1.00  0.00    -0.354 N 
ATOM     31  N   UNL A   1      41.643  30.609  33.858  1.00  0.00    -0.248 NA
ATOM     32  C   UNL A   1      42.285  31.275  36.003  1.00  0.00     0.031 C 
ATOM     33  C   UNL A   1      43.622  27.380  31.539  1.00  0.00     0.029 A 
ATOM     34  C   UNL A   1      43.011  28.373  32.288  1.00  0.00     0.049 A 
ATOM     35  H   UNL A   1      41.319  29.542  31.810  1.00  0.00     0.167 HD
ATOM     36  C   UNL A   1      42.739  29.857  34.258  1.00  0.00     0.074 A 
ATOM     37  C   UNL A   1      43.115  30.337  35.572  1.00  0.00     0.031 C 
ATOM     38  C   UNL A   1      43.373  28.859  33.596  1.00  0.00     0.037 A 
BRANCH  25  39
ATOM     39  C   UNL A   1      40.911  27.472  28.091  1.00  0.00     0.057 A 
ATOM     40  C   UNL A   1      41.619  27.826  26.933  1.00  0.00     0.134 A 
ATOM     41  C   UNL A   1      40.251  26.235  28.085  1.00  0.00     0.134 A 
ATOM     42  F   UNL A   1      42.266  29.000  26.864  1.00  0.00    -0.206 F 
ATOM     43  C   UNL A   1      41.643  27.000  25.808  1.00  0.00     0.040 A 
ATOM     44  C   UNL A   1      40.294  25.387  26.978  1.00  0.00     0.040 A 
ATOM     45  F   UNL A   1      39.562  25.826  29.161  1.00  0.00    -0.206 F 
ATOM     46  C   UNL A   1      40.984  25.772  25.832  1.00  0.00     0.006 A 
ENDBRANCH  25  39
BRANCH  26  47
ATOM     47  C   UNL A   1      40.211  33.340  36.164  1.00  0.00     0.057 A 
ATOM     48  C   UNL A   1      39.372  32.979  37.224  1.00  0.00     0.134 A 
ATOM     49  C   UNL A   1      40.931  34.535  36.289  1.00  0.00     0.134 A 
ATOM     50  F   UNL A   1      38.647  31.854  37.160  1.00  0.00    -0.206 F 
ATOM     51  C   UNL A   1      39.238  33.787  38.355  1.00  0.00     0.040 A 
ATOM     52  C   UNL A   1      40.832  35.334  37.428  1.00  0.00     0.040 A 
ATOM     53  F   UNL A   1      41.763  34.932  35.313  1.00  0.00    -0.206 F 
ATOM     54  C   UNL A   1      39.975  34.965  38.461  1.00  0.00     0.006 A 
ENDBRANCH  26  47
BRANCH  38  55
ATOM     55  C   UNL A   1      44.569  28.247  34.269  1.00  0.00     0.057 A 
ATOM     56  C   UNL A   1      45.859  28.774  34.120  1.00  0.00     0.134 A 
ATOM     57  C   UNL A   1      44.422  27.128  35.098  1.00  0.00     0.134 A 
ATOM     58  F   UNL A   1      46.073  29.835  33.327  1.00  0.00    -0.206 F 
ATOM     59  C   UNL A   1      46.962  28.191  34.746  1.00  0.00     0.040 A 
ATOM     60  C   UNL A   1      45.511  26.559  35.759  1.00  0.00     0.040 A 
ATOM     61  F   UNL A   1      43.214  26.577  35.292  1.00  0.00    -0.206 F 
ATOM     62  C   UNL A   1      46.788  27.085  35.576  1.00  0.00     0.006 A 
ENDBRANCH  38  55
ENDBRANCH  12  13
ENDBRANCH   5   7
ENDBRANCH   2   3
ENDBRANCH   1   2
BRANCH   1  63
ATOM     63  C   UNL A   1      31.706  29.992  25.556  1.00  0.00     0.117 C 
BRANCH  63  64
ATOM     64  N   UNL A   1      32.920  29.729  24.803  1.00  0.00    -0.355 N 
ATOM     65  C   UNL A   1      33.221  28.884  23.774  1.00  0.00     0.231 C 
ATOM     66  H   UNL A   1      33.686  30.273  25.097  1.00  0.00     0.163 HD
ATOM     67  O   UNL A   1      34.185  29.259  23.091  1.00  0.00    -0.274 OA
BRANCH  65  68
ATOM     68  C   UNL A   1      32.637  27.497  23.538  1.00  0.00     0.148 C 
BRANCH  68  69
ATOM     69  C   UNL A   1      33.082  26.462  24.554  1.00  0.00     0.023 C 
BRANCH  69  70
ATOM     70  C   UNL A   1      34.106  25.437  24.033  1.00  0.00     0.017 C 
BRANCH  70  71
ATOM     71  C   UNL A   1      34.856  24.174  24.964  1.00  0.00     0.109 C 
ATOM     72  Cl  UNL A   1      37.314  23.856  25.499  1.00  0.00    -0.127 Cl
ENDBRANCH  70  71
ENDBRANCH  69  70
ENDBRANCH  68  69
BRANCH  68  73
ATOM     73  P   UNL A   1      31.072  27.076  22.713  1.00  0.00     0.155 P 
ATOM     74  O   UNL A   1      31.373  26.666  21.285  1.00  0.00    -0.313 OA
BRANCH  73  75
ATOM     75  C   UNL A   1      30.290  25.511  23.665  1.00  0.00     0.017 A 
ATOM     76  C   UNL A   1      30.049  26.049  25.370  1.00  0.00     0.012 A 
ATOM     77  C   UNL A   1      30.865  23.805  23.353  1.00  0.00     0.012 A 
ATOM     78  C   UNL A   1      30.565  25.026  26.723  1.00  0.00     0.001 A 
ATOM     79  C   UNL A   1      31.377  22.761  24.765  1.00  0.00     0.001 A 
ATOM     80  C   UNL A   1      31.210  23.382  26.442  1.00  0.00     0.000 A 
ENDBRANCH  73  75
BRANCH  73  81
ATOM     81  C   UNL A   1      29.815  28.422  22.800  1.00  0.00     0.017 A 
ATOM     82  C   UNL A   1      28.483  28.273  23.238  1.00  0.00     0.012 A 
ATOM     83  C   UNL A   1      30.115  29.596  22.095  1.00  0.00     0.012 A 
ATOM     84  C   UNL A   1      27.463  29.125  22.789  1.00  0.00     0.001 A 
ATOM     85  C   UNL A   1      29.106  30.478  21.687  1.00  0.00     0.001 A 
ATOM     86  C   UNL A   1      27.773  30.210  21.983  1.00  0.00     0.000 A 
ENDBRANCH  73  81
ENDBRANCH  68  73
ENDBRANCH  65  68
ENDBRANCH  63  64
ENDBRANCH   1  63
TORSDOF 16
ENDMDL
