MODEL 1
REMARK VINA RESULT:     -12.1      0.000      0.000
REMARK SMILES COc1ccc(F)cc1[C@H](C)NC(=O)[C@H]1CC=CC[C@@H]1C(=O)NCCCNC(=O)c1ccc(-c2c3nc(c(-c4c(F)cccc4F)c4ccc([nH]4)c(-c4c(F)cccc4F)c4nc(c(-c5c(F)cccc5F)c5ccc2[nH]5)C=C4)C=C3)cc1
REMARK SMILES IDX 24 1 23 2 21 3 22 4 20 6 15 7 16 8 17 9 19 10 18 11 13 12
REMARK SMILES IDX 12 13 14 15 10 16 11 17 9 18 3 19 4 20 5 21 8 22 6 23 7 24
REMARK SMILES IDX 2 25 1 26 25 27 26 28 27 29 28 30 29 32 30 33 31 34 83 35
REMARK SMILES IDX 32 36 82 37 33 38 34 39 35 40 76 41 36 42 81 43 75 44 77 45
REMARK SMILES IDX 37 46 80 47 74 48 73 49 38 51 64 52 47 53 63 54 48 55 51 56
REMARK SMILES IDX 62 57 78 58 49 59 50 60 61 62 79 63 52 64 39 65 40 66 45 67
REMARK SMILES IDX 41 68 42 69 44 70 46 71 43 72 65 73 66 74 71 75 67 76 68 77
REMARK SMILES IDX 70 78 72 79 69 80 53 81 54 82 59 83 55 84 56 85 58 86 60 87
REMARK SMILES IDX 57 88
REMARK H PARENT 23 5 12 14 27 31 77 50 51 61
REMARK Flexibility Score: inf
ROOT
ATOM      1  C   UNL A   1      31.938  27.153  26.125  1.00  0.00     0.117 C 
ENDROOT
BRANCH   1   2
ATOM      2  N   UNL A   1      32.411  25.829  26.468  1.00  0.00    -0.356 N 
ATOM      3  C   UNL A   1      33.111  24.923  25.744  1.00  0.00     0.224 C 
ATOM      4  O   UNL A   1      33.316  23.839  26.298  1.00  0.00    -0.275 OA
ATOM      5  H   UNL A   1      32.187  25.538  27.381  1.00  0.00     0.163 HD
BRANCH   3   6
ATOM      6  C   UNL A   1      33.554  25.216  24.306  1.00  0.00     0.095 C 
ATOM      7  C   UNL A   1      32.326  25.027  23.382  1.00  0.00     0.095 C 
ATOM      8  C   UNL A   1      31.968  23.537  23.211  1.00  0.00     0.041 C 
ATOM      9  C   UNL A   1      33.108  22.565  23.279  1.00  0.00    -0.030 C 
ATOM     10  C   UNL A   1      34.740  24.342  23.854  1.00  0.00     0.041 C 
ATOM     11  C   UNL A   1      34.366  22.930  23.538  1.00  0.00    -0.030 C 
BRANCH   7  12
ATOM     12  C   UNL A   1      32.489  25.682  22.012  1.00  0.00     0.224 C 
ATOM     13  N   UNL A   1      32.093  26.982  21.848  1.00  0.00    -0.349 N 
ATOM     14  H   UNL A   1      31.966  27.275  20.916  1.00  0.00     0.164 HD
ATOM     15  O   UNL A   1      32.951  25.085  21.040  1.00  0.00    -0.275 OA
BRANCH  13  16
ATOM     16  C   UNL A   1      31.831  27.998  22.871  1.00  0.00     0.113 C 
ATOM     17  C   UNL A   1      32.996  28.999  22.869  1.00  0.00     0.036 C 
BRANCH  16  18
ATOM     18  C   UNL A   1      30.472  28.652  22.658  1.00  0.00     0.019 A 
ATOM     19  C   UNL A   1      29.281  28.048  23.120  1.00  0.00     0.124 A 
ATOM     20  C   UNL A   1      28.043  28.688  22.967  1.00  0.00     0.050 A 
ATOM     21  C   UNL A   1      27.962  29.913  22.313  1.00  0.00     0.043 A 
ATOM     22  C   UNL A   1      30.360  29.879  21.981  1.00  0.00     0.049 A 
ATOM     23  C   UNL A   1      29.120  30.493  21.821  1.00  0.00     0.123 A 
ATOM     24  F   UNL A   1      29.047  31.675  21.196  1.00  0.00    -0.207 F 
BRANCH  19  25
ATOM     25  O   UNL A   1      29.364  26.860  23.805  1.00  0.00    -0.496 OA
ATOM     26  C   UNL A   1      28.086  26.324  24.163  1.00  0.00     0.278 C 
ENDBRANCH  19  25
ENDBRANCH  16  18
ENDBRANCH  13  16
ENDBRANCH   7  12
ENDBRANCH   3   6
ENDBRANCH   1   2
BRANCH   1  27
ATOM     27  C   UNL A   1      32.244  28.169  27.212  1.00  0.00     0.042 C 
BRANCH  27  28
ATOM     28  C   UNL A   1      33.637  28.779  27.118  1.00  0.00     0.118 C 
BRANCH  28  29
ATOM     29  N   UNL A   1      33.726  30.116  27.690  1.00  0.00    -0.352 N 
ATOM     30  C   UNL A   1      34.774  30.727  28.345  1.00  0.00     0.251 C 
ATOM     31  H   UNL A   1      32.913  30.666  27.596  1.00  0.00     0.163 HD
ATOM     32  O   UNL A   1      34.627  31.808  28.890  1.00  0.00    -0.269 OA
BRANCH  30  33
ATOM     33  C   UNL A   1      36.075  30.028  28.415  1.00  0.00     0.039 A 
ATOM     34  C   UNL A   1      36.958  30.118  27.338  1.00  0.00     0.014 A 
ATOM     35  C   UNL A   1      36.442  29.345  29.575  1.00  0.00     0.014 A 
ATOM     36  C   UNL A   1      38.256  29.620  27.469  1.00  0.00     0.010 A 
ATOM     37  C   UNL A   1      37.761  28.951  29.743  1.00  0.00     0.010 A 
ATOM     38  C   UNL A   1      38.686  29.091  28.697  1.00  0.00    -0.014 A 
BRANCH  38  39
ATOM     39  C   UNL A   1      40.089  28.667  28.936  1.00  0.00     0.031 A 
ATOM     40  C   UNL A   1      41.073  29.663  29.486  1.00  0.00     0.074 A 
ATOM     41  C   UNL A   1      40.508  27.446  28.549  1.00  0.00     0.049 A 
ATOM     42  N   UNL A   1      42.376  29.590  29.549  1.00  0.00    -0.248 NA
ATOM     43  C   UNL A   1      40.515  30.927  29.994  1.00  0.00     0.031 C 
ATOM     44  C   UNL A   1      39.663  26.398  27.974  1.00  0.00     0.029 A 
ATOM     45  N   UNL A   1      41.763  26.888  28.560  1.00  0.00    -0.354 N 
ATOM     46  C   UNL A   1      42.794  30.813  30.059  1.00  0.00     0.074 A 
ATOM     47  C   UNL A   1      41.612  31.622  30.250  1.00  0.00     0.031 C 
ATOM     48  C   UNL A   1      40.417  25.319  27.710  1.00  0.00     0.029 A 
ATOM     49  C   UNL A   1      41.807  25.616  28.041  1.00  0.00     0.049 A 
ATOM     50  H   UNL A   1      42.557  27.355  28.908  1.00  0.00     0.167 HD
ATOM     51  C   UNL A   1      44.051  31.214  30.358  1.00  0.00     0.037 A 
ATOM     52  C   UNL A   1      42.851  24.790  27.837  1.00  0.00     0.037 A 
ATOM     53  C   UNL A   1      45.215  30.383  30.227  1.00  0.00     0.049 A 
ATOM     54  C   UNL A   1      44.238  25.255  28.189  1.00  0.00     0.074 A 
ATOM     55  C   UNL A   1      46.523  30.677  30.565  1.00  0.00     0.029 A 
ATOM     56  N   UNL A   1      45.206  29.088  29.732  1.00  0.00    -0.354 N 
ATOM     57  N   UNL A   1      44.617  26.406  28.686  1.00  0.00    -0.248 NA
ATOM     58  C   UNL A   1      45.340  24.312  27.946  1.00  0.00     0.031 C 
ATOM     59  C   UNL A   1      47.313  29.568  30.251  1.00  0.00     0.029 A 
ATOM     60  C   UNL A   1      46.490  28.572  29.751  1.00  0.00     0.049 A 
ATOM     61  H   UNL A   1      44.407  28.608  29.416  1.00  0.00     0.167 HD
ATOM     62  C   UNL A   1      45.995  26.319  28.841  1.00  0.00     0.074 A 
ATOM     63  C   UNL A   1      46.386  25.001  28.386  1.00  0.00     0.031 C 
ATOM     64  C   UNL A   1      46.855  27.247  29.319  1.00  0.00     0.037 A 
BRANCH  51  65
ATOM     65  C   UNL A   1      44.230  32.608  30.878  1.00  0.00     0.057 A 
ATOM     66  C   UNL A   1      44.480  33.672  30.001  1.00  0.00     0.134 A 
ATOM     67  C   UNL A   1      44.209  32.891  32.249  1.00  0.00     0.134 A 
ATOM     68  F   UNL A   1      44.519  33.467  28.675  1.00  0.00    -0.206 F 
ATOM     69  C   UNL A   1      44.710  34.966  30.471  1.00  0.00     0.040 A 
ATOM     70  C   UNL A   1      44.411  34.186  32.730  1.00  0.00     0.040 A 
ATOM     71  F   UNL A   1      43.961  31.919  33.140  1.00  0.00    -0.206 F 
ATOM     72  C   UNL A   1      44.671  35.225  31.840  1.00  0.00     0.006 A 
ENDBRANCH  51  65
BRANCH  52  73
ATOM     73  C   UNL A   1      42.620  23.430  27.290  1.00  0.00     0.057 A 
ATOM     74  C   UNL A   1      42.313  22.344  28.117  1.00  0.00     0.134 A 
ATOM     75  C   UNL A   1      42.730  23.184  25.916  1.00  0.00     0.134 A 
ATOM     76  F   UNL A   1      42.202  22.513  29.443  1.00  0.00    -0.206 F 
ATOM     77  C   UNL A   1      42.138  21.059  27.601  1.00  0.00     0.040 A 
ATOM     78  C   UNL A   1      42.538  21.909  25.383  1.00  0.00     0.040 A 
ATOM     79  F   UNL A   1      43.006  24.189  25.072  1.00  0.00    -0.206 F 
ATOM     80  C   UNL A   1      42.248  20.840  26.228  1.00  0.00     0.006 A 
ENDBRANCH  52  73
BRANCH  64  81
ATOM     81  C   UNL A   1      48.302  26.879  29.424  1.00  0.00     0.057 A 
ATOM     82  C   UNL A   1      49.182  27.166  28.373  1.00  0.00     0.134 A 
ATOM     83  C   UNL A   1      48.791  26.129  30.499  1.00  0.00     0.134 A 
ATOM     84  F   UNL A   1      48.767  27.871  27.310  1.00  0.00    -0.206 F 
ATOM     85  C   UNL A   1      50.496  26.696  28.376  1.00  0.00     0.040 A 
ATOM     86  C   UNL A   1      50.108  25.669  30.522  1.00  0.00     0.040 A 
ATOM     87  F   UNL A   1      47.996  25.829  31.537  1.00  0.00    -0.206 F 
ATOM     88  C   UNL A   1      50.960  25.942  29.451  1.00  0.00     0.006 A 
ENDBRANCH  64  81
ENDBRANCH  38  39
ENDBRANCH  30  33
ENDBRANCH  28  29
ENDBRANCH  27  28
ENDBRANCH   1  27
TORSDOF 14
ENDMDL
MODEL 2
REMARK VINA RESULT:     -12.0      1.971      6.577
REMARK SMILES COc1ccc(F)cc1[C@H](C)NC(=O)[C@H]1CC=CC[C@@H]1C(=O)NCCCNC(=O)c1ccc(-c2c3nc(c(-c4c(F)cccc4F)c4ccc([nH]4)c(-c4c(F)cccc4F)c4nc(c(-c5c(F)cccc5F)c5ccc2[nH]5)C=C4)C=C3)cc1
REMARK SMILES IDX 24 1 23 2 21 3 22 4 20 6 15 7 16 8 17 9 19 10 18 11 13 12
REMARK SMILES IDX 12 13 14 15 10 16 11 17 9 18 3 19 4 20 5 21 8 22 6 23 7 24
REMARK SMILES IDX 2 25 1 26 25 27 26 28 27 29 28 30 29 32 30 33 31 34 83 35
REMARK SMILES IDX 32 36 82 37 33 38 34 39 35 40 76 41 36 42 81 43 75 44 77 45
REMARK SMILES IDX 37 46 80 47 74 48 73 49 38 51 64 52 47 53 63 54 48 55 51 56
REMARK SMILES IDX 62 57 78 58 49 59 50 60 61 62 79 63 52 64 39 65 40 66 45 67
REMARK SMILES IDX 41 68 42 69 44 70 46 71 43 72 65 73 66 74 71 75 67 76 68 77
REMARK SMILES IDX 70 78 72 79 69 80 53 81 54 82 59 83 55 84 56 85 58 86 60 87
REMARK SMILES IDX 57 88
REMARK H PARENT 23 5 12 14 27 31 77 50 51 61
REMARK Flexibility Score: inf
ROOT
ATOM      1  C   UNL A   1      36.874  22.637  24.096  1.00  0.00     0.117 C 
ENDROOT
BRANCH   1   2
ATOM      2  N   UNL A   1      36.000  23.406  24.957  1.00  0.00    -0.356 N 
ATOM      3  C   UNL A   1      34.900  24.143  24.672  1.00  0.00     0.224 C 
ATOM      4  O   UNL A   1      34.396  24.742  25.627  1.00  0.00    -0.275 OA
ATOM      5  H   UNL A   1      36.246  23.390  25.910  1.00  0.00     0.163 HD
BRANCH   3   6
ATOM      6  C   UNL A   1      34.368  24.267  23.241  1.00  0.00     0.095 C 
ATOM      7  C   UNL A   1      33.190  25.274  23.256  1.00  0.00     0.095 C 
ATOM      8  C   UNL A   1      31.935  24.667  23.915  1.00  0.00     0.041 C 
ATOM      9  C   UNL A   1      31.754  23.186  23.768  1.00  0.00    -0.030 C 
ATOM     10  C   UNL A   1      33.944  22.912  22.638  1.00  0.00     0.041 C 
ATOM     11  C   UNL A   1      32.645  22.396  23.165  1.00  0.00    -0.030 C 
BRANCH   7  12
ATOM     12  C   UNL A   1      32.839  25.819  21.874  1.00  0.00     0.224 C 
ATOM     13  N   UNL A   1      32.084  26.959  21.784  1.00  0.00    -0.349 N 
ATOM     14  H   UNL A   1      31.663  27.124  20.909  1.00  0.00     0.164 HD
ATOM     15  O   UNL A   1      33.193  25.271  20.831  1.00  0.00    -0.275 OA
BRANCH  13  16
ATOM     16  C   UNL A   1      31.818  27.966  22.814  1.00  0.00     0.113 C 
ATOM     17  C   UNL A   1      32.972  28.981  22.810  1.00  0.00     0.036 C 
BRANCH  16  18
ATOM     18  C   UNL A   1      30.450  28.606  22.613  1.00  0.00     0.019 A 
ATOM     19  C   UNL A   1      29.268  27.983  23.073  1.00  0.00     0.124 A 
ATOM     20  C   UNL A   1      28.022  28.610  22.931  1.00  0.00     0.050 A 
ATOM     21  C   UNL A   1      27.924  29.841  22.290  1.00  0.00     0.043 A 
ATOM     22  C   UNL A   1      30.321  29.839  21.949  1.00  0.00     0.049 A 
ATOM     23  C   UNL A   1      29.073  30.440  21.801  1.00  0.00     0.123 A 
ATOM     24  F   UNL A   1      28.984  31.628  21.188  1.00  0.00    -0.207 F 
BRANCH  19  25
ATOM     25  O   UNL A   1      29.367  26.790  23.745  1.00  0.00    -0.496 OA
ATOM     26  C   UNL A   1      28.106  26.292  24.203  1.00  0.00     0.278 C 
ENDBRANCH  19  25
ENDBRANCH  16  18
ENDBRANCH  13  16
ENDBRANCH   7  12
ENDBRANCH   3   6
ENDBRANCH   1   2
BRANCH   1  27
ATOM     27  C   UNL A   1      37.212  21.281  24.690  1.00  0.00     0.042 C 
BRANCH  27  28
ATOM     28  C   UNL A   1      38.375  21.304  25.673  1.00  0.00     0.118 C 
BRANCH  28  29
ATOM     29  N   UNL A   1      39.230  20.127  25.590  1.00  0.00    -0.352 N 
ATOM     30  C   UNL A   1      40.564  19.982  25.906  1.00  0.00     0.251 C 
ATOM     31  H   UNL A   1      38.787  19.311  25.257  1.00  0.00     0.163 HD
ATOM     32  O   UNL A   1      41.163  18.955  25.638  1.00  0.00    -0.269 OA
BRANCH  30  33
ATOM     33  C   UNL A   1      41.274  21.115  26.537  1.00  0.00     0.039 A 
ATOM     34  C   UNL A   1      41.874  22.081  25.727  1.00  0.00     0.014 A 
ATOM     35  C   UNL A   1      41.282  21.252  27.925  1.00  0.00     0.014 A 
ATOM     36  C   UNL A   1      42.382  23.246  26.308  1.00  0.00     0.010 A 
ATOM     37  C   UNL A   1      41.686  22.454  28.488  1.00  0.00     0.010 A 
ATOM     38  C   UNL A   1      42.233  23.468  27.686  1.00  0.00    -0.014 A 
BRANCH  38  39
ATOM     39  C   UNL A   1      42.635  24.741  28.338  1.00  0.00     0.031 A 
ATOM     40  C   UNL A   1      41.599  25.807  28.566  1.00  0.00     0.074 A 
ATOM     41  C   UNL A   1      43.932  24.989  28.607  1.00  0.00     0.049 A 
ATOM     42  N   UNL A   1      41.761  27.063  28.891  1.00  0.00    -0.248 NA
ATOM     43  C   UNL A   1      40.194  25.416  28.358  1.00  0.00     0.031 C 
ATOM     44  C   UNL A   1      45.038  24.053  28.405  1.00  0.00     0.029 A 
ATOM     45  N   UNL A   1      44.541  26.121  29.090  1.00  0.00    -0.354 N 
ATOM     46  C   UNL A   1      40.489  27.619  28.880  1.00  0.00     0.074 A 
ATOM     47  C   UNL A   1      39.570  26.577  28.480  1.00  0.00     0.031 C 
ATOM     48  C   UNL A   1      46.186  24.639  28.783  1.00  0.00     0.029 A 
ATOM     49  C   UNL A   1      45.907  26.010  29.197  1.00  0.00     0.049 A 
ATOM     50  H   UNL A   1      44.047  26.936  29.336  1.00  0.00     0.167 HD
ATOM     51  C   UNL A   1      40.119  28.881  29.197  1.00  0.00     0.037 A 
ATOM     52  C   UNL A   1      46.832  26.916  29.568  1.00  0.00     0.037 A 
ATOM     53  C   UNL A   1      41.027  29.894  29.657  1.00  0.00     0.049 A 
ATOM     54  C   UNL A   1      46.396  28.309  29.929  1.00  0.00     0.074 A 
ATOM     55  C   UNL A   1      40.740  31.184  30.065  1.00  0.00     0.029 A 
ATOM     56  N   UNL A   1      42.397  29.725  29.787  1.00  0.00    -0.354 N 
ATOM     57  N   UNL A   1      45.188  28.817  29.931  1.00  0.00    -0.248 NA
ATOM     58  C   UNL A   1      47.448  29.256  30.328  1.00  0.00     0.031 C 
ATOM     59  C   UNL A   1      41.940  31.806  30.418  1.00  0.00     0.029 A 
ATOM     60  C   UNL A   1      42.969  30.891  30.263  1.00  0.00     0.049 A 
ATOM     61  H   UNL A   1      42.888  28.899  29.572  1.00  0.00     0.167 HD
ATOM     62  C   UNL A   1      45.329  30.132  30.357  1.00  0.00     0.074 A 
ATOM     63  C   UNL A   1      46.740  30.344  30.603  1.00  0.00     0.031 C 
ATOM     64  C   UNL A   1      44.373  31.074  30.528  1.00  0.00     0.037 A 
BRANCH  51  65
ATOM     65  C   UNL A   1      38.667  29.232  29.078  1.00  0.00     0.057 A 
ATOM     66  C   UNL A   1      38.131  29.647  27.853  1.00  0.00     0.134 A 
ATOM     67  C   UNL A   1      37.811  29.210  30.186  1.00  0.00     0.134 A 
ATOM     68  F   UNL A   1      38.898  29.696  26.754  1.00  0.00    -0.206 F 
ATOM     69  C   UNL A   1      36.795  30.036  27.736  1.00  0.00     0.040 A 
ATOM     70  C   UNL A   1      36.467  29.570  30.076  1.00  0.00     0.040 A 
ATOM     71  F   UNL A   1      38.261  28.808  31.385  1.00  0.00    -0.206 F 
ATOM     72  C   UNL A   1      35.959  29.993  28.850  1.00  0.00     0.006 A 
ENDBRANCH  51  65
BRANCH  52  73
ATOM     73  C   UNL A   1      48.262  26.523  29.640  1.00  0.00     0.057 A 
ATOM     74  C   UNL A   1      49.139  26.734  28.571  1.00  0.00     0.134 A 
ATOM     75  C   UNL A   1      48.775  25.898  30.783  1.00  0.00     0.134 A 
ATOM     76  F   UNL A   1      48.707  27.320  27.444  1.00  0.00    -0.206 F 
ATOM     77  C   UNL A   1      50.473  26.324  28.628  1.00  0.00     0.040 A 
ATOM     78  C   UNL A   1      50.110  25.502  30.862  1.00  0.00     0.040 A 
ATOM     79  F   UNL A   1      47.985  25.685  31.845  1.00  0.00    -0.206 F 
ATOM     80  C   UNL A   1      50.962  25.708  29.779  1.00  0.00     0.006 A 
ENDBRANCH  52  73
BRANCH  64  81
ATOM     81  C   UNL A   1      44.792  32.415  31.045  1.00  0.00     0.057 A 
ATOM     82  C   UNL A   1      44.761  32.685  32.419  1.00  0.00     0.134 A 
ATOM     83  C   UNL A   1      45.099  33.470  30.180  1.00  0.00     0.134 A 
ATOM     84  F   UNL A   1      44.462  31.716  33.297  1.00  0.00    -0.206 F 
ATOM     85  C   UNL A   1      44.994  33.968  32.914  1.00  0.00     0.040 A 
ATOM     86  C   UNL A   1      45.353  34.755  30.664  1.00  0.00     0.040 A 
ATOM     87  F   UNL A   1      45.151  33.271  28.854  1.00  0.00    -0.206 F 
ATOM     88  C   UNL A   1      45.287  35.008  32.034  1.00  0.00     0.006 A 
ENDBRANCH  64  81
ENDBRANCH  38  39
ENDBRANCH  30  33
ENDBRANCH  28  29
ENDBRANCH  27  28
ENDBRANCH   1  27
TORSDOF 14
ENDMDL
MODEL 3
REMARK VINA RESULT:     -11.9      3.512      8.242
REMARK SMILES COc1ccc(F)cc1[C@H](C)NC(=O)[C@H]1CC=CC[C@@H]1C(=O)NCCCNC(=O)c1ccc(-c2c3nc(c(-c4c(F)cccc4F)c4ccc([nH]4)c(-c4c(F)cccc4F)c4nc(c(-c5c(F)cccc5F)c5ccc2[nH]5)C=C4)C=C3)cc1
REMARK SMILES IDX 24 1 23 2 21 3 22 4 20 6 15 7 16 8 17 9 19 10 18 11 13 12
REMARK SMILES IDX 12 13 14 15 10 16 11 17 9 18 3 19 4 20 5 21 8 22 6 23 7 24
REMARK SMILES IDX 2 25 1 26 25 27 26 28 27 29 28 30 29 32 30 33 31 34 83 35
REMARK SMILES IDX 32 36 82 37 33 38 34 39 35 40 76 41 36 42 81 43 75 44 77 45
REMARK SMILES IDX 37 46 80 47 74 48 73 49 38 51 64 52 47 53 63 54 48 55 51 56
REMARK SMILES IDX 62 57 78 58 49 59 50 60 61 62 79 63 52 64 39 65 40 66 45 67
REMARK SMILES IDX 41 68 42 69 44 70 46 71 43 72 65 73 66 74 71 75 67 76 68 77
REMARK SMILES IDX 70 78 72 79 69 80 53 81 54 82 59 83 55 84 56 85 58 86 60 87
REMARK SMILES IDX 57 88
REMARK H PARENT 23 5 12 14 27 31 77 50 51 61
REMARK Flexibility Score: inf
ROOT
ATOM      1  C   UNL A   1      32.030  28.804  27.033  1.00  0.00     0.117 C 
ENDROOT
BRANCH   1   2
ATOM      2  N   UNL A   1      32.896  28.006  26.192  1.00  0.00    -0.356 N 
ATOM      3  C   UNL A   1      32.845  26.694  25.859  1.00  0.00     0.224 C 
ATOM      4  O   UNL A   1      33.777  26.282  25.162  1.00  0.00    -0.275 OA
ATOM      5  H   UNL A   1      33.650  28.499  25.795  1.00  0.00     0.163 HD
BRANCH   3   6
ATOM      6  C   UNL A   1      31.730  25.779  26.378  1.00  0.00     0.095 C 
ATOM      7  C   UNL A   1      31.990  24.354  25.830  1.00  0.00     0.095 C 
ATOM      8  C   UNL A   1      31.678  24.261  24.323  1.00  0.00     0.041 C 
ATOM      9  C   UNL A   1      30.592  25.159  23.809  1.00  0.00    -0.030 C 
ATOM     10  C   UNL A   1      30.321  26.280  26.005  1.00  0.00     0.041 C 
ATOM     11  C   UNL A   1      29.956  26.049  24.574  1.00  0.00    -0.030 C 
BRANCH   7  12
ATOM     12  C   UNL A   1      31.231  23.264  26.585  1.00  0.00     0.224 C 
ATOM     13  N   UNL A   1      31.670  21.970  26.498  1.00  0.00    -0.349 N 
ATOM     14  H   UNL A   1      31.021  21.280  26.767  1.00  0.00     0.164 HD
ATOM     15  O   UNL A   1      30.230  23.497  27.261  1.00  0.00    -0.275 OA
BRANCH  13  16
ATOM     16  C   UNL A   1      32.976  21.472  26.056  1.00  0.00     0.113 C 
ATOM     17  C   UNL A   1      33.910  21.415  27.275  1.00  0.00     0.036 C 
BRANCH  16  18
ATOM     18  C   UNL A   1      32.838  20.136  25.338  1.00  0.00     0.019 A 
ATOM     19  C   UNL A   1      32.592  20.067  23.948  1.00  0.00     0.124 A 
ATOM     20  C   UNL A   1      32.523  18.831  23.290  1.00  0.00     0.050 A 
ATOM     21  C   UNL A   1      32.650  17.646  24.007  1.00  0.00     0.043 A 
ATOM     22  C   UNL A   1      32.940  18.924  26.043  1.00  0.00     0.049 A 
ATOM     23  C   UNL A   1      32.851  17.703  25.376  1.00  0.00     0.123 A 
ATOM     24  F   UNL A   1      32.979  16.565  26.070  1.00  0.00    -0.207 F 
BRANCH  19  25
ATOM     25  O   UNL A   1      32.511  21.235  23.231  1.00  0.00    -0.496 OA
ATOM     26  C   UNL A   1      31.888  21.072  21.953  1.00  0.00     0.278 C 
ENDBRANCH  19  25
ENDBRANCH  16  18
ENDBRANCH  13  16
ENDBRANCH   7  12
ENDBRANCH   3   6
ENDBRANCH   1   2
BRANCH   1  27
ATOM     27  C   UNL A   1      31.919  30.238  26.541  1.00  0.00     0.042 C 
BRANCH  27  28
ATOM     28  C   UNL A   1      32.973  31.175  27.117  1.00  0.00     0.118 C 
BRANCH  28  29
ATOM     29  N   UNL A   1      32.481  32.526  27.354  1.00  0.00    -0.352 N 
ATOM     30  C   UNL A   1      33.030  33.545  28.103  1.00  0.00     0.251 C 
ATOM     31  H   UNL A   1      31.627  32.743  26.914  1.00  0.00     0.163 HD
ATOM     32  O   UNL A   1      32.408  34.573  28.313  1.00  0.00    -0.269 OA
BRANCH  30  33
ATOM     33  C   UNL A   1      34.374  33.354  28.690  1.00  0.00     0.039 A 
ATOM     34  C   UNL A   1      34.498  32.690  29.911  1.00  0.00     0.014 A 
ATOM     35  C   UNL A   1      35.509  33.773  27.995  1.00  0.00     0.014 A 
ATOM     36  C   UNL A   1      35.767  32.342  30.379  1.00  0.00     0.010 A 
ATOM     37  C   UNL A   1      36.758  33.331  28.404  1.00  0.00     0.010 A 
ATOM     38  C   UNL A   1      36.903  32.604  29.596  1.00  0.00    -0.014 A 
BRANCH  38  39
ATOM     39  C   UNL A   1      38.261  32.142  29.979  1.00  0.00     0.031 A 
ATOM     40  C   UNL A   1      38.768  30.831  29.444  1.00  0.00     0.074 A 
ATOM     41  C   UNL A   1      38.981  32.825  30.891  1.00  0.00     0.049 A 
ATOM     42  N   UNL A   1      39.802  30.127  29.825  1.00  0.00    -0.248 NA
ATOM     43  C   UNL A   1      37.979  30.210  28.367  1.00  0.00     0.031 C 
ATOM     44  C   UNL A   1      38.591  34.093  31.508  1.00  0.00     0.029 A 
ATOM     45  N   UNL A   1      40.188  32.531  31.475  1.00  0.00    -0.354 N 
ATOM     46  C   UNL A   1      39.760  28.963  29.067  1.00  0.00     0.074 A 
ATOM     47  C   UNL A   1      38.580  29.037  28.236  1.00  0.00     0.031 C 
ATOM     48  C   UNL A   1      39.549  34.479  32.366  1.00  0.00     0.029 A 
ATOM     49  C   UNL A   1      40.593  33.460  32.404  1.00  0.00     0.049 A 
ATOM     50  H   UNL A   1      40.715  31.730  31.251  1.00  0.00     0.167 HD
ATOM     51  C   UNL A   1      40.640  27.936  29.053  1.00  0.00     0.037 A 
ATOM     52  C   UNL A   1      41.673  33.479  33.209  1.00  0.00     0.037 A 
ATOM     53  C   UNL A   1      41.845  27.897  29.834  1.00  0.00     0.049 A 
ATOM     54  C   UNL A   1      42.644  32.331  33.167  1.00  0.00     0.074 A 
ATOM     55  C   UNL A   1      42.833  26.930  29.841  1.00  0.00     0.029 A 
ATOM     56  N   UNL A   1      42.233  28.879  30.733  1.00  0.00    -0.354 N 
ATOM     57  N   UNL A   1      42.602  31.246  32.435  1.00  0.00    -0.248 NA
ATOM     58  C   UNL A   1      43.805  32.406  34.066  1.00  0.00     0.031 C 
ATOM     59  C   UNL A   1      43.809  27.313  30.765  1.00  0.00     0.029 A 
ATOM     60  C   UNL A   1      43.445  28.536  31.305  1.00  0.00     0.049 A 
ATOM     61  H   UNL A   1      41.723  29.697  30.933  1.00  0.00     0.167 HD
ATOM     62  C   UNL A   1      43.740  30.521  32.762  1.00  0.00     0.074 A 
ATOM     63  C   UNL A   1      44.455  31.290  33.760  1.00  0.00     0.031 C 
ATOM     64  C   UNL A   1      44.154  29.328  32.277  1.00  0.00     0.037 A 
BRANCH  51  65
ATOM     65  C   UNL A   1      40.343  26.778  28.150  1.00  0.00     0.057 A 
ATOM     66  C   UNL A   1      39.472  25.759  28.557  1.00  0.00     0.134 A 
ATOM     67  C   UNL A   1      40.959  26.642  26.900  1.00  0.00     0.134 A 
ATOM     68  F   UNL A   1      38.853  25.825  29.746  1.00  0.00    -0.206 F 
ATOM     69  C   UNL A   1      39.230  24.643  27.755  1.00  0.00     0.040 A 
ATOM     70  C   UNL A   1      40.705  25.544  26.077  1.00  0.00     0.040 A 
ATOM     71  F   UNL A   1      41.793  27.591  26.447  1.00  0.00    -0.206 F 
ATOM     72  C   UNL A   1      39.845  24.536  26.509  1.00  0.00     0.006 A 
ENDBRANCH  51  65
BRANCH  52  73
ATOM     73  C   UNL A   1      41.902  34.638  34.108  1.00  0.00     0.057 A 
ATOM     74  C   UNL A   1      42.559  35.793  33.670  1.00  0.00     0.134 A 
ATOM     75  C   UNL A   1      41.488  34.599  35.445  1.00  0.00     0.134 A 
ATOM     76  F   UNL A   1      42.988  35.889  32.402  1.00  0.00    -0.206 F 
ATOM     77  C   UNL A   1      42.809  36.863  34.531  1.00  0.00     0.040 A 
ATOM     78  C   UNL A   1      41.713  35.668  36.311  1.00  0.00     0.040 A 
ATOM     79  F   UNL A   1      40.838  33.525  35.917  1.00  0.00    -0.206 F 
ATOM     80  C   UNL A   1      42.382  36.802  35.857  1.00  0.00     0.006 A 
ENDBRANCH  52  73
BRANCH  64  81
ATOM     81  C   UNL A   1      45.456  28.780  32.772  1.00  0.00     0.057 A 
ATOM     82  C   UNL A   1      46.644  29.045  32.079  1.00  0.00     0.134 A 
ATOM     83  C   UNL A   1      45.514  27.891  33.851  1.00  0.00     0.134 A 
ATOM     84  F   UNL A   1      46.649  29.880  31.029  1.00  0.00    -0.206 F 
ATOM     85  C   UNL A   1      47.844  28.422  32.426  1.00  0.00     0.040 A 
ATOM     86  C   UNL A   1      46.712  27.276  34.219  1.00  0.00     0.040 A 
ATOM     87  F   UNL A   1      44.410  27.605  34.557  1.00  0.00    -0.206 F 
ATOM     88  C   UNL A   1      47.878  27.532  33.497  1.00  0.00     0.006 A 
ENDBRANCH  64  81
ENDBRANCH  38  39
ENDBRANCH  30  33
ENDBRANCH  28  29
ENDBRANCH  27  28
ENDBRANCH   1  27
TORSDOF 14
ENDMDL
