MODEL 1
REMARK VINA RESULT:     -11.2      0.000      0.000
REMARK SMILES Cc1ccccc1N(CCC(=O)NCCCNC(=O)c1ccc(-c2c3nc(c(-c4c(F)cccc4F)c4ccc([nH]4)c(-c4c(F)cccc4F)c4nc(c(-c5c(F)cccc5F)c5ccc2[nH]5)C=C4)C=C3)cc1)[C@@H](C)[C@@H](C)O
REMARK SMILES IDX 11 1 12 2 13 3 10 5 9 6 8 7 7 8 1 9 2 10 3 11 4 12 6 13 5 14
REMARK SMILES IDX 74 15 75 16 76 17 77 18 78 19 14 21 15 22 16 23 17 24 18 25
REMARK SMILES IDX 19 27 20 28 21 29 73 30 22 31 72 32 23 33 24 34 25 35 66 36
REMARK SMILES IDX 26 37 71 38 65 39 67 40 27 41 70 42 64 43 63 44 28 46 54 47
REMARK SMILES IDX 37 48 53 49 38 50 41 51 52 52 68 53 39 54 40 55 51 57 69 58
REMARK SMILES IDX 42 59 29 60 30 61 35 62 31 63 32 64 34 65 36 66 33 67 55 68
REMARK SMILES IDX 56 69 61 70 57 71 58 72 60 73 62 74 59 75 43 76 44 77 49 78
REMARK SMILES IDX 45 79 46 80 48 81 50 82 47 83
REMARK H PARENT 13 4 78 20 17 26 67 45 41 56
REMARK Flexibility Score: inf
ROOT
ATOM      1  C   UNL A   1      33.092  28.929  25.230  1.00  0.00     0.221 C 
ATOM      2  O   UNL A   1      32.956  29.095  24.014  1.00  0.00    -0.275 OA
ATOM      3  N   UNL A   1      33.890  29.820  25.887  1.00  0.00    -0.356 N 
ATOM      4  H   UNL A   1      34.181  30.570  25.321  1.00  0.00     0.163 HD
ENDROOT
BRANCH   1   5
ATOM      5  C   UNL A   1      32.365  27.794  25.939  1.00  0.00     0.121 C 
BRANCH   5   6
ATOM      6  C   UNL A   1      31.476  26.953  24.983  1.00  0.00     0.127 C 
BRANCH   6   7
ATOM      7  N   UNL A   1      32.131  25.689  24.489  1.00  0.00    -0.366 N 
BRANCH   7   8
ATOM      8  C   UNL A   1      33.119  24.959  25.173  1.00  0.00     0.040 A 
ATOM      9  C   UNL A   1      31.720  23.632  27.072  1.00  0.00     0.046 C 
ATOM     10  C   UNL A   1      32.942  24.019  26.251  1.00  0.00    -0.028 A 
ATOM     11  C   UNL A   1      34.044  23.245  26.718  1.00  0.00     0.005 A 
ATOM     12  C   UNL A   1      35.323  23.390  26.221  1.00  0.00     0.000 A 
ATOM     13  C   UNL A   1      34.468  25.105  24.760  1.00  0.00     0.026 A 
ATOM     14  C   UNL A   1      35.539  24.345  25.256  1.00  0.00     0.002 A 
ENDBRANCH   7   8
BRANCH   7  15
ATOM     15  C   UNL A   1      31.709  25.345  23.135  1.00  0.00     0.107 C 
ATOM     16  C   UNL A   1      30.278  24.796  23.195  1.00  0.00     0.034 C 
BRANCH  15  17
ATOM     17  C   UNL A   1      32.144  26.361  22.039  1.00  0.00     0.133 C 
ATOM     18  C   UNL A   1      32.662  25.681  20.771  1.00  0.00     0.040 C 
BRANCH  17  19
ATOM     19  O   UNL A   1      31.034  27.178  21.644  1.00  0.00    -0.391 OA
ATOM     20  H   UNL A   1      30.402  27.240  22.377  1.00  0.00     0.211 HD
ENDBRANCH  17  19
ENDBRANCH  15  17
ENDBRANCH   7  15
ENDBRANCH   6   7
ENDBRANCH   5   6
ENDBRANCH   1   5
BRANCH   3  21
ATOM     21  C   UNL A   1      34.404  29.896  27.258  1.00  0.00     0.117 C 
BRANCH  21  22
ATOM     22  C   UNL A   1      34.493  31.362  27.716  1.00  0.00     0.042 C 
BRANCH  22  23
ATOM     23  C   UNL A   1      34.917  31.593  29.173  1.00  0.00     0.118 C 
BRANCH  23  24
ATOM     24  N   UNL A   1      36.217  32.226  29.446  1.00  0.00    -0.352 N 
ATOM     25  C   UNL A   1      37.491  31.675  29.379  1.00  0.00     0.251 C 
ATOM     26  H   UNL A   1      36.179  33.173  29.714  1.00  0.00     0.163 HD
ATOM     27  O   UNL A   1      38.487  32.323  29.553  1.00  0.00    -0.269 OA
BRANCH  25  28
ATOM     28  C   UNL A   1      37.579  30.221  29.073  1.00  0.00     0.039 A 
ATOM     29  C   UNL A   1      37.848  29.355  30.136  1.00  0.00     0.014 A 
ATOM     30  C   UNL A   1      37.872  29.870  27.754  1.00  0.00     0.014 A 
ATOM     31  C   UNL A   1      38.692  28.275  29.907  1.00  0.00     0.010 A 
ATOM     32  C   UNL A   1      38.732  28.806  27.534  1.00  0.00     0.010 A 
ATOM     33  C   UNL A   1      39.240  28.096  28.630  1.00  0.00    -0.014 A 
BRANCH  33  34
ATOM     34  C   UNL A   1      40.539  27.434  28.472  1.00  0.00     0.031 A 
ATOM     35  C   UNL A   1      40.654  26.000  28.167  1.00  0.00     0.074 A 
ATOM     36  C   UNL A   1      41.684  28.125  28.693  1.00  0.00     0.049 A 
ATOM     37  N   UNL A   1      41.559  25.242  28.693  1.00  0.00    -0.248 NA
ATOM     38  C   UNL A   1      39.754  25.305  27.259  1.00  0.00     0.031 C 
ATOM     39  C   UNL A   1      43.055  27.685  28.451  1.00  0.00     0.029 A 
ATOM     40  N   UNL A   1      41.839  29.349  29.361  1.00  0.00    -0.354 N 
ATOM     41  C   UNL A   1      41.537  24.048  28.016  1.00  0.00     0.074 A 
ATOM     42  C   UNL A   1      40.350  24.109  27.186  1.00  0.00     0.031 C 
ATOM     43  C   UNL A   1      43.884  28.427  29.204  1.00  0.00     0.029 A 
ATOM     44  C   UNL A   1      43.070  29.304  30.031  1.00  0.00     0.049 A 
ATOM     45  H   UNL A   1      41.204  30.100  29.359  1.00  0.00     0.167 HD
ATOM     46  C   UNL A   1      42.593  23.189  28.113  1.00  0.00     0.037 A 
ATOM     47  C   UNL A   1      43.195  29.516  31.368  1.00  0.00     0.037 A 
ATOM     48  C   UNL A   1      43.680  23.742  28.918  1.00  0.00     0.049 A 
ATOM     49  C   UNL A   1      43.865  28.378  32.080  1.00  0.00     0.074 A 
ATOM     50  C   UNL A   1      44.850  24.395  28.561  1.00  0.00     0.029 A 
ATOM     51  N   UNL A   1      43.533  23.924  30.288  1.00  0.00    -0.354 N 
ATOM     52  N   UNL A   1      44.030  27.206  31.543  1.00  0.00    -0.248 NA
ATOM     53  C   UNL A   1      44.329  28.438  33.461  1.00  0.00     0.031 C 
ATOM     54  C   UNL A   1      45.406  24.979  29.721  1.00  0.00     0.029 A 
ATOM     55  C   UNL A   1      44.577  24.681  30.789  1.00  0.00     0.049 A 
ATOM     56  H   UNL A   1      42.790  23.564  30.826  1.00  0.00     0.167 HD
ATOM     57  C   UNL A   1      44.524  26.344  32.481  1.00  0.00     0.074 A 
ATOM     58  C   UNL A   1      44.740  27.172  33.652  1.00  0.00     0.031 C 
ATOM     59  C   UNL A   1      44.663  25.017  32.204  1.00  0.00     0.037 A 
BRANCH  46  60
ATOM     60  C   UNL A   1      42.755  21.996  27.201  1.00  0.00     0.057 A 
ATOM     61  C   UNL A   1      41.984  20.828  27.366  1.00  0.00     0.134 A 
ATOM     62  C   UNL A   1      43.691  21.933  26.156  1.00  0.00     0.134 A 
ATOM     63  F   UNL A   1      40.964  20.767  28.230  1.00  0.00    -0.206 F 
ATOM     64  C   UNL A   1      42.226  19.650  26.648  1.00  0.00     0.040 A 
ATOM     65  C   UNL A   1      43.979  20.749  25.465  1.00  0.00     0.040 A 
ATOM     66  F   UNL A   1      44.345  23.031  25.746  1.00  0.00    -0.206 F 
ATOM     67  C   UNL A   1      43.257  19.593  25.724  1.00  0.00     0.006 A 
ENDBRANCH  46  60
BRANCH  47  68
ATOM     68  C   UNL A   1      42.176  30.391  31.997  1.00  0.00     0.057 A 
ATOM     69  C   UNL A   1      42.301  31.785  31.915  1.00  0.00     0.134 A 
ATOM     70  C   UNL A   1      40.956  29.889  32.459  1.00  0.00     0.134 A 
ATOM     71  F   UNL A   1      43.426  32.336  31.433  1.00  0.00    -0.206 F 
ATOM     72  C   UNL A   1      41.240  32.643  32.231  1.00  0.00     0.040 A 
ATOM     73  C   UNL A   1      39.881  30.734  32.757  1.00  0.00     0.040 A 
ATOM     74  F   UNL A   1      40.757  28.565  32.551  1.00  0.00    -0.206 F 
ATOM     75  C   UNL A   1      40.012  32.114  32.617  1.00  0.00     0.006 A 
ENDBRANCH  47  68
BRANCH  59  76
ATOM     76  C   UNL A   1      44.979  23.941  33.206  1.00  0.00     0.057 A 
ATOM     77  C   UNL A   1      44.097  22.912  33.567  1.00  0.00     0.134 A 
ATOM     78  C   UNL A   1      46.278  23.838  33.752  1.00  0.00     0.134 A 
ATOM     79  F   UNL A   1      42.871  22.816  33.033  1.00  0.00    -0.206 F 
ATOM     80  C   UNL A   1      44.456  21.893  34.457  1.00  0.00     0.040 A 
ATOM     81  C   UNL A   1      46.663  22.795  34.597  1.00  0.00     0.040 A 
ATOM     82  F   UNL A   1      47.234  24.736  33.470  1.00  0.00    -0.206 F 
ATOM     83  C   UNL A   1      45.746  21.824  34.967  1.00  0.00     0.006 A 
ENDBRANCH  59  76
ENDBRANCH  33  34
ENDBRANCH  25  28
ENDBRANCH  23  24
ENDBRANCH  22  23
ENDBRANCH  21  22
ENDBRANCH   3  21
TORSDOF 16
ENDMDL
MODEL 2
REMARK VINA RESULT:     -11.1      1.409      2.627
REMARK SMILES Cc1ccccc1N(CCC(=O)NCCCNC(=O)c1ccc(-c2c3nc(c(-c4c(F)cccc4F)c4ccc([nH]4)c(-c4c(F)cccc4F)c4nc(c(-c5c(F)cccc5F)c5ccc2[nH]5)C=C4)C=C3)cc1)[C@@H](C)[C@@H](C)O
REMARK SMILES IDX 11 1 12 2 13 3 10 5 9 6 8 7 7 8 1 9 2 10 3 11 4 12 6 13 5 14
REMARK SMILES IDX 74 15 75 16 76 17 77 18 78 19 14 21 15 22 16 23 17 24 18 25
REMARK SMILES IDX 19 27 20 28 21 29 73 30 22 31 72 32 23 33 24 34 25 35 66 36
REMARK SMILES IDX 26 37 71 38 65 39 67 40 27 41 70 42 64 43 63 44 28 46 54 47
REMARK SMILES IDX 37 48 53 49 38 50 41 51 52 52 68 53 39 54 40 55 51 57 69 58
REMARK SMILES IDX 42 59 29 60 30 61 35 62 31 63 32 64 34 65 36 66 33 67 55 68
REMARK SMILES IDX 56 69 61 70 57 71 58 72 60 73 62 74 59 75 43 76 44 77 49 78
REMARK SMILES IDX 45 79 46 80 48 81 50 82 47 83
REMARK H PARENT 13 4 78 20 17 26 67 45 41 56
REMARK Flexibility Score: inf
ROOT
ATOM      1  C   UNL A   1      32.245  28.616  27.217  1.00  0.00     0.221 C 
ATOM      2  O   UNL A   1      31.700  27.874  28.039  1.00  0.00    -0.275 OA
ATOM      3  N   UNL A   1      33.374  29.263  27.624  1.00  0.00    -0.356 N 
ATOM      4  H   UNL A   1      33.690  28.971  28.509  1.00  0.00     0.163 HD
ENDROOT
BRANCH   1   5
ATOM      5  C   UNL A   1      31.676  28.756  25.811  1.00  0.00     0.121 C 
BRANCH   5   6
ATOM      6  C   UNL A   1      32.543  28.050  24.732  1.00  0.00     0.127 C 
BRANCH   6   7
ATOM      7  N   UNL A   1      31.780  27.657  23.493  1.00  0.00    -0.366 N 
BRANCH   7   8
ATOM      8  C   UNL A   1      30.517  28.150  23.119  1.00  0.00     0.040 A 
ATOM      9  C   UNL A   1      28.798  26.347  24.175  1.00  0.00     0.046 C 
ATOM     10  C   UNL A   1      29.221  27.623  23.462  1.00  0.00    -0.028 A 
ATOM     11  C   UNL A   1      28.039  28.349  23.130  1.00  0.00     0.005 A 
ATOM     12  C   UNL A   1      28.065  29.534  22.424  1.00  0.00     0.000 A 
ATOM     13  C   UNL A   1      30.464  29.332  22.337  1.00  0.00     0.026 A 
ATOM     14  C   UNL A   1      29.283  30.013  22.003  1.00  0.00     0.002 A 
ENDBRANCH   7   8
BRANCH   7  15
ATOM     15  C   UNL A   1      32.451  26.594  22.751  1.00  0.00     0.107 C 
ATOM     16  C   UNL A   1      33.628  27.205  21.981  1.00  0.00     0.034 C 
BRANCH  15  17
ATOM     17  C   UNL A   1      32.594  25.250  23.522  1.00  0.00     0.133 C 
ATOM     18  C   UNL A   1      32.052  24.054  22.738  1.00  0.00     0.040 C 
BRANCH  17  19
ATOM     19  O   UNL A   1      33.974  24.974  23.793  1.00  0.00    -0.391 OA
ATOM     20  H   UNL A   1      34.466  24.935  22.959  1.00  0.00     0.211 HD
ENDBRANCH  17  19
ENDBRANCH  15  17
ENDBRANCH   7  15
ENDBRANCH   6   7
ENDBRANCH   5   6
ENDBRANCH   1   5
BRANCH   3  21
ATOM     21  C   UNL A   1      34.218  30.300  27.023  1.00  0.00     0.117 C 
BRANCH  21  22
ATOM     22  C   UNL A   1      34.206  31.570  27.891  1.00  0.00     0.042 C 
BRANCH  22  23
ATOM     23  C   UNL A   1      34.793  31.433  29.302  1.00  0.00     0.118 C 
BRANCH  23  24
ATOM     24  N   UNL A   1      36.090  32.060  29.601  1.00  0.00    -0.352 N 
ATOM     25  C   UNL A   1      37.365  31.510  29.536  1.00  0.00     0.251 C 
ATOM     26  H   UNL A   1      36.050  33.001  29.886  1.00  0.00     0.163 HD
ATOM     27  O   UNL A   1      38.359  32.154  29.733  1.00  0.00    -0.269 OA
BRANCH  25  28
ATOM     28  C   UNL A   1      37.455  30.061  29.203  1.00  0.00     0.039 A 
ATOM     29  C   UNL A   1      37.739  29.179  30.249  1.00  0.00     0.014 A 
ATOM     30  C   UNL A   1      37.737  29.735  27.876  1.00  0.00     0.014 A 
ATOM     31  C   UNL A   1      38.585  28.106  29.992  1.00  0.00     0.010 A 
ATOM     32  C   UNL A   1      38.600  28.680  27.629  1.00  0.00     0.010 A 
ATOM     33  C   UNL A   1      39.121  27.952  28.708  1.00  0.00    -0.014 A 
BRANCH  33  34
ATOM     34  C   UNL A   1      40.421  27.298  28.526  1.00  0.00     0.031 A 
ATOM     35  C   UNL A   1      40.539  25.868  28.208  1.00  0.00     0.074 A 
ATOM     36  C   UNL A   1      41.565  27.994  28.736  1.00  0.00     0.049 A 
ATOM     37  N   UNL A   1      41.456  25.111  28.714  1.00  0.00    -0.248 NA
ATOM     38  C   UNL A   1      39.630  25.175  27.308  1.00  0.00     0.031 C 
ATOM     39  C   UNL A   1      42.935  27.563  28.471  1.00  0.00     0.029 A 
ATOM     40  N   UNL A   1      41.724  29.214  29.412  1.00  0.00    -0.354 N 
ATOM     41  C   UNL A   1      41.430  23.921  28.029  1.00  0.00     0.074 A 
ATOM     42  C   UNL A   1      40.231  23.983  27.216  1.00  0.00     0.031 C 
ATOM     43  C   UNL A   1      43.770  28.304  29.218  1.00  0.00     0.029 A 
ATOM     44  C   UNL A   1      42.964  29.169  30.064  1.00  0.00     0.049 A 
ATOM     45  H   UNL A   1      41.084  29.961  29.424  1.00  0.00     0.167 HD
ATOM     46  C   UNL A   1      42.492  23.068  28.103  1.00  0.00     0.037 A 
ATOM     47  C   UNL A   1      43.107  29.372  31.400  1.00  0.00     0.037 A 
ATOM     48  C   UNL A   1      43.588  23.620  28.897  1.00  0.00     0.049 A 
ATOM     49  C   UNL A   1      43.793  28.232  32.093  1.00  0.00     0.074 A 
ATOM     50  C   UNL A   1      44.749  24.282  28.529  1.00  0.00     0.029 A 
ATOM     51  N   UNL A   1      43.459  23.790  30.271  1.00  0.00    -0.354 N 
ATOM     52  N   UNL A   1      43.957  27.065  31.545  1.00  0.00    -0.248 NA
ATOM     53  C   UNL A   1      44.276  28.283  33.468  1.00  0.00     0.031 C 
ATOM     54  C   UNL A   1      45.318  24.860  29.686  1.00  0.00     0.029 A 
ATOM     55  C   UNL A   1      44.506  24.549  30.763  1.00  0.00     0.049 A 
ATOM     56  H   UNL A   1      42.726  23.422  30.816  1.00  0.00     0.167 HD
ATOM     57  C   UNL A   1      44.469  26.198  32.469  1.00  0.00     0.074 A 
ATOM     58  C   UNL A   1      44.697  27.018  33.644  1.00  0.00     0.031 C 
ATOM     59  C   UNL A   1      44.611  24.874  32.179  1.00  0.00     0.037 A 
BRANCH  46  60
ATOM     60  C   UNL A   1      42.647  21.883  27.180  1.00  0.00     0.057 A 
ATOM     61  C   UNL A   1      41.900  20.702  27.357  1.00  0.00     0.134 A 
ATOM     62  C   UNL A   1      43.556  21.841  26.110  1.00  0.00     0.134 A 
ATOM     63  F   UNL A   1      40.904  20.620  28.248  1.00  0.00    -0.206 F 
ATOM     64  C   UNL A   1      42.139  19.533  26.626  1.00  0.00     0.040 A 
ATOM     65  C   UNL A   1      43.844  20.665  25.403  1.00  0.00     0.040 A 
ATOM     66  F   UNL A   1      44.183  22.951  25.689  1.00  0.00    -0.206 F 
ATOM     67  C   UNL A   1      43.146  19.497  25.674  1.00  0.00     0.006 A 
ENDBRANCH  46  60
BRANCH  47  68
ATOM     68  C   UNL A   1      42.093  30.236  32.051  1.00  0.00     0.057 A 
ATOM     69  C   UNL A   1      42.210  31.631  31.980  1.00  0.00     0.134 A 
ATOM     70  C   UNL A   1      40.881  29.724  32.524  1.00  0.00     0.134 A 
ATOM     71  F   UNL A   1      43.327  32.192  31.490  1.00  0.00    -0.206 F 
ATOM     72  C   UNL A   1      41.150  32.481  32.318  1.00  0.00     0.040 A 
ATOM     73  C   UNL A   1      39.806  30.561  32.843  1.00  0.00     0.040 A 
ATOM     74  F   UNL A   1      40.688  28.399  32.605  1.00  0.00    -0.206 F 
ATOM     75  C   UNL A   1      39.930  31.943  32.715  1.00  0.00     0.006 A 
ENDBRANCH  47  68
BRANCH  59  76
ATOM     76  C   UNL A   1      44.947  23.792  33.167  1.00  0.00     0.057 A 
ATOM     77  C   UNL A   1      46.209  23.618  33.752  1.00  0.00     0.134 A 
ATOM     78  C   UNL A   1      43.930  22.949  33.671  1.00  0.00     0.134 A 
ATOM     79  F   UNL A   1      47.238  24.424  33.457  1.00  0.00    -0.206 F 
ATOM     80  C   UNL A   1      46.461  22.635  34.718  1.00  0.00     0.040 A 
ATOM     81  C   UNL A   1      44.158  22.004  34.673  1.00  0.00     0.040 A 
ATOM     82  F   UNL A   1      42.667  23.025  33.225  1.00  0.00    -0.206 F 
ATOM     83  C   UNL A   1      45.432  21.832  35.190  1.00  0.00     0.006 A 
ENDBRANCH  59  76
ENDBRANCH  33  34
ENDBRANCH  25  28
ENDBRANCH  23  24
ENDBRANCH  22  23
ENDBRANCH  21  22
ENDBRANCH   3  21
TORSDOF 16
ENDMDL
MODEL 3
REMARK VINA RESULT:     -11.0      4.211      8.864
REMARK SMILES Cc1ccccc1N(CCC(=O)NCCCNC(=O)c1ccc(-c2c3nc(c(-c4c(F)cccc4F)c4ccc([nH]4)c(-c4c(F)cccc4F)c4nc(c(-c5c(F)cccc5F)c5ccc2[nH]5)C=C4)C=C3)cc1)[C@@H](C)[C@@H](C)O
REMARK SMILES IDX 11 1 12 2 13 3 10 5 9 6 8 7 7 8 1 9 2 10 3 11 4 12 6 13 5 14
REMARK SMILES IDX 74 15 75 16 76 17 77 18 78 19 14 21 15 22 16 23 17 24 18 25
REMARK SMILES IDX 19 27 20 28 21 29 73 30 22 31 72 32 23 33 24 34 25 35 66 36
REMARK SMILES IDX 26 37 71 38 65 39 67 40 27 41 70 42 64 43 63 44 28 46 54 47
REMARK SMILES IDX 37 48 53 49 38 50 41 51 52 52 68 53 39 54 40 55 51 57 69 58
REMARK SMILES IDX 42 59 29 60 30 61 35 62 31 63 32 64 34 65 36 66 33 67 55 68
REMARK SMILES IDX 56 69 61 70 57 71 58 72 60 73 62 74 59 75 43 76 44 77 49 78
REMARK SMILES IDX 45 79 46 80 48 81 50 82 47 83
REMARK H PARENT 13 4 78 20 17 26 67 45 41 56
REMARK Flexibility Score: inf
ROOT
ATOM      1  C   UNL A   1      37.731  22.666  25.370  1.00  0.00     0.221 C 
ATOM      2  O   UNL A   1      37.026  23.679  25.408  1.00  0.00    -0.275 OA
ATOM      3  N   UNL A   1      38.890  22.697  26.089  1.00  0.00    -0.356 N 
ATOM      4  H   UNL A   1      38.976  23.498  26.653  1.00  0.00     0.163 HD
ENDROOT
BRANCH   1   5
ATOM      5  C   UNL A   1      37.285  21.446  24.576  1.00  0.00     0.121 C 
BRANCH   5   6
ATOM      6  C   UNL A   1      36.323  20.522  25.372  1.00  0.00     0.127 C 
BRANCH   6   7
ATOM      7  N   UNL A   1      34.879  20.634  24.953  1.00  0.00    -0.366 N 
BRANCH   7   8
ATOM      8  C   UNL A   1      34.112  21.812  24.969  1.00  0.00     0.040 A 
ATOM      9  C   UNL A   1      34.044  22.485  27.589  1.00  0.00     0.046 C 
ATOM     10  C   UNL A   1      33.798  22.652  26.096  1.00  0.00    -0.028 A 
ATOM     11  C   UNL A   1      33.140  23.902  25.901  1.00  0.00     0.005 A 
ATOM     12  C   UNL A   1      32.722  24.339  24.661  1.00  0.00     0.000 A 
ATOM     13  C   UNL A   1      33.592  22.290  23.739  1.00  0.00     0.026 A 
ATOM     14  C   UNL A   1      32.925  23.515  23.579  1.00  0.00     0.002 A 
ENDBRANCH   7   8
BRANCH   7  15
ATOM     15  C   UNL A   1      34.302  19.334  24.624  1.00  0.00     0.107 C 
ATOM     16  C   UNL A   1      35.427  18.293  24.597  1.00  0.00     0.034 C 
BRANCH  15  17
ATOM     17  C   UNL A   1      32.936  19.036  25.308  1.00  0.00     0.133 C 
ATOM     18  C   UNL A   1      32.398  17.643  24.979  1.00  0.00     0.040 C 
BRANCH  17  19
ATOM     19  O   UNL A   1      33.065  19.102  26.734  1.00  0.00    -0.391 OA
ATOM     20  H   UNL A   1      32.216  19.361  27.124  1.00  0.00     0.211 HD
ENDBRANCH  17  19
ENDBRANCH  15  17
ENDBRANCH   7  15
ENDBRANCH   6   7
ENDBRANCH   5   6
ENDBRANCH   1   5
BRANCH   3  21
ATOM     21  C   UNL A   1      40.035  21.787  26.199  1.00  0.00     0.117 C 
BRANCH  21  22
ATOM     22  C   UNL A   1      40.871  22.127  27.445  1.00  0.00     0.042 C 
BRANCH  22  23
ATOM     23  C   UNL A   1      42.332  21.658  27.431  1.00  0.00     0.118 C 
BRANCH  23  24
ATOM     24  N   UNL A   1      42.789  20.777  26.346  1.00  0.00    -0.352 N 
ATOM     25  C   UNL A   1      43.775  20.999  25.392  1.00  0.00     0.251 C 
ATOM     26  H   UNL A   1      42.333  19.906  26.287  1.00  0.00     0.163 HD
ATOM     27  O   UNL A   1      44.111  20.162  24.599  1.00  0.00    -0.269 OA
BRANCH  25  28
ATOM     28  C   UNL A   1      44.417  22.343  25.391  1.00  0.00     0.039 A 
ATOM     29  C   UNL A   1      45.432  22.570  26.324  1.00  0.00     0.014 A 
ATOM     30  C   UNL A   1      43.681  23.394  24.843  1.00  0.00     0.014 A 
ATOM     31  C   UNL A   1      45.496  23.817  26.934  1.00  0.00     0.010 A 
ATOM     32  C   UNL A   1      43.732  24.628  25.471  1.00  0.00     0.010 A 
ATOM     33  C   UNL A   1      44.548  24.791  26.599  1.00  0.00    -0.014 A 
BRANCH  33  34
ATOM     34  C   UNL A   1      44.164  25.814  27.578  1.00  0.00     0.031 A 
ATOM     35  C   UNL A   1      42.797  26.349  27.653  1.00  0.00     0.074 A 
ATOM     36  C   UNL A   1      45.100  26.359  28.391  1.00  0.00     0.049 A 
ATOM     37  N   UNL A   1      42.544  27.595  27.881  1.00  0.00    -0.248 NA
ATOM     38  C   UNL A   1      41.609  25.529  27.467  1.00  0.00     0.031 C 
ATOM     39  C   UNL A   1      44.890  27.273  29.510  1.00  0.00     0.029 A 
ATOM     40  N   UNL A   1      46.496  26.318  28.253  1.00  0.00    -0.354 N 
ATOM     41  C   UNL A   1      41.198  27.702  28.129  1.00  0.00     0.074 A 
ATOM     42  C   UNL A   1      40.649  26.404  27.788  1.00  0.00     0.031 C 
ATOM     43  C   UNL A   1      46.037  27.930  29.751  1.00  0.00     0.029 A 
ATOM     44  C   UNL A   1      46.998  27.535  28.733  1.00  0.00     0.049 A 
ATOM     45  H   UNL A   1      47.025  25.572  27.887  1.00  0.00     0.167 HD
ATOM     46  C   UNL A   1      40.702  28.821  28.733  1.00  0.00     0.037 A 
ATOM     47  C   UNL A   1      47.789  28.356  27.992  1.00  0.00     0.037 A 
ATOM     48  C   UNL A   1      41.758  29.759  29.106  1.00  0.00     0.049 A 
ATOM     49  C   UNL A   1      47.235  29.744  27.869  1.00  0.00     0.074 A 
ATOM     50  C   UNL A   1      42.416  29.976  30.307  1.00  0.00     0.029 A 
ATOM     51  N   UNL A   1      42.481  30.443  28.135  1.00  0.00    -0.354 N 
ATOM     52  N   UNL A   1      46.007  30.047  28.170  1.00  0.00    -0.248 NA
ATOM     53  C   UNL A   1      47.980  30.876  27.331  1.00  0.00     0.031 C 
ATOM     54  C   UNL A   1      43.545  30.788  30.056  1.00  0.00     0.029 A 
ATOM     55  C   UNL A   1      43.576  31.071  28.702  1.00  0.00     0.049 A 
ATOM     56  H   UNL A   1      42.246  30.476  27.179  1.00  0.00     0.167 HD
ATOM     57  C   UNL A   1      45.758  31.341  27.808  1.00  0.00     0.074 A 
ATOM     58  C   UNL A   1      47.035  31.834  27.331  1.00  0.00     0.031 C 
ATOM     59  C   UNL A   1      44.500  31.860  27.899  1.00  0.00     0.037 A 
BRANCH  46  60
ATOM     60  C   UNL A   1      39.293  28.895  29.271  1.00  0.00     0.057 A 
ATOM     61  C   UNL A   1      38.233  29.416  28.504  1.00  0.00     0.134 A 
ATOM     62  C   UNL A   1      38.931  28.495  30.568  1.00  0.00     0.134 A 
ATOM     63  F   UNL A   1      38.379  29.724  27.209  1.00  0.00    -0.206 F 
ATOM     64  C   UNL A   1      36.957  29.652  29.029  1.00  0.00     0.040 A 
ATOM     65  C   UNL A   1      37.674  28.772  31.125  1.00  0.00     0.040 A 
ATOM     66  F   UNL A   1      39.776  27.793  31.338  1.00  0.00    -0.206 F 
ATOM     67  C   UNL A   1      36.686  29.372  30.359  1.00  0.00     0.006 A 
ENDBRANCH  46  60
BRANCH  47  68
ATOM     68  C   UNL A   1      48.621  27.709  26.950  1.00  0.00     0.057 A 
ATOM     69  C   UNL A   1      49.897  27.226  27.270  1.00  0.00     0.134 A 
ATOM     70  C   UNL A   1      48.091  27.332  25.712  1.00  0.00     0.134 A 
ATOM     71  F   UNL A   1      50.447  27.507  28.461  1.00  0.00    -0.206 F 
ATOM     72  C   UNL A   1      50.597  26.363  26.417  1.00  0.00     0.040 A 
ATOM     73  C   UNL A   1      48.771  26.453  24.861  1.00  0.00     0.040 A 
ATOM     74  F   UNL A   1      46.869  27.742  25.342  1.00  0.00    -0.206 F 
ATOM     75  C   UNL A   1      50.016  25.944  25.225  1.00  0.00     0.006 A 
ENDBRANCH  47  68
BRANCH  59  76
ATOM     76  C   UNL A   1      44.054  33.179  27.331  1.00  0.00     0.057 A 
ATOM     77  C   UNL A   1      43.870  33.430  25.964  1.00  0.00     0.134 A 
ATOM     78  C   UNL A   1      43.658  34.226  28.193  1.00  0.00     0.134 A 
ATOM     79  F   UNL A   1      44.092  32.487  25.039  1.00  0.00    -0.206 F 
ATOM     80  C   UNL A   1      43.391  34.655  25.484  1.00  0.00     0.040 A 
ATOM     81  C   UNL A   1      43.127  35.430  27.727  1.00  0.00     0.040 A 
ATOM     82  F   UNL A   1      43.750  34.113  29.527  1.00  0.00    -0.206 F 
ATOM     83  C   UNL A   1      43.006  35.656  26.365  1.00  0.00     0.006 A 
ENDBRANCH  59  76
ENDBRANCH  33  34
ENDBRANCH  25  28
ENDBRANCH  23  24
ENDBRANCH  22  23
ENDBRANCH  21  22
ENDBRANCH   3  21
TORSDOF 16
ENDMDL
