MODEL 1
REMARK VINA RESULT:     -11.8      0.000      0.000
REMARK SMILES C[C@@H](C(=O)NCCCNC(=O)c1ccc(-c2c3nc(c(-c4c(F)cccc4F)c4ccc([nH]4)c(-c4c(F)cccc4F)c4nc(c(-c5c(F)cccc5F)c5ccc2[nH]5)C=C4)C=C3)cc1)c1ccc(C[C@H]2CCC[C@H]2O)cc1
REMARK SMILES IDX 6 1 5 2 3 3 4 4 2 6 1 7 66 8 67 9 78 10 68 11 77 12 69 13
REMARK SMILES IDX 70 14 71 15 72 16 75 17 73 18 74 19 76 20 7 22 8 23 9 24
REMARK SMILES IDX 10 25 11 27 12 28 13 29 65 30 14 31 64 32 15 33 16 34 17 35
REMARK SMILES IDX 58 36 18 37 63 38 57 39 59 40 19 41 62 42 56 43 55 44 20 46
REMARK SMILES IDX 46 47 29 48 45 49 30 50 33 51 44 52 60 53 31 54 32 55 43 57
REMARK SMILES IDX 61 58 34 59 21 60 22 61 27 62 23 63 24 64 26 65 28 66 25 67
REMARK SMILES IDX 47 68 48 69 53 70 49 71 50 72 52 73 54 74 51 75 35 76 36 77
REMARK SMILES IDX 41 78 37 79 38 80 40 81 42 82 39 83
REMARK H PARENT 5 5 76 21 9 26 59 45 33 56
REMARK Flexibility Score: inf
ROOT
ATOM      1  C   UNL A   1      31.932  30.036  26.241  1.00  0.00     0.117 C 
ENDROOT
BRANCH   1   2
ATOM      2  N   UNL A   1      31.319  29.588  25.008  1.00  0.00    -0.356 N 
ATOM      3  C   UNL A   1      31.850  28.919  23.944  1.00  0.00     0.227 C 
ATOM      4  O   UNL A   1      31.093  28.743  22.987  1.00  0.00    -0.274 OA
ATOM      5  H   UNL A   1      30.362  29.801  24.923  1.00  0.00     0.163 HD
BRANCH   3   6
ATOM      6  C   UNL A   1      33.301  28.400  23.992  1.00  0.00     0.105 C 
ATOM      7  C   UNL A   1      34.040  28.598  22.667  1.00  0.00     0.023 C 
BRANCH   6   8
ATOM      8  C   UNL A   1      33.356  26.932  24.399  1.00  0.00    -0.036 A 
ATOM      9  C   UNL A   1      33.130  26.546  25.728  1.00  0.00     0.005 A 
ATOM     10  C   UNL A   1      33.681  25.945  23.459  1.00  0.00     0.005 A 
ATOM     11  C   UNL A   1      33.278  25.218  26.119  1.00  0.00     0.004 A 
ATOM     12  C   UNL A   1      33.843  24.616  23.858  1.00  0.00     0.004 A 
ATOM     13  C   UNL A   1      33.693  24.250  25.202  1.00  0.00    -0.048 A 
BRANCH  13  14
ATOM     14  C   UNL A   1      34.034  22.858  25.671  1.00  0.00     0.041 C 
BRANCH  14  15
ATOM     15  C   UNL A   1      33.741  21.700  24.699  1.00  0.00     0.022 C 
ATOM     16  C   UNL A   1      34.506  20.390  24.953  1.00  0.00     0.007 C 
ATOM     17  C   UNL A   1      32.281  21.263  24.499  1.00  0.00     0.117 C 
ATOM     18  C   UNL A   1      33.612  19.264  24.427  1.00  0.00     0.003 C 
ATOM     19  C   UNL A   1      32.429  19.944  23.747  1.00  0.00     0.032 C 
BRANCH  17  20
ATOM     20  O   UNL A   1      31.552  21.027  25.689  1.00  0.00    -0.393 OA
ATOM     21  H   UNL A   1      31.788  21.697  26.350  1.00  0.00     0.210 HD
ENDBRANCH  17  20
ENDBRANCH  14  15
ENDBRANCH  13  14
ENDBRANCH   6   8
ENDBRANCH   3   6
ENDBRANCH   1   2
BRANCH   1  22
ATOM     22  C   UNL A   1      31.657  31.515  26.495  1.00  0.00     0.042 C 
BRANCH  22  23
ATOM     23  C   UNL A   1      32.797  32.246  27.197  1.00  0.00     0.118 C 
BRANCH  23  24
ATOM     24  N   UNL A   1      32.472  33.632  27.503  1.00  0.00    -0.352 N 
ATOM     25  C   UNL A   1      33.053  34.486  28.410  1.00  0.00     0.251 C 
ATOM     26  H   UNL A   1      31.726  34.013  26.986  1.00  0.00     0.163 HD
ATOM     27  O   UNL A   1      32.533  35.565  28.663  1.00  0.00    -0.269 OA
BRANCH  25  28
ATOM     28  C   UNL A   1      34.301  34.089  29.098  1.00  0.00     0.039 A 
ATOM     29  C   UNL A   1      34.219  33.352  30.284  1.00  0.00     0.014 A 
ATOM     30  C   UNL A   1      35.545  34.443  28.573  1.00  0.00     0.014 A 
ATOM     31  C   UNL A   1      35.388  32.904  30.903  1.00  0.00     0.010 A 
ATOM     32  C   UNL A   1      36.704  33.936  29.149  1.00  0.00     0.010 A 
ATOM     33  C   UNL A   1      36.638  33.161  30.318  1.00  0.00    -0.014 A 
BRANCH  33  34
ATOM     34  C   UNL A   1      37.903  32.646  30.898  1.00  0.00     0.031 A 
ATOM     35  C   UNL A   1      38.565  31.447  30.283  1.00  0.00     0.074 A 
ATOM     36  C   UNL A   1      38.382  33.170  32.041  1.00  0.00     0.049 A 
ATOM     37  N   UNL A   1      39.547  30.714  30.742  1.00  0.00    -0.248 NA
ATOM     38  C   UNL A   1      38.021  30.989  28.995  1.00  0.00     0.031 C 
ATOM     39  C   UNL A   1      37.810  34.312  32.755  1.00  0.00     0.029 A 
ATOM     40  N   UNL A   1      39.441  32.784  32.824  1.00  0.00    -0.354 N 
ATOM     41  C   UNL A   1      39.713  29.689  29.819  1.00  0.00     0.074 A 
ATOM     42  C   UNL A   1      38.706  29.874  28.796  1.00  0.00     0.031 C 
ATOM     43  C   UNL A   1      38.518  34.528  33.875  1.00  0.00     0.029 A 
ATOM     44  C   UNL A   1      39.563  33.515  33.981  1.00  0.00     0.049 A 
ATOM     45  H   UNL A   1      40.054  32.053  32.580  1.00  0.00     0.167 HD
ATOM     46  C   UNL A   1      40.629  28.692  29.819  1.00  0.00     0.037 A 
ATOM     47  C   UNL A   1      40.402  33.367  35.024  1.00  0.00     0.037 A 
ATOM     48  C   UNL A   1      41.644  28.530  30.825  1.00  0.00     0.049 A 
ATOM     49  C   UNL A   1      41.416  32.259  35.004  1.00  0.00     0.074 A 
ATOM     50  C   UNL A   1      42.662  27.595  30.882  1.00  0.00     0.029 A 
ATOM     51  N   UNL A   1      41.769  29.327  31.954  1.00  0.00    -0.354 N 
ATOM     52  N   UNL A   1      41.600  31.326  34.100  1.00  0.00    -0.248 NA
ATOM     53  C   UNL A   1      42.340  32.182  36.144  1.00  0.00     0.031 C 
ATOM     54  C   UNL A   1      43.378  27.800  32.067  1.00  0.00     0.029 A 
ATOM     55  C   UNL A   1      42.835  28.893  32.724  1.00  0.00     0.049 A 
ATOM     56  H   UNL A   1      41.185  30.088  32.176  1.00  0.00     0.167 HD
ATOM     57  C   UNL A   1      42.676  30.569  34.547  1.00  0.00     0.074 A 
ATOM     58  C   UNL A   1      43.104  31.152  35.802  1.00  0.00     0.031 C 
ATOM     59  C   UNL A   1      43.257  29.492  33.965  1.00  0.00     0.037 A 
BRANCH  46  60
ATOM     60  C   UNL A   1      40.556  27.694  28.701  1.00  0.00     0.057 A 
ATOM     61  C   UNL A   1      41.297  27.847  27.521  1.00  0.00     0.134 A 
ATOM     62  C   UNL A   1      39.730  26.568  28.801  1.00  0.00     0.134 A 
ATOM     63  F   UNL A   1      42.098  28.911  27.354  1.00  0.00    -0.206 F 
ATOM     64  C   UNL A   1      41.187  26.939  26.466  1.00  0.00     0.040 A 
ATOM     65  C   UNL A   1      39.635  25.637  27.766  1.00  0.00     0.040 A 
ATOM     66  F   UNL A   1      38.998  26.355  29.906  1.00  0.00    -0.206 F 
ATOM     67  C   UNL A   1      40.356  25.827  26.590  1.00  0.00     0.006 A 
ENDBRANCH  46  60
BRANCH  47  68
ATOM     68  C   UNL A   1      40.313  34.305  36.169  1.00  0.00     0.057 A 
ATOM     69  C   UNL A   1      40.978  35.535  36.145  1.00  0.00     0.134 A 
ATOM     70  C   UNL A   1      39.532  34.015  37.293  1.00  0.00     0.134 A 
ATOM     71  F   UNL A   1      41.754  35.862  35.101  1.00  0.00    -0.206 F 
ATOM     72  C   UNL A   1      40.875  36.443  37.201  1.00  0.00     0.040 A 
ATOM     73  C   UNL A   1      39.402  34.920  38.347  1.00  0.00     0.040 A 
ATOM     74  F   UNL A   1      38.861  32.855  37.371  1.00  0.00    -0.206 F 
ATOM     75  C   UNL A   1      40.078  36.138  38.303  1.00  0.00     0.006 A 
ENDBRANCH  47  68
BRANCH  59  76
ATOM     76  C   UNL A   1      44.450  28.894  34.649  1.00  0.00     0.057 A 
ATOM     77  C   UNL A   1      45.747  29.365  34.418  1.00  0.00     0.134 A 
ATOM     78  C   UNL A   1      44.285  27.887  35.609  1.00  0.00     0.134 A 
ATOM     79  F   UNL A   1      45.972  30.319  33.503  1.00  0.00    -0.206 F 
ATOM     80  C   UNL A   1      46.842  28.849  35.116  1.00  0.00     0.040 A 
ATOM     81  C   UNL A   1      45.367  27.379  36.327  1.00  0.00     0.040 A 
ATOM     82  F   UNL A   1      43.064  27.399  35.880  1.00  0.00    -0.206 F 
ATOM     83  C   UNL A   1      46.651  27.861  36.080  1.00  0.00     0.006 A 
ENDBRANCH  59  76
ENDBRANCH  33  34
ENDBRANCH  25  28
ENDBRANCH  23  24
ENDBRANCH  22  23
ENDBRANCH   1  22
TORSDOF 14
ENDMDL
MODEL 2
REMARK VINA RESULT:     -11.8      5.031     10.146
REMARK SMILES C[C@@H](C(=O)NCCCNC(=O)c1ccc(-c2c3nc(c(-c4c(F)cccc4F)c4ccc([nH]4)c(-c4c(F)cccc4F)c4nc(c(-c5c(F)cccc5F)c5ccc2[nH]5)C=C4)C=C3)cc1)c1ccc(C[C@H]2CCC[C@H]2O)cc1
REMARK SMILES IDX 6 1 5 2 3 3 4 4 2 6 1 7 66 8 67 9 78 10 68 11 77 12 69 13
REMARK SMILES IDX 70 14 71 15 72 16 75 17 73 18 74 19 76 20 7 22 8 23 9 24
REMARK SMILES IDX 10 25 11 27 12 28 13 29 65 30 14 31 64 32 15 33 16 34 17 35
REMARK SMILES IDX 58 36 18 37 63 38 57 39 59 40 19 41 62 42 56 43 55 44 20 46
REMARK SMILES IDX 46 47 29 48 45 49 30 50 33 51 44 52 60 53 31 54 32 55 43 57
REMARK SMILES IDX 61 58 34 59 21 60 22 61 27 62 23 63 24 64 26 65 28 66 25 67
REMARK SMILES IDX 47 68 48 69 53 70 49 71 50 72 52 73 54 74 51 75 35 76 36 77
REMARK SMILES IDX 41 78 37 79 38 80 40 81 42 82 39 83
REMARK H PARENT 5 5 76 21 9 26 59 45 33 56
REMARK Flexibility Score: inf
ROOT
ATOM      1  C   UNL A   1      36.698  21.196  24.964  1.00  0.00     0.117 C 
ENDROOT
BRANCH   1   2
ATOM      2  N   UNL A   1      35.345  20.682  25.035  1.00  0.00    -0.356 N 
ATOM      3  C   UNL A   1      34.282  21.086  25.789  1.00  0.00     0.227 C 
ATOM      4  O   UNL A   1      33.264  20.396  25.695  1.00  0.00    -0.274 OA
ATOM      5  H   UNL A   1      35.163  19.918  24.444  1.00  0.00     0.163 HD
BRANCH   3   6
ATOM      6  C   UNL A   1      34.377  22.353  26.661  1.00  0.00     0.105 C 
ATOM      7  C   UNL A   1      33.610  22.220  27.978  1.00  0.00     0.023 C 
BRANCH   6   8
ATOM      8  C   UNL A   1      33.894  23.588  25.907  1.00  0.00    -0.036 A 
ATOM      9  C   UNL A   1      34.660  24.139  24.869  1.00  0.00     0.005 A 
ATOM     10  C   UNL A   1      32.699  24.221  26.269  1.00  0.00     0.005 A 
ATOM     11  C   UNL A   1      34.268  25.323  24.247  1.00  0.00     0.004 A 
ATOM     12  C   UNL A   1      32.317  25.416  25.654  1.00  0.00     0.004 A 
ATOM     13  C   UNL A   1      33.127  26.004  24.673  1.00  0.00    -0.048 A 
BRANCH  13  14
ATOM     14  C   UNL A   1      32.815  27.375  24.128  1.00  0.00     0.041 C 
BRANCH  14  15
ATOM     15  C   UNL A   1      31.334  27.800  24.104  1.00  0.00     0.022 C 
ATOM     16  C   UNL A   1      31.057  29.307  24.230  1.00  0.00     0.007 C 
ATOM     17  C   UNL A   1      30.460  27.343  22.925  1.00  0.00     0.117 C 
ATOM     18  C   UNL A   1      29.740  29.563  23.495  1.00  0.00     0.003 C 
ATOM     19  C   UNL A   1      29.205  28.193  23.092  1.00  0.00     0.032 C 
BRANCH  17  20
ATOM     20  O   UNL A   1      31.003  27.587  21.639  1.00  0.00    -0.393 OA
ATOM     21  H   UNL A   1      31.339  28.496  21.599  1.00  0.00     0.210 HD
ENDBRANCH  17  20
ENDBRANCH  14  15
ENDBRANCH  13  14
ENDBRANCH   6   8
ENDBRANCH   3   6
ENDBRANCH   1   2
BRANCH   1  22
ATOM     22  C   UNL A   1      37.726  20.071  25.042  1.00  0.00     0.042 C 
BRANCH  22  23
ATOM     23  C   UNL A   1      38.999  20.446  25.792  1.00  0.00     0.118 C 
BRANCH  23  24
ATOM     24  N   UNL A   1      39.974  19.365  25.822  1.00  0.00    -0.352 N 
ATOM     25  C   UNL A   1      41.330  19.415  26.044  1.00  0.00     0.251 C 
ATOM     26  H   UNL A   1      39.609  18.466  25.658  1.00  0.00     0.163 HD
ATOM     27  O   UNL A   1      42.024  18.425  25.854  1.00  0.00    -0.269 OA
BRANCH  25  28
ATOM     28  C   UNL A   1      41.953  20.679  26.493  1.00  0.00     0.039 A 
ATOM     29  C   UNL A   1      42.409  21.591  25.536  1.00  0.00     0.014 A 
ATOM     30  C   UNL A   1      42.087  20.960  27.854  1.00  0.00     0.014 A 
ATOM     31  C   UNL A   1      42.930  22.821  25.944  1.00  0.00     0.010 A 
ATOM     32  C   UNL A   1      42.538  22.212  28.257  1.00  0.00     0.010 A 
ATOM     33  C   UNL A   1      42.962  23.155  27.307  1.00  0.00    -0.014 A 
BRANCH  33  34
ATOM     34  C   UNL A   1      43.438  24.476  27.786  1.00  0.00     0.031 A 
ATOM     35  C   UNL A   1      42.440  25.530  28.168  1.00  0.00     0.074 A 
ATOM     36  C   UNL A   1      44.752  24.769  27.756  1.00  0.00     0.049 A 
ATOM     37  N   UNL A   1      42.626  26.802  28.411  1.00  0.00    -0.248 NA
ATOM     38  C   UNL A   1      41.035  25.099  28.249  1.00  0.00     0.031 C 
ATOM     39  C   UNL A   1      45.818  23.845  27.370  1.00  0.00     0.029 A 
ATOM     40  N   UNL A   1      45.409  25.946  28.019  1.00  0.00    -0.354 N 
ATOM     41  C   UNL A   1      41.362  27.330  28.636  1.00  0.00     0.074 A 
ATOM     42  C   UNL A   1      40.415  26.249  28.463  1.00  0.00     0.031 C 
ATOM     43  C   UNL A   1      46.995  24.490  27.413  1.00  0.00     0.029 A 
ATOM     44  C   UNL A   1      46.761  25.883  27.784  1.00  0.00     0.049 A 
ATOM     45  H   UNL A   1      44.955  26.756  28.344  1.00  0.00     0.167 HD
ATOM     46  C   UNL A   1      41.022  28.598  28.969  1.00  0.00     0.037 A 
ATOM     47  C   UNL A   1      47.702  26.845  27.831  1.00  0.00     0.037 A 
ATOM     48  C   UNL A   1      41.971  29.661  29.166  1.00  0.00     0.049 A 
ATOM     49  C   UNL A   1      47.309  28.244  28.208  1.00  0.00     0.074 A 
ATOM     50  C   UNL A   1      41.737  30.963  29.570  1.00  0.00     0.029 A 
ATOM     51  N   UNL A   1      43.339  29.542  28.972  1.00  0.00    -0.354 N 
ATOM     52  N   UNL A   1      46.116  28.723  28.472  1.00  0.00    -0.248 NA
ATOM     53  C   UNL A   1      48.388  29.238  28.297  1.00  0.00     0.031 C 
ATOM     54  C   UNL A   1      42.959  31.643  29.581  1.00  0.00     0.029 A 
ATOM     55  C   UNL A   1      43.961  30.752  29.230  1.00  0.00     0.049 A 
ATOM     56  H   UNL A   1      43.801  28.718  28.692  1.00  0.00     0.167 HD
ATOM     57  C   UNL A   1      46.303  30.063  28.784  1.00  0.00     0.074 A 
ATOM     58  C   UNL A   1      47.724  30.322  28.678  1.00  0.00     0.031 C 
ATOM     59  C   UNL A   1      45.379  30.991  29.132  1.00  0.00     0.037 A 
BRANCH  46  60
ATOM     60  C   UNL A   1      39.560  28.898  29.123  1.00  0.00     0.057 A 
ATOM     61  C   UNL A   1      38.901  28.768  30.352  1.00  0.00     0.134 A 
ATOM     62  C   UNL A   1      38.798  29.318  28.024  1.00  0.00     0.134 A 
ATOM     63  F   UNL A   1      39.569  28.357  31.441  1.00  0.00    -0.206 F 
ATOM     64  C   UNL A   1      37.531  29.004  30.476  1.00  0.00     0.040 A 
ATOM     65  C   UNL A   1      37.433  29.586  28.143  1.00  0.00     0.040 A 
ATOM     66  F   UNL A   1      39.366  29.471  26.819  1.00  0.00    -0.206 F 
ATOM     67  C   UNL A   1      36.794  29.418  29.368  1.00  0.00     0.006 A 
ENDBRANCH  46  60
BRANCH  47  68
ATOM     68  C   UNL A   1      49.111  26.502  27.517  1.00  0.00     0.057 A 
ATOM     69  C   UNL A   1      49.993  26.092  28.522  1.00  0.00     0.134 A 
ATOM     70  C   UNL A   1      49.597  26.536  26.205  1.00  0.00     0.134 A 
ATOM     71  F   UNL A   1      49.589  26.054  29.800  1.00  0.00    -0.206 F 
ATOM     72  C   UNL A   1      51.311  25.732  28.235  1.00  0.00     0.040 A 
ATOM     73  C   UNL A   1      50.906  26.161  25.901  1.00  0.00     0.040 A 
ATOM     74  F   UNL A   1      48.796  26.911  25.196  1.00  0.00    -0.206 F 
ATOM     75  C   UNL A   1      51.768  25.759  26.918  1.00  0.00     0.006 A 
ENDBRANCH  47  68
BRANCH  59  76
ATOM     76  C   UNL A   1      45.871  32.367  29.471  1.00  0.00     0.057 A 
ATOM     77  C   UNL A   1      45.929  33.386  28.514  1.00  0.00     0.134 A 
ATOM     78  C   UNL A   1      46.216  32.691  30.788  1.00  0.00     0.134 A 
ATOM     79  F   UNL A   1      45.623  33.136  27.233  1.00  0.00    -0.206 F 
ATOM     80  C   UNL A   1      46.319  34.683  28.857  1.00  0.00     0.040 A 
ATOM     81  C   UNL A   1      46.587  33.987  31.148  1.00  0.00     0.040 A 
ATOM     82  F   UNL A   1      46.174  31.758  31.753  1.00  0.00    -0.206 F 
ATOM     83  C   UNL A   1      46.639  34.987  30.179  1.00  0.00     0.006 A 
ENDBRANCH  59  76
ENDBRANCH  33  34
ENDBRANCH  25  28
ENDBRANCH  23  24
ENDBRANCH  22  23
ENDBRANCH   1  22
TORSDOF 14
ENDMDL
MODEL 3
REMARK VINA RESULT:     -11.7      1.186      2.192
REMARK SMILES C[C@@H](C(=O)NCCCNC(=O)c1ccc(-c2c3nc(c(-c4c(F)cccc4F)c4ccc([nH]4)c(-c4c(F)cccc4F)c4nc(c(-c5c(F)cccc5F)c5ccc2[nH]5)C=C4)C=C3)cc1)c1ccc(C[C@H]2CCC[C@H]2O)cc1
REMARK SMILES IDX 6 1 5 2 3 3 4 4 2 6 1 7 66 8 67 9 78 10 68 11 77 12 69 13
REMARK SMILES IDX 70 14 71 15 72 16 75 17 73 18 74 19 76 20 7 22 8 23 9 24
REMARK SMILES IDX 10 25 11 27 12 28 13 29 65 30 14 31 64 32 15 33 16 34 17 35
REMARK SMILES IDX 58 36 18 37 63 38 57 39 59 40 19 41 62 42 56 43 55 44 20 46
REMARK SMILES IDX 46 47 29 48 45 49 30 50 33 51 44 52 60 53 31 54 32 55 43 57
REMARK SMILES IDX 61 58 34 59 21 60 22 61 27 62 23 63 24 64 26 65 28 66 25 67
REMARK SMILES IDX 47 68 48 69 53 70 49 71 50 72 52 73 54 74 51 75 35 76 36 77
REMARK SMILES IDX 41 78 37 79 38 80 40 81 42 82 39 83
REMARK H PARENT 5 5 76 21 9 26 59 45 33 56
REMARK Flexibility Score: inf
ROOT
ATOM      1  C   UNL A   1      31.255  30.650  25.459  1.00  0.00     0.117 C 
ENDROOT
BRANCH   1   2
ATOM      2  N   UNL A   1      32.624  30.185  25.547  1.00  0.00    -0.356 N 
ATOM      3  C   UNL A   1      33.126  28.923  25.672  1.00  0.00     0.227 C 
ATOM      4  O   UNL A   1      34.349  28.841  25.806  1.00  0.00    -0.274 OA
ATOM      5  H   UNL A   1      33.303  30.895  25.511  1.00  0.00     0.163 HD
BRANCH   3   6
ATOM      6  C   UNL A   1      32.192  27.699  25.606  1.00  0.00     0.105 C 
ATOM      7  C   UNL A   1      31.462  27.444  26.927  1.00  0.00     0.023 C 
BRANCH   6   8
ATOM      8  C   UNL A   1      32.945  26.442  25.183  1.00  0.00    -0.036 A 
ATOM      9  C   UNL A   1      33.381  26.278  23.860  1.00  0.00     0.005 A 
ATOM     10  C   UNL A   1      33.174  25.407  26.099  1.00  0.00     0.005 A 
ATOM     11  C   UNL A   1      33.981  25.090  23.451  1.00  0.00     0.004 A 
ATOM     12  C   UNL A   1      33.762  24.211  25.681  1.00  0.00     0.004 A 
ATOM     13  C   UNL A   1      34.123  24.024  24.340  1.00  0.00    -0.048 A 
BRANCH  13  14
ATOM     14  C   UNL A   1      34.597  22.680  23.844  1.00  0.00     0.041 C 
BRANCH  14  15
ATOM     15  C   UNL A   1      36.058  22.298  24.143  1.00  0.00     0.022 C 
ATOM     16  C   UNL A   1      36.973  23.437  24.624  1.00  0.00     0.007 C 
ATOM     17  C   UNL A   1      36.329  21.145  25.124  1.00  0.00     0.117 C 
ATOM     18  C   UNL A   1      38.044  22.784  25.501  1.00  0.00     0.003 C 
ATOM     19  C   UNL A   1      37.823  21.279  25.391  1.00  0.00     0.032 C 
BRANCH  17  20
ATOM     20  O   UNL A   1      35.638  21.227  26.358  1.00  0.00    -0.393 OA
ATOM     21  H   UNL A   1      34.683  21.180  26.196  1.00  0.00     0.210 HD
ENDBRANCH  17  20
ENDBRANCH  14  15
ENDBRANCH  13  14
ENDBRANCH   6   8
ENDBRANCH   3   6
ENDBRANCH   1   2
BRANCH   1  22
ATOM     22  C   UNL A   1      31.044  31.920  26.276  1.00  0.00     0.042 C 
BRANCH  22  23
ATOM     23  C   UNL A   1      32.316  32.462  26.921  1.00  0.00     0.118 C 
BRANCH  23  24
ATOM     24  N   UNL A   1      32.159  33.820  27.420  1.00  0.00    -0.352 N 
ATOM     25  C   UNL A   1      32.907  34.502  28.351  1.00  0.00     0.251 C 
ATOM     26  H   UNL A   1      31.406  34.325  27.037  1.00  0.00     0.163 HD
ATOM     27  O   UNL A   1      32.522  35.580  28.784  1.00  0.00    -0.269 OA
BRANCH  25  28
ATOM     28  C   UNL A   1      34.172  33.917  28.847  1.00  0.00     0.039 A 
ATOM     29  C   UNL A   1      35.386  34.408  28.358  1.00  0.00     0.014 A 
ATOM     30  C   UNL A   1      34.157  32.888  29.791  1.00  0.00     0.014 A 
ATOM     31  C   UNL A   1      36.589  33.919  28.872  1.00  0.00     0.010 A 
ATOM     32  C   UNL A   1      35.352  32.455  30.354  1.00  0.00     0.010 A 
ATOM     33  C   UNL A   1      36.579  32.966  29.903  1.00  0.00    -0.014 A 
BRANCH  33  34
ATOM     34  C   UNL A   1      37.827  32.469  30.532  1.00  0.00     0.031 A 
ATOM     35  C   UNL A   1      38.512  31.258  29.965  1.00  0.00     0.074 A 
ATOM     36  C   UNL A   1      38.270  33.021  31.678  1.00  0.00     0.049 A 
ATOM     37  N   UNL A   1      39.481  30.540  30.470  1.00  0.00    -0.248 NA
ATOM     38  C   UNL A   1      38.009  30.771  28.671  1.00  0.00     0.031 C 
ATOM     39  C   UNL A   1      37.672  34.175  32.347  1.00  0.00     0.029 A 
ATOM     40  N   UNL A   1      39.305  32.656  32.501  1.00  0.00    -0.354 N 
ATOM     41  C   UNL A   1      39.678  29.496  29.576  1.00  0.00     0.074 A 
ATOM     42  C   UNL A   1      38.703  29.653  28.519  1.00  0.00     0.031 C 
ATOM     43  C   UNL A   1      38.345  34.420  33.484  1.00  0.00     0.029 A 
ATOM     44  C   UNL A   1      39.390  33.413  33.644  1.00  0.00     0.049 A 
ATOM     45  H   UNL A   1      39.928  31.922  32.293  1.00  0.00     0.167 HD
ATOM     46  C   UNL A   1      40.597  28.502  29.627  1.00  0.00     0.037 A 
ATOM     47  C   UNL A   1      40.197  33.291  34.715  1.00  0.00     0.037 A 
ATOM     48  C   UNL A   1      41.582  28.367  30.667  1.00  0.00     0.049 A 
ATOM     49  C   UNL A   1      41.214  32.187  34.751  1.00  0.00     0.074 A 
ATOM     50  C   UNL A   1      42.600  27.437  30.776  1.00  0.00     0.029 A 
ATOM     51  N   UNL A   1      41.669  29.189  31.781  1.00  0.00    -0.354 N 
ATOM     52  N   UNL A   1      41.429  31.235  33.875  1.00  0.00    -0.248 NA
ATOM     53  C   UNL A   1      42.104  32.139  35.921  1.00  0.00     0.031 C 
ATOM     54  C   UNL A   1      43.279  27.671  31.977  1.00  0.00     0.029 A 
ATOM     55  C   UNL A   1      42.713  28.776  32.592  1.00  0.00     0.049 A 
ATOM     56  H   UNL A   1      41.077  29.953  31.967  1.00  0.00     0.167 HD
ATOM     57  C   UNL A   1      42.493  30.492  34.371  1.00  0.00     0.074 A 
ATOM     58  C   UNL A   1      42.881  31.105  35.626  1.00  0.00     0.031 C 
ATOM     59  C   UNL A   1      43.095  29.405  33.832  1.00  0.00     0.037 A 
BRANCH  46  60
ATOM     60  C   UNL A   1      40.562  27.479  28.529  1.00  0.00     0.057 A 
ATOM     61  C   UNL A   1      41.328  27.614  27.364  1.00  0.00     0.134 A 
ATOM     62  C   UNL A   1      39.746  26.346  28.636  1.00  0.00     0.134 A 
ATOM     63  F   UNL A   1      42.121  28.683  27.192  1.00  0.00    -0.206 F 
ATOM     64  C   UNL A   1      41.254  26.682  26.327  1.00  0.00     0.040 A 
ATOM     65  C   UNL A   1      39.686  25.391  27.619  1.00  0.00     0.040 A 
ATOM     66  F   UNL A   1      38.991  26.149  29.728  1.00  0.00    -0.206 F 
ATOM     67  C   UNL A   1      40.432  25.564  26.456  1.00  0.00     0.006 A 
ENDBRANCH  46  60
BRANCH  47  68
ATOM     68  C   UNL A   1      40.070  34.255  35.836  1.00  0.00     0.057 A 
ATOM     69  C   UNL A   1      39.336  33.934  36.982  1.00  0.00     0.134 A 
ATOM     70  C   UNL A   1      40.709  35.500  35.805  1.00  0.00     0.134 A 
ATOM     71  F   UNL A   1      38.689  32.762  37.063  1.00  0.00    -0.206 F 
ATOM     72  C   UNL A   1      39.238  34.818  38.059  1.00  0.00     0.040 A 
ATOM     73  C   UNL A   1      40.636  36.385  36.881  1.00  0.00     0.040 A 
ATOM     74  F   UNL A   1      41.436  35.862  34.737  1.00  0.00    -0.206 F 
ATOM     75  C   UNL A   1      39.897  36.046  38.012  1.00  0.00     0.006 A 
ENDBRANCH  47  68
BRANCH  59  76
ATOM     76  C   UNL A   1      44.268  28.826  34.565  1.00  0.00     0.057 A 
ATOM     77  C   UNL A   1      44.118  27.804  35.509  1.00  0.00     0.134 A 
ATOM     78  C   UNL A   1      45.570  29.246  34.263  1.00  0.00     0.134 A 
ATOM     79  F   UNL A   1      42.898  27.366  35.850  1.00  0.00    -0.206 F 
ATOM     80  C   UNL A   1      45.225  27.222  36.131  1.00  0.00     0.040 A 
ATOM     81  C   UNL A   1      46.684  28.659  34.862  1.00  0.00     0.040 A 
ATOM     82  F   UNL A   1      45.779  30.219  33.362  1.00  0.00    -0.206 F 
ATOM     83  C   UNL A   1      46.512  27.643  35.800  1.00  0.00     0.006 A 
ENDBRANCH  59  76
ENDBRANCH  33  34
ENDBRANCH  25  28
ENDBRANCH  23  24
ENDBRANCH  22  23
ENDBRANCH   1  22
TORSDOF 14
ENDMDL
