MODEL 1
REMARK VINA RESULT:     -11.2      0.000      0.000
REMARK SMILES C[C@@](NC(=O)NCC(N)=O)(C(=O)NCCCNC(=O)c1ccc(-c2c3nc(c(-c4c(F)cccc4F)c4ccc([nH]4)c(-c4c(F)cccc4F)c4nc(c(-c5c(F)cccc5F)c5ccc2[nH]5)C=C4)C=C3)cc1)C(F)(F)F
REMARK SMILES IDX 14 1 13 2 11 3 12 4 2 6 1 7 3 8 4 9 5 11 6 12 7 14 8 15 9 16
REMARK SMILES IDX 10 17 74 20 75 21 76 22 77 23 15 24 16 25 17 26 18 27 19 29
REMARK SMILES IDX 20 30 21 31 73 32 22 33 72 34 23 35 24 36 25 37 66 38 26 39
REMARK SMILES IDX 71 40 65 41 67 42 27 43 70 44 64 45 63 46 28 48 54 49 37 50
REMARK SMILES IDX 53 51 38 52 41 53 52 54 68 55 39 56 40 57 51 59 69 60 42 61
REMARK SMILES IDX 29 62 30 63 35 64 31 65 32 66 34 67 36 68 33 69 55 70 56 71
REMARK SMILES IDX 61 72 57 73 58 74 60 75 62 76 59 77 43 78 44 79 49 80 45 81
REMARK SMILES IDX 46 82 48 83 50 84 47 85
REMARK H PARENT 13 5 3 10 6 13 9 18 9 19 17 28 67 47 41 58
REMARK Flexibility Score: inf
ROOT
ATOM      1  C   UNL A   1      36.856  21.049  24.705  1.00  0.00     0.117 C 
ENDROOT
BRANCH   1   2
ATOM      2  N   UNL A   1      36.044  21.000  25.913  1.00  0.00    -0.354 N 
ATOM      3  C   UNL A   1      34.925  21.709  26.250  1.00  0.00     0.255 C 
ATOM      4  O   UNL A   1      34.440  21.442  27.353  1.00  0.00    -0.272 OA
ATOM      5  H   UNL A   1      36.348  20.354  26.592  1.00  0.00     0.163 HD
BRANCH   3   6
ATOM      6  C   UNL A   1      34.422  22.860  25.371  1.00  0.00     0.213 C 
ATOM      7  C   UNL A   1      34.542  22.313  23.924  1.00  0.00     0.056 C 
BRANCH   6   8
ATOM      8  N   UNL A   1      32.989  23.220  25.611  1.00  0.00    -0.316 N 
ATOM      9  C   UNL A   1      31.868  22.535  25.864  1.00  0.00     0.316 C 
ATOM     10  H   UNL A   1      32.834  24.192  25.573  1.00  0.00     0.166 HD
ATOM     11  O   UNL A   1      30.937  23.171  26.362  1.00  0.00    -0.249 OA
ATOM     12  N   UNL A   1      31.675  21.247  25.579  1.00  0.00    -0.329 N 
ATOM     13  H   UNL A   1      30.874  20.872  26.012  1.00  0.00     0.165 HD
BRANCH  12  14
ATOM     14  C   UNL A   1      32.385  20.282  24.768  1.00  0.00     0.217 C 
BRANCH  14  15
ATOM     15  C   UNL A   1      32.433  18.870  25.340  1.00  0.00     0.236 C 
ATOM     16  N   UNL A   1      32.941  18.803  26.610  1.00  0.00    -0.368 N 
ATOM     17  O   UNL A   1      32.017  17.873  24.761  1.00  0.00    -0.273 OA
ATOM     18  H   UNL A   1      33.268  19.619  27.052  1.00  0.00     0.159 HD
ATOM     19  H   UNL A   1      32.978  17.939  27.080  1.00  0.00     0.159 HD
ENDBRANCH  14  15
ENDBRANCH  12  14
ENDBRANCH   6   8
BRANCH   6  20
ATOM     20  C   UNL A   1      35.373  24.071  25.473  1.00  0.00     0.420 C 
ATOM     21  F   UNL A   1      36.309  23.923  26.437  1.00  0.00    -0.168 F 
ATOM     22  F   UNL A   1      36.056  24.215  24.304  1.00  0.00    -0.168 F 
ATOM     23  F   UNL A   1      34.735  25.238  25.691  1.00  0.00    -0.168 F 
ENDBRANCH   6  20
ENDBRANCH   3   6
ENDBRANCH   1   2
BRANCH   1  24
ATOM     24  C   UNL A   1      37.934  19.986  24.731  1.00  0.00     0.042 C 
BRANCH  24  25
ATOM     25  C   UNL A   1      38.964  20.232  25.817  1.00  0.00     0.118 C 
BRANCH  25  26
ATOM     26  N   UNL A   1      40.074  19.295  25.763  1.00  0.00    -0.352 N 
ATOM     27  C   UNL A   1      41.400  19.530  26.038  1.00  0.00     0.251 C 
ATOM     28  H   UNL A   1      39.848  18.374  25.495  1.00  0.00     0.163 HD
ATOM     29  O   UNL A   1      42.249  18.681  25.790  1.00  0.00    -0.269 OA
BRANCH  27  30
ATOM     30  C   UNL A   1      41.792  20.837  26.604  1.00  0.00     0.039 A 
ATOM     31  C   UNL A   1      42.168  21.864  25.739  1.00  0.00     0.014 A 
ATOM     32  C   UNL A   1      41.737  21.056  27.984  1.00  0.00     0.014 A 
ATOM     33  C   UNL A   1      42.445  23.129  26.260  1.00  0.00     0.010 A 
ATOM     34  C   UNL A   1      41.897  22.341  28.485  1.00  0.00     0.010 A 
ATOM     35  C   UNL A   1      42.284  23.384  27.632  1.00  0.00    -0.014 A 
BRANCH  35  36
ATOM     36  C   UNL A   1      42.574  24.725  28.197  1.00  0.00     0.031 A 
ATOM     37  C   UNL A   1      43.984  25.087  28.582  1.00  0.00     0.074 A 
ATOM     38  C   UNL A   1      41.572  25.608  28.381  1.00  0.00     0.049 A 
ATOM     39  N   UNL A   1      44.445  26.210  29.070  1.00  0.00    -0.248 NA
ATOM     40  C   UNL A   1      45.007  24.040  28.427  1.00  0.00     0.031 C 
ATOM     41  C   UNL A   1      40.156  25.352  28.107  1.00  0.00     0.029 A 
ATOM     42  N   UNL A   1      41.595  26.901  28.834  1.00  0.00    -0.354 N 
ATOM     43  C   UNL A   1      45.801  25.998  29.287  1.00  0.00     0.074 A 
ATOM     44  C   UNL A   1      46.074  24.619  28.954  1.00  0.00     0.031 C 
ATOM     45  C   UNL A   1      39.453  26.470  28.354  1.00  0.00     0.029 A 
ATOM     46  C   UNL A   1      40.361  27.506  28.833  1.00  0.00     0.049 A 
ATOM     47  H   UNL A   1      42.416  27.353  29.133  1.00  0.00     0.167 HD
ATOM     48  C   UNL A   1      46.746  26.881  29.690  1.00  0.00     0.037 A 
ATOM     49  C   UNL A   1      40.009  28.761  29.169  1.00  0.00     0.037 A 
ATOM     50  C   UNL A   1      46.474  28.260  29.996  1.00  0.00     0.049 A 
ATOM     51  C   UNL A   1      41.077  29.729  29.603  1.00  0.00     0.074 A 
ATOM     52  C   UNL A   1      47.365  29.253  30.367  1.00  0.00     0.029 A 
ATOM     53  N   UNL A   1      45.215  28.841  29.965  1.00  0.00    -0.354 N 
ATOM     54  N   UNL A   1      42.368  29.535  29.731  1.00  0.00    -0.248 NA
ATOM     55  C   UNL A   1      40.640  31.094  29.920  1.00  0.00     0.031 C 
ATOM     56  C   UNL A   1      46.635  30.422  30.607  1.00  0.00     0.029 A 
ATOM     57  C   UNL A   1      45.301  30.174  30.326  1.00  0.00     0.049 A 
ATOM     58  H   UNL A   1      44.383  28.373  29.723  1.00  0.00     0.167 HD
ATOM     59  C   UNL A   1      42.901  30.761  30.107  1.00  0.00     0.074 A 
ATOM     60  C   UNL A   1      41.794  31.694  30.168  1.00  0.00     0.031 C 
ATOM     61  C   UNL A   1      44.189  31.090  30.375  1.00  0.00     0.037 A 
BRANCH  48  62
ATOM     62  C   UNL A   1      48.155  26.376  29.812  1.00  0.00     0.057 A 
ATOM     63  C   UNL A   1      49.063  26.445  28.746  1.00  0.00     0.134 A 
ATOM     64  C   UNL A   1      48.617  25.829  31.016  1.00  0.00     0.134 A 
ATOM     65  F   UNL A   1      48.681  26.941  27.558  1.00  0.00    -0.206 F 
ATOM     66  C   UNL A   1      50.366  25.959  28.861  1.00  0.00     0.040 A 
ATOM     67  C   UNL A   1      49.928  25.369  31.153  1.00  0.00     0.040 A 
ATOM     68  F   UNL A   1      47.804  25.733  32.078  1.00  0.00    -0.206 F 
ATOM     69  C   UNL A   1      50.805  25.426  30.070  1.00  0.00     0.006 A 
ENDBRANCH  48  62
BRANCH  49  70
ATOM     70  C   UNL A   1      38.590  29.191  29.069  1.00  0.00     0.057 A 
ATOM     71  C   UNL A   1      37.739  29.147  30.181  1.00  0.00     0.134 A 
ATOM     72  C   UNL A   1      38.044  29.638  27.860  1.00  0.00     0.134 A 
ATOM     73  F   UNL A   1      38.197  28.714  31.364  1.00  0.00    -0.206 F 
ATOM     74  C   UNL A   1      36.393  29.503  30.088  1.00  0.00     0.040 A 
ATOM     75  C   UNL A   1      36.708  30.024  27.759  1.00  0.00     0.040 A 
ATOM     76  F   UNL A   1      38.808  29.715  26.760  1.00  0.00    -0.206 F 
ATOM     77  C   UNL A   1      35.874  29.948  28.873  1.00  0.00     0.006 A 
ENDBRANCH  49  70
BRANCH  61  78
ATOM     78  C   UNL A   1      44.474  32.527  30.705  1.00  0.00     0.057 A 
ATOM     79  C   UNL A   1      44.756  33.478  29.715  1.00  0.00     0.134 A 
ATOM     80  C   UNL A   1      44.453  32.966  32.035  1.00  0.00     0.134 A 
ATOM     81  F   UNL A   1      44.801  33.123  28.422  1.00  0.00    -0.206 F 
ATOM     82  C   UNL A   1      45.052  34.803  30.041  1.00  0.00     0.040 A 
ATOM     83  C   UNL A   1      44.713  34.295  32.370  1.00  0.00     0.040 A 
ATOM     84  F   UNL A   1      44.175  32.111  33.031  1.00  0.00    -0.206 F 
ATOM     85  C   UNL A   1      45.026  35.216  31.371  1.00  0.00     0.006 A 
ENDBRANCH  61  78
ENDBRANCH  35  36
ENDBRANCH  27  30
ENDBRANCH  25  26
ENDBRANCH  24  25
ENDBRANCH   1  24
TORSDOF 14
ENDMDL
MODEL 2
REMARK VINA RESULT:     -11.1      1.418      1.976
REMARK SMILES C[C@@](NC(=O)NCC(N)=O)(C(=O)NCCCNC(=O)c1ccc(-c2c3nc(c(-c4c(F)cccc4F)c4ccc([nH]4)c(-c4c(F)cccc4F)c4nc(c(-c5c(F)cccc5F)c5ccc2[nH]5)C=C4)C=C3)cc1)C(F)(F)F
REMARK SMILES IDX 14 1 13 2 11 3 12 4 2 6 1 7 3 8 4 9 5 11 6 12 7 14 8 15 9 16
REMARK SMILES IDX 10 17 74 20 75 21 76 22 77 23 15 24 16 25 17 26 18 27 19 29
REMARK SMILES IDX 20 30 21 31 73 32 22 33 72 34 23 35 24 36 25 37 66 38 26 39
REMARK SMILES IDX 71 40 65 41 67 42 27 43 70 44 64 45 63 46 28 48 54 49 37 50
REMARK SMILES IDX 53 51 38 52 41 53 52 54 68 55 39 56 40 57 51 59 69 60 42 61
REMARK SMILES IDX 29 62 30 63 35 64 31 65 32 66 34 67 36 68 33 69 55 70 56 71
REMARK SMILES IDX 61 72 57 73 58 74 60 75 62 76 59 77 43 78 44 79 49 80 45 81
REMARK SMILES IDX 46 82 48 83 50 84 47 85
REMARK H PARENT 13 5 3 10 6 13 9 18 9 19 17 28 67 47 41 58
REMARK Flexibility Score: inf
ROOT
ATOM      1  C   UNL A   1      36.826  20.596  25.070  1.00  0.00     0.117 C 
ENDROOT
BRANCH   1   2
ATOM      2  N   UNL A   1      37.005  21.628  24.058  1.00  0.00    -0.354 N 
ATOM      3  C   UNL A   1      36.187  22.665  23.705  1.00  0.00     0.255 C 
ATOM      4  O   UNL A   1      36.614  23.394  22.806  1.00  0.00    -0.272 OA
ATOM      5  H   UNL A   1      37.847  21.570  23.549  1.00  0.00     0.163 HD
BRANCH   3   6
ATOM      6  C   UNL A   1      34.777  22.796  24.292  1.00  0.00     0.213 C 
ATOM      7  C   UNL A   1      34.012  23.657  23.253  1.00  0.00     0.056 C 
BRANCH   6   8
ATOM      8  N   UNL A   1      34.057  21.490  24.429  1.00  0.00    -0.316 N 
ATOM      9  C   UNL A   1      32.781  21.098  24.355  1.00  0.00     0.316 C 
ATOM     10  H   UNL A   1      34.669  20.743  24.619  1.00  0.00     0.166 HD
ATOM     11  O   UNL A   1      32.586  19.897  24.163  1.00  0.00    -0.249 OA
ATOM     12  N   UNL A   1      31.723  21.894  24.519  1.00  0.00    -0.329 N 
ATOM     13  H   UNL A   1      30.878  21.475  24.237  1.00  0.00     0.165 HD
BRANCH  12  14
ATOM     14  C   UNL A   1      31.548  23.239  25.023  1.00  0.00     0.217 C 
BRANCH  14  15
ATOM     15  C   UNL A   1      30.931  23.332  26.414  1.00  0.00     0.236 C 
ATOM     16  N   UNL A   1      29.913  22.441  26.630  1.00  0.00    -0.368 N 
ATOM     17  O   UNL A   1      31.319  24.089  27.295  1.00  0.00    -0.273 OA
ATOM     18  H   UNL A   1      29.621  21.844  25.904  1.00  0.00     0.159 HD
ATOM     19  H   UNL A   1      29.476  22.398  27.510  1.00  0.00     0.159 HD
ENDBRANCH  14  15
ENDBRANCH  12  14
ENDBRANCH   6   8
BRANCH   6  20
ATOM     20  C   UNL A   1      34.814  23.605  25.605  1.00  0.00     0.420 C 
ATOM     21  F   UNL A   1      34.302  22.926  26.656  1.00  0.00    -0.168 F 
ATOM     22  F   UNL A   1      36.106  23.884  25.933  1.00  0.00    -0.168 F 
ATOM     23  F   UNL A   1      34.175  24.789  25.526  1.00  0.00    -0.168 F 
ENDBRANCH   6  20
ENDBRANCH   3   6
ENDBRANCH   1   2
BRANCH   1  24
ATOM     24  C   UNL A   1      37.956  19.589  25.024  1.00  0.00     0.042 C 
BRANCH  24  25
ATOM     25  C   UNL A   1      39.175  20.051  25.801  1.00  0.00     0.118 C 
BRANCH  25  26
ATOM     26  N   UNL A   1      40.235  19.056  25.829  1.00  0.00    -0.352 N 
ATOM     27  C   UNL A   1      41.576  19.248  26.062  1.00  0.00     0.251 C 
ATOM     28  H   UNL A   1      39.957  18.126  25.659  1.00  0.00     0.163 HD
ATOM     29  O   UNL A   1      42.376  18.335  25.892  1.00  0.00    -0.269 OA
BRANCH  27  30
ATOM     30  C   UNL A   1      42.043  20.583  26.489  1.00  0.00     0.039 A 
ATOM     31  C   UNL A   1      42.300  21.551  25.519  1.00  0.00     0.014 A 
ATOM     32  C   UNL A   1      42.177  20.887  27.847  1.00  0.00     0.014 A 
ATOM     33  C   UNL A   1      42.647  22.843  25.918  1.00  0.00     0.010 A 
ATOM     34  C   UNL A   1      42.404  22.198  28.241  1.00  0.00     0.010 A 
ATOM     35  C   UNL A   1      42.674  23.184  27.280  1.00  0.00    -0.014 A 
BRANCH  35  36
ATOM     36  C   UNL A   1      43.041  24.554  27.716  1.00  0.00     0.031 A 
ATOM     37  C   UNL A   1      44.485  24.980  27.714  1.00  0.00     0.074 A 
ATOM     38  C   UNL A   1      42.082  25.406  28.130  1.00  0.00     0.049 A 
ATOM     39  N   UNL A   1      45.006  26.135  28.038  1.00  0.00    -0.248 NA
ATOM     40  C   UNL A   1      45.479  23.965  27.328  1.00  0.00     0.031 C 
ATOM     41  C   UNL A   1      40.656  25.090  28.238  1.00  0.00     0.029 A 
ATOM     42  N   UNL A   1      42.164  26.715  28.528  1.00  0.00    -0.354 N 
ATOM     43  C   UNL A   1      46.381  25.979  27.903  1.00  0.00     0.074 A 
ATOM     44  C   UNL A   1      46.619  24.600  27.546  1.00  0.00     0.031 C 
ATOM     45  C   UNL A   1      39.992  26.190  28.629  1.00  0.00     0.029 A 
ATOM     46  C   UNL A   1      40.946  27.275  28.831  1.00  0.00     0.049 A 
ATOM     47  H   UNL A   1      43.014  27.207  28.593  1.00  0.00     0.167 HD
ATOM     48  C   UNL A   1      47.357  26.910  28.025  1.00  0.00     0.037 A 
ATOM     49  C   UNL A   1      40.637  28.528  29.214  1.00  0.00     0.037 A 
ATOM     50  C   UNL A   1      47.114  28.288  28.355  1.00  0.00     0.049 A 
ATOM     51  C   UNL A   1      41.738  29.548  29.332  1.00  0.00     0.074 A 
ATOM     52  C   UNL A   1      48.025  29.325  28.458  1.00  0.00     0.029 A 
ATOM     53  N   UNL A   1      45.864  28.822  28.636  1.00  0.00    -0.354 N 
ATOM     54  N   UNL A   1      43.025  29.405  29.127  1.00  0.00    -0.248 NA
ATOM     55  C   UNL A   1      41.337  30.907  29.716  1.00  0.00     0.031 C 
ATOM     56  C   UNL A   1      47.332  30.476  28.849  1.00  0.00     0.029 A 
ATOM     57  C   UNL A   1      45.982  30.170  28.928  1.00  0.00     0.049 A 
ATOM     58  H   UNL A   1      45.020  28.316  28.629  1.00  0.00     0.167 HD
ATOM     59  C   UNL A   1      43.582  30.662  29.321  1.00  0.00     0.074 A 
ATOM     60  C   UNL A   1      42.488  31.556  29.642  1.00  0.00     0.031 C 
ATOM     61  C   UNL A   1      44.881  31.046  29.239  1.00  0.00     0.037 A 
BRANCH  48  62
ATOM     62  C   UNL A   1      48.771  26.460  27.793  1.00  0.00     0.057 A 
ATOM     63  C   UNL A   1      49.354  26.476  26.517  1.00  0.00     0.134 A 
ATOM     64  C   UNL A   1      49.567  26.021  28.858  1.00  0.00     0.134 A 
ATOM     65  F   UNL A   1      48.643  26.868  25.448  1.00  0.00    -0.206 F 
ATOM     66  C   UNL A   1      50.664  26.042  26.305  1.00  0.00     0.040 A 
ATOM     67  C   UNL A   1      50.889  25.615  28.663  1.00  0.00     0.040 A 
ATOM     68  F   UNL A   1      49.076  25.981  30.105  1.00  0.00    -0.206 F 
ATOM     69  C   UNL A   1      51.438  25.617  27.382  1.00  0.00     0.006 A 
ENDBRANCH  48  62
BRANCH  49  70
ATOM     70  C   UNL A   1      39.222  28.903  29.472  1.00  0.00     0.057 A 
ATOM     71  C   UNL A   1      38.652  28.746  30.742  1.00  0.00     0.134 A 
ATOM     72  C   UNL A   1      38.402  29.408  28.457  1.00  0.00     0.134 A 
ATOM     73  F   UNL A   1      39.381  28.253  31.754  1.00  0.00    -0.206 F 
ATOM     74  C   UNL A   1      37.312  29.051  30.985  1.00  0.00     0.040 A 
ATOM     75  C   UNL A   1      37.069  29.743  28.693  1.00  0.00     0.040 A 
ATOM     76  F   UNL A   1      38.890  29.593  27.222  1.00  0.00    -0.206 F 
ATOM     77  C   UNL A   1      36.516  29.555  29.958  1.00  0.00     0.006 A 
ENDBRANCH  49  70
BRANCH  61  78
ATOM     78  C   UNL A   1      45.177  32.504  29.447  1.00  0.00     0.057 A 
ATOM     79  C   UNL A   1      45.142  33.430  28.396  1.00  0.00     0.134 A 
ATOM     80  C   UNL A   1      45.492  32.988  30.723  1.00  0.00     0.134 A 
ATOM     81  F   UNL A   1      44.857  33.032  27.147  1.00  0.00    -0.206 F 
ATOM     82  C   UNL A   1      45.453  34.775  28.600  1.00  0.00     0.040 A 
ATOM     83  C   UNL A   1      45.771  34.336  30.946  1.00  0.00     0.040 A 
ATOM     84  F   UNL A   1      45.529  32.158  31.777  1.00  0.00    -0.206 F 
ATOM     85  C   UNL A   1      45.764  35.233  29.878  1.00  0.00     0.006 A 
ENDBRANCH  61  78
ENDBRANCH  35  36
ENDBRANCH  27  30
ENDBRANCH  25  26
ENDBRANCH  24  25
ENDBRANCH   1  24
TORSDOF 14
ENDMDL
MODEL 3
REMARK VINA RESULT:     -11.1      5.035      9.637
REMARK SMILES C[C@@](NC(=O)NCC(N)=O)(C(=O)NCCCNC(=O)c1ccc(-c2c3nc(c(-c4c(F)cccc4F)c4ccc([nH]4)c(-c4c(F)cccc4F)c4nc(c(-c5c(F)cccc5F)c5ccc2[nH]5)C=C4)C=C3)cc1)C(F)(F)F
REMARK SMILES IDX 14 1 13 2 11 3 12 4 2 6 1 7 3 8 4 9 5 11 6 12 7 14 8 15 9 16
REMARK SMILES IDX 10 17 74 20 75 21 76 22 77 23 15 24 16 25 17 26 18 27 19 29
REMARK SMILES IDX 20 30 21 31 73 32 22 33 72 34 23 35 24 36 25 37 66 38 26 39
REMARK SMILES IDX 71 40 65 41 67 42 27 43 70 44 64 45 63 46 28 48 54 49 37 50
REMARK SMILES IDX 53 51 38 52 41 53 52 54 68 55 39 56 40 57 51 59 69 60 42 61
REMARK SMILES IDX 29 62 30 63 35 64 31 65 32 66 34 67 36 68 33 69 55 70 56 71
REMARK SMILES IDX 61 72 57 73 58 74 60 75 62 76 59 77 43 78 44 79 49 80 45 81
REMARK SMILES IDX 46 82 48 83 50 84 47 85
REMARK H PARENT 13 5 3 10 6 13 9 18 9 19 17 28 67 47 41 58
REMARK Flexibility Score: inf
ROOT
ATOM      1  C   UNL A   1      31.736  30.799  26.090  1.00  0.00     0.117 C 
ENDROOT
BRANCH   1   2
ATOM      2  N   UNL A   1      31.629  29.745  27.088  1.00  0.00    -0.354 N 
ATOM      3  C   UNL A   1      31.774  28.392  26.957  1.00  0.00     0.255 C 
ATOM      4  O   UNL A   1      31.634  27.741  27.995  1.00  0.00    -0.272 OA
ATOM      5  H   UNL A   1      31.422  30.055  28.000  1.00  0.00     0.163 HD
BRANCH   3   6
ATOM      6  C   UNL A   1      31.940  27.743  25.577  1.00  0.00     0.213 C 
ATOM      7  C   UNL A   1      31.539  26.262  25.803  1.00  0.00     0.056 C 
BRANCH   6   8
ATOM      8  N   UNL A   1      31.035  28.313  24.530  1.00  0.00    -0.316 N 
ATOM      9  C   UNL A   1      30.391  27.824  23.465  1.00  0.00     0.316 C 
ATOM     10  H   UNL A   1      30.876  29.276  24.655  1.00  0.00     0.166 HD
ATOM     11  O   UNL A   1      29.450  28.495  23.037  1.00  0.00    -0.249 OA
ATOM     12  N   UNL A   1      30.718  26.705  22.817  1.00  0.00    -0.329 N 
ATOM     13  H   UNL A   1      30.021  26.404  22.190  1.00  0.00     0.165 HD
BRANCH  12  14
ATOM     14  C   UNL A   1      31.877  25.838  22.834  1.00  0.00     0.217 C 
BRANCH  14  15
ATOM     15  C   UNL A   1      32.775  25.937  21.607  1.00  0.00     0.236 C 
ATOM     16  N   UNL A   1      32.152  25.597  20.435  1.00  0.00    -0.368 N 
ATOM     17  O   UNL A   1      33.935  26.328  21.626  1.00  0.00    -0.273 OA
ATOM     18  H   UNL A   1      31.218  25.286  20.447  1.00  0.00     0.159 HD
ATOM     19  H   UNL A   1      32.638  25.664  19.582  1.00  0.00     0.159 HD
ENDBRANCH  14  15
ENDBRANCH  12  14
ENDBRANCH   6   8
BRANCH   6  20
ATOM     20  C   UNL A   1      33.425  27.747  25.157  1.00  0.00     0.420 C 
ATOM     21  F   UNL A   1      33.914  26.506  24.940  1.00  0.00    -0.168 F 
ATOM     22  F   UNL A   1      33.565  28.418  23.981  1.00  0.00    -0.168 F 
ATOM     23  F   UNL A   1      34.233  28.361  26.046  1.00  0.00    -0.168 F 
ENDBRANCH   6  20
ENDBRANCH   3   6
ENDBRANCH   1   2
BRANCH   1  24
ATOM     24  C   UNL A   1      31.410  32.151  26.691  1.00  0.00     0.042 C 
BRANCH  24  25
ATOM     25  C   UNL A   1      32.640  32.856  27.232  1.00  0.00     0.118 C 
BRANCH  25  26
ATOM     26  N   UNL A   1      32.355  34.201  27.706  1.00  0.00    -0.352 N 
ATOM     27  C   UNL A   1      32.986  34.901  28.705  1.00  0.00     0.251 C 
ATOM     28  H   UNL A   1      31.615  34.669  27.253  1.00  0.00     0.163 HD
ATOM     29  O   UNL A   1      32.528  35.966  29.106  1.00  0.00    -0.269 OA
BRANCH  27  30
ATOM     30  C   UNL A   1      34.205  34.335  29.315  1.00  0.00     0.039 A 
ATOM     31  C   UNL A   1      34.082  33.511  30.434  1.00  0.00     0.014 A 
ATOM     32  C   UNL A   1      35.460  34.580  28.749  1.00  0.00     0.014 A 
ATOM     33  C   UNL A   1      35.220  32.894  30.956  1.00  0.00     0.010 A 
ATOM     34  C   UNL A   1      36.568  33.872  29.197  1.00  0.00     0.010 A 
ATOM     35  C   UNL A   1      36.466  33.047  30.325  1.00  0.00    -0.014 A 
BRANCH  35  36
ATOM     36  C   UNL A   1      37.681  32.394  30.872  1.00  0.00     0.031 A 
ATOM     37  C   UNL A   1      38.270  32.875  32.171  1.00  0.00     0.074 A 
ATOM     38  C   UNL A   1      38.266  31.387  30.193  1.00  0.00     0.049 A 
ATOM     39  N   UNL A   1      39.312  32.425  32.823  1.00  0.00    -0.248 NA
ATOM     40  C   UNL A   1      37.622  34.032  32.809  1.00  0.00     0.031 C 
ATOM     41  C   UNL A   1      37.828  30.875  28.892  1.00  0.00     0.029 A 
ATOM     42  N   UNL A   1      39.349  30.609  30.508  1.00  0.00    -0.354 N 
ATOM     43  C   UNL A   1      39.445  33.249  33.934  1.00  0.00     0.074 A 
ATOM     44  C   UNL A   1      38.431  34.272  33.828  1.00  0.00     0.031 C 
ATOM     45  C   UNL A   1      38.607  29.838  28.544  1.00  0.00     0.029 A 
ATOM     46  C   UNL A   1      39.616  29.634  29.578  1.00  0.00     0.049 A 
ATOM     47  H   UNL A   1      39.885  30.738  31.323  1.00  0.00     0.167 HD
ATOM     48  C   UNL A   1      40.309  33.143  34.972  1.00  0.00     0.037 A 
ATOM     49  C   UNL A   1      40.562  28.676  29.570  1.00  0.00     0.037 A 
ATOM     50  C   UNL A   1      41.301  32.108  35.085  1.00  0.00     0.049 A 
ATOM     51  C   UNL A   1      41.503  28.570  30.739  1.00  0.00     0.074 A 
ATOM     52  C   UNL A   1      42.195  31.879  36.117  1.00  0.00     0.029 A 
ATOM     53  N   UNL A   1      41.529  31.126  34.131  1.00  0.00    -0.354 N 
ATOM     54  N   UNL A   1      41.569  29.310  31.820  1.00  0.00    -0.248 NA
ATOM     55  C   UNL A   1      42.489  27.483  30.694  1.00  0.00     0.031 C 
ATOM     56  C   UNL A   1      42.996  30.787  35.764  1.00  0.00     0.029 A 
ATOM     57  C   UNL A   1      42.560  30.299  34.542  1.00  0.00     0.049 A 
ATOM     58  H   UNL A   1      41.031  31.034  33.287  1.00  0.00     0.167 HD
ATOM     59  C   UNL A   1      42.576  28.756  32.599  1.00  0.00     0.074 A 
ATOM     60  C   UNL A   1      43.079  27.608  31.873  1.00  0.00     0.031 C 
ATOM     61  C   UNL A   1      43.043  29.157  33.809  1.00  0.00     0.037 A 
BRANCH  48  62
ATOM     62  C   UNL A   1      40.207  34.170  36.062  1.00  0.00     0.057 A 
ATOM     63  C   UNL A   1      39.378  33.987  37.179  1.00  0.00     0.134 A 
ATOM     64  C   UNL A   1      40.957  35.351  36.006  1.00  0.00     0.134 A 
ATOM     65  F   UNL A   1      38.618  32.886  37.289  1.00  0.00    -0.206 F 
ATOM     66  C   UNL A   1      39.276  34.953  38.181  1.00  0.00     0.040 A 
ATOM     67  C   UNL A   1      40.888  36.310  37.019  1.00  0.00     0.040 A 
ATOM     68  F   UNL A   1      41.772  35.592  34.969  1.00  0.00    -0.206 F 
ATOM     69  C   UNL A   1      40.038  36.116  38.107  1.00  0.00     0.006 A 
ENDBRANCH  48  62
BRANCH  49  70
ATOM     70  C   UNL A   1      40.641  27.713  28.440  1.00  0.00     0.057 A 
ATOM     71  C   UNL A   1      41.431  27.981  27.315  1.00  0.00     0.134 A 
ATOM     72  C   UNL A   1      39.919  26.515  28.448  1.00  0.00     0.134 A 
ATOM     73  F   UNL A   1      42.135  29.120  27.239  1.00  0.00    -0.206 F 
ATOM     74  C   UNL A   1      41.477  27.107  26.228  1.00  0.00     0.040 A 
ATOM     75  C   UNL A   1      39.977  25.618  27.381  1.00  0.00     0.040 A 
ATOM     76  F   UNL A   1      39.153  26.194  29.501  1.00  0.00    -0.206 F 
ATOM     77  C   UNL A   1      40.750  25.918  26.261  1.00  0.00     0.006 A 
ENDBRANCH  49  70
BRANCH  61  78
ATOM     78  C   UNL A   1      44.114  28.315  34.441  1.00  0.00     0.057 A 
ATOM     79  C   UNL A   1      43.815  27.211  35.251  1.00  0.00     0.134 A 
ATOM     80  C   UNL A   1      45.467  28.609  34.225  1.00  0.00     0.134 A 
ATOM     81  F   UNL A   1      42.540  26.880  35.507  1.00  0.00    -0.206 F 
ATOM     82  C   UNL A   1      44.822  26.460  35.859  1.00  0.00     0.040 A 
ATOM     83  C   UNL A   1      46.482  27.844  34.799  1.00  0.00     0.040 A 
ATOM     84  F   UNL A   1      45.823  29.642  33.447  1.00  0.00    -0.206 F 
ATOM     85  C   UNL A   1      46.160  26.772  35.630  1.00  0.00     0.006 A 
ENDBRANCH  61  78
ENDBRANCH  35  36
ENDBRANCH  27  30
ENDBRANCH  25  26
ENDBRANCH  24  25
ENDBRANCH   1  24
TORSDOF 14
ENDMDL
