MODEL 1
REMARK VINA RESULT:     -10.9      0.000      0.000
REMARK SMILES Cc1ccc2oc(CCCC(=O)NCCCNC(=O)c3ccc(-c4c5nc(c(-c6c(F)cccc6F)c6ccc([nH]6)c(-c6c(F)cccc6F)c6nc(c(-c7c(F)cccc7F)c7ccc4[nH]7)C=C6)C=C5)cc3)cc(=O)c2c1
REMARK SMILES IDX 14 1 13 2 11 3 12 4 10 6 9 7 8 8 7 9 1 10 2 11 3 12 78 13
REMARK SMILES IDX 4 14 77 15 5 16 75 17 6 18 74 19 76 20 15 21 16 22 17 23
REMARK SMILES IDX 18 24 19 26 20 27 21 28 73 29 22 30 72 31 23 32 24 33 25 34
REMARK SMILES IDX 66 35 26 36 71 37 65 38 67 39 27 40 70 41 64 42 63 43 28 45
REMARK SMILES IDX 54 46 37 47 53 48 38 49 41 50 52 51 68 52 39 53 40 54 51 56
REMARK SMILES IDX 69 57 42 58 29 59 30 60 35 61 31 62 32 63 34 64 36 65 33 66
REMARK SMILES IDX 55 67 56 68 61 69 57 70 58 71 60 72 62 73 59 74 43 75 44 76
REMARK SMILES IDX 49 77 45 78 46 79 48 80 50 81 47 82
REMARK H PARENT 13 5 17 25 67 44 41 55
REMARK Flexibility Score: inf
ROOT
ATOM      1  C   UNL A   1      41.678  20.449  27.620  1.00  0.00     0.117 C 
ENDROOT
BRANCH   1   2
ATOM      2  N   UNL A   1      42.134  19.080  27.497  1.00  0.00    -0.356 N 
ATOM      3  C   UNL A   1      42.866  18.491  26.515  1.00  0.00     0.220 C 
ATOM      4  O   UNL A   1      43.027  17.270  26.567  1.00  0.00    -0.275 OA
ATOM      5  H   UNL A   1      41.875  18.486  28.239  1.00  0.00     0.163 HD
BRANCH   3   6
ATOM      6  C   UNL A   1      43.520  19.317  25.426  1.00  0.00     0.100 C 
BRANCH   6   7
ATOM      7  C   UNL A   1      45.052  19.280  25.356  1.00  0.00     0.018 C 
BRANCH   7   8
ATOM      8  C   UNL A   1      45.809  20.264  24.442  1.00  0.00     0.076 C 
BRANCH   8   9
ATOM      9  C   UNL A   1      46.095  21.667  24.928  1.00  0.00     0.108 A 
ATOM     10  C   UNL A   1      45.960  27.090  28.500  1.00  0.00     0.044 C 
ATOM     11  C   UNL A   1      45.840  25.741  27.854  1.00  0.00    -0.050 A 
ATOM     12  C   UNL A   1      45.260  24.671  28.550  1.00  0.00     0.007 A 
ATOM     13  C   UNL A   1      46.342  25.530  26.560  1.00  0.00     0.019 A 
ATOM     14  C   UNL A   1      45.230  23.397  27.984  1.00  0.00     0.048 A 
ATOM     15  C   UNL A   1      46.295  24.253  25.993  1.00  0.00     0.065 A 
ATOM     16  C   UNL A   1      45.770  23.191  26.716  1.00  0.00     0.138 A 
ATOM     17  C   UNL A   1      46.776  23.991  24.627  1.00  0.00     0.192 A 
ATOM     18  O   UNL A   1      45.766  21.907  26.247  1.00  0.00    -0.461 OA
ATOM     19  C   UNL A   1      46.593  22.615  24.118  1.00  0.00     0.095 A 
ATOM     20  O   UNL A   1      47.266  24.865  23.923  1.00  0.00    -0.289 OA
ENDBRANCH   8   9
ENDBRANCH   7   8
ENDBRANCH   6   7
ENDBRANCH   3   6
ENDBRANCH   1   2
BRANCH   1  21
ATOM     21  C   UNL A   1      40.521  20.720  26.667  1.00  0.00     0.042 C 
BRANCH  21  22
ATOM     22  C   UNL A   1      40.497  22.147  26.148  1.00  0.00     0.118 C 
BRANCH  22  23
ATOM     23  N   UNL A   1      41.714  22.493  25.431  1.00  0.00    -0.352 N 
ATOM     24  C   UNL A   1      42.440  23.657  25.445  1.00  0.00     0.251 C 
ATOM     25  H   UNL A   1      42.072  21.784  24.848  1.00  0.00     0.163 HD
ATOM     26  O   UNL A   1      43.341  23.819  24.625  1.00  0.00    -0.269 OA
BRANCH  24  27
ATOM     27  C   UNL A   1      42.133  24.726  26.422  1.00  0.00     0.039 A 
ATOM     28  C   UNL A   1      41.445  24.395  27.592  1.00  0.00     0.014 A 
ATOM     29  C   UNL A   1      42.502  26.053  26.186  1.00  0.00     0.014 A 
ATOM     30  C   UNL A   1      41.178  25.380  28.545  1.00  0.00     0.010 A 
ATOM     31  C   UNL A   1      42.330  27.010  27.180  1.00  0.00     0.010 A 
ATOM     32  C   UNL A   1      41.650  26.689  28.363  1.00  0.00    -0.014 A 
BRANCH  32  33
ATOM     33  C   UNL A   1      41.417  27.747  29.380  1.00  0.00     0.031 A 
ATOM     34  C   UNL A   1      42.297  27.824  30.600  1.00  0.00     0.074 A 
ATOM     35  C   UNL A   1      40.381  28.595  29.240  1.00  0.00     0.049 A 
ATOM     36  N   UNL A   1      42.210  28.620  31.635  1.00  0.00    -0.248 NA
ATOM     37  C   UNL A   1      43.403  26.855  30.683  1.00  0.00     0.031 C 
ATOM     38  C   UNL A   1      39.429  28.594  28.128  1.00  0.00     0.029 A 
ATOM     39  N   UNL A   1      39.948  29.620  30.045  1.00  0.00    -0.354 N 
ATOM     40  C   UNL A   1      43.233  28.236  32.495  1.00  0.00     0.074 A 
ATOM     41  C   UNL A   1      43.888  27.098  31.891  1.00  0.00     0.031 C 
ATOM     42  C   UNL A   1      38.543  29.587  28.305  1.00  0.00     0.029 A 
ATOM     43  C   UNL A   1      38.836  30.267  29.563  1.00  0.00     0.049 A 
ATOM     44  H   UNL A   1      40.394  29.868  30.887  1.00  0.00     0.167 HD
ATOM     45  C   UNL A   1      43.609  28.798  33.668  1.00  0.00     0.037 A 
ATOM     46  C   UNL A   1      38.127  31.288  30.082  1.00  0.00     0.037 A 
ATOM     47  C   UNL A   1      42.972  29.949  34.250  1.00  0.00     0.049 A 
ATOM     48  C   UNL A   1      38.560  31.888  31.392  1.00  0.00     0.074 A 
ATOM     49  C   UNL A   1      43.315  30.634  35.402  1.00  0.00     0.029 A 
ATOM     50  N   UNL A   1      41.857  30.584  33.724  1.00  0.00    -0.354 N 
ATOM     51  N   UNL A   1      39.570  31.559  32.159  1.00  0.00    -0.248 NA
ATOM     52  C   UNL A   1      37.755  33.005  31.905  1.00  0.00     0.031 C 
ATOM     53  C   UNL A   1      42.377  31.650  35.602  1.00  0.00     0.029 A 
ATOM     54  C   UNL A   1      41.484  31.637  34.543  1.00  0.00     0.049 A 
ATOM     55  H   UNL A   1      41.399  30.325  32.892  1.00  0.00     0.167 HD
ATOM     56  C   UNL A   1      39.544  32.447  33.226  1.00  0.00     0.074 A 
ATOM     57  C   UNL A   1      38.424  33.337  33.001  1.00  0.00     0.031 C 
ATOM     58  C   UNL A   1      40.372  32.520  34.298  1.00  0.00     0.037 A 
BRANCH  45  59
ATOM     59  C   UNL A   1      44.765  28.174  34.399  1.00  0.00     0.057 A 
ATOM     60  C   UNL A   1      44.580  27.164  35.354  1.00  0.00     0.134 A 
ATOM     61  C   UNL A   1      46.081  28.565  34.122  1.00  0.00     0.134 A 
ATOM     62  F   UNL A   1      43.346  26.749  35.676  1.00  0.00    -0.206 F 
ATOM     63  C   UNL A   1      45.660  26.588  36.027  1.00  0.00     0.040 A 
ATOM     64  C   UNL A   1      47.169  27.975  34.766  1.00  0.00     0.040 A 
ATOM     65  F   UNL A   1      46.331  29.522  33.215  1.00  0.00    -0.206 F 
ATOM     66  C   UNL A   1      46.960  26.989  35.727  1.00  0.00     0.006 A 
ENDBRANCH  45  59
BRANCH  46  67
ATOM     67  C   UNL A   1      36.948  31.824  29.354  1.00  0.00     0.057 A 
ATOM     68  C   UNL A   1      37.015  33.042  28.667  1.00  0.00     0.134 A 
ATOM     69  C   UNL A   1      35.726  31.140  29.334  1.00  0.00     0.134 A 
ATOM     70  F   UNL A   1      38.153  33.752  28.663  1.00  0.00    -0.206 F 
ATOM     71  C   UNL A   1      35.906  33.574  28.008  1.00  0.00     0.040 A 
ATOM     72  C   UNL A   1      34.616  31.646  28.655  1.00  0.00     0.040 A 
ATOM     73  F   UNL A   1      35.596  29.964  29.965  1.00  0.00    -0.206 F 
ATOM     74  C   UNL A   1      34.702  32.871  27.997  1.00  0.00     0.006 A 
ENDBRANCH  46  67
BRANCH  58  75
ATOM     75  C   UNL A   1      40.126  33.625  35.284  1.00  0.00     0.057 A 
ATOM     76  C   UNL A   1      40.632  34.917  35.094  1.00  0.00     0.134 A 
ATOM     77  C   UNL A   1      39.333  33.401  36.417  1.00  0.00     0.134 A 
ATOM     78  F   UNL A   1      41.410  35.194  34.036  1.00  0.00    -0.206 F 
ATOM     79  C   UNL A   1      40.379  35.940  36.008  1.00  0.00     0.040 A 
ATOM     80  C   UNL A   1      39.046  34.424  37.321  1.00  0.00     0.040 A 
ATOM     81  F   UNL A   1      38.807  32.190  36.653  1.00  0.00    -0.206 F 
ATOM     82  C   UNL A   1      39.576  35.696  37.121  1.00  0.00     0.006 A 
ENDBRANCH  58  75
ENDBRANCH  32  33
ENDBRANCH  24  27
ENDBRANCH  22  23
ENDBRANCH  21  22
ENDBRANCH   1  21
TORSDOF 13
ENDMDL
MODEL 2
REMARK VINA RESULT:     -10.9      3.019      4.226
REMARK SMILES Cc1ccc2oc(CCCC(=O)NCCCNC(=O)c3ccc(-c4c5nc(c(-c6c(F)cccc6F)c6ccc([nH]6)c(-c6c(F)cccc6F)c6nc(c(-c7c(F)cccc7F)c7ccc4[nH]7)C=C6)C=C5)cc3)cc(=O)c2c1
REMARK SMILES IDX 14 1 13 2 11 3 12 4 10 6 9 7 8 8 7 9 1 10 2 11 3 12 78 13
REMARK SMILES IDX 4 14 77 15 5 16 75 17 6 18 74 19 76 20 15 21 16 22 17 23
REMARK SMILES IDX 18 24 19 26 20 27 21 28 73 29 22 30 72 31 23 32 24 33 25 34
REMARK SMILES IDX 66 35 26 36 71 37 65 38 67 39 27 40 70 41 64 42 63 43 28 45
REMARK SMILES IDX 54 46 37 47 53 48 38 49 41 50 52 51 68 52 39 53 40 54 51 56
REMARK SMILES IDX 69 57 42 58 29 59 30 60 35 61 31 62 32 63 34 64 36 65 33 66
REMARK SMILES IDX 55 67 56 68 61 69 57 70 58 71 60 72 62 73 59 74 43 75 44 76
REMARK SMILES IDX 49 77 45 78 46 79 48 80 50 81 47 82
REMARK H PARENT 13 5 17 25 67 44 41 55
REMARK Flexibility Score: inf
ROOT
ATOM      1  C   UNL A   1      42.277  19.577  25.923  1.00  0.00     0.117 C 
ENDROOT
BRANCH   1   2
ATOM      2  N   UNL A   1      43.518  18.848  26.084  1.00  0.00    -0.356 N 
ATOM      3  C   UNL A   1      44.603  18.783  25.267  1.00  0.00     0.220 C 
ATOM      4  O   UNL A   1      45.499  17.988  25.558  1.00  0.00    -0.275 OA
ATOM      5  H   UNL A   1      43.587  18.319  26.913  1.00  0.00     0.163 HD
BRANCH   3   6
ATOM      6  C   UNL A   1      44.736  19.706  24.073  1.00  0.00     0.100 C 
BRANCH   6   7
ATOM      7  C   UNL A   1      45.461  21.037  24.306  1.00  0.00     0.018 C 
BRANCH   7   8
ATOM      8  C   UNL A   1      44.692  22.249  24.868  1.00  0.00     0.076 C 
BRANCH   8   9
ATOM      9  C   UNL A   1      45.232  22.982  26.077  1.00  0.00     0.108 A 
ATOM     10  C   UNL A   1      45.535  25.968  31.836  1.00  0.00     0.044 C 
ATOM     11  C   UNL A   1      45.222  25.233  30.566  1.00  0.00    -0.050 A 
ATOM     12  C   UNL A   1      44.017  24.532  30.430  1.00  0.00     0.007 A 
ATOM     13  C   UNL A   1      46.154  25.212  29.515  1.00  0.00     0.019 A 
ATOM     14  C   UNL A   1      43.766  23.777  29.285  1.00  0.00     0.048 A 
ATOM     15  C   UNL A   1      45.889  24.464  28.364  1.00  0.00     0.065 A 
ATOM     16  C   UNL A   1      44.716  23.728  28.268  1.00  0.00     0.138 A 
ATOM     17  C   UNL A   1      46.818  24.440  27.222  1.00  0.00     0.192 A 
ATOM     18  O   UNL A   1      44.437  22.919  27.202  1.00  0.00    -0.461 OA
ATOM     19  C   UNL A   1      46.381  23.676  26.035  1.00  0.00     0.095 A 
ATOM     20  O   UNL A   1      47.882  25.047  27.226  1.00  0.00    -0.289 OA
ENDBRANCH   8   9
ENDBRANCH   7   8
ENDBRANCH   6   7
ENDBRANCH   3   6
ENDBRANCH   1   2
BRANCH   1  21
ATOM     21  C   UNL A   1      41.767  20.080  27.266  1.00  0.00     0.042 C 
BRANCH  21  22
ATOM     22  C   UNL A   1      41.199  21.486  27.201  1.00  0.00     0.118 C 
BRANCH  22  23
ATOM     23  N   UNL A   1      39.931  21.535  26.489  1.00  0.00    -0.352 N 
ATOM     24  C   UNL A   1      39.052  22.577  26.334  1.00  0.00     0.251 C 
ATOM     25  H   UNL A   1      39.664  20.694  26.052  1.00  0.00     0.163 HD
ATOM     26  O   UNL A   1      37.942  22.366  25.849  1.00  0.00    -0.269 OA
BRANCH  24  27
ATOM     27  C   UNL A   1      39.419  23.945  26.765  1.00  0.00     0.039 A 
ATOM     28  C   UNL A   1      39.120  24.344  28.070  1.00  0.00     0.014 A 
ATOM     29  C   UNL A   1      40.039  24.840  25.890  1.00  0.00     0.014 A 
ATOM     30  C   UNL A   1      39.491  25.617  28.511  1.00  0.00     0.010 A 
ATOM     31  C   UNL A   1      40.502  26.065  26.360  1.00  0.00     0.010 A 
ATOM     32  C   UNL A   1      40.217  26.475  27.670  1.00  0.00    -0.014 A 
BRANCH  32  33
ATOM     33  C   UNL A   1      40.662  27.816  28.127  1.00  0.00     0.031 A 
ATOM     34  C   UNL A   1      42.129  28.157  28.146  1.00  0.00     0.074 A 
ATOM     35  C   UNL A   1      39.756  28.703  28.583  1.00  0.00     0.049 A 
ATOM     36  N   UNL A   1      42.722  29.240  28.580  1.00  0.00    -0.248 NA
ATOM     37  C   UNL A   1      43.055  27.130  27.640  1.00  0.00     0.031 C 
ATOM     38  C   UNL A   1      38.312  28.477  28.659  1.00  0.00     0.029 A 
ATOM     39  N   UNL A   1      39.918  29.973  29.078  1.00  0.00    -0.354 N 
ATOM     40  C   UNL A   1      44.084  29.016  28.417  1.00  0.00     0.074 A 
ATOM     41  C   UNL A   1      44.234  27.673  27.903  1.00  0.00     0.031 C 
ATOM     42  C   UNL A   1      37.718  29.580  29.142  1.00  0.00     0.029 A 
ATOM     43  C   UNL A   1      38.741  30.574  29.451  1.00  0.00     0.049 A 
ATOM     44  H   UNL A   1      40.796  30.413  29.156  1.00  0.00     0.167 HD
ATOM     45  C   UNL A   1      45.115  29.862  28.648  1.00  0.00     0.037 A 
ATOM     46  C   UNL A   1      38.512  31.786  29.991  1.00  0.00     0.037 A 
ATOM     47  C   UNL A   1      44.959  31.208  29.131  1.00  0.00     0.049 A 
ATOM     48  C   UNL A   1      39.676  32.704  30.248  1.00  0.00     0.074 A 
ATOM     49  C   UNL A   1      45.934  32.168  29.339  1.00  0.00     0.029 A 
ATOM     50  N   UNL A   1      43.748  31.784  29.485  1.00  0.00    -0.354 N 
ATOM     51  N   UNL A   1      40.952  32.505  30.024  1.00  0.00    -0.248 NA
ATOM     52  C   UNL A   1      39.367  34.018  30.829  1.00  0.00     0.031 C 
ATOM     53  C   UNL A   1      45.319  33.306  29.869  1.00  0.00     0.029 A 
ATOM     54  C   UNL A   1      43.954  33.077  29.935  1.00  0.00     0.049 A 
ATOM     55  H   UNL A   1      42.872  31.340  29.425  1.00  0.00     0.167 HD
ATOM     56  C   UNL A   1      41.593  33.677  30.403  1.00  0.00     0.074 A 
ATOM     57  C   UNL A   1      40.563  34.587  30.861  1.00  0.00     0.031 C 
ATOM     58  C   UNL A   1      42.916  33.974  30.376  1.00  0.00     0.037 A 
BRANCH  45  59
ATOM     59  C   UNL A   1      46.505  29.355  28.379  1.00  0.00     0.057 A 
ATOM     60  C   UNL A   1      47.284  28.761  29.381  1.00  0.00     0.134 A 
ATOM     61  C   UNL A   1      47.058  29.434  27.095  1.00  0.00     0.134 A 
ATOM     62  F   UNL A   1      46.820  28.664  30.637  1.00  0.00    -0.206 F 
ATOM     63  C   UNL A   1      48.574  28.291  29.122  1.00  0.00     0.040 A 
ATOM     64  C   UNL A   1      48.334  28.940  26.818  1.00  0.00     0.040 A 
ATOM     65  F   UNL A   1      46.366  29.986  26.087  1.00  0.00    -0.206 F 
ATOM     66  C   UNL A   1      49.098  28.374  27.835  1.00  0.00     0.006 A 
ENDBRANCH  45  59
BRANCH  46  67
ATOM     67  C   UNL A   1      37.124  32.214  30.305  1.00  0.00     0.057 A 
ATOM     68  C   UNL A   1      36.362  32.935  29.378  1.00  0.00     0.134 A 
ATOM     69  C   UNL A   1      36.529  31.924  31.539  1.00  0.00     0.134 A 
ATOM     70  F   UNL A   1      36.882  33.258  28.184  1.00  0.00    -0.206 F 
ATOM     71  C   UNL A   1      35.070  33.372  29.672  1.00  0.00     0.040 A 
ATOM     72  C   UNL A   1      35.227  32.331  31.838  1.00  0.00     0.040 A 
ATOM     73  F   UNL A   1      37.201  31.230  32.470  1.00  0.00    -0.206 F 
ATOM     74  C   UNL A   1      34.497  33.065  30.905  1.00  0.00     0.006 A 
ENDBRANCH  46  67
BRANCH  58  75
ATOM     75  C   UNL A   1      43.322  35.352  30.812  1.00  0.00     0.057 A 
ATOM     76  C   UNL A   1      43.649  35.645  32.142  1.00  0.00     0.134 A 
ATOM     77  C   UNL A   1      43.429  36.389  29.876  1.00  0.00     0.134 A 
ATOM     78  F   UNL A   1      43.555  34.700  33.090  1.00  0.00    -0.206 F 
ATOM     79  C   UNL A   1      44.045  36.926  32.530  1.00  0.00     0.040 A 
ATOM     80  C   UNL A   1      43.854  37.665  30.246  1.00  0.00     0.040 A 
ATOM     81  F   UNL A   1      43.141  36.174  28.584  1.00  0.00    -0.206 F 
ATOM     82  C   UNL A   1      44.156  37.938  31.578  1.00  0.00     0.006 A 
ENDBRANCH  58  75
ENDBRANCH  32  33
ENDBRANCH  24  27
ENDBRANCH  22  23
ENDBRANCH  21  22
ENDBRANCH   1  21
TORSDOF 13
ENDMDL
MODEL 3
REMARK VINA RESULT:     -10.8      4.259     10.483
REMARK SMILES Cc1ccc2oc(CCCC(=O)NCCCNC(=O)c3ccc(-c4c5nc(c(-c6c(F)cccc6F)c6ccc([nH]6)c(-c6c(F)cccc6F)c6nc(c(-c7c(F)cccc7F)c7ccc4[nH]7)C=C6)C=C5)cc3)cc(=O)c2c1
REMARK SMILES IDX 14 1 13 2 11 3 12 4 10 6 9 7 8 8 7 9 1 10 2 11 3 12 78 13
REMARK SMILES IDX 4 14 77 15 5 16 75 17 6 18 74 19 76 20 15 21 16 22 17 23
REMARK SMILES IDX 18 24 19 26 20 27 21 28 73 29 22 30 72 31 23 32 24 33 25 34
REMARK SMILES IDX 66 35 26 36 71 37 65 38 67 39 27 40 70 41 64 42 63 43 28 45
REMARK SMILES IDX 54 46 37 47 53 48 38 49 41 50 52 51 68 52 39 53 40 54 51 56
REMARK SMILES IDX 69 57 42 58 29 59 30 60 35 61 31 62 32 63 34 64 36 65 33 66
REMARK SMILES IDX 55 67 56 68 61 69 57 70 58 71 60 72 62 73 59 74 43 75 44 76
REMARK SMILES IDX 49 77 45 78 46 79 48 80 50 81 47 82
REMARK H PARENT 13 5 17 25 67 44 41 55
REMARK Flexibility Score: inf
ROOT
ATOM      1  C   UNL A   1      34.711  35.787  32.509  1.00  0.00     0.117 C 
ENDROOT
BRANCH   1   2
ATOM      2  N   UNL A   1      34.605  35.173  33.816  1.00  0.00    -0.356 N 
ATOM      3  C   UNL A   1      35.513  34.433  34.507  1.00  0.00     0.220 C 
ATOM      4  O   UNL A   1      35.147  33.905  35.559  1.00  0.00    -0.275 OA
ATOM      5  H   UNL A   1      33.744  35.314  34.275  1.00  0.00     0.163 HD
BRANCH   3   6
ATOM      6  C   UNL A   1      36.947  34.316  34.033  1.00  0.00     0.100 C 
BRANCH   6   7
ATOM      7  C   UNL A   1      37.802  33.221  34.682  1.00  0.00     0.018 C 
BRANCH   7   8
ATOM      8  C   UNL A   1      37.813  31.796  34.094  1.00  0.00     0.076 C 
BRANCH   8   9
ATOM      9  C   UNL A   1      39.030  30.917  34.286  1.00  0.00     0.108 A 
ATOM     10  C   UNL A   1      44.875  28.830  36.199  1.00  0.00     0.044 C 
ATOM     11  C   UNL A   1      43.575  29.517  35.899  1.00  0.00    -0.050 A 
ATOM     12  C   UNL A   1      43.192  30.656  36.619  1.00  0.00     0.007 A 
ATOM     13  C   UNL A   1      42.714  29.000  34.918  1.00  0.00     0.019 A 
ATOM     14  C   UNL A   1      41.945  31.241  36.401  1.00  0.00     0.048 A 
ATOM     15  C   UNL A   1      41.471  29.600  34.694  1.00  0.00     0.065 A 
ATOM     16  C   UNL A   1      41.081  30.694  35.455  1.00  0.00     0.138 A 
ATOM     17  C   UNL A   1      40.550  29.117  33.652  1.00  0.00     0.192 A 
ATOM     18  O   UNL A   1      39.849  31.276  35.336  1.00  0.00    -0.461 OA
ATOM     19  C   UNL A   1      39.304  29.891  33.465  1.00  0.00     0.095 A 
ATOM     20  O   UNL A   1      40.806  28.151  32.945  1.00  0.00    -0.289 OA
ENDBRANCH   8   9
ENDBRANCH   7   8
ENDBRANCH   6   7
ENDBRANCH   3   6
ENDBRANCH   1   2
BRANCH   1  21
ATOM     21  C   UNL A   1      33.394  35.679  31.752  1.00  0.00     0.042 C 
BRANCH  21  22
ATOM     22  C   UNL A   1      33.453  36.284  30.361  1.00  0.00     0.118 C 
BRANCH  22  23
ATOM     23  N   UNL A   1      32.709  35.499  29.388  1.00  0.00    -0.352 N 
ATOM     24  C   UNL A   1      33.099  34.400  28.665  1.00  0.00     0.251 C 
ATOM     25  H   UNL A   1      31.787  35.802  29.223  1.00  0.00     0.163 HD
ATOM     26  O   UNL A   1      32.383  33.988  27.754  1.00  0.00    -0.269 OA
BRANCH  24  27
ATOM     27  C   UNL A   1      34.381  33.720  28.957  1.00  0.00     0.039 A 
ATOM     28  C   UNL A   1      35.500  34.026  28.176  1.00  0.00     0.014 A 
ATOM     29  C   UNL A   1      34.487  32.776  29.980  1.00  0.00     0.014 A 
ATOM     30  C   UNL A   1      36.729  33.426  28.458  1.00  0.00     0.010 A 
ATOM     31  C   UNL A   1      35.731  32.261  30.327  1.00  0.00     0.010 A 
ATOM     32  C   UNL A   1      36.863  32.565  29.559  1.00  0.00    -0.014 A 
BRANCH  32  33
ATOM     33  C   UNL A   1      38.168  31.947  29.906  1.00  0.00     0.031 A 
ATOM     34  C   UNL A   1      39.146  32.693  30.776  1.00  0.00     0.074 A 
ATOM     35  C   UNL A   1      38.501  30.748  29.391  1.00  0.00     0.049 A 
ATOM     36  N   UNL A   1      40.362  32.361  31.129  1.00  0.00    -0.248 NA
ATOM     37  C   UNL A   1      38.711  34.002  31.292  1.00  0.00     0.031 C 
ATOM     38  C   UNL A   1      37.661  29.946  28.499  1.00  0.00     0.029 A 
ATOM     39  N   UNL A   1      39.640  29.996  29.537  1.00  0.00    -0.354 N 
ATOM     40  C   UNL A   1      40.839  33.423  31.887  1.00  0.00     0.074 A 
ATOM     41  C   UNL A   1      39.808  34.436  31.893  1.00  0.00     0.031 C 
ATOM     42  C   UNL A   1      38.300  28.804  28.201  1.00  0.00     0.029 A 
ATOM     43  C   UNL A   1      39.611  28.810  28.844  1.00  0.00     0.049 A 
ATOM     44  H   UNL A   1      40.405  30.279  30.088  1.00  0.00     0.167 HD
ATOM     45  C   UNL A   1      42.019  33.533  32.543  1.00  0.00     0.037 A 
ATOM     46  C   UNL A   1      40.540  27.842  28.731  1.00  0.00     0.037 A 
ATOM     47  C   UNL A   1      43.030  32.510  32.558  1.00  0.00     0.049 A 
ATOM     48  C   UNL A   1      41.847  27.993  29.460  1.00  0.00     0.074 A 
ATOM     49  C   UNL A   1      44.232  32.497  33.242  1.00  0.00     0.029 A 
ATOM     50  N   UNL A   1      42.956  31.318  31.854  1.00  0.00    -0.354 N 
ATOM     51  N   UNL A   1      42.256  28.972  30.230  1.00  0.00    -0.248 NA
ATOM     52  C   UNL A   1      42.819  26.902  29.310  1.00  0.00     0.031 C 
ATOM     53  C   UNL A   1      44.910  31.320  32.910  1.00  0.00     0.029 A 
ATOM     54  C   UNL A   1      44.104  30.573  32.066  1.00  0.00     0.049 A 
ATOM     55  H   UNL A   1      42.200  31.041  31.288  1.00  0.00     0.167 HD
ATOM     56  C   UNL A   1      43.516  28.601  30.681  1.00  0.00     0.074 A 
ATOM     57  C   UNL A   1      43.798  27.301  30.108  1.00  0.00     0.031 C 
ATOM     58  C   UNL A   1      44.364  29.275  31.496  1.00  0.00     0.037 A 
BRANCH  45  59
ATOM     59  C   UNL A   1      42.279  34.807  33.298  1.00  0.00     0.057 A 
ATOM     60  C   UNL A   1      41.786  35.014  34.594  1.00  0.00     0.134 A 
ATOM     61  C   UNL A   1      43.057  35.826  32.734  1.00  0.00     0.134 A 
ATOM     62  F   UNL A   1      41.024  34.084  35.189  1.00  0.00    -0.206 F 
ATOM     63  C   UNL A   1      42.034  36.200  35.289  1.00  0.00     0.040 A 
ATOM     64  C   UNL A   1      43.336  37.002  33.432  1.00  0.00     0.040 A 
ATOM     65  F   UNL A   1      43.565  35.693  31.500  1.00  0.00    -0.206 F 
ATOM     66  C   UNL A   1      42.817  37.194  34.710  1.00  0.00     0.006 A 
ENDBRANCH  45  59
BRANCH  46  67
ATOM     67  C   UNL A   1      40.262  26.633  27.913  1.00  0.00     0.057 A 
ATOM     68  C   UNL A   1      40.802  26.487  26.630  1.00  0.00     0.134 A 
ATOM     69  C   UNL A   1      39.444  25.600  28.388  1.00  0.00     0.134 A 
ATOM     70  F   UNL A   1      41.580  27.451  26.113  1.00  0.00    -0.206 F 
ATOM     71  C   UNL A   1      40.523  25.373  25.838  1.00  0.00     0.040 A 
ATOM     72  C   UNL A   1      39.178  24.465  27.618  1.00  0.00     0.040 A 
ATOM     73  F   UNL A   1      38.902  25.671  29.612  1.00  0.00    -0.206 F 
ATOM     74  C   UNL A   1      39.711  24.354  26.335  1.00  0.00     0.006 A 
ENDBRANCH  46  67
BRANCH  58  75
ATOM     75  C   UNL A   1      45.658  28.601  31.854  1.00  0.00     0.057 A 
ATOM     76  C   UNL A   1      46.881  29.001  31.300  1.00  0.00     0.134 A 
ATOM     77  C   UNL A   1      45.682  27.568  32.800  1.00  0.00     0.134 A 
ATOM     78  F   UNL A   1      46.925  29.976  30.379  1.00  0.00    -0.206 F 
ATOM     79  C   UNL A   1      48.079  28.380  31.657  1.00  0.00     0.040 A 
ATOM     80  C   UNL A   1      46.877  26.962  33.187  1.00  0.00     0.040 A 
ATOM     81  F   UNL A   1      44.547  27.145  33.376  1.00  0.00    -0.206 F 
ATOM     82  C   UNL A   1      48.079  27.363  32.610  1.00  0.00     0.006 A 
ENDBRANCH  58  75
ENDBRANCH  32  33
ENDBRANCH  24  27
ENDBRANCH  22  23
ENDBRANCH  21  22
ENDBRANCH   1  21
TORSDOF 13
ENDMDL
