MODEL 1
REMARK VINA RESULT:     -13.1      0.000      0.000
REMARK SMILES Cc1cc(/C=C2\C(=O)N(Cc3ccco3)C(=O)[NH+]=C2NCCCNC(=O)c2ccc(-c3c4nc(c(-c5c(F)cccc5F)c5ccc([nH]5)c(-c5c(F)cccc5F)c5nc(c(-c6c(F)cccc6F)c6ccc3[nH]6)C=C5)C=C4)cc2)c(C)n1-c1ccc(Cl)c(C(=O)[O-])c1
REMARK SMILES IDX 22 1 21 2 20 3 5 4 6 5 7 6 19 7 8 8 9 9 18 10 16 11 17 14
REMARK SMILES IDX 4 15 1 16 2 17 3 18 83 19 81 20 82 21 84 22 85 23 93 24
REMARK SMILES IDX 86 25 89 26 87 27 88 28 90 29 91 30 92 31 10 32 11 33 12 34
REMARK SMILES IDX 15 35 13 36 14 37 23 38 24 39 25 40 26 42 27 43 28 44 80 45
REMARK SMILES IDX 29 46 79 47 30 48 31 49 32 50 73 51 33 52 78 53 72 54 74 55
REMARK SMILES IDX 34 56 77 57 71 58 70 59 35 61 61 62 44 63 60 64 45 65 48 66
REMARK SMILES IDX 59 67 75 68 46 69 47 70 58 72 76 73 49 74 36 75 37 76 42 77
REMARK SMILES IDX 38 78 39 79 41 80 43 81 40 82 62 83 63 84 68 85 64 86 65 87
REMARK SMILES IDX 67 88 69 89 66 90 50 91 51 92 56 93 52 94 53 95 55 96 57 97
REMARK SMILES IDX 54 98
REMARK H PARENT 18 12 20 13 24 41 74 60 48 71
REMARK Flexibility Score: inf
ROOT
ATOM      1  C   UNL A   1      34.900  30.012  28.325  1.00  0.00     0.059 C 
ENDROOT
BRANCH   1   2
ATOM      2  C   UNL A   1      35.253  29.208  27.060  1.00  0.00     0.195 C 
BRANCH   2   3
ATOM      3  N   UNL A   1      34.387  29.558  25.967  1.00  0.00    -0.305 N 
ATOM      4  C   UNL A   1      33.817  26.422  25.689  1.00  0.00     0.032 C 
ATOM      5  C   UNL A   1      33.032  27.448  25.304  1.00  0.00     0.129 C 
ATOM      6  C   UNL A   1      31.646  27.294  24.804  1.00  0.00     0.323 C 
ATOM      7  C   UNL A   1      33.518  28.854  25.175  1.00  0.00     0.236 C 
ATOM      8  O   UNL A   1      30.787  26.686  25.426  1.00  0.00    -0.250 OA
ATOM      9  N   UNL A   1      31.473  27.929  23.591  1.00  0.00    -0.182 N 
ATOM     10  N   UNL A   1      33.044  29.592  24.203  1.00  0.00    -0.210 N 
ATOM     11  C   UNL A   1      32.186  29.068  23.273  1.00  0.00     0.444 C 
ATOM     12  H   UNL A   1      33.311  30.538  24.139  1.00  0.00     0.270 HD
ATOM     13  H   UNL A   1      34.428  30.514  25.736  1.00  0.00     0.256 HD
ATOM     14  O   UNL A   1      32.050  29.621  22.181  1.00  0.00    -0.212 OA
BRANCH   4  15
ATOM     15  C   UNL A   1      33.593  24.997  25.766  1.00  0.00    -0.003 A 
ATOM     16  C   UNL A   1      32.592  21.925  27.642  1.00  0.00     0.065 C 
ATOM     17  C   UNL A   1      33.022  22.992  26.695  1.00  0.00     0.020 A 
ATOM     18  C   UNL A   1      33.131  24.349  26.942  1.00  0.00     0.031 A 
ATOM     19  N   UNL A   1      33.465  22.767  25.403  1.00  0.00    -0.318 N 
ATOM     20  C   UNL A   1      33.822  23.993  24.832  1.00  0.00     0.027 A 
ATOM     21  C   UNL A   1      34.252  24.083  23.409  1.00  0.00     0.065 C 
BRANCH  19  22
ATOM     22  C   UNL A   1      33.498  21.519  24.719  1.00  0.00     0.046 A 
ATOM     23  C   UNL A   1      32.386  21.112  23.978  1.00  0.00     0.028 A 
ATOM     24  C   UNL A   1      34.560  20.635  24.943  1.00  0.00     0.038 A 
ATOM     25  C   UNL A   1      32.283  19.789  23.557  1.00  0.00     0.023 A 
ATOM     26  C   UNL A   1      34.470  19.295  24.503  1.00  0.00     0.018 A 
ATOM     27  C   UNL A   1      33.306  18.874  23.834  1.00  0.00     0.050 A 
ATOM     28  Cl  UNL A   1      33.005  17.245  23.338  1.00  0.00    -0.084 Cl
BRANCH  26  29
ATOM     29  C   UNL A   1      35.584  18.359  24.803  1.00  0.00     0.073 C 
ATOM     30  O   UNL A   1      35.536  17.137  24.935  1.00  0.00    -0.545 OA
ATOM     31  O   UNL A   1      36.767  18.982  24.924  1.00  0.00    -0.545 OA
ENDBRANCH  26  29
ENDBRANCH  19  22
ENDBRANCH   4  15
BRANCH   9  32
ATOM     32  C   UNL A   1      30.528  27.405  22.622  1.00  0.00     0.285 C 
BRANCH  32  33
ATOM     33  C   UNL A   1      29.210  28.069  22.697  1.00  0.00     0.138 A 
ATOM     34  C   UNL A   1      28.068  27.842  23.433  1.00  0.00     0.049 A 
ATOM     35  O   UNL A   1      29.070  29.201  21.950  1.00  0.00    -0.466 OA
ATOM     36  C   UNL A   1      27.172  28.886  23.101  1.00  0.00     0.042 A 
ATOM     37  C   UNL A   1      27.827  29.685  22.193  1.00  0.00     0.195 A 
ENDBRANCH  32  33
ENDBRANCH   9  32
ENDBRANCH   2   3
ENDBRANCH   1   2
BRANCH   1  38
ATOM     38  C   UNL A   1      34.766  31.545  28.164  1.00  0.00     0.119 C 
BRANCH  38  39
ATOM     39  N   UNL A   1      34.286  32.250  29.337  1.00  0.00    -0.352 N 
ATOM     40  C   UNL A   1      34.895  32.372  30.577  1.00  0.00     0.251 C 
ATOM     41  H   UNL A   1      33.415  32.699  29.241  1.00  0.00     0.163 HD
ATOM     42  O   UNL A   1      34.318  33.035  31.439  1.00  0.00    -0.269 OA
BRANCH  40  43
ATOM     43  C   UNL A   1      36.176  31.649  30.932  1.00  0.00     0.039 A 
ATOM     44  C   UNL A   1      37.319  31.955  30.211  1.00  0.00     0.014 A 
ATOM     45  C   UNL A   1      36.252  30.513  31.761  1.00  0.00     0.014 A 
ATOM     46  C   UNL A   1      38.512  31.184  30.367  1.00  0.00     0.010 A 
ATOM     47  C   UNL A   1      37.452  29.678  31.848  1.00  0.00     0.010 A 
ATOM     48  C   UNL A   1      38.637  29.973  31.142  1.00  0.00    -0.014 A 
BRANCH  48  49
ATOM     49  C   UNL A   1      39.777  28.925  30.642  1.00  0.00     0.031 A 
ATOM     50  C   UNL A   1      40.749  28.989  31.776  1.00  0.00     0.074 A 
ATOM     51  C   UNL A   1      40.196  28.125  29.573  1.00  0.00     0.049 A 
ATOM     52  N   UNL A   1      41.254  30.141  32.123  1.00  0.00    -0.248 NA
ATOM     53  C   UNL A   1      40.851  27.944  32.796  1.00  0.00     0.031 C 
ATOM     54  C   UNL A   1      39.590  27.998  28.235  1.00  0.00     0.029 A 
ATOM     55  N   UNL A   1      41.290  27.202  29.415  1.00  0.00    -0.354 N 
ATOM     56  C   UNL A   1      41.989  29.912  33.258  1.00  0.00     0.074 A 
ATOM     57  C   UNL A   1      41.503  28.626  33.745  1.00  0.00     0.031 C 
ATOM     58  C   UNL A   1      40.186  27.018  27.488  1.00  0.00     0.029 A 
ATOM     59  C   UNL A   1      41.309  26.405  28.202  1.00  0.00     0.049 A 
ATOM     60  H   UNL A   1      41.993  27.115  30.099  1.00  0.00     0.167 HD
ATOM     61  C   UNL A   1      43.277  30.360  33.214  1.00  0.00     0.037 A 
ATOM     62  C   UNL A   1      42.185  25.407  27.756  1.00  0.00     0.037 A 
ATOM     63  C   UNL A   1      44.194  29.301  32.890  1.00  0.00     0.049 A 
ATOM     64  C   UNL A   1      43.451  25.633  28.456  1.00  0.00     0.074 A 
ATOM     65  C   UNL A   1      44.305  27.992  33.318  1.00  0.00     0.029 A 
ATOM     66  N   UNL A   1      44.818  29.372  31.663  1.00  0.00    -0.354 N 
ATOM     67  N   UNL A   1      44.274  26.564  28.083  1.00  0.00    -0.248 NA
ATOM     68  C   UNL A   1      43.924  24.762  29.526  1.00  0.00     0.031 C 
ATOM     69  C   UNL A   1      44.453  27.254  32.125  1.00  0.00     0.029 A 
ATOM     70  C   UNL A   1      44.850  28.113  31.108  1.00  0.00     0.049 A 
ATOM     71  H   UNL A   1      45.182  30.188  31.251  1.00  0.00     0.167 HD
ATOM     72  C   UNL A   1      45.043  26.732  29.185  1.00  0.00     0.074 A 
ATOM     73  C   UNL A   1      45.004  25.461  29.885  1.00  0.00     0.031 C 
ATOM     74  C   UNL A   1      45.067  27.986  29.692  1.00  0.00     0.037 A 
BRANCH  61  75
ATOM     75  C   UNL A   1      43.409  31.767  32.705  1.00  0.00     0.057 A 
ATOM     76  C   UNL A   1      43.704  32.789  33.608  1.00  0.00     0.134 A 
ATOM     77  C   UNL A   1      43.134  32.148  31.376  1.00  0.00     0.134 A 
ATOM     78  F   UNL A   1      44.038  32.499  34.874  1.00  0.00    -0.206 F 
ATOM     79  C   UNL A   1      43.656  34.133  33.226  1.00  0.00     0.040 A 
ATOM     80  C   UNL A   1      43.023  33.484  30.999  1.00  0.00     0.040 A 
ATOM     81  F   UNL A   1      42.974  31.227  30.411  1.00  0.00    -0.206 F 
ATOM     82  C   UNL A   1      43.277  34.484  31.930  1.00  0.00     0.006 A 
ENDBRANCH  61  75
BRANCH  62  83
ATOM     83  C   UNL A   1      42.428  24.279  26.704  1.00  0.00     0.057 A 
ATOM     84  C   UNL A   1      43.193  24.522  25.506  1.00  0.00     0.134 A 
ATOM     85  C   UNL A   1      42.329  22.917  27.007  1.00  0.00     0.134 A 
ATOM     86  F   UNL A   1      43.365  25.758  25.018  1.00  0.00    -0.206 F 
ATOM     87  C   UNL A   1      43.888  23.535  24.776  1.00  0.00     0.040 A 
ATOM     88  C   UNL A   1      42.994  21.906  26.250  1.00  0.00     0.040 A 
ATOM     89  F   UNL A   1      41.661  22.517  28.096  1.00  0.00    -0.206 F 
ATOM     90  C   UNL A   1      43.807  22.215  25.159  1.00  0.00     0.006 A 
ENDBRANCH  62  83
BRANCH  74  91
ATOM     91  C   UNL A   1      45.132  29.128  28.692  1.00  0.00     0.057 A 
ATOM     92  C   UNL A   1      44.052  29.716  27.997  1.00  0.00     0.134 A 
ATOM     93  C   UNL A   1      46.401  29.606  28.344  1.00  0.00     0.134 A 
ATOM     94  F   UNL A   1      42.774  29.437  28.289  1.00  0.00    -0.206 F 
ATOM     95  C   UNL A   1      44.239  30.646  26.965  1.00  0.00     0.040 A 
ATOM     96  C   UNL A   1      46.598  30.572  27.352  1.00  0.00     0.040 A 
ATOM     97  F   UNL A   1      47.488  29.141  28.979  1.00  0.00    -0.206 F 
ATOM     98  C   UNL A   1      45.516  31.076  26.638  1.00  0.00     0.006 A 
ENDBRANCH  74  91
ENDBRANCH  48  49
ENDBRANCH  40  43
ENDBRANCH  38  39
ENDBRANCH   1  38
TORSDOF 14
ENDMDL
MODEL 2
REMARK VINA RESULT:     -12.7      3.052      8.500
REMARK SMILES Cc1cc(/C=C2\C(=O)N(Cc3ccco3)C(=O)[NH+]=C2NCCCNC(=O)c2ccc(-c3c4nc(c(-c5c(F)cccc5F)c5ccc([nH]5)c(-c5c(F)cccc5F)c5nc(c(-c6c(F)cccc6F)c6ccc3[nH]6)C=C5)C=C4)cc2)c(C)n1-c1ccc(Cl)c(C(=O)[O-])c1
REMARK SMILES IDX 22 1 21 2 20 3 5 4 6 5 7 6 19 7 8 8 9 9 18 10 16 11 17 14
REMARK SMILES IDX 4 15 1 16 2 17 3 18 83 19 81 20 82 21 84 22 85 23 93 24
REMARK SMILES IDX 86 25 89 26 87 27 88 28 90 29 91 30 92 31 10 32 11 33 12 34
REMARK SMILES IDX 15 35 13 36 14 37 23 38 24 39 25 40 26 42 27 43 28 44 80 45
REMARK SMILES IDX 29 46 79 47 30 48 31 49 32 50 73 51 33 52 78 53 72 54 74 55
REMARK SMILES IDX 34 56 77 57 71 58 70 59 35 61 61 62 44 63 60 64 45 65 48 66
REMARK SMILES IDX 59 67 75 68 46 69 47 70 58 72 76 73 49 74 36 75 37 76 42 77
REMARK SMILES IDX 38 78 39 79 41 80 43 81 40 82 62 83 63 84 68 85 64 86 65 87
REMARK SMILES IDX 67 88 69 89 66 90 50 91 51 92 56 93 52 94 53 95 55 96 57 97
REMARK SMILES IDX 54 98
REMARK H PARENT 18 12 20 13 24 41 74 60 48 71
REMARK Flexibility Score: inf
ROOT
ATOM      1  C   UNL A   1      39.203  24.104  26.463  1.00  0.00     0.059 C 
ENDROOT
BRANCH   1   2
ATOM      2  C   UNL A   1      37.707  24.372  26.220  1.00  0.00     0.195 C 
BRANCH   2   3
ATOM      3  N   UNL A   1      36.916  23.211  26.531  1.00  0.00    -0.305 N 
ATOM      4  C   UNL A   1      34.619  24.560  24.759  1.00  0.00     0.032 C 
ATOM      5  C   UNL A   1      34.799  23.253  25.033  1.00  0.00     0.129 C 
ATOM      6  C   UNL A   1      34.021  22.157  24.410  1.00  0.00     0.323 C 
ATOM      7  C   UNL A   1      35.691  22.754  26.122  1.00  0.00     0.236 C 
ATOM      8  O   UNL A   1      33.915  22.033  23.198  1.00  0.00    -0.250 OA
ATOM      9  N   UNL A   1      33.474  21.321  25.362  1.00  0.00    -0.182 N 
ATOM     10  N   UNL A   1      35.321  21.695  26.796  1.00  0.00    -0.210 N 
ATOM     11  C   UNL A   1      34.107  21.102  26.569  1.00  0.00     0.444 C 
ATOM     12  H   UNL A   1      35.925  21.319  27.478  1.00  0.00     0.270 HD
ATOM     13  H   UNL A   1      37.351  22.614  27.181  1.00  0.00     0.256 HD
ATOM     14  O   UNL A   1      33.607  20.376  27.429  1.00  0.00    -0.212 OA
BRANCH   4  15
ATOM     15  C   UNL A   1      33.734  25.254  23.853  1.00  0.00    -0.003 A 
ATOM     16  C   UNL A   1      32.397  25.910  20.426  1.00  0.00     0.065 C 
ATOM     17  C   UNL A   1      32.758  25.823  21.869  1.00  0.00     0.020 A 
ATOM     18  C   UNL A   1      33.702  24.999  22.456  1.00  0.00     0.031 A 
ATOM     19  N   UNL A   1      32.239  26.634  22.863  1.00  0.00    -0.318 N 
ATOM     20  C   UNL A   1      32.839  26.294  24.080  1.00  0.00     0.027 A 
ATOM     21  C   UNL A   1      32.414  26.937  25.354  1.00  0.00     0.065 C 
BRANCH  19  22
ATOM     22  C   UNL A   1      31.215  27.613  22.715  1.00  0.00     0.046 A 
ATOM     23  C   UNL A   1      31.567  28.939  22.449  1.00  0.00     0.028 A 
ATOM     24  C   UNL A   1      29.890  27.281  23.019  1.00  0.00     0.038 A 
ATOM     25  C   UNL A   1      30.618  29.948  22.597  1.00  0.00     0.023 A 
ATOM     26  C   UNL A   1      28.918  28.298  23.153  1.00  0.00     0.018 A 
ATOM     27  C   UNL A   1      29.304  29.638  22.968  1.00  0.00     0.050 A 
ATOM     28  Cl  UNL A   1      28.257  30.994  23.208  1.00  0.00    -0.084 Cl
BRANCH  26  29
ATOM     29  C   UNL A   1      27.531  27.927  23.534  1.00  0.00     0.073 C 
ATOM     30  O   UNL A   1      26.503  28.590  23.404  1.00  0.00    -0.545 OA
ATOM     31  O   UNL A   1      27.450  26.699  24.070  1.00  0.00    -0.545 OA
ENDBRANCH  26  29
ENDBRANCH  19  22
ENDBRANCH   4  15
BRANCH   9  32
ATOM     32  C   UNL A   1      32.211  20.652  25.106  1.00  0.00     0.285 C 
BRANCH  32  33
ATOM     33  C   UNL A   1      32.391  19.261  24.641  1.00  0.00     0.138 A 
ATOM     34  C   UNL A   1      32.850  18.698  23.471  1.00  0.00     0.049 A 
ATOM     35  O   UNL A   1      32.128  18.287  25.559  1.00  0.00    -0.466 OA
ATOM     36  C   UNL A   1      32.850  17.298  23.680  1.00  0.00     0.042 A 
ATOM     37  C   UNL A   1      32.400  17.099  24.965  1.00  0.00     0.195 A 
ENDBRANCH  32  33
ENDBRANCH   9  32
ENDBRANCH   2   3
ENDBRANCH   1   2
BRANCH   1  38
ATOM     38  C   UNL A   1      39.610  22.645  26.780  1.00  0.00     0.119 C 
BRANCH  38  39
ATOM     39  N   UNL A   1      40.716  22.128  25.997  1.00  0.00    -0.352 N 
ATOM     40  C   UNL A   1      41.949  22.715  25.757  1.00  0.00     0.251 C 
ATOM     41  H   UNL A   1      40.572  21.247  25.583  1.00  0.00     0.163 HD
ATOM     42  O   UNL A   1      42.759  22.092  25.071  1.00  0.00    -0.269 OA
BRANCH  40  43
ATOM     43  C   UNL A   1      42.291  24.114  26.219  1.00  0.00     0.039 A 
ATOM     44  C   UNL A   1      42.370  24.349  27.583  1.00  0.00     0.014 A 
ATOM     45  C   UNL A   1      42.289  25.255  25.394  1.00  0.00     0.014 A 
ATOM     46  C   UNL A   1      42.506  25.679  28.091  1.00  0.00     0.010 A 
ATOM     47  C   UNL A   1      42.340  26.618  25.928  1.00  0.00     0.010 A 
ATOM     48  C   UNL A   1      42.440  26.890  27.308  1.00  0.00    -0.014 A 
BRANCH  48  49
ATOM     49  C   UNL A   1      41.918  28.215  28.095  1.00  0.00     0.031 A 
ATOM     50  C   UNL A   1      43.196  28.971  28.272  1.00  0.00     0.074 A 
ATOM     51  C   UNL A   1      40.810  28.812  28.709  1.00  0.00     0.049 A 
ATOM     52  N   UNL A   1      44.200  28.399  28.878  1.00  0.00    -0.248 NA
ATOM     53  C   UNL A   1      43.555  30.129  27.451  1.00  0.00     0.031 C 
ATOM     54  C   UNL A   1      39.462  28.249  28.902  1.00  0.00     0.029 A 
ATOM     55  N   UNL A   1      40.610  30.099  29.322  1.00  0.00    -0.354 N 
ATOM     56  C   UNL A   1      45.258  29.265  28.769  1.00  0.00     0.074 A 
ATOM     57  C   UNL A   1      44.871  30.167  27.691  1.00  0.00     0.031 C 
ATOM     58  C   UNL A   1      38.589  29.167  29.420  1.00  0.00     0.029 A 
ATOM     59  C   UNL A   1      39.252  30.442  29.703  1.00  0.00     0.049 A 
ATOM     60  H   UNL A   1      41.360  30.718  29.476  1.00  0.00     0.167 HD
ATOM     61  C   UNL A   1      45.872  29.578  29.946  1.00  0.00     0.037 A 
ATOM     62  C   UNL A   1      38.709  31.601  30.273  1.00  0.00     0.037 A 
ATOM     63  C   UNL A   1      45.413  30.839  30.464  1.00  0.00     0.049 A 
ATOM     64  C   UNL A   1      39.813  32.271  30.963  1.00  0.00     0.074 A 
ATOM     65  C   UNL A   1      45.169  32.063  29.872  1.00  0.00     0.029 A 
ATOM     66  N   UNL A   1      44.664  30.802  31.620  1.00  0.00    -0.354 N 
ATOM     67  N   UNL A   1      40.235  31.863  32.120  1.00  0.00    -0.248 NA
ATOM     68  C   UNL A   1      40.422  33.499  30.464  1.00  0.00     0.031 C 
ATOM     69  C   UNL A   1      43.899  32.433  30.362  1.00  0.00     0.029 A 
ATOM     70  C   UNL A   1      43.622  31.692  31.503  1.00  0.00     0.049 A 
ATOM     71  H   UNL A   1      44.845  30.232  32.401  1.00  0.00     0.167 HD
ATOM     72  C   UNL A   1      41.468  32.419  32.192  1.00  0.00     0.074 A 
ATOM     73  C   UNL A   1      41.412  33.602  31.353  1.00  0.00     0.031 C 
ATOM     74  C   UNL A   1      42.488  31.549  32.376  1.00  0.00     0.037 A 
BRANCH  61  75
ATOM     75  C   UNL A   1      46.180  28.384  30.804  1.00  0.00     0.057 A 
ATOM     76  C   UNL A   1      47.498  27.935  30.893  1.00  0.00     0.134 A 
ATOM     77  C   UNL A   1      45.194  27.602  31.439  1.00  0.00     0.134 A 
ATOM     78  F   UNL A   1      48.498  28.659  30.367  1.00  0.00    -0.206 F 
ATOM     79  C   UNL A   1      47.813  26.727  31.521  1.00  0.00     0.040 A 
ATOM     80  C   UNL A   1      45.488  26.368  32.014  1.00  0.00     0.040 A 
ATOM     81  F   UNL A   1      43.922  28.026  31.522  1.00  0.00    -0.206 F 
ATOM     82  C   UNL A   1      46.803  25.922  32.049  1.00  0.00     0.006 A 
ENDBRANCH  61  75
BRANCH  62  83
ATOM     83  C   UNL A   1      37.398  32.372  30.628  1.00  0.00     0.057 A 
ATOM     84  C   UNL A   1      36.794  33.293  29.698  1.00  0.00     0.134 A 
ATOM     85  C   UNL A   1      36.502  31.943  31.613  1.00  0.00     0.134 A 
ATOM     86  F   UNL A   1      37.498  33.857  28.707  1.00  0.00    -0.206 F 
ATOM     87  C   UNL A   1      35.427  33.639  29.675  1.00  0.00     0.040 A 
ATOM     88  C   UNL A   1      35.126  32.321  31.623  1.00  0.00     0.040 A 
ATOM     89  F   UNL A   1      36.899  31.075  32.551  1.00  0.00    -0.206 F 
ATOM     90  C   UNL A   1      34.576  33.135  30.633  1.00  0.00     0.006 A 
ENDBRANCH  62  83
BRANCH  74  91
ATOM     91  C   UNL A   1      42.248  30.408  33.349  1.00  0.00     0.057 A 
ATOM     92  C   UNL A   1      41.582  29.189  33.087  1.00  0.00     0.134 A 
ATOM     93  C   UNL A   1      42.645  30.601  34.677  1.00  0.00     0.134 A 
ATOM     94  F   UNL A   1      41.231  28.815  31.850  1.00  0.00    -0.206 F 
ATOM     95  C   UNL A   1      41.259  28.276  34.100  1.00  0.00     0.040 A 
ATOM     96  C   UNL A   1      42.375  29.673  35.688  1.00  0.00     0.040 A 
ATOM     97  F   UNL A   1      43.323  31.708  35.019  1.00  0.00    -0.206 F 
ATOM     98  C   UNL A   1      41.655  28.518  35.408  1.00  0.00     0.006 A 
ENDBRANCH  74  91
ENDBRANCH  48  49
ENDBRANCH  40  43
ENDBRANCH  38  39
ENDBRANCH   1  38
TORSDOF 14
ENDMDL
MODEL 3
REMARK VINA RESULT:     -12.4      3.714      7.447
REMARK SMILES Cc1cc(/C=C2\C(=O)N(Cc3ccco3)C(=O)[NH+]=C2NCCCNC(=O)c2ccc(-c3c4nc(c(-c5c(F)cccc5F)c5ccc([nH]5)c(-c5c(F)cccc5F)c5nc(c(-c6c(F)cccc6F)c6ccc3[nH]6)C=C5)C=C4)cc2)c(C)n1-c1ccc(Cl)c(C(=O)[O-])c1
REMARK SMILES IDX 22 1 21 2 20 3 5 4 6 5 7 6 19 7 8 8 9 9 18 10 16 11 17 14
REMARK SMILES IDX 4 15 1 16 2 17 3 18 83 19 81 20 82 21 84 22 85 23 93 24
REMARK SMILES IDX 86 25 89 26 87 27 88 28 90 29 91 30 92 31 10 32 11 33 12 34
REMARK SMILES IDX 15 35 13 36 14 37 23 38 24 39 25 40 26 42 27 43 28 44 80 45
REMARK SMILES IDX 29 46 79 47 30 48 31 49 32 50 73 51 33 52 78 53 72 54 74 55
REMARK SMILES IDX 34 56 77 57 71 58 70 59 35 61 61 62 44 63 60 64 45 65 48 66
REMARK SMILES IDX 59 67 75 68 46 69 47 70 58 72 76 73 49 74 36 75 37 76 42 77
REMARK SMILES IDX 38 78 39 79 41 80 43 81 40 82 62 83 63 84 68 85 64 86 65 87
REMARK SMILES IDX 67 88 69 89 66 90 50 91 51 92 56 93 52 94 53 95 55 96 57 97
REMARK SMILES IDX 54 98
REMARK H PARENT 18 12 20 13 24 41 74 60 48 71
REMARK Flexibility Score: inf
ROOT
ATOM      1  C   UNL A   1      32.873  35.398  28.526  1.00  0.00     0.059 C 
ENDROOT
BRANCH   1   2
ATOM      2  C   UNL A   1      33.346  34.028  28.005  1.00  0.00     0.195 C 
BRANCH   2   3
ATOM      3  N   UNL A   1      34.345  33.462  28.871  1.00  0.00    -0.305 N 
ATOM      4  C   UNL A   1      33.747  30.685  27.397  1.00  0.00     0.032 C 
ATOM      5  C   UNL A   1      34.874  31.064  28.032  1.00  0.00     0.129 C 
ATOM      6  C   UNL A   1      36.136  30.288  28.024  1.00  0.00     0.323 C 
ATOM      7  C   UNL A   1      34.944  32.232  28.960  1.00  0.00     0.236 C 
ATOM      8  O   UNL A   1      36.674  29.920  26.989  1.00  0.00    -0.250 OA
ATOM      9  N   UNL A   1      36.602  30.069  29.303  1.00  0.00    -0.182 N 
ATOM     10  N   UNL A   1      35.712  32.145  30.016  1.00  0.00    -0.210 N 
ATOM     11  C   UNL A   1      36.375  30.983  30.313  1.00  0.00     0.444 C 
ATOM     12  H   UNL A   1      35.814  32.927  30.607  1.00  0.00     0.270 HD
ATOM     13  H   UNL A   1      34.670  34.097  29.549  1.00  0.00     0.256 HD
ATOM     14  O   UNL A   1      36.770  30.777  31.461  1.00  0.00    -0.212 OA
BRANCH   4  15
ATOM     15  C   UNL A   1      33.430  29.545  26.568  1.00  0.00    -0.003 A 
ATOM     16  C   UNL A   1      33.431  27.775  23.278  1.00  0.00     0.065 C 
ATOM     17  C   UNL A   1      33.319  28.268  24.680  1.00  0.00     0.020 A 
ATOM     18  C   UNL A   1      33.755  29.478  25.188  1.00  0.00     0.031 A 
ATOM     19  N   UNL A   1      32.672  27.597  25.702  1.00  0.00    -0.318 N 
ATOM     20  C   UNL A   1      32.731  28.379  26.861  1.00  0.00     0.027 A 
ATOM     21  C   UNL A   1      32.197  27.877  28.157  1.00  0.00     0.065 C 
BRANCH  19  22
ATOM     22  C   UNL A   1      32.092  26.297  25.636  1.00  0.00     0.046 A 
ATOM     23  C   UNL A   1      30.704  26.169  25.543  1.00  0.00     0.028 A 
ATOM     24  C   UNL A   1      32.893  25.170  25.852  1.00  0.00     0.038 A 
ATOM     25  C   UNL A   1      30.108  24.933  25.777  1.00  0.00     0.023 A 
ATOM     26  C   UNL A   1      32.296  23.908  26.071  1.00  0.00     0.018 A 
ATOM     27  C   UNL A   1      30.893  23.808  26.061  1.00  0.00     0.050 A 
ATOM     28  Cl  UNL A   1      30.018  22.361  26.424  1.00  0.00    -0.084 Cl
BRANCH  26  29
ATOM     29  C   UNL A   1      33.164  22.737  26.355  1.00  0.00     0.073 C 
ATOM     30  O   UNL A   1      32.900  21.544  26.217  1.00  0.00    -0.545 OA
ATOM     31  O   UNL A   1      34.378  23.088  26.806  1.00  0.00    -0.545 OA
ENDBRANCH  26  29
ENDBRANCH  19  22
ENDBRANCH   4  15
BRANCH   9  32
ATOM     32  C   UNL A   1      37.348  28.862  29.611  1.00  0.00     0.285 C 
BRANCH  32  33
ATOM     33  C   UNL A   1      38.690  28.852  28.994  1.00  0.00     0.138 A 
ATOM     34  C   UNL A   1      39.804  29.653  29.119  1.00  0.00     0.049 A 
ATOM     35  O   UNL A   1      38.959  27.799  28.169  1.00  0.00    -0.466 OA
ATOM     36  C   UNL A   1      40.805  29.065  28.309  1.00  0.00     0.042 A 
ATOM     37  C   UNL A   1      40.241  27.941  27.751  1.00  0.00     0.195 A 
ENDBRANCH  32  33
ENDBRANCH   9  32
ENDBRANCH   2   3
ENDBRANCH   1   2
BRANCH   1  38
ATOM     38  C   UNL A   1      33.342  35.806  29.943  1.00  0.00     0.119 C 
BRANCH  38  39
ATOM     39  N   UNL A   1      32.332  35.715  30.979  1.00  0.00    -0.352 N 
ATOM     40  C   UNL A   1      32.487  35.321  32.300  1.00  0.00     0.251 C 
ATOM     41  H   UNL A   1      31.418  35.964  30.709  1.00  0.00     0.163 HD
ATOM     42  O   UNL A   1      31.491  35.331  33.023  1.00  0.00    -0.269 OA
BRANCH  40  43
ATOM     43  C   UNL A   1      33.795  34.796  32.847  1.00  0.00     0.039 A 
ATOM     44  C   UNL A   1      34.897  35.637  32.822  1.00  0.00     0.014 A 
ATOM     45  C   UNL A   1      34.054  33.445  33.147  1.00  0.00     0.014 A 
ATOM     46  C   UNL A   1      36.200  35.148  33.150  1.00  0.00     0.010 A 
ATOM     47  C   UNL A   1      35.404  32.935  33.396  1.00  0.00     0.010 A 
ATOM     48  C   UNL A   1      36.543  33.767  33.397  1.00  0.00    -0.014 A 
BRANCH  48  49
ATOM     49  C   UNL A   1      38.076  33.345  33.052  1.00  0.00     0.031 A 
ATOM     50  C   UNL A   1      38.475  32.642  34.310  1.00  0.00     0.074 A 
ATOM     51  C   UNL A   1      39.111  33.481  32.119  1.00  0.00     0.049 A 
ATOM     52  N   UNL A   1      38.378  33.266  35.452  1.00  0.00    -0.248 NA
ATOM     53  C   UNL A   1      38.555  31.184  34.414  1.00  0.00     0.031 C 
ATOM     54  C   UNL A   1      39.125  34.281  30.882  1.00  0.00     0.029 A 
ATOM     55  N   UNL A   1      40.435  32.920  32.043  1.00  0.00    -0.354 N 
ATOM     56  C   UNL A   1      38.674  32.342  36.421  1.00  0.00     0.074 A 
ATOM     57  C   UNL A   1      38.528  31.057  35.746  1.00  0.00     0.031 C 
ATOM     58  C   UNL A   1      40.257  34.068  30.142  1.00  0.00     0.029 A 
ATOM     59  C   UNL A   1      41.177  33.150  30.816  1.00  0.00     0.049 A 
ATOM     60  H   UNL A   1      40.820  32.405  32.788  1.00  0.00     0.167 HD
ATOM     61  C   UNL A   1      39.643  32.720  37.304  1.00  0.00     0.037 A 
ATOM     62  C   UNL A   1      42.446  32.725  30.401  1.00  0.00     0.037 A 
ATOM     63  C   UNL A   1      40.923  32.168  36.953  1.00  0.00     0.049 A 
ATOM     64  C   UNL A   1      43.200  32.437  31.623  1.00  0.00     0.074 A 
ATOM     65  C   UNL A   1      41.321  30.915  36.531  1.00  0.00     0.029 A 
ATOM     66  N   UNL A   1      41.887  33.056  36.524  1.00  0.00    -0.354 N 
ATOM     67  N   UNL A   1      43.718  33.387  32.337  1.00  0.00    -0.248 NA
ATOM     68  C   UNL A   1      43.519  31.079  32.048  1.00  0.00     0.031 C 
ATOM     69  C   UNL A   1      42.146  31.175  35.416  1.00  0.00     0.029 A 
ATOM     70  C   UNL A   1      42.559  32.500  35.461  1.00  0.00     0.049 A 
ATOM     71  H   UNL A   1      42.065  33.941  36.915  1.00  0.00     0.167 HD
ATOM     72  C   UNL A   1      43.917  32.779  33.531  1.00  0.00     0.074 A 
ATOM     73  C   UNL A   1      44.072  31.368  33.228  1.00  0.00     0.031 C 
ATOM     74  C   UNL A   1      43.311  33.364  34.590  1.00  0.00     0.037 A 
BRANCH  61  75
ATOM     75  C   UNL A   1      39.450  34.104  37.855  1.00  0.00     0.057 A 
ATOM     76  C   UNL A   1      39.863  35.199  37.097  1.00  0.00     0.134 A 
ATOM     77  C   UNL A   1      38.983  34.370  39.158  1.00  0.00     0.134 A 
ATOM     78  F   UNL A   1      40.260  35.032  35.826  1.00  0.00    -0.206 F 
ATOM     79  C   UNL A   1      39.881  36.490  37.632  1.00  0.00     0.040 A 
ATOM     80  C   UNL A   1      39.053  35.641  39.723  1.00  0.00     0.040 A 
ATOM     81  F   UNL A   1      38.440  33.398  39.910  1.00  0.00    -0.206 F 
ATOM     82  C   UNL A   1      39.512  36.707  38.960  1.00  0.00     0.006 A 
ENDBRANCH  61  75
BRANCH  62  83
ATOM     83  C   UNL A   1      43.437  32.604  29.201  1.00  0.00     0.057 A 
ATOM     84  C   UNL A   1      43.712  31.332  28.579  1.00  0.00     0.134 A 
ATOM     85  C   UNL A   1      43.781  33.685  28.381  1.00  0.00     0.134 A 
ATOM     86  F   UNL A   1      43.498  30.174  29.218  1.00  0.00    -0.206 F 
ATOM     87  C   UNL A   1      44.149  31.160  27.249  1.00  0.00     0.040 A 
ATOM     88  C   UNL A   1      44.264  33.521  27.049  1.00  0.00     0.040 A 
ATOM     89  F   UNL A   1      43.580  34.939  28.803  1.00  0.00    -0.206 F 
ATOM     90  C   UNL A   1      44.410  32.262  26.466  1.00  0.00     0.006 A 
ENDBRANCH  62  83
BRANCH  74  91
ATOM     91  C   UNL A   1      43.334  34.882  34.639  1.00  0.00     0.057 A 
ATOM     92  C   UNL A   1      42.508  35.771  33.916  1.00  0.00     0.134 A 
ATOM     93  C   UNL A   1      44.332  35.485  35.414  1.00  0.00     0.134 A 
ATOM     94  F   UNL A   1      41.448  35.354  33.212  1.00  0.00    -0.206 F 
ATOM     95  C   UNL A   1      42.728  37.156  33.901  1.00  0.00     0.040 A 
ATOM     96  C   UNL A   1      44.528  36.869  35.448  1.00  0.00     0.040 A 
ATOM     97  F   UNL A   1      45.141  34.728  36.171  1.00  0.00    -0.206 F 
ATOM     98  C   UNL A   1      43.742  37.709  34.667  1.00  0.00     0.006 A 
ENDBRANCH  74  91
ENDBRANCH  48  49
ENDBRANCH  40  43
ENDBRANCH  38  39
ENDBRANCH   1  38
TORSDOF 14
ENDMDL
