MODEL 1
REMARK VINA RESULT:     -12.7      0.000      0.000
REMARK SMILES C=C(C)[C@@H]1CC=C(CN2C[C@@]34C=C[C@@H](O3)[C@@H](C(=O)NCCCNC(=O)c3ccc(-c5c6nc(c(-c7c(F)cccc7F)c7ccc([nH]7)c(-c7c(F)cccc7F)c7nc(c(-c8c(F)cccc8F)c8ccc5[nH]8)C=C7)C=C6)cc3)[C@@H]4C2=O)CC1
REMARK SMILES IDX 20 1 19 2 17 3 18 4 16 6 9 7 10 8 81 9 11 10 80 11 82 12
REMARK SMILES IDX 12 13 15 14 13 15 14 16 8 17 7 18 4 19 5 20 84 21 6 22 83 23
REMARK SMILES IDX 2 24 1 25 3 26 21 27 22 28 23 29 24 30 25 32 26 33 27 34
REMARK SMILES IDX 79 35 28 36 78 37 29 38 30 39 31 40 72 41 32 42 77 43 71 44
REMARK SMILES IDX 73 45 33 46 76 47 70 48 69 49 34 51 60 52 43 53 59 54 44 55
REMARK SMILES IDX 47 56 58 57 74 58 45 59 46 60 57 62 75 63 48 64 35 65 36 66
REMARK SMILES IDX 41 67 37 68 38 69 40 70 42 71 39 72 61 73 62 74 67 75 63 76
REMARK SMILES IDX 64 77 66 78 68 79 65 80 49 81 50 82 55 83 51 84 52 85 54 86
REMARK SMILES IDX 56 87 53 88
REMARK H PARENT 19 5 23 31 73 50 47 61
REMARK Flexibility Score: inf
ROOT
ATOM      1  C   UNL A   1      36.388  20.389  24.999  1.00  0.00     0.117 C 
ENDROOT
BRANCH   1   2
ATOM      2  N   UNL A   1      36.097  21.678  24.415  1.00  0.00    -0.356 N 
ATOM      3  C   UNL A   1      35.689  22.845  24.973  1.00  0.00     0.227 C 
ATOM      4  O   UNL A   1      35.943  23.855  24.301  1.00  0.00    -0.275 OA
ATOM      5  H   UNL A   1      36.214  21.716  23.438  1.00  0.00     0.163 HD
BRANCH   3   6
ATOM      6  C   UNL A   1      34.739  22.984  26.171  1.00  0.00     0.127 C 
ATOM      7  N   UNL A   1      31.756  24.730  24.858  1.00  0.00    -0.335 N 
ATOM      8  C   UNL A   1      31.231  23.346  25.094  1.00  0.00     0.160 C 
ATOM      9  C   UNL A   1      32.911  24.903  25.679  1.00  0.00     0.230 C 
ATOM     10  C   UNL A   1      32.318  22.732  25.991  1.00  0.00     0.117 C 
ATOM     11  C   UNL A   1      33.508  23.563  25.522  1.00  0.00     0.132 C 
ATOM     12  O   UNL A   1      33.397  25.922  26.111  1.00  0.00    -0.274 OA
ATOM     13  C   UNL A   1      32.136  22.800  27.482  1.00  0.00     0.009 C 
ATOM     14  O   UNL A   1      32.968  21.457  25.877  1.00  0.00    -0.360 OA
ATOM     15  C   UNL A   1      33.240  22.253  28.003  1.00  0.00     0.004 C 
ATOM     16  C   UNL A   1      34.067  21.779  26.834  1.00  0.00     0.155 C 
BRANCH   7  17
ATOM     17  C   UNL A   1      31.978  25.422  23.590  1.00  0.00     0.150 C 
BRANCH  17  18
ATOM     18  C   UNL A   1      31.317  26.745  23.302  1.00  0.00    -0.055 C 
ATOM     19  C   UNL A   1      29.717  29.225  23.183  1.00  0.00     0.018 C 
ATOM     20  C   UNL A   1      31.027  29.071  22.386  1.00  0.00     0.035 C 
ATOM     21  C   UNL A   1      29.022  27.862  23.324  1.00  0.00     0.013 C 
ATOM     22  C   UNL A   1      31.829  27.849  22.726  1.00  0.00    -0.025 C 
ATOM     23  C   UNL A   1      29.939  26.807  23.920  1.00  0.00     0.033 C 
BRANCH  19  24
ATOM     24  C   UNL A   1      28.743  30.258  22.616  1.00  0.00    -0.077 C 
ATOM     25  C   UNL A   1      28.865  30.689  21.348  1.00  0.00     0.008 C 
ATOM     26  C   UNL A   1      27.654  30.810  23.496  1.00  0.00     0.039 C 
ENDBRANCH  19  24
ENDBRANCH  17  18
ENDBRANCH   7  17
ENDBRANCH   3   6
ENDBRANCH   1   2
BRANCH   1  27
ATOM     27  C   UNL A   1      37.771  19.851  24.660  1.00  0.00     0.042 C 
BRANCH  27  28
ATOM     28  C   UNL A   1      38.854  20.192  25.679  1.00  0.00     0.118 C 
BRANCH  28  29
ATOM     29  N   UNL A   1      39.886  19.167  25.785  1.00  0.00    -0.352 N 
ATOM     30  C   UNL A   1      41.236  19.268  26.021  1.00  0.00     0.251 C 
ATOM     31  H   UNL A   1      39.560  18.246  25.669  1.00  0.00     0.163 HD
ATOM     32  O   UNL A   1      41.943  18.271  25.899  1.00  0.00    -0.269 OA
BRANCH  30  33
ATOM     33  C   UNL A   1      41.852  20.561  26.394  1.00  0.00     0.039 A 
ATOM     34  C   UNL A   1      42.253  21.431  25.376  1.00  0.00     0.014 A 
ATOM     35  C   UNL A   1      42.066  20.909  27.728  1.00  0.00     0.014 A 
ATOM     36  C   UNL A   1      42.798  22.677  25.698  1.00  0.00     0.010 A 
ATOM     37  C   UNL A   1      42.523  22.187  28.049  1.00  0.00     0.010 A 
ATOM     38  C   UNL A   1      42.893  23.087  27.038  1.00  0.00    -0.014 A 
BRANCH  38  39
ATOM     39  C   UNL A   1      43.359  24.455  27.393  1.00  0.00     0.031 A 
ATOM     40  C   UNL A   1      42.378  25.512  27.821  1.00  0.00     0.074 A 
ATOM     41  C   UNL A   1      44.667  24.762  27.282  1.00  0.00     0.049 A 
ATOM     42  N   UNL A   1      42.596  26.768  28.120  1.00  0.00    -0.248 NA
ATOM     43  C   UNL A   1      40.965  25.113  27.906  1.00  0.00     0.031 C 
ATOM     44  C   UNL A   1      45.717  23.840  26.846  1.00  0.00     0.029 A 
ATOM     45  N   UNL A   1      45.337  25.936  27.520  1.00  0.00    -0.354 N 
ATOM     46  C   UNL A   1      41.351  27.308  28.422  1.00  0.00     0.074 A 
ATOM     47  C   UNL A   1      40.377  26.261  28.210  1.00  0.00     0.031 C 
ATOM     48  C   UNL A   1      46.900  24.473  26.879  1.00  0.00     0.029 A 
ATOM     49  C   UNL A   1      46.688  25.859  27.280  1.00  0.00     0.049 A 
ATOM     50  H   UNL A   1      44.891  26.757  27.833  1.00  0.00     0.167 HD
ATOM     51  C   UNL A   1      41.051  28.556  28.858  1.00  0.00     0.037 A 
ATOM     52  C   UNL A   1      47.649  26.801  27.355  1.00  0.00     0.037 A 
ATOM     53  C   UNL A   1      42.024  29.598  29.064  1.00  0.00     0.049 A 
ATOM     54  C   UNL A   1      47.278  28.195  27.782  1.00  0.00     0.074 A 
ATOM     55  C   UNL A   1      41.820  30.881  29.539  1.00  0.00     0.029 A 
ATOM     56  N   UNL A   1      43.378  29.485  28.789  1.00  0.00    -0.354 N 
ATOM     57  N   UNL A   1      46.107  28.672  28.127  1.00  0.00    -0.248 NA
ATOM     58  C   UNL A   1      48.365  29.182  27.835  1.00  0.00     0.031 C 
ATOM     59  C   UNL A   1      43.034  31.570  29.475  1.00  0.00     0.029 A 
ATOM     60  C   UNL A   1      44.014  30.689  29.047  1.00  0.00     0.049 A 
ATOM     61  H   UNL A   1      43.823  28.670  28.460  1.00  0.00     0.167 HD
ATOM     62  C   UNL A   1      46.323  30.001  28.473  1.00  0.00     0.074 A 
ATOM     63  C   UNL A   1      47.739  30.248  28.313  1.00  0.00     0.031 C 
ATOM     64  C   UNL A   1      45.427  30.929  28.891  1.00  0.00     0.037 A 
BRANCH  51  65
ATOM     65  C   UNL A   1      39.605  28.870  29.126  1.00  0.00     0.057 A 
ATOM     66  C   UNL A   1      39.031  28.710  30.395  1.00  0.00     0.134 A 
ATOM     67  C   UNL A   1      38.784  29.380  28.111  1.00  0.00     0.134 A 
ATOM     68  F   UNL A   1      39.755  28.222  31.413  1.00  0.00    -0.206 F 
ATOM     69  C   UNL A   1      37.688  29.009  30.634  1.00  0.00     0.040 A 
ATOM     70  C   UNL A   1      37.451  29.719  28.346  1.00  0.00     0.040 A 
ATOM     71  F   UNL A   1      39.269  29.572  26.874  1.00  0.00    -0.206 F 
ATOM     72  C   UNL A   1      36.897  29.523  29.609  1.00  0.00     0.006 A 
ENDBRANCH  51  65
BRANCH  52  73
ATOM     73  C   UNL A   1      49.057  26.463  27.015  1.00  0.00     0.057 A 
ATOM     74  C   UNL A   1      49.551  26.632  25.717  1.00  0.00     0.134 A 
ATOM     75  C   UNL A   1      49.933  25.936  27.972  1.00  0.00     0.134 A 
ATOM     76  F   UNL A   1      48.758  27.116  24.750  1.00  0.00    -0.206 F 
ATOM     77  C   UNL A   1      50.853  26.261  25.373  1.00  0.00     0.040 A 
ATOM     78  C   UNL A   1      51.248  25.596  27.653  1.00  0.00     0.040 A 
ATOM     79  F   UNL A   1      49.528  25.756  29.238  1.00  0.00    -0.206 F 
ATOM     80  C   UNL A   1      51.707  25.745  26.346  1.00  0.00     0.006 A 
ENDBRANCH  52  73
BRANCH  64  81
ATOM     81  C   UNL A   1      45.956  32.290  29.257  1.00  0.00     0.057 A 
ATOM     82  C   UNL A   1      46.004  33.348  28.341  1.00  0.00     0.134 A 
ATOM     83  C   UNL A   1      46.389  32.551  30.564  1.00  0.00     0.134 A 
ATOM     84  F   UNL A   1      45.612  33.167  27.070  1.00  0.00    -0.206 F 
ATOM     85  C   UNL A   1      46.496  34.605  28.701  1.00  0.00     0.040 A 
ATOM     86  C   UNL A   1      46.845  33.814  30.946  1.00  0.00     0.040 A 
ATOM     87  F   UNL A   1      46.360  31.590  31.499  1.00  0.00    -0.206 F 
ATOM     88  C   UNL A   1      46.909  34.842  30.010  1.00  0.00     0.006 A 
ENDBRANCH  64  81
ENDBRANCH  38  39
ENDBRANCH  30  33
ENDBRANCH  28  29
ENDBRANCH  27  28
ENDBRANCH   1  27
TORSDOF 13
ENDMDL
MODEL 2
REMARK VINA RESULT:     -12.7      2.543      6.854
REMARK SMILES C=C(C)[C@@H]1CC=C(CN2C[C@@]34C=C[C@@H](O3)[C@@H](C(=O)NCCCNC(=O)c3ccc(-c5c6nc(c(-c7c(F)cccc7F)c7ccc([nH]7)c(-c7c(F)cccc7F)c7nc(c(-c8c(F)cccc8F)c8ccc5[nH]8)C=C7)C=C6)cc3)[C@@H]4C2=O)CC1
REMARK SMILES IDX 20 1 19 2 17 3 18 4 16 6 9 7 10 8 81 9 11 10 80 11 82 12
REMARK SMILES IDX 12 13 15 14 13 15 14 16 8 17 7 18 4 19 5 20 84 21 6 22 83 23
REMARK SMILES IDX 2 24 1 25 3 26 21 27 22 28 23 29 24 30 25 32 26 33 27 34
REMARK SMILES IDX 79 35 28 36 78 37 29 38 30 39 31 40 72 41 32 42 77 43 71 44
REMARK SMILES IDX 73 45 33 46 76 47 70 48 69 49 34 51 60 52 43 53 59 54 44 55
REMARK SMILES IDX 47 56 58 57 74 58 45 59 46 60 57 62 75 63 48 64 35 65 36 66
REMARK SMILES IDX 41 67 37 68 38 69 40 70 42 71 39 72 61 73 62 74 67 75 63 76
REMARK SMILES IDX 64 77 66 78 68 79 65 80 49 81 50 82 55 83 51 84 52 85 54 86
REMARK SMILES IDX 56 87 53 88
REMARK H PARENT 19 5 23 31 73 50 47 61
REMARK Flexibility Score: inf
ROOT
ATOM      1  C   UNL A   1      33.584  26.745  25.737  1.00  0.00     0.117 C 
ENDROOT
BRANCH   1   2
ATOM      2  N   UNL A   1      33.973  26.381  24.393  1.00  0.00    -0.356 N 
ATOM      3  C   UNL A   1      34.387  25.202  23.867  1.00  0.00     0.227 C 
ATOM      4  O   UNL A   1      34.228  25.099  22.642  1.00  0.00    -0.275 OA
ATOM      5  H   UNL A   1      33.931  27.121  23.745  1.00  0.00     0.163 HD
BRANCH   3   6
ATOM      6  C   UNL A   1      35.250  24.153  24.581  1.00  0.00     0.127 C 
ATOM      7  N   UNL A   1      32.869  21.622  25.844  1.00  0.00    -0.335 N 
ATOM      8  C   UNL A   1      33.561  20.879  24.742  1.00  0.00     0.160 C 
ATOM      9  C   UNL A   1      33.724  22.689  26.253  1.00  0.00     0.230 C 
ATOM     10  C   UNL A   1      34.795  21.757  24.479  1.00  0.00     0.117 C 
ATOM     11  C   UNL A   1      34.229  23.100  24.929  1.00  0.00     0.132 C 
ATOM     12  O   UNL A   1      33.775  23.265  27.315  1.00  0.00    -0.274 OA
ATOM     13  C   UNL A   1      36.076  21.419  25.191  1.00  0.00     0.009 C 
ATOM     14  O   UNL A   1      35.321  22.224  23.228  1.00  0.00    -0.360 OA
ATOM     15  C   UNL A   1      36.948  22.366  24.828  1.00  0.00     0.004 C 
ATOM     16  C   UNL A   1      36.228  23.243  23.834  1.00  0.00     0.155 C 
BRANCH   7  17
ATOM     17  C   UNL A   1      31.484  22.084  25.909  1.00  0.00     0.150 C 
BRANCH  17  18
ATOM     18  C   UNL A   1      31.036  23.303  25.144  1.00  0.00    -0.055 C 
ATOM     19  C   UNL A   1      30.311  25.968  24.096  1.00  0.00     0.018 C 
ATOM     20  C   UNL A   1      30.448  24.746  23.167  1.00  0.00     0.035 C 
ATOM     21  C   UNL A   1      29.825  25.524  25.484  1.00  0.00     0.013 C 
ATOM     22  C   UNL A   1      31.035  23.526  23.816  1.00  0.00    -0.025 C 
ATOM     23  C   UNL A   1      30.705  24.441  26.083  1.00  0.00     0.033 C 
BRANCH  19  24
ATOM     24  C   UNL A   1      29.417  27.084  23.555  1.00  0.00    -0.077 C 
ATOM     25  C   UNL A   1      28.102  27.104  23.839  1.00  0.00     0.008 C 
ATOM     26  C   UNL A   1      30.014  28.152  22.680  1.00  0.00     0.039 C 
ENDBRANCH  19  24
ENDBRANCH  17  18
ENDBRANCH   7  17
ENDBRANCH   3   6
ENDBRANCH   1   2
BRANCH   1  27
ATOM     27  C   UNL A   1      33.847  28.201  26.088  1.00  0.00     0.042 C 
BRANCH  27  28
ATOM     28  C   UNL A   1      33.450  28.595  27.508  1.00  0.00     0.118 C 
BRANCH  28  29
ATOM     29  N   UNL A   1      33.535  30.031  27.751  1.00  0.00    -0.352 N 
ATOM     30  C   UNL A   1      34.561  30.803  28.239  1.00  0.00     0.251 C 
ATOM     31  H   UNL A   1      32.718  30.532  27.528  1.00  0.00     0.163 HD
ATOM     32  O   UNL A   1      34.347  31.979  28.520  1.00  0.00    -0.269 OA
BRANCH  30  33
ATOM     33  C   UNL A   1      35.911  30.234  28.454  1.00  0.00     0.039 A 
ATOM     34  C   UNL A   1      36.816  30.236  27.388  1.00  0.00     0.014 A 
ATOM     35  C   UNL A   1      36.281  29.675  29.677  1.00  0.00     0.014 A 
ATOM     36  C   UNL A   1      38.111  29.747  27.574  1.00  0.00     0.010 A 
ATOM     37  C   UNL A   1      37.599  29.272  29.888  1.00  0.00     0.010 A 
ATOM     38  C   UNL A   1      38.531  29.304  28.839  1.00  0.00    -0.014 A 
BRANCH  38  39
ATOM     39  C   UNL A   1      39.939  28.892  29.082  1.00  0.00     0.031 A 
ATOM     40  C   UNL A   1      40.916  29.839  29.723  1.00  0.00     0.074 A 
ATOM     41  C   UNL A   1      40.355  27.674  28.678  1.00  0.00     0.049 A 
ATOM     42  N   UNL A   1      42.192  29.670  29.967  1.00  0.00    -0.248 NA
ATOM     43  C   UNL A   1      40.400  31.156  30.124  1.00  0.00     0.031 C 
ATOM     44  C   UNL A   1      39.519  26.672  28.015  1.00  0.00     0.029 A 
ATOM     45  N   UNL A   1      41.587  27.073  28.761  1.00  0.00    -0.354 N 
ATOM     46  C   UNL A   1      42.629  30.857  30.543  1.00  0.00     0.074 A 
ATOM     47  C   UNL A   1      41.499  31.759  30.555  1.00  0.00     0.031 C 
ATOM     48  C   UNL A   1      40.251  25.573  27.781  1.00  0.00     0.029 A 
ATOM     49  C   UNL A   1      41.621  25.809  28.221  1.00  0.00     0.049 A 
ATOM     50  H   UNL A   1      42.372  27.507  29.168  1.00  0.00     0.167 HD
ATOM     51  C   UNL A   1      43.854  31.159  31.038  1.00  0.00     0.037 A 
ATOM     52  C   UNL A   1      42.642  24.942  28.080  1.00  0.00     0.037 A 
ATOM     53  C   UNL A   1      44.979  30.260  31.020  1.00  0.00     0.049 A 
ATOM     54  C   UNL A   1      44.007  25.328  28.581  1.00  0.00     0.074 A 
ATOM     55  C   UNL A   1      46.249  30.463  31.532  1.00  0.00     0.029 A 
ATOM     56  N   UNL A   1      44.977  28.998  30.447  1.00  0.00    -0.354 N 
ATOM     57  N   UNL A   1      44.389  26.428  29.183  1.00  0.00    -0.248 NA
ATOM     58  C   UNL A   1      45.085  24.347  28.389  1.00  0.00     0.031 C 
ATOM     59  C   UNL A   1      47.038  29.359  31.196  1.00  0.00     0.029 A 
ATOM     60  C   UNL A   1      46.236  28.427  30.557  1.00  0.00     0.049 A 
ATOM     61  H   UNL A   1      44.198  28.569  30.024  1.00  0.00     0.167 HD
ATOM     62  C   UNL A   1      45.737  26.256  29.474  1.00  0.00     0.074 A 
ATOM     63  C   UNL A   1      46.102  24.940  28.998  1.00  0.00     0.031 C 
ATOM     64  C   UNL A   1      46.593  27.113  30.085  1.00  0.00     0.037 A 
BRANCH  51  65
ATOM     65  C   UNL A   1      44.048  32.530  31.626  1.00  0.00     0.057 A 
ATOM     66  C   UNL A   1      43.843  32.791  32.989  1.00  0.00     0.134 A 
ATOM     67  C   UNL A   1      44.488  33.594  30.828  1.00  0.00     0.134 A 
ATOM     68  F   UNL A   1      43.418  31.820  33.811  1.00  0.00    -0.206 F 
ATOM     69  C   UNL A   1      44.031  34.066  33.525  1.00  0.00     0.040 A 
ATOM     70  C   UNL A   1      44.716  34.864  31.361  1.00  0.00     0.040 A 
ATOM     71  F   UNL A   1      44.718  33.415  29.519  1.00  0.00    -0.206 F 
ATOM     72  C   UNL A   1      44.476  35.105  32.712  1.00  0.00     0.006 A 
ENDBRANCH  51  65
BRANCH  52  73
ATOM     73  C   UNL A   1      42.420  23.623  27.430  1.00  0.00     0.057 A 
ATOM     74  C   UNL A   1      42.127  22.481  28.185  1.00  0.00     0.134 A 
ATOM     75  C   UNL A   1      42.524  23.465  26.042  1.00  0.00     0.134 A 
ATOM     76  F   UNL A   1      42.031  22.561  29.520  1.00  0.00    -0.206 F 
ATOM     77  C   UNL A   1      41.978  21.227  27.590  1.00  0.00     0.040 A 
ATOM     78  C   UNL A   1      42.340  22.225  25.430  1.00  0.00     0.040 A 
ATOM     79  F   UNL A   1      42.793  24.519  25.257  1.00  0.00    -0.206 F 
ATOM     80  C   UNL A   1      42.080  21.098  26.207  1.00  0.00     0.006 A 
ENDBRANCH  52  73
BRANCH  64  81
ATOM     81  C   UNL A   1      48.000  26.636  30.325  1.00  0.00     0.057 A 
ATOM     82  C   UNL A   1      49.032  26.849  29.403  1.00  0.00     0.134 A 
ATOM     83  C   UNL A   1      48.332  25.983  31.521  1.00  0.00     0.134 A 
ATOM     84  F   UNL A   1      48.786  27.461  28.233  1.00  0.00    -0.206 F 
ATOM     85  C   UNL A   1      50.334  26.401  29.645  1.00  0.00     0.040 A 
ATOM     86  C   UNL A   1      49.635  25.567  31.791  1.00  0.00     0.040 A 
ATOM     87  F   UNL A   1      47.397  25.755  32.456  1.00  0.00    -0.206 F 
ATOM     88  C   UNL A   1      50.639  25.766  30.846  1.00  0.00     0.006 A 
ENDBRANCH  64  81
ENDBRANCH  38  39
ENDBRANCH  30  33
ENDBRANCH  28  29
ENDBRANCH  27  28
ENDBRANCH   1  27
TORSDOF 13
ENDMDL
MODEL 3
REMARK VINA RESULT:     -12.7      5.089     10.282
REMARK SMILES C=C(C)[C@@H]1CC=C(CN2C[C@@]34C=C[C@@H](O3)[C@@H](C(=O)NCCCNC(=O)c3ccc(-c5c6nc(c(-c7c(F)cccc7F)c7ccc([nH]7)c(-c7c(F)cccc7F)c7nc(c(-c8c(F)cccc8F)c8ccc5[nH]8)C=C7)C=C6)cc3)[C@@H]4C2=O)CC1
REMARK SMILES IDX 20 1 19 2 17 3 18 4 16 6 9 7 10 8 81 9 11 10 80 11 82 12
REMARK SMILES IDX 12 13 15 14 13 15 14 16 8 17 7 18 4 19 5 20 84 21 6 22 83 23
REMARK SMILES IDX 2 24 1 25 3 26 21 27 22 28 23 29 24 30 25 32 26 33 27 34
REMARK SMILES IDX 79 35 28 36 78 37 29 38 30 39 31 40 72 41 32 42 77 43 71 44
REMARK SMILES IDX 73 45 33 46 76 47 70 48 69 49 34 51 60 52 43 53 59 54 44 55
REMARK SMILES IDX 47 56 58 57 74 58 45 59 46 60 57 62 75 63 48 64 35 65 36 66
REMARK SMILES IDX 41 67 37 68 38 69 40 70 42 71 39 72 61 73 62 74 67 75 63 76
REMARK SMILES IDX 64 77 66 78 68 79 65 80 49 81 50 82 55 83 51 84 52 85 54 86
REMARK SMILES IDX 56 87 53 88
REMARK H PARENT 19 5 23 31 73 50 47 61
REMARK Flexibility Score: inf
ROOT
ATOM      1  C   UNL A   1      34.062  33.376  27.935  1.00  0.00     0.117 C 
ENDROOT
BRANCH   1   2
ATOM      2  N   UNL A   1      33.765  34.790  27.899  1.00  0.00    -0.356 N 
ATOM      3  C   UNL A   1      33.612  35.701  28.891  1.00  0.00     0.227 C 
ATOM      4  O   UNL A   1      33.795  36.877  28.545  1.00  0.00    -0.275 OA
ATOM      5  H   UNL A   1      33.653  35.157  26.992  1.00  0.00     0.163 HD
BRANCH   3   6
ATOM      6  C   UNL A   1      32.987  35.434  30.268  1.00  0.00     0.127 C 
ATOM      7  N   UNL A   1      35.749  34.146  32.363  1.00  0.00    -0.335 N 
ATOM      8  C   UNL A   1      35.517  35.506  32.949  1.00  0.00     0.160 C 
ATOM      9  C   UNL A   1      34.556  33.758  31.681  1.00  0.00     0.230 C 
ATOM     10  C   UNL A   1      34.145  35.884  32.369  1.00  0.00     0.117 C 
ATOM     11  C   UNL A   1      34.197  35.059  31.087  1.00  0.00     0.132 C 
ATOM     12  O   UNL A   1      34.148  32.649  31.424  1.00  0.00    -0.274 OA
ATOM     13  C   UNL A   1      32.917  35.583  33.183  1.00  0.00     0.009 C 
ATOM     14  O   UNL A   1      33.736  37.111  31.745  1.00  0.00    -0.360 OA
ATOM     15  C   UNL A   1      31.882  35.957  32.423  1.00  0.00     0.004 C 
ATOM     16  C   UNL A   1      32.475  36.557  31.172  1.00  0.00     0.155 C 
BRANCH   7  17
ATOM     17  C   UNL A   1      36.898  33.660  31.603  1.00  0.00     0.150 C 
BRANCH  17  18
ATOM     18  C   UNL A   1      37.905  32.730  32.230  1.00  0.00    -0.055 C 
ATOM     19  C   UNL A   1      40.248  31.281  33.296  1.00  0.00     0.018 C 
ATOM     20  C   UNL A   1      38.813  30.922  33.728  1.00  0.00     0.035 C 
ATOM     21  C   UNL A   1      40.251  31.798  31.850  1.00  0.00     0.013 C 
ATOM     22  C   UNL A   1      37.759  31.889  33.271  1.00  0.00    -0.025 C 
ATOM     23  C   UNL A   1      39.283  32.951  31.648  1.00  0.00     0.033 C 
BRANCH  19  24
ATOM     24  C   UNL A   1      41.264  30.150  33.455  1.00  0.00    -0.077 C 
ATOM     25  C   UNL A   1      41.098  29.210  34.402  1.00  0.00     0.008 C 
ATOM     26  C   UNL A   1      42.470  30.107  32.556  1.00  0.00     0.039 C 
ENDBRANCH  19  24
ENDBRANCH  17  18
ENDBRANCH   7  17
ENDBRANCH   3   6
ENDBRANCH   1   2
BRANCH   1  27
ATOM     27  C   UNL A   1      35.545  33.055  28.055  1.00  0.00     0.042 C 
BRANCH  27  28
ATOM     28  C   UNL A   1      35.865  31.570  28.204  1.00  0.00     0.118 C 
BRANCH  28  29
ATOM     29  N   UNL A   1      35.625  31.064  29.550  1.00  0.00    -0.352 N 
ATOM     30  C   UNL A   1      36.321  30.153  30.308  1.00  0.00     0.251 C 
ATOM     31  H   UNL A   1      34.828  31.438  29.992  1.00  0.00     0.163 HD
ATOM     32  O   UNL A   1      35.833  29.750  31.361  1.00  0.00    -0.269 OA
BRANCH  30  33
ATOM     33  C   UNL A   1      37.634  29.634  29.864  1.00  0.00     0.039 A 
ATOM     34  C   UNL A   1      38.024  29.843  28.538  1.00  0.00     0.014 A 
ATOM     35  C   UNL A   1      38.466  28.921  30.728  1.00  0.00     0.014 A 
ATOM     36  C   UNL A   1      39.277  29.403  28.103  1.00  0.00     0.010 A 
ATOM     37  C   UNL A   1      39.751  28.564  30.320  1.00  0.00     0.010 A 
ATOM     38  C   UNL A   1      40.172  28.801  29.003  1.00  0.00    -0.014 A 
BRANCH  38  39
ATOM     39  C   UNL A   1      41.553  28.435  28.586  1.00  0.00     0.031 A 
ATOM     40  C   UNL A   1      41.884  27.025  28.181  1.00  0.00     0.074 A 
ATOM     41  C   UNL A   1      42.526  29.367  28.620  1.00  0.00     0.049 A 
ATOM     42  N   UNL A   1      43.040  26.514  27.837  1.00  0.00    -0.248 NA
ATOM     43  C   UNL A   1      40.778  26.056  28.182  1.00  0.00     0.031 C 
ATOM     44  C   UNL A   1      42.347  30.763  29.024  1.00  0.00     0.029 A 
ATOM     45  N   UNL A   1      43.862  29.282  28.314  1.00  0.00    -0.354 N 
ATOM     46  C   UNL A   1      42.800  25.168  27.586  1.00  0.00     0.074 A 
ATOM     47  C   UNL A   1      41.404  24.928  27.878  1.00  0.00     0.031 C 
ATOM     48  C   UNL A   1      43.518  31.408  28.912  1.00  0.00     0.029 A 
ATOM     49  C   UNL A   1      44.544  30.464  28.484  1.00  0.00     0.049 A 
ATOM     50  H   UNL A   1      44.291  28.452  28.002  1.00  0.00     0.167 HD
ATOM     51  C   UNL A   1      43.660  24.224  27.132  1.00  0.00     0.037 A 
ATOM     52  C   UNL A   1      45.851  30.753  28.332  1.00  0.00     0.037 A 
ATOM     53  C   UNL A   1      45.051  24.465  26.847  1.00  0.00     0.049 A 
ATOM     54  C   UNL A   1      46.796  29.670  27.887  1.00  0.00     0.074 A 
ATOM     55  C   UNL A   1      45.991  23.581  26.348  1.00  0.00     0.029 A 
ATOM     56  N   UNL A   1      45.706  25.670  27.052  1.00  0.00    -0.354 N 
ATOM     57  N   UNL A   1      46.542  28.419  27.591  1.00  0.00    -0.248 NA
ATOM     58  C   UNL A   1      48.211  30.042  27.749  1.00  0.00     0.031 C 
ATOM     59  C   UNL A   1      47.231  24.225  26.328  1.00  0.00     0.029 A 
ATOM     60  C   UNL A   1      47.048  25.539  26.727  1.00  0.00     0.049 A 
ATOM     61  H   UNL A   1      45.282  26.496  27.380  1.00  0.00     0.167 HD
ATOM     62  C   UNL A   1      47.754  27.866  27.198  1.00  0.00     0.074 A 
ATOM     63  C   UNL A   1      48.739  28.923  27.276  1.00  0.00     0.031 C 
ATOM     64  C   UNL A   1      48.024  26.597  26.802  1.00  0.00     0.037 A 
BRANCH  51  65
ATOM     65  C   UNL A   1      43.124  22.833  26.933  1.00  0.00     0.057 A 
ATOM     66  C   UNL A   1      42.832  21.986  28.012  1.00  0.00     0.134 A 
ATOM     67  C   UNL A   1      42.855  22.348  25.646  1.00  0.00     0.134 A 
ATOM     68  F   UNL A   1      43.069  22.382  29.271  1.00  0.00    -0.206 F 
ATOM     69  C   UNL A   1      42.330  20.699  27.816  1.00  0.00     0.040 A 
ATOM     70  C   UNL A   1      42.317  21.077  25.439  1.00  0.00     0.040 A 
ATOM     71  F   UNL A   1      43.096  23.108  24.567  1.00  0.00    -0.206 F 
ATOM     72  C   UNL A   1      42.064  20.244  26.526  1.00  0.00     0.006 A 
ENDBRANCH  51  65
BRANCH  52  73
ATOM     73  C   UNL A   1      46.350  32.127  28.606  1.00  0.00     0.057 A 
ATOM     74  C   UNL A   1      46.742  32.514  29.893  1.00  0.00     0.134 A 
ATOM     75  C   UNL A   1      46.420  33.094  27.595  1.00  0.00     0.134 A 
ATOM     76  F   UNL A   1      46.682  31.641  30.909  1.00  0.00    -0.206 F 
ATOM     77  C   UNL A   1      47.153  33.819  30.173  1.00  0.00     0.040 A 
ATOM     78  C   UNL A   1      46.866  34.391  27.852  1.00  0.00     0.040 A 
ATOM     79  F   UNL A   1      46.069  32.789  26.337  1.00  0.00    -0.206 F 
ATOM     80  C   UNL A   1      47.221  34.761  29.148  1.00  0.00     0.006 A 
ENDBRANCH  52  73
BRANCH  64  81
ATOM     81  C   UNL A   1      49.433  26.288  26.371  1.00  0.00     0.057 A 
ATOM     82  C   UNL A   1      50.340  25.614  27.197  1.00  0.00     0.134 A 
ATOM     83  C   UNL A   1      49.872  26.641  25.087  1.00  0.00     0.134 A 
ATOM     84  F   UNL A   1      49.989  25.252  28.442  1.00  0.00    -0.206 F 
ATOM     85  C   UNL A   1      51.643  25.334  26.778  1.00  0.00     0.040 A 
ATOM     86  C   UNL A   1      51.158  26.331  24.642  1.00  0.00     0.040 A 
ATOM     87  F   UNL A   1      49.054  27.278  24.236  1.00  0.00    -0.206 F 
ATOM     88  C   UNL A   1      52.051  25.685  25.493  1.00  0.00     0.006 A 
ENDBRANCH  64  81
ENDBRANCH  38  39
ENDBRANCH  30  33
ENDBRANCH  28  29
ENDBRANCH  27  28
ENDBRANCH   1  27
TORSDOF 13
ENDMDL
