MODEL 1
REMARK VINA RESULT:     -12.2      0.000      0.000
REMARK SMILES Cc1cc([C@H](C)NC(=O)N2CC[C@H](C(=O)NCCCNC(=O)c3ccc(-c4c5nc(c(-c6c(F)cccc6F)c6ccc([nH]6)c(-c6c(F)cccc6F)c6nc(c(-c7c(F)cccc7F)c7ccc4[nH]7)C=C6)C=C5)cc3)[C@@H]2C)c(C)s1
REMARK SMILES IDX 17 1 16 2 14 3 15 4 13 6 10 7 11 8 77 9 12 10 78 11 8 12
REMARK SMILES IDX 7 13 9 15 5 16 6 17 4 18 1 19 2 20 3 21 81 22 79 23 80 24
REMARK SMILES IDX 18 25 19 26 20 27 21 28 22 30 23 31 24 32 76 33 25 34 75 35
REMARK SMILES IDX 26 36 27 37 28 38 69 39 29 40 74 41 68 42 70 43 30 44 73 45
REMARK SMILES IDX 67 46 66 47 31 49 57 50 40 51 56 52 41 53 44 54 55 55 71 56
REMARK SMILES IDX 42 57 43 58 54 60 72 61 45 62 32 63 33 64 38 65 34 66 35 67
REMARK SMILES IDX 37 68 39 69 36 70 58 71 59 72 64 73 60 74 61 75 63 76 65 77
REMARK SMILES IDX 62 78 46 79 47 80 52 81 48 82 49 83 51 84 53 85 50 86
REMARK H PARENT 16 5 7 14 20 29 70 48 44 59
REMARK Flexibility Score: inf
ROOT
ATOM      1  C   UNL A   1      36.802  21.055  24.870  1.00  0.00     0.117 C 
ENDROOT
BRANCH   1   2
ATOM      2  N   UNL A   1      35.708  20.169  25.225  1.00  0.00    -0.356 N 
ATOM      3  C   UNL A   1      34.364  20.305  25.038  1.00  0.00     0.225 C 
ATOM      4  O   UNL A   1      33.675  19.286  25.098  1.00  0.00    -0.275 OA
ATOM      5  H   UNL A   1      35.979  19.335  25.673  1.00  0.00     0.163 HD
BRANCH   3   6
ATOM      6  C   UNL A   1      33.752  21.678  24.805  1.00  0.00     0.102 C 
ATOM      7  N   UNL A   1      31.942  22.732  25.970  1.00  0.00    -0.321 N 
ATOM      8  C   UNL A   1      31.345  21.805  25.033  1.00  0.00     0.122 C 
ATOM      9  C   UNL A   1      33.370  22.439  26.100  1.00  0.00     0.096 C 
ATOM     10  C   UNL A   1      32.442  21.571  24.009  1.00  0.00     0.037 C 
ATOM     11  C   UNL A   1      33.659  21.714  27.416  1.00  0.00     0.032 C 
BRANCH   7  12
ATOM     12  C   UNL A   1      31.153  23.437  26.836  1.00  0.00     0.318 C 
ATOM     13  N   UNL A   1      31.241  24.792  26.874  1.00  0.00    -0.331 N 
ATOM     14  H   UNL A   1      31.365  25.209  27.757  1.00  0.00     0.165 HD
ATOM     15  O   UNL A   1      30.364  22.888  27.604  1.00  0.00    -0.249 OA
BRANCH  13  16
ATOM     16  C   UNL A   1      31.168  25.686  25.726  1.00  0.00     0.112 C 
ATOM     17  C   UNL A   1      29.702  26.007  25.407  1.00  0.00     0.036 C 
BRANCH  16  18
ATOM     18  C   UNL A   1      32.015  26.916  26.021  1.00  0.00    -0.012 A 
ATOM     19  C   UNL A   1      32.292  30.594  26.983  1.00  0.00     0.056 C 
ATOM     20  C   UNL A   1      32.455  29.163  26.607  1.00  0.00     0.002 A 
ATOM     21  C   UNL A   1      31.493  28.186  26.472  1.00  0.00     0.021 A 
ATOM     22  S   UNL A   1      34.006  28.557  26.274  1.00  0.00    -0.146 S 
ATOM     23  C   UNL A   1      33.398  27.006  25.877  1.00  0.00     0.007 A 
ATOM     24  C   UNL A   1      34.390  25.980  25.448  1.00  0.00     0.057 C 
ENDBRANCH  16  18
ENDBRANCH  13  16
ENDBRANCH   7  12
ENDBRANCH   3   6
ENDBRANCH   1   2
BRANCH   1  25
ATOM     25  C   UNL A   1      38.139  20.346  24.687  1.00  0.00     0.042 C 
BRANCH  25  26
ATOM     26  C   UNL A   1      39.012  20.244  25.938  1.00  0.00     0.118 C 
BRANCH  26  27
ATOM     27  N   UNL A   1      40.046  19.222  25.859  1.00  0.00    -0.352 N 
ATOM     28  C   UNL A   1      41.400  19.299  26.087  1.00  0.00     0.251 C 
ATOM     29  H   UNL A   1      39.723  18.328  25.599  1.00  0.00     0.163 HD
ATOM     30  O   UNL A   1      42.102  18.310  25.887  1.00  0.00    -0.269 OA
BRANCH  28  31
ATOM     31  C   UNL A   1      42.030  20.562  26.530  1.00  0.00     0.039 A 
ATOM     32  C   UNL A   1      42.528  21.439  25.560  1.00  0.00     0.014 A 
ATOM     33  C   UNL A   1      42.148  20.887  27.883  1.00  0.00     0.014 A 
ATOM     34  C   UNL A   1      43.056  22.678  25.938  1.00  0.00     0.010 A 
ATOM     35  C   UNL A   1      42.613  22.147  28.256  1.00  0.00     0.010 A 
ATOM     36  C   UNL A   1      43.058  23.062  27.287  1.00  0.00    -0.014 A 
BRANCH  36  37
ATOM     37  C   UNL A   1      43.495  24.416  27.717  1.00  0.00     0.031 A 
ATOM     38  C   UNL A   1      42.476  25.453  28.096  1.00  0.00     0.074 A 
ATOM     39  C   UNL A   1      44.801  24.745  27.667  1.00  0.00     0.049 A 
ATOM     40  N   UNL A   1      42.641  26.731  28.330  1.00  0.00    -0.248 NA
ATOM     41  C   UNL A   1      41.081  24.998  28.200  1.00  0.00     0.031 C 
ATOM     42  C   UNL A   1      45.891  23.844  27.292  1.00  0.00     0.029 A 
ATOM     43  N   UNL A   1      45.430  25.942  27.910  1.00  0.00    -0.354 N 
ATOM     44  C   UNL A   1      41.372  27.237  28.579  1.00  0.00     0.074 A 
ATOM     45  C   UNL A   1      40.444  26.136  28.435  1.00  0.00     0.031 C 
ATOM     46  C   UNL A   1      47.053  24.515  27.334  1.00  0.00     0.029 A 
ATOM     47  C   UNL A   1      46.787  25.905  27.693  1.00  0.00     0.049 A 
ATOM     48  H   UNL A   1      44.955  26.750  28.210  1.00  0.00     0.167 HD
ATOM     49  C   UNL A   1      41.015  28.500  28.909  1.00  0.00     0.037 A 
ATOM     50  C   UNL A   1      47.711  26.883  27.752  1.00  0.00     0.037 A 
ATOM     51  C   UNL A   1      41.941  29.588  29.084  1.00  0.00     0.049 A 
ATOM     52  C   UNL A   1      47.287  28.281  28.109  1.00  0.00     0.074 A 
ATOM     53  C   UNL A   1      41.678  30.890  29.473  1.00  0.00     0.029 A 
ATOM     54  N   UNL A   1      43.310  29.499  28.884  1.00  0.00    -0.354 N 
ATOM     55  N   UNL A   1      46.089  28.736  28.382  1.00  0.00    -0.248 NA
ATOM     56  C   UNL A   1      48.344  29.302  28.167  1.00  0.00     0.031 C 
ATOM     57  C   UNL A   1      42.883  31.599  29.474  1.00  0.00     0.029 A 
ATOM     58  C   UNL A   1      43.902  30.728  29.127  1.00  0.00     0.049 A 
ATOM     59  H   UNL A   1      43.790  28.685  28.611  1.00  0.00     0.167 HD
ATOM     60  C   UNL A   1      46.251  30.084  28.674  1.00  0.00     0.074 A 
ATOM     61  C   UNL A   1      47.664  30.374  28.549  1.00  0.00     0.031 C 
ATOM     62  C   UNL A   1      45.313  30.997  29.019  1.00  0.00     0.037 A 
BRANCH  49  63
ATOM     63  C   UNL A   1      39.553  28.777  29.102  1.00  0.00     0.057 A 
ATOM     64  C   UNL A   1      38.934  28.640  30.352  1.00  0.00     0.134 A 
ATOM     65  C   UNL A   1      38.763  29.222  28.034  1.00  0.00     0.134 A 
ATOM     66  F   UNL A   1      39.633  28.208  31.412  1.00  0.00    -0.206 F 
ATOM     67  C   UNL A   1      37.577  28.910  30.527  1.00  0.00     0.040 A 
ATOM     68  C   UNL A   1      37.410  29.520  28.203  1.00  0.00     0.040 A 
ATOM     69  F   UNL A   1      39.295  29.382  26.813  1.00  0.00    -0.206 F 
ATOM     70  C   UNL A   1      36.811  29.358  29.450  1.00  0.00     0.006 A 
ENDBRANCH  49  63
BRANCH  50  71
ATOM     71  C   UNL A   1      49.135  26.577  27.472  1.00  0.00     0.057 A 
ATOM     72  C   UNL A   1      49.638  26.626  26.166  1.00  0.00     0.134 A 
ATOM     73  C   UNL A   1      50.024  26.222  28.493  1.00  0.00     0.134 A 
ATOM     74  F   UNL A   1      48.828  26.940  25.144  1.00  0.00    -0.206 F 
ATOM     75  C   UNL A   1      50.969  26.317  25.882  1.00  0.00     0.040 A 
ATOM     76  C   UNL A   1      51.363  25.931  28.226  1.00  0.00     0.040 A 
ATOM     77  F   UNL A   1      49.605  26.164  29.766  1.00  0.00    -0.206 F 
ATOM     78  C   UNL A   1      51.837  25.972  26.917  1.00  0.00     0.006 A 
ENDBRANCH  50  71
BRANCH  62  79
ATOM     79  C   UNL A   1      45.782  32.386  29.334  1.00  0.00     0.057 A 
ATOM     80  C   UNL A   1      46.239  32.741  30.609  1.00  0.00     0.134 A 
ATOM     81  C   UNL A   1      45.832  33.363  28.332  1.00  0.00     0.134 A 
ATOM     82  F   UNL A   1      46.204  31.854  31.614  1.00  0.00    -0.206 F 
ATOM     83  C   UNL A   1      46.720  34.023  30.877  1.00  0.00     0.040 A 
ATOM     84  C   UNL A   1      46.331  34.641  28.583  1.00  0.00     0.040 A 
ATOM     85  F   UNL A   1      45.414  33.083  27.088  1.00  0.00    -0.206 F 
ATOM     86  C   UNL A   1      46.775  34.974  29.860  1.00  0.00     0.006 A 
ENDBRANCH  62  79
ENDBRANCH  36  37
ENDBRANCH  28  31
ENDBRANCH  26  27
ENDBRANCH  25  26
ENDBRANCH   1  25
TORSDOF 13
ENDMDL
MODEL 2
REMARK VINA RESULT:     -12.1      1.255      6.239
REMARK SMILES Cc1cc([C@H](C)NC(=O)N2CC[C@H](C(=O)NCCCNC(=O)c3ccc(-c4c5nc(c(-c6c(F)cccc6F)c6ccc([nH]6)c(-c6c(F)cccc6F)c6nc(c(-c7c(F)cccc7F)c7ccc4[nH]7)C=C6)C=C5)cc3)[C@@H]2C)c(C)s1
REMARK SMILES IDX 17 1 16 2 14 3 15 4 13 6 10 7 11 8 77 9 12 10 78 11 8 12
REMARK SMILES IDX 7 13 9 15 5 16 6 17 4 18 1 19 2 20 3 21 81 22 79 23 80 24
REMARK SMILES IDX 18 25 19 26 20 27 21 28 22 30 23 31 24 32 76 33 25 34 75 35
REMARK SMILES IDX 26 36 27 37 28 38 69 39 29 40 74 41 68 42 70 43 30 44 73 45
REMARK SMILES IDX 67 46 66 47 31 49 57 50 40 51 56 52 41 53 44 54 55 55 71 56
REMARK SMILES IDX 42 57 43 58 54 60 72 61 45 62 32 63 33 64 38 65 34 66 35 67
REMARK SMILES IDX 37 68 39 69 36 70 58 71 59 72 64 73 60 74 61 75 63 76 65 77
REMARK SMILES IDX 62 78 46 79 47 80 52 81 48 82 49 83 51 84 53 85 50 86
REMARK H PARENT 16 5 7 14 20 29 70 48 44 59
REMARK Flexibility Score: inf
ROOT
ATOM      1  C   UNL A   1      36.780  20.756  24.985  1.00  0.00     0.117 C 
ENDROOT
BRANCH   1   2
ATOM      2  N   UNL A   1      35.606  19.919  25.161  1.00  0.00    -0.356 N 
ATOM      3  C   UNL A   1      34.295  20.165  24.880  1.00  0.00     0.225 C 
ATOM      4  O   UNL A   1      33.542  19.195  24.782  1.00  0.00    -0.275 OA
ATOM      5  H   UNL A   1      35.786  19.030  25.544  1.00  0.00     0.163 HD
BRANCH   3   6
ATOM      6  C   UNL A   1      33.791  21.593  24.735  1.00  0.00     0.102 C 
ATOM      7  N   UNL A   1      32.040  22.697  25.943  1.00  0.00    -0.321 N 
ATOM      8  C   UNL A   1      31.396  21.885  24.933  1.00  0.00     0.122 C 
ATOM      9  C   UNL A   1      33.439  22.289  26.074  1.00  0.00     0.096 C 
ATOM     10  C   UNL A   1      32.493  21.640  23.913  1.00  0.00     0.037 C 
ATOM     11  C   UNL A   1      33.647  21.455  27.340  1.00  0.00     0.032 C 
BRANCH   7  12
ATOM     12  C   UNL A   1      31.288  23.398  26.845  1.00  0.00     0.318 C 
ATOM     13  N   UNL A   1      31.338  24.755  26.851  1.00  0.00    -0.331 N 
ATOM     14  H   UNL A   1      31.507  25.193  27.717  1.00  0.00     0.165 HD
ATOM     15  O   UNL A   1      30.566  22.843  27.672  1.00  0.00    -0.249 OA
BRANCH  13  16
ATOM     16  C   UNL A   1      31.167  25.623  25.693  1.00  0.00     0.112 C 
ATOM     17  C   UNL A   1      29.676  25.909  25.473  1.00  0.00     0.036 C 
BRANCH  16  18
ATOM     18  C   UNL A   1      32.007  26.875  25.904  1.00  0.00    -0.012 A 
ATOM     19  C   UNL A   1      32.270  30.591  26.712  1.00  0.00     0.056 C 
ATOM     20  C   UNL A   1      32.438  29.149  26.384  1.00  0.00     0.002 A 
ATOM     21  C   UNL A   1      31.486  28.153  26.329  1.00  0.00     0.021 A 
ATOM     22  S   UNL A   1      33.982  28.551  26.004  1.00  0.00    -0.146 S 
ATOM     23  C   UNL A   1      33.380  26.977  25.694  1.00  0.00     0.007 A 
ATOM     24  C   UNL A   1      34.368  25.949  25.259  1.00  0.00     0.057 C 
ENDBRANCH  16  18
ENDBRANCH  13  16
ENDBRANCH   7  12
ENDBRANCH   3   6
ENDBRANCH   1   2
BRANCH   1  25
ATOM     25  C   UNL A   1      38.080  19.976  24.829  1.00  0.00     0.042 C 
BRANCH  25  26
ATOM     26  C   UNL A   1      39.101  20.158  25.952  1.00  0.00     0.118 C 
BRANCH  26  27
ATOM     27  N   UNL A   1      40.250  19.268  25.859  1.00  0.00    -0.352 N 
ATOM     28  C   UNL A   1      41.583  19.500  26.105  1.00  0.00     0.251 C 
ATOM     29  H   UNL A   1      40.038  18.350  25.574  1.00  0.00     0.163 HD
ATOM     30  O   UNL A   1      42.400  18.607  25.889  1.00  0.00    -0.269 OA
BRANCH  28  31
ATOM     31  C   UNL A   1      42.055  20.818  26.586  1.00  0.00     0.039 A 
ATOM     32  C   UNL A   1      42.513  21.749  25.648  1.00  0.00     0.014 A 
ATOM     33  C   UNL A   1      42.065  21.141  27.945  1.00  0.00     0.014 A 
ATOM     34  C   UNL A   1      42.888  23.032  26.059  1.00  0.00     0.010 A 
ATOM     35  C   UNL A   1      42.377  22.439  28.347  1.00  0.00     0.010 A 
ATOM     36  C   UNL A   1      42.777  23.403  27.407  1.00  0.00    -0.014 A 
BRANCH  36  37
ATOM     37  C   UNL A   1      43.048  24.791  27.864  1.00  0.00     0.031 A 
ATOM     38  C   UNL A   1      44.440  25.195  28.263  1.00  0.00     0.074 A 
ATOM     39  C   UNL A   1      42.027  25.656  28.020  1.00  0.00     0.049 A 
ATOM     40  N   UNL A   1      44.848  26.294  28.846  1.00  0.00    -0.248 NA
ATOM     41  C   UNL A   1      45.510  24.223  27.994  1.00  0.00     0.031 C 
ATOM     42  C   UNL A   1      40.626  25.385  27.696  1.00  0.00     0.029 A 
ATOM     43  N   UNL A   1      42.010  26.937  28.517  1.00  0.00    -0.354 N 
ATOM     44  C   UNL A   1      46.214  26.134  29.040  1.00  0.00     0.074 A 
ATOM     45  C   UNL A   1      46.559  24.820  28.542  1.00  0.00     0.031 C 
ATOM     46  C   UNL A   1      39.887  26.464  27.998  1.00  0.00     0.029 A 
ATOM     47  C   UNL A   1      40.751  27.487  28.578  1.00  0.00     0.049 A 
ATOM     48  H   UNL A   1      42.821  27.415  28.803  1.00  0.00     0.167 HD
ATOM     49  C   UNL A   1      47.101  27.008  29.572  1.00  0.00     0.037 A 
ATOM     50  C   UNL A   1      40.335  28.670  29.069  1.00  0.00     0.037 A 
ATOM     51  C   UNL A   1      46.764  28.328  30.037  1.00  0.00     0.049 A 
ATOM     52  C   UNL A   1      41.338  29.618  29.665  1.00  0.00     0.074 A 
ATOM     53  C   UNL A   1      47.605  29.305  30.540  1.00  0.00     0.029 A 
ATOM     54  N   UNL A   1      45.483  28.855  30.052  1.00  0.00    -0.354 N 
ATOM     55  N   UNL A   1      42.633  29.470  29.804  1.00  0.00    -0.248 NA
ATOM     56  C   UNL A   1      40.823  30.898  30.174  1.00  0.00     0.031 C 
ATOM     57  C   UNL A   1      46.828  30.412  30.893  1.00  0.00     0.029 A 
ATOM     58  C   UNL A   1      45.508  30.140  30.571  1.00  0.00     0.049 A 
ATOM     59  H   UNL A   1      44.674  28.389  29.741  1.00  0.00     0.167 HD
ATOM     60  C   UNL A   1      43.091  30.646  30.385  1.00  0.00     0.074 A 
ATOM     61  C   UNL A   1      41.936  31.500  30.569  1.00  0.00     0.031 C 
ATOM     62  C   UNL A   1      44.355  30.987  30.730  1.00  0.00     0.037 A 
BRANCH  49  63
ATOM     63  C   UNL A   1      48.529  26.561  29.682  1.00  0.00     0.057 A 
ATOM     64  C   UNL A   1      49.471  26.848  28.686  1.00  0.00     0.134 A 
ATOM     65  C   UNL A   1      48.975  25.868  30.815  1.00  0.00     0.134 A 
ATOM     66  F   UNL A   1      49.106  27.499  27.572  1.00  0.00    -0.206 F 
ATOM     67  C   UNL A   1      50.801  26.441  28.801  1.00  0.00     0.040 A 
ATOM     68  C   UNL A   1      50.308  25.477  30.953  1.00  0.00     0.040 A 
ATOM     69  F   UNL A   1      48.126  25.568  31.809  1.00  0.00    -0.206 F 
ATOM     70  C   UNL A   1      51.224  25.757  29.941  1.00  0.00     0.006 A 
ENDBRANCH  49  63
BRANCH  50  71
ATOM     71  C   UNL A   1      38.898  29.034  29.011  1.00  0.00     0.057 A 
ATOM     72  C   UNL A   1      38.331  29.539  27.835  1.00  0.00     0.134 A 
ATOM     73  C   UNL A   1      38.061  28.895  30.124  1.00  0.00     0.134 A 
ATOM     74  F   UNL A   1      39.089  29.713  26.743  1.00  0.00    -0.206 F 
ATOM     75  C   UNL A   1      36.987  29.908  27.772  1.00  0.00     0.040 A 
ATOM     76  C   UNL A   1      36.709  29.239  30.068  1.00  0.00     0.040 A 
ATOM     77  F   UNL A   1      38.543  28.410  31.278  1.00  0.00    -0.206 F 
ATOM     78  C   UNL A   1      36.170  29.755  28.891  1.00  0.00     0.006 A 
ENDBRANCH  50  71
BRANCH  62  79
ATOM     79  C   UNL A   1      44.571  32.358  31.297  1.00  0.00     0.057 A 
ATOM     80  C   UNL A   1      44.567  32.597  32.676  1.00  0.00     0.134 A 
ATOM     81  C   UNL A   1      44.847  33.440  30.451  1.00  0.00     0.134 A 
ATOM     82  F   UNL A   1      44.297  31.605  33.537  1.00  0.00    -0.206 F 
ATOM     83  C   UNL A   1      44.820  33.869  33.194  1.00  0.00     0.040 A 
ATOM     84  C   UNL A   1      45.123  34.710  30.958  1.00  0.00     0.040 A 
ATOM     85  F   UNL A   1      44.872  33.274  29.120  1.00  0.00    -0.206 F 
ATOM     86  C   UNL A   1      45.108  34.927  32.334  1.00  0.00     0.006 A 
ENDBRANCH  62  79
ENDBRANCH  36  37
ENDBRANCH  28  31
ENDBRANCH  26  27
ENDBRANCH  25  26
ENDBRANCH   1  25
TORSDOF 13
ENDMDL
MODEL 3
REMARK VINA RESULT:     -12.0      2.821      7.760
REMARK SMILES Cc1cc([C@H](C)NC(=O)N2CC[C@H](C(=O)NCCCNC(=O)c3ccc(-c4c5nc(c(-c6c(F)cccc6F)c6ccc([nH]6)c(-c6c(F)cccc6F)c6nc(c(-c7c(F)cccc7F)c7ccc4[nH]7)C=C6)C=C5)cc3)[C@@H]2C)c(C)s1
REMARK SMILES IDX 17 1 16 2 14 3 15 4 13 6 10 7 11 8 77 9 12 10 78 11 8 12
REMARK SMILES IDX 7 13 9 15 5 16 6 17 4 18 1 19 2 20 3 21 81 22 79 23 80 24
REMARK SMILES IDX 18 25 19 26 20 27 21 28 22 30 23 31 24 32 76 33 25 34 75 35
REMARK SMILES IDX 26 36 27 37 28 38 69 39 29 40 74 41 68 42 70 43 30 44 73 45
REMARK SMILES IDX 67 46 66 47 31 49 57 50 40 51 56 52 41 53 44 54 55 55 71 56
REMARK SMILES IDX 42 57 43 58 54 60 72 61 45 62 32 63 33 64 38 65 34 66 35 67
REMARK SMILES IDX 37 68 39 69 36 70 58 71 59 72 64 73 60 74 61 75 63 76 65 77
REMARK SMILES IDX 62 78 46 79 47 80 52 81 48 82 49 83 51 84 53 85 50 86
REMARK H PARENT 16 5 7 14 20 29 70 48 44 59
REMARK Flexibility Score: inf
ROOT
ATOM      1  C   UNL A   1      32.657  28.925  24.891  1.00  0.00     0.117 C 
ENDROOT
BRANCH   1   2
ATOM      2  N   UNL A   1      33.270  27.786  24.231  1.00  0.00    -0.356 N 
ATOM      3  C   UNL A   1      32.724  26.611  23.806  1.00  0.00     0.225 C 
ATOM      4  O   UNL A   1      33.354  25.961  22.970  1.00  0.00    -0.275 OA
ATOM      5  H   UNL A   1      34.236  27.876  24.063  1.00  0.00     0.163 HD
BRANCH   3   6
ATOM      6  C   UNL A   1      31.405  26.120  24.380  1.00  0.00     0.102 C 
ATOM      7  N   UNL A   1      30.910  24.014  25.413  1.00  0.00    -0.321 N 
ATOM      8  C   UNL A   1      30.894  23.787  23.984  1.00  0.00     0.122 C 
ATOM      9  C   UNL A   1      31.540  25.304  25.692  1.00  0.00     0.096 C 
ATOM     10  C   UNL A   1      30.693  25.173  23.401  1.00  0.00     0.037 C 
ATOM     11  C   UNL A   1      32.963  25.112  26.220  1.00  0.00     0.032 C 
BRANCH   7  12
ATOM     12  C   UNL A   1      30.730  22.970  26.278  1.00  0.00     0.318 C 
ATOM     13  N   UNL A   1      31.202  21.739  25.952  1.00  0.00    -0.331 N 
ATOM     14  H   UNL A   1      30.573  20.985  26.022  1.00  0.00     0.165 HD
ATOM     15  O   UNL A   1      30.138  23.096  27.349  1.00  0.00    -0.249 OA
BRANCH  13  16
ATOM     16  C   UNL A   1      32.555  21.432  25.508  1.00  0.00     0.112 C 
ATOM     17  C   UNL A   1      33.523  21.509  26.695  1.00  0.00     0.036 C 
BRANCH  16  18
ATOM     18  C   UNL A   1      32.537  20.075  24.818  1.00  0.00    -0.012 A 
ATOM     19  C   UNL A   1      32.997  16.292  24.936  1.00  0.00     0.056 C 
ATOM     20  C   UNL A   1      32.750  17.728  24.630  1.00  0.00     0.002 A 
ATOM     21  C   UNL A   1      32.749  18.810  25.484  1.00  0.00     0.021 A 
ATOM     22  S   UNL A   1      32.417  18.199  23.032  1.00  0.00    -0.146 S 
ATOM     23  C   UNL A   1      32.343  19.857  23.456  1.00  0.00     0.007 A 
ATOM     24  C   UNL A   1      32.083  20.825  22.353  1.00  0.00     0.057 C 
ENDBRANCH  16  18
ENDBRANCH  13  16
ENDBRANCH   7  12
ENDBRANCH   3   6
ENDBRANCH   1   2
BRANCH   1  25
ATOM     25  C   UNL A   1      32.631  28.821  26.411  1.00  0.00     0.042 C 
BRANCH  25  26
ATOM     26  C   UNL A   1      33.961  29.086  27.117  1.00  0.00     0.118 C 
BRANCH  26  27
ATOM     27  N   UNL A   1      33.973  30.295  27.927  1.00  0.00    -0.352 N 
ATOM     28  C   UNL A   1      34.966  30.840  28.707  1.00  0.00     0.251 C 
ATOM     29  H   UNL A   1      33.132  30.809  27.914  1.00  0.00     0.163 HD
ATOM     30  O   UNL A   1      34.727  31.847  29.371  1.00  0.00    -0.269 OA
BRANCH  28  31
ATOM     31  C   UNL A   1      36.303  30.212  28.793  1.00  0.00     0.039 A 
ATOM     32  C   UNL A   1      37.142  30.266  27.674  1.00  0.00     0.014 A 
ATOM     33  C   UNL A   1      36.734  29.563  29.951  1.00  0.00     0.014 A 
ATOM     34  C   UNL A   1      38.442  29.755  27.747  1.00  0.00     0.010 A 
ATOM     35  C   UNL A   1      38.050  29.113  30.046  1.00  0.00     0.010 A 
ATOM     36  C   UNL A   1      38.923  29.218  28.950  1.00  0.00    -0.014 A 
BRANCH  36  37
ATOM     37  C   UNL A   1      40.335  28.779  29.104  1.00  0.00     0.031 A 
ATOM     38  C   UNL A   1      41.381  29.751  29.572  1.00  0.00     0.074 A 
ATOM     39  C   UNL A   1      40.694  27.536  28.726  1.00  0.00     0.049 A 
ATOM     40  N   UNL A   1      42.683  29.614  29.607  1.00  0.00    -0.248 NA
ATOM     41  C   UNL A   1      40.901  31.061  30.038  1.00  0.00     0.031 C 
ATOM     42  C   UNL A   1      39.785  26.502  28.231  1.00  0.00     0.029 A 
ATOM     43  N   UNL A   1      41.932  26.941  28.676  1.00  0.00    -0.354 N 
ATOM     44  C   UNL A   1      43.178  30.827  30.068  1.00  0.00     0.074 A 
ATOM     45  C   UNL A   1      42.040  31.698  30.269  1.00  0.00     0.031 C 
ATOM     46  C   UNL A   1      40.492  25.401  27.932  1.00  0.00     0.029 A 
ATOM     47  C   UNL A   1      41.908  25.663  28.169  1.00  0.00     0.049 A 
ATOM     48  H   UNL A   1      42.757  27.387  28.974  1.00  0.00     0.167 HD
ATOM     49  C   UNL A   1      44.462  31.178  30.314  1.00  0.00     0.037 A 
ATOM     50  C   UNL A   1      42.913  24.808  27.902  1.00  0.00     0.037 A 
ATOM     51  C   UNL A   1      45.592  30.301  30.145  1.00  0.00     0.049 A 
ATOM     52  C   UNL A   1      44.332  25.225  28.173  1.00  0.00     0.074 A 
ATOM     53  C   UNL A   1      46.925  30.550  30.422  1.00  0.00     0.029 A 
ATOM     54  N   UNL A   1      45.519  29.006  29.658  1.00  0.00    -0.354 N 
ATOM     55  N   UNL A   1      44.782  26.361  28.648  1.00  0.00    -0.248 NA
ATOM     56  C   UNL A   1      45.383  24.243  27.870  1.00  0.00     0.031 C 
ATOM     57  C   UNL A   1      47.664  29.417  30.070  1.00  0.00     0.029 A 
ATOM     58  C   UNL A   1      46.786  28.448  29.613  1.00  0.00     0.049 A 
ATOM     59  H   UNL A   1      44.691  28.549  29.386  1.00  0.00     0.167 HD
ATOM     60  C   UNL A   1      46.161  26.219  28.731  1.00  0.00     0.074 A 
ATOM     61  C   UNL A   1      46.475  24.886  28.261  1.00  0.00     0.031 C 
ATOM     62  C   UNL A   1      47.083  27.113  29.162  1.00  0.00     0.037 A 
BRANCH  49  63
ATOM     63  C   UNL A   1      44.716  32.577  30.792  1.00  0.00     0.057 A 
ATOM     64  C   UNL A   1      44.945  33.632  29.899  1.00  0.00     0.134 A 
ATOM     65  C   UNL A   1      44.694  32.880  32.160  1.00  0.00     0.134 A 
ATOM     66  F   UNL A   1      44.988  33.406  28.578  1.00  0.00    -0.206 F 
ATOM     67  C   UNL A   1      45.168  34.934  30.350  1.00  0.00     0.040 A 
ATOM     68  C   UNL A   1      44.891  34.182  32.621  1.00  0.00     0.040 A 
ATOM     69  F   UNL A   1      44.474  31.917  33.068  1.00  0.00    -0.206 F 
ATOM     70  C   UNL A   1      45.136  35.213  31.716  1.00  0.00     0.006 A 
ENDBRANCH  49  63
BRANCH  50  71
ATOM     71  C   UNL A   1      42.617  23.463  27.352  1.00  0.00     0.057 A 
ATOM     72  C   UNL A   1      42.283  22.398  28.197  1.00  0.00     0.134 A 
ATOM     73  C   UNL A   1      42.667  23.204  25.977  1.00  0.00     0.134 A 
ATOM     74  F   UNL A   1      42.239  22.580  29.525  1.00  0.00    -0.206 F 
ATOM     75  C   UNL A   1      42.025  21.121  27.698  1.00  0.00     0.040 A 
ATOM     76  C   UNL A   1      42.390  21.937  25.462  1.00  0.00     0.040 A 
ATOM     77  F   UNL A   1      42.975  24.184  25.114  1.00  0.00    -0.206 F 
ATOM     78  C   UNL A   1      42.075  20.889  26.324  1.00  0.00     0.006 A 
ENDBRANCH  50  71
BRANCH  62  79
ATOM     79  C   UNL A   1      48.515  26.669  29.194  1.00  0.00     0.057 A 
ATOM     80  C   UNL A   1      49.398  26.944  28.144  1.00  0.00     0.134 A 
ATOM     81  C   UNL A   1      49.029  26.012  30.319  1.00  0.00     0.134 A 
ATOM     82  F   UNL A   1      48.963  27.559  27.034  1.00  0.00    -0.206 F 
ATOM     83  C   UNL A   1      50.741  26.570  28.207  1.00  0.00     0.040 A 
ATOM     84  C   UNL A   1      50.374  25.653  30.404  1.00  0.00     0.040 A 
ATOM     85  F   UNL A   1      48.234  25.726  31.362  1.00  0.00    -0.206 F 
ATOM     86  C   UNL A   1      51.234  25.931  29.343  1.00  0.00     0.006 A 
ENDBRANCH  62  79
ENDBRANCH  36  37
ENDBRANCH  28  31
ENDBRANCH  26  27
ENDBRANCH  25  26
ENDBRANCH   1  25
TORSDOF 13
ENDMDL
