MODEL 1
REMARK VINA RESULT:     -12.0      0.000      0.000
REMARK SMILES O=C(NCCCNC(=O)c1ccc(-c2c3nc(c(-c4c(F)cccc4F)c4ccc([nH]4)c(-c4c(F)cccc4F)c4nc(c(-c5c(F)cccc5F)c5ccc2[nH]5)C=C4)C=C3)cc1)C1=Cc2ccc(Cl)c(Cl)c2O[C@@H]1C(F)(F)F
REMARK SMILES IDX 5 1 4 2 3 3 1 4 2 5 64 7 65 8 75 9 66 10 74 11 67 12 73 13
REMARK SMILES IDX 68 14 71 15 69 16 72 17 70 18 76 19 77 20 78 21 79 22 6 23
REMARK SMILES IDX 7 24 8 25 9 27 10 28 11 29 63 30 12 31 62 32 13 33 14 34
REMARK SMILES IDX 15 35 56 36 16 37 61 38 55 39 57 40 17 41 60 42 54 43 53 44
REMARK SMILES IDX 18 46 44 47 27 48 43 49 28 50 31 51 42 52 58 53 29 54 30 55
REMARK SMILES IDX 41 57 59 58 32 59 19 60 20 61 25 62 21 63 22 64 24 65 26 66
REMARK SMILES IDX 23 67 45 68 46 69 51 70 47 71 48 72 50 73 52 74 49 75 33 76
REMARK SMILES IDX 34 77 39 78 35 79 36 80 38 81 40 82 37 83
REMARK H PARENT 3 6 7 26 57 45 31 56
REMARK Flexibility Score: inf
ROOT
ATOM      1  C   UNL A   1      37.771  19.628  25.022  1.00  0.00     0.042 C 
ENDROOT
BRANCH   1   2
ATOM      2  C   UNL A   1      36.700  20.700  24.858  1.00  0.00     0.118 C 
BRANCH   2   3
ATOM      3  N   UNL A   1      37.021  21.681  23.821  1.00  0.00    -0.352 N 
ATOM      4  O   UNL A   1      36.864  23.635  22.682  1.00  0.00    -0.270 OA
ATOM      5  C   UNL A   1      36.353  22.817  23.433  1.00  0.00     0.251 C 
ATOM      6  H   UNL A   1      37.850  21.497  23.321  1.00  0.00     0.163 HD
BRANCH   5   7
ATOM      7  C   UNL A   1      35.015  23.034  24.010  1.00  0.00     0.067 C 
ATOM      8  C   UNL A   1      34.935  23.837  25.077  1.00  0.00     0.025 C 
ATOM      9  C   UNL A   1      33.837  22.697  23.153  1.00  0.00     0.314 C 
ATOM     10  C   UNL A   1      33.896  24.866  24.944  1.00  0.00     0.019 A 
ATOM     11  O   UNL A   1      32.994  23.847  22.911  1.00  0.00    -0.474 OA
ATOM     12  C   UNL A   1      34.038  26.009  25.737  1.00  0.00     0.013 A 
ATOM     13  C   UNL A   1      33.090  24.910  23.785  1.00  0.00     0.148 A 
ATOM     14  C   UNL A   1      33.487  27.218  25.314  1.00  0.00     0.023 A 
ATOM     15  C   UNL A   1      32.522  26.128  23.371  1.00  0.00     0.102 A 
ATOM     16  C   UNL A   1      32.758  27.285  24.124  1.00  0.00     0.063 A 
ATOM     17  Cl  UNL A   1      31.699  26.205  21.845  1.00  0.00    -0.079 Cl
ATOM     18  Cl  UNL A   1      32.263  28.855  23.593  1.00  0.00    -0.083 Cl
BRANCH   9  19
ATOM     19  C   UNL A   1      33.024  21.539  23.755  1.00  0.00     0.429 C 
ATOM     20  F   UNL A   1      32.189  21.981  24.725  1.00  0.00    -0.167 F 
ATOM     21  F   UNL A   1      32.255  20.927  22.824  1.00  0.00    -0.167 F 
ATOM     22  F   UNL A   1      33.819  20.592  24.308  1.00  0.00    -0.167 F 
ENDBRANCH   9  19
ENDBRANCH   5   7
ENDBRANCH   2   3
ENDBRANCH   1   2
BRANCH   1  23
ATOM     23  C   UNL A   1      38.956  20.112  25.847  1.00  0.00     0.118 C 
BRANCH  23  24
ATOM     24  N   UNL A   1      40.137  19.261  25.758  1.00  0.00    -0.352 N 
ATOM     25  C   UNL A   1      41.449  19.537  26.076  1.00  0.00     0.251 C 
ATOM     26  H   UNL A   1      39.972  18.352  25.419  1.00  0.00     0.163 HD
ATOM     27  O   UNL A   1      42.313  18.684  25.885  1.00  0.00    -0.269 OA
BRANCH  25  28
ATOM     28  C   UNL A   1      41.836  20.864  26.605  1.00  0.00     0.039 A 
ATOM     29  C   UNL A   1      42.227  21.867  25.712  1.00  0.00     0.014 A 
ATOM     30  C   UNL A   1      41.802  21.134  27.973  1.00  0.00     0.014 A 
ATOM     31  C   UNL A   1      42.512  23.151  26.187  1.00  0.00     0.010 A 
ATOM     32  C   UNL A   1      41.950  22.437  28.426  1.00  0.00     0.010 A 
ATOM     33  C   UNL A   1      42.338  23.456  27.546  1.00  0.00    -0.014 A 
BRANCH  33  34
ATOM     34  C   UNL A   1      42.615  24.810  28.090  1.00  0.00     0.031 A 
ATOM     35  C   UNL A   1      44.019  25.175  28.501  1.00  0.00     0.074 A 
ATOM     36  C   UNL A   1      41.604  25.679  28.288  1.00  0.00     0.049 A 
ATOM     37  N   UNL A   1      44.458  26.260  29.087  1.00  0.00    -0.248 NA
ATOM     38  C   UNL A   1      45.061  24.159  28.274  1.00  0.00     0.031 C 
ATOM     39  C   UNL A   1      40.190  25.418  28.007  1.00  0.00     0.029 A 
ATOM     40  N   UNL A   1      41.611  26.959  28.782  1.00  0.00    -0.354 N 
ATOM     41  C   UNL A   1      45.807  26.035  29.332  1.00  0.00     0.074 A 
ATOM     42  C   UNL A   1      46.098  24.687  28.904  1.00  0.00     0.031 C 
ATOM     43  C   UNL A   1      39.474  26.518  28.295  1.00  0.00     0.029 A 
ATOM     44  C   UNL A   1      40.370  27.547  28.809  1.00  0.00     0.049 A 
ATOM     45  H   UNL A   1      42.430  27.413  29.086  1.00  0.00     0.167 HD
ATOM     46  C   UNL A   1      46.733  26.887  29.830  1.00  0.00     0.037 A 
ATOM     47  C   UNL A   1      40.002  28.782  29.198  1.00  0.00     0.037 A 
ATOM     48  C   UNL A   1      46.453  28.251  30.186  1.00  0.00     0.049 A 
ATOM     49  C   UNL A   1      41.059  29.738  29.677  1.00  0.00     0.074 A 
ATOM     50  C   UNL A   1      47.328  29.230  30.617  1.00  0.00     0.029 A 
ATOM     51  N   UNL A   1      45.193  28.831  30.135  1.00  0.00    -0.354 N 
ATOM     52  N   UNL A   1      42.346  29.537  29.834  1.00  0.00    -0.248 NA
ATOM     53  C   UNL A   1      40.616  31.097  30.016  1.00  0.00     0.031 C 
ATOM     54  C   UNL A   1      46.593  30.397  30.858  1.00  0.00     0.029 A 
ATOM     55  C   UNL A   1      45.266  30.154  30.534  1.00  0.00     0.049 A 
ATOM     56  H   UNL A   1      44.370  28.369  29.856  1.00  0.00     0.167 HD
ATOM     57  C   UNL A   1      42.871  30.750  30.263  1.00  0.00     0.074 A 
ATOM     58  C   UNL A   1      41.764  31.684  30.324  1.00  0.00     0.031 C 
ATOM     59  C   UNL A   1      44.151  31.064  30.579  1.00  0.00     0.037 A 
BRANCH  46  60
ATOM     60  C   UNL A   1      48.134  26.367  29.995  1.00  0.00     0.057 A 
ATOM     61  C   UNL A   1      48.567  25.766  31.186  1.00  0.00     0.134 A 
ATOM     62  C   UNL A   1      49.061  26.468  28.951  1.00  0.00     0.134 A 
ATOM     63  F   UNL A   1      47.734  25.652  32.232  1.00  0.00    -0.206 F 
ATOM     64  C   UNL A   1      49.881  25.323  31.346  1.00  0.00     0.040 A 
ATOM     65  C   UNL A   1      50.370  25.999  29.089  1.00  0.00     0.040 A 
ATOM     66  F   UNL A   1      48.715  27.027  27.782  1.00  0.00    -0.206 F 
ATOM     67  C   UNL A   1      50.786  25.434  30.294  1.00  0.00     0.006 A 
ENDBRANCH  46  60
BRANCH  47  68
ATOM     68  C   UNL A   1      38.583  29.202  29.094  1.00  0.00     0.057 A 
ATOM     69  C   UNL A   1      38.051  29.653  27.879  1.00  0.00     0.134 A 
ATOM     70  C   UNL A   1      37.721  29.159  30.196  1.00  0.00     0.134 A 
ATOM     71  F   UNL A   1      38.832  29.731  26.791  1.00  0.00    -0.206 F 
ATOM     72  C   UNL A   1      36.723  30.065  27.768  1.00  0.00     0.040 A 
ATOM     73  C   UNL A   1      36.382  29.545  30.094  1.00  0.00     0.040 A 
ATOM     74  F   UNL A   1      38.164  28.724  31.386  1.00  0.00    -0.206 F 
ATOM     75  C   UNL A   1      35.883  30.006  28.878  1.00  0.00     0.006 A 
ENDBRANCH  47  68
BRANCH  59  76
ATOM     76  C   UNL A   1      44.425  32.483  30.982  1.00  0.00     0.057 A 
ATOM     77  C   UNL A   1      44.396  32.888  32.323  1.00  0.00     0.134 A 
ATOM     78  C   UNL A   1      44.749  33.445  30.019  1.00  0.00     0.134 A 
ATOM     79  F   UNL A   1      44.082  32.015  33.291  1.00  0.00    -0.206 F 
ATOM     80  C   UNL A   1      44.652  34.211  32.687  1.00  0.00     0.040 A 
ATOM     81  C   UNL A   1      45.034  34.763  30.374  1.00  0.00     0.040 A 
ATOM     82  F   UNL A   1      44.804  33.118  28.718  1.00  0.00    -0.206 F 
ATOM     83  C   UNL A   1      44.978  35.152  31.711  1.00  0.00     0.006 A 
ENDBRANCH  59  76
ENDBRANCH  33  34
ENDBRANCH  25  28
ENDBRANCH  23  24
ENDBRANCH   1  23
TORSDOF 11
ENDMDL
MODEL 2
REMARK VINA RESULT:     -11.9      1.104      6.382
REMARK SMILES O=C(NCCCNC(=O)c1ccc(-c2c3nc(c(-c4c(F)cccc4F)c4ccc([nH]4)c(-c4c(F)cccc4F)c4nc(c(-c5c(F)cccc5F)c5ccc2[nH]5)C=C4)C=C3)cc1)C1=Cc2ccc(Cl)c(Cl)c2O[C@@H]1C(F)(F)F
REMARK SMILES IDX 5 1 4 2 3 3 1 4 2 5 64 7 65 8 75 9 66 10 74 11 67 12 73 13
REMARK SMILES IDX 68 14 71 15 69 16 72 17 70 18 76 19 77 20 78 21 79 22 6 23
REMARK SMILES IDX 7 24 8 25 9 27 10 28 11 29 63 30 12 31 62 32 13 33 14 34
REMARK SMILES IDX 15 35 56 36 16 37 61 38 55 39 57 40 17 41 60 42 54 43 53 44
REMARK SMILES IDX 18 46 44 47 27 48 43 49 28 50 31 51 42 52 58 53 29 54 30 55
REMARK SMILES IDX 41 57 59 58 32 59 19 60 20 61 25 62 21 63 22 64 24 65 26 66
REMARK SMILES IDX 23 67 45 68 46 69 51 70 47 71 48 72 50 73 52 74 49 75 33 76
REMARK SMILES IDX 34 77 39 78 35 79 36 80 38 81 40 82 37 83
REMARK H PARENT 3 6 7 26 57 45 31 56
REMARK Flexibility Score: inf
ROOT
ATOM      1  C   UNL A   1      37.014  20.309  24.988  1.00  0.00     0.042 C 
ENDROOT
BRANCH   1   2
ATOM      2  C   UNL A   1      35.930  21.357  25.212  1.00  0.00     0.118 C 
BRANCH   2   3
ATOM      3  N   UNL A   1      35.549  22.062  23.987  1.00  0.00    -0.352 N 
ATOM      4  O   UNL A   1      34.764  23.777  22.729  1.00  0.00    -0.270 OA
ATOM      5  C   UNL A   1      34.822  23.214  23.812  1.00  0.00     0.251 C 
ATOM      6  H   UNL A   1      35.866  21.642  23.154  1.00  0.00     0.163 HD
BRANCH   5   7
ATOM      7  C   UNL A   1      34.162  23.774  25.005  1.00  0.00     0.067 C 
ATOM      8  C   UNL A   1      34.667  24.908  25.505  1.00  0.00     0.025 C 
ATOM      9  C   UNL A   1      32.782  23.291  25.315  1.00  0.00     0.314 C 
ATOM     10  C   UNL A   1      33.644  25.934  25.746  1.00  0.00     0.019 A 
ATOM     11  O   UNL A   1      31.816  24.367  25.313  1.00  0.00    -0.474 OA
ATOM     12  C   UNL A   1      34.084  27.260  25.799  1.00  0.00     0.013 A 
ATOM     13  C   UNL A   1      32.286  25.653  25.478  1.00  0.00     0.148 A 
ATOM     14  C   UNL A   1      33.210  28.293  25.465  1.00  0.00     0.023 A 
ATOM     15  C   UNL A   1      31.404  26.700  25.158  1.00  0.00     0.102 A 
ATOM     16  C   UNL A   1      31.885  28.015  25.118  1.00  0.00     0.063 A 
ATOM     17  Cl  UNL A   1      29.790  26.322  24.642  1.00  0.00    -0.079 Cl
ATOM     18  Cl  UNL A   1      30.926  29.338  24.551  1.00  0.00    -0.083 Cl
BRANCH   9  19
ATOM     19  C   UNL A   1      32.746  22.524  26.647  1.00  0.00     0.429 C 
ATOM     20  F   UNL A   1      31.576  22.728  27.296  1.00  0.00    -0.167 F 
ATOM     21  F   UNL A   1      32.864  21.188  26.462  1.00  0.00    -0.167 F 
ATOM     22  F   UNL A   1      33.742  22.906  27.481  1.00  0.00    -0.167 F 
ENDBRANCH   9  19
ENDBRANCH   5   7
ENDBRANCH   2   3
ENDBRANCH   1   2
BRANCH   1  23
ATOM     23  C   UNL A   1      38.391  20.797  25.414  1.00  0.00     0.118 C 
BRANCH  23  24
ATOM     24  N   UNL A   1      39.406  19.752  25.475  1.00  0.00    -0.352 N 
ATOM     25  C   UNL A   1      40.689  19.796  25.975  1.00  0.00     0.251 C 
ATOM     26  H   UNL A   1      39.134  18.883  25.102  1.00  0.00     0.163 HD
ATOM     27  O   UNL A   1      41.409  18.804  25.891  1.00  0.00    -0.269 OA
BRANCH  25  28
ATOM     28  C   UNL A   1      41.224  21.040  26.574  1.00  0.00     0.039 A 
ATOM     29  C   UNL A   1      41.806  22.003  25.742  1.00  0.00     0.014 A 
ATOM     30  C   UNL A   1      41.145  21.272  27.947  1.00  0.00     0.014 A 
ATOM     31  C   UNL A   1      42.238  23.219  26.281  1.00  0.00     0.010 A 
ATOM     32  C   UNL A   1      41.446  22.527  28.456  1.00  0.00     0.010 A 
ATOM     33  C   UNL A   1      42.026  23.506  27.638  1.00  0.00    -0.014 A 
BRANCH  33  34
ATOM     34  C   UNL A   1      42.455  24.792  28.246  1.00  0.00     0.031 A 
ATOM     35  C   UNL A   1      41.439  25.878  28.486  1.00  0.00     0.074 A 
ATOM     36  C   UNL A   1      43.758  25.014  28.506  1.00  0.00     0.049 A 
ATOM     37  N   UNL A   1      41.616  27.103  28.910  1.00  0.00    -0.248 NA
ATOM     38  C   UNL A   1      40.039  25.563  28.149  1.00  0.00     0.031 C 
ATOM     39  C   UNL A   1      44.852  24.074  28.245  1.00  0.00     0.029 A 
ATOM     40  N   UNL A   1      44.386  26.108  29.044  1.00  0.00    -0.354 N 
ATOM     41  C   UNL A   1      40.366  27.707  28.849  1.00  0.00     0.074 A 
ATOM     42  C   UNL A   1      39.455  26.743  28.277  1.00  0.00     0.031 C 
ATOM     43  C   UNL A   1      46.008  24.617  28.661  1.00  0.00     0.029 A 
ATOM     44  C   UNL A   1      45.744  25.952  29.186  1.00  0.00     0.049 A 
ATOM     45  H   UNL A   1      43.909  26.929  29.306  1.00  0.00     0.167 HD
ATOM     46  C   UNL A   1      39.997  28.939  29.270  1.00  0.00     0.037 A 
ATOM     47  C   UNL A   1      46.667  26.790  29.693  1.00  0.00     0.037 A 
ATOM     48  C   UNL A   1      40.892  29.867  29.905  1.00  0.00     0.049 A 
ATOM     49  C   UNL A   1      46.223  28.125  30.225  1.00  0.00     0.074 A 
ATOM     50  C   UNL A   1      40.610  31.106  30.451  1.00  0.00     0.029 A 
ATOM     51  N   UNL A   1      42.248  29.643  30.093  1.00  0.00    -0.354 N 
ATOM     52  N   UNL A   1      45.023  28.655  30.230  1.00  0.00    -0.248 NA
ATOM     53  C   UNL A   1      47.257  28.970  30.837  1.00  0.00     0.031 C 
ATOM     54  C   UNL A   1      41.804  31.647  30.941  1.00  0.00     0.029 A 
ATOM     55  C   UNL A   1      42.820  30.725  30.739  1.00  0.00     0.049 A 
ATOM     56  H   UNL A   1      42.732  28.834  29.808  1.00  0.00     0.167 HD
ATOM     57  C   UNL A   1      45.152  29.882  30.869  1.00  0.00     0.074 A 
ATOM     58  C   UNL A   1      46.544  30.008  31.251  1.00  0.00     0.031 C 
ATOM     59  C   UNL A   1      44.207  30.822  31.116  1.00  0.00     0.037 A 
BRANCH  46  60
ATOM     60  C   UNL A   1      38.560  29.336  29.072  1.00  0.00     0.057 A 
ATOM     61  C   UNL A   1      37.638  29.339  30.128  1.00  0.00     0.134 A 
ATOM     62  C   UNL A   1      38.093  29.719  27.808  1.00  0.00     0.134 A 
ATOM     63  F   UNL A   1      38.015  28.967  31.361  1.00  0.00    -0.206 F 
ATOM     64  C   UNL A   1      36.297  29.669  29.927  1.00  0.00     0.040 A 
ATOM     65  C   UNL A   1      36.760  30.082  27.602  1.00  0.00     0.040 A 
ATOM     66  F   UNL A   1      38.920  29.744  26.753  1.00  0.00    -0.206 F 
ATOM     67  C   UNL A   1      35.855  30.047  28.662  1.00  0.00     0.006 A 
ENDBRANCH  46  60
BRANCH  47  68
ATOM     68  C   UNL A   1      48.088  26.370  29.776  1.00  0.00     0.057 A 
ATOM     69  C   UNL A   1      48.583  25.721  30.914  1.00  0.00     0.134 A 
ATOM     70  C   UNL A   1      48.984  26.595  28.724  1.00  0.00     0.134 A 
ATOM     71  F   UNL A   1      47.776  25.490  31.961  1.00  0.00    -0.206 F 
ATOM     72  C   UNL A   1      49.919  25.332  31.014  1.00  0.00     0.040 A 
ATOM     73  C   UNL A   1      50.318  26.190  28.800  1.00  0.00     0.040 A 
ATOM     74  F   UNL A   1      48.570  27.200  27.600  1.00  0.00    -0.206 F 
ATOM     75  C   UNL A   1      50.790  25.562  29.951  1.00  0.00     0.006 A 
ENDBRANCH  47  68
BRANCH  59  76
ATOM     76  C   UNL A   1      44.642  32.046  31.865  1.00  0.00     0.057 A 
ATOM     77  C   UNL A   1      44.596  32.112  33.263  1.00  0.00     0.134 A 
ATOM     78  C   UNL A   1      45.140  33.160  31.178  1.00  0.00     0.134 A 
ATOM     79  F   UNL A   1      44.119  31.081  33.977  1.00  0.00    -0.206 F 
ATOM     80  C   UNL A   1      45.002  33.256  33.951  1.00  0.00     0.040 A 
ATOM     81  C   UNL A   1      45.576  34.298  31.856  1.00  0.00     0.040 A 
ATOM     82  F   UNL A   1      45.220  33.156  29.838  1.00  0.00    -0.206 F 
ATOM     83  C   UNL A   1      45.500  34.352  33.246  1.00  0.00     0.006 A 
ENDBRANCH  59  76
ENDBRANCH  33  34
ENDBRANCH  25  28
ENDBRANCH  23  24
ENDBRANCH   1  23
TORSDOF 11
ENDMDL
MODEL 3
REMARK VINA RESULT:     -11.9      1.565      6.513
REMARK SMILES O=C(NCCCNC(=O)c1ccc(-c2c3nc(c(-c4c(F)cccc4F)c4ccc([nH]4)c(-c4c(F)cccc4F)c4nc(c(-c5c(F)cccc5F)c5ccc2[nH]5)C=C4)C=C3)cc1)C1=Cc2ccc(Cl)c(Cl)c2O[C@@H]1C(F)(F)F
REMARK SMILES IDX 5 1 4 2 3 3 1 4 2 5 64 7 65 8 75 9 66 10 74 11 67 12 73 13
REMARK SMILES IDX 68 14 71 15 69 16 72 17 70 18 76 19 77 20 78 21 79 22 6 23
REMARK SMILES IDX 7 24 8 25 9 27 10 28 11 29 63 30 12 31 62 32 13 33 14 34
REMARK SMILES IDX 15 35 56 36 16 37 61 38 55 39 57 40 17 41 60 42 54 43 53 44
REMARK SMILES IDX 18 46 44 47 27 48 43 49 28 50 31 51 42 52 58 53 29 54 30 55
REMARK SMILES IDX 41 57 59 58 32 59 19 60 20 61 25 62 21 63 22 64 24 65 26 66
REMARK SMILES IDX 23 67 45 68 46 69 51 70 47 71 48 72 50 73 52 74 49 75 33 76
REMARK SMILES IDX 34 77 39 78 35 79 36 80 38 81 40 82 37 83
REMARK H PARENT 3 6 7 26 57 45 31 56
REMARK Flexibility Score: inf
ROOT
ATOM      1  C   UNL A   1      37.785  19.657  25.077  1.00  0.00     0.042 C 
ENDROOT
BRANCH   1   2
ATOM      2  C   UNL A   1      36.762  20.781  24.972  1.00  0.00     0.118 C 
BRANCH   2   3
ATOM      3  N   UNL A   1      37.076  21.750  23.921  1.00  0.00    -0.352 N 
ATOM      4  O   UNL A   1      36.900  23.684  22.751  1.00  0.00    -0.270 OA
ATOM      5  C   UNL A   1      36.395  22.872  23.512  1.00  0.00     0.251 C 
ATOM      6  H   UNL A   1      37.909  21.569  23.429  1.00  0.00     0.163 HD
BRANCH   5   7
ATOM      7  C   UNL A   1      35.052  23.081  24.079  1.00  0.00     0.067 C 
ATOM      8  C   UNL A   1      34.955  23.901  25.131  1.00  0.00     0.025 C 
ATOM      9  C   UNL A   1      33.883  22.713  23.223  1.00  0.00     0.314 C 
ATOM     10  C   UNL A   1      33.903  24.914  24.974  1.00  0.00     0.019 A 
ATOM     11  O   UNL A   1      33.026  23.847  22.955  1.00  0.00    -0.474 OA
ATOM     12  C   UNL A   1      34.026  26.072  25.748  1.00  0.00     0.013 A 
ATOM     13  C   UNL A   1      33.103  24.926  23.811  1.00  0.00     0.148 A 
ATOM     14  C   UNL A   1      33.461  27.266  25.301  1.00  0.00     0.023 A 
ATOM     15  C   UNL A   1      32.521  26.129  23.373  1.00  0.00     0.102 A 
ATOM     16  C   UNL A   1      32.737  27.303  24.106  1.00  0.00     0.063 A 
ATOM     17  Cl  UNL A   1      31.705  26.168  21.842  1.00  0.00    -0.079 Cl
ATOM     18  Cl  UNL A   1      32.224  28.856  23.546  1.00  0.00    -0.083 Cl
BRANCH   9  19
ATOM     19  C   UNL A   1      33.083  21.555  23.841  1.00  0.00     0.429 C 
ATOM     20  F   UNL A   1      33.904  20.563  24.259  1.00  0.00    -0.167 F 
ATOM     21  F   UNL A   1      32.370  21.955  24.920  1.00  0.00    -0.167 F 
ATOM     22  F   UNL A   1      32.210  21.011  22.959  1.00  0.00    -0.167 F 
ENDBRANCH   9  19
ENDBRANCH   5   7
ENDBRANCH   2   3
ENDBRANCH   1   2
BRANCH   1  23
ATOM     23  C   UNL A   1      39.074  20.105  25.751  1.00  0.00     0.118 C 
BRANCH  23  24
ATOM     24  N   UNL A   1      40.100  19.073  25.832  1.00  0.00    -0.352 N 
ATOM     25  C   UNL A   1      41.442  19.184  26.125  1.00  0.00     0.251 C 
ATOM     26  H   UNL A   1      39.788  18.158  25.649  1.00  0.00     0.163 HD
ATOM     27  O   UNL A   1      42.154  18.183  26.100  1.00  0.00    -0.269 OA
BRANCH  25  28
ATOM     28  C   UNL A   1      42.043  20.502  26.429  1.00  0.00     0.039 A 
ATOM     29  C   UNL A   1      42.367  21.364  25.376  1.00  0.00     0.014 A 
ATOM     30  C   UNL A   1      42.277  20.903  27.744  1.00  0.00     0.014 A 
ATOM     31  C   UNL A   1      42.855  22.645  25.649  1.00  0.00     0.010 A 
ATOM     32  C   UNL A   1      42.629  22.217  28.016  1.00  0.00     0.010 A 
ATOM     33  C   UNL A   1      42.954  23.097  26.974  1.00  0.00    -0.014 A 
BRANCH  33  34
ATOM     34  C   UNL A   1      43.452  24.455  27.307  1.00  0.00     0.031 A 
ATOM     35  C   UNL A   1      42.484  25.508  27.783  1.00  0.00     0.074 A 
ATOM     36  C   UNL A   1      44.747  24.768  27.108  1.00  0.00     0.049 A 
ATOM     37  N   UNL A   1      42.690  26.776  28.030  1.00  0.00    -0.248 NA
ATOM     38  C   UNL A   1      41.080  25.091  27.949  1.00  0.00     0.031 C 
ATOM     39  C   UNL A   1      45.770  23.863  26.575  1.00  0.00     0.029 A 
ATOM     40  N   UNL A   1      45.426  25.940  27.325  1.00  0.00    -0.354 N 
ATOM     41  C   UNL A   1      41.443  27.308  28.337  1.00  0.00     0.074 A 
ATOM     42  C   UNL A   1      40.476  26.247  28.170  1.00  0.00     0.031 C 
ATOM     43  C   UNL A   1      46.951  24.502  26.546  1.00  0.00     0.029 A 
ATOM     44  C   UNL A   1      46.765  25.867  27.025  1.00  0.00     0.049 A 
ATOM     45  H   UNL A   1      44.994  26.757  27.664  1.00  0.00     0.167 HD
ATOM     46  C   UNL A   1      41.132  28.555  28.759  1.00  0.00     0.037 A 
ATOM     47  C   UNL A   1      47.732  26.796  27.135  1.00  0.00     0.037 A 
ATOM     48  C   UNL A   1      42.107  29.584  28.993  1.00  0.00     0.049 A 
ATOM     49  C   UNL A   1      47.378  28.153  27.679  1.00  0.00     0.074 A 
ATOM     50  C   UNL A   1      41.918  30.855  29.503  1.00  0.00     0.029 A 
ATOM     51  N   UNL A   1      43.465  29.449  28.742  1.00  0.00    -0.354 N 
ATOM     52  N   UNL A   1      46.206  28.620  28.037  1.00  0.00    -0.248 NA
ATOM     53  C   UNL A   1      48.483  29.105  27.851  1.00  0.00     0.031 C 
ATOM     54  C   UNL A   1      43.159  31.502  29.532  1.00  0.00     0.029 A 
ATOM     55  C   UNL A   1      44.126  30.616  29.080  1.00  0.00     0.049 A 
ATOM     56  H   UNL A   1      43.894  28.641  28.377  1.00  0.00     0.167 HD
ATOM     57  C   UNL A   1      46.435  29.909  28.502  1.00  0.00     0.074 A 
ATOM     58  C   UNL A   1      47.862  30.141  28.395  1.00  0.00     0.031 C 
ATOM     59  C   UNL A   1      45.548  30.820  28.972  1.00  0.00     0.037 A 
BRANCH  46  60
ATOM     60  C   UNL A   1      39.681  28.858  29.013  1.00  0.00     0.057 A 
ATOM     61  C   UNL A   1      38.833  29.330  28.001  1.00  0.00     0.134 A 
ATOM     62  C   UNL A   1      39.125  28.675  30.285  1.00  0.00     0.134 A 
ATOM     63  F   UNL A   1      39.306  29.543  26.763  1.00  0.00    -0.206 F 
ATOM     64  C   UNL A   1      37.499  29.649  28.254  1.00  0.00     0.040 A 
ATOM     65  C   UNL A   1      37.783  28.960  30.543  1.00  0.00     0.040 A 
ATOM     66  F   UNL A   1      39.876  28.222  31.300  1.00  0.00    -0.206 F 
ATOM     67  C   UNL A   1      36.967  29.458  29.528  1.00  0.00     0.006 A 
ENDBRANCH  46  60
BRANCH  47  68
ATOM     68  C   UNL A   1      49.132  26.458  26.779  1.00  0.00     0.057 A 
ATOM     69  C   UNL A   1      49.998  25.889  27.722  1.00  0.00     0.134 A 
ATOM     70  C   UNL A   1      49.640  26.685  25.495  1.00  0.00     0.134 A 
ATOM     71  F   UNL A   1      49.574  25.660  28.974  1.00  0.00    -0.206 F 
ATOM     72  C   UNL A   1      51.322  25.578  27.408  1.00  0.00     0.040 A 
ATOM     73  C   UNL A   1      50.956  26.357  25.159  1.00  0.00     0.040 A 
ATOM     74  F   UNL A   1      48.859  27.216  24.542  1.00  0.00    -0.206 F 
ATOM     75  C   UNL A   1      51.802  25.807  26.120  1.00  0.00     0.006 A 
ENDBRANCH  47  68
BRANCH  59  76
ATOM     76  C   UNL A   1      46.102  32.132  29.441  1.00  0.00     0.057 A 
ATOM     77  C   UNL A   1      46.229  33.230  28.580  1.00  0.00     0.134 A 
ATOM     78  C   UNL A   1      46.486  32.305  30.775  1.00  0.00     0.134 A 
ATOM     79  F   UNL A   1      45.889  33.123  27.287  1.00  0.00    -0.206 F 
ATOM     80  C   UNL A   1      46.747  34.447  29.026  1.00  0.00     0.040 A 
ATOM     81  C   UNL A   1      46.978  33.525  31.239  1.00  0.00     0.040 A 
ATOM     82  F   UNL A   1      46.379  31.296  31.653  1.00  0.00    -0.206 F 
ATOM     83  C   UNL A   1      47.118  34.598  30.361  1.00  0.00     0.006 A 
ENDBRANCH  59  76
ENDBRANCH  33  34
ENDBRANCH  25  28
ENDBRANCH  23  24
ENDBRANCH   1  23
TORSDOF 11
ENDMDL
