MODEL 1
REMARK VINA RESULT:     -12.5      0.000      0.000
REMARK SMILES Cc1ccc(C(c2ccccc2)(c2ccccc2)n2cnc(C[C@H]([NH3+])C(=O)NCCCNC(=O)c3ccc(-c4c5nc(c(-c6c(F)cccc6F)c6ccc([nH]6)c(-c6c(F)cccc6F)c6nc(c(-c7c(F)cccc7F)c7ccc4[nH]7)C=C6)C=C5)cc3)c2)cc1
REMARK SMILES IDX 29 1 28 2 26 3 27 4 24 6 23 7 22 8 19 9 20 10 89 11 21 12
REMARK SMILES IDX 6 13 5 14 1 15 2 16 3 17 91 18 4 19 90 20 7 21 8 22 12 23
REMARK SMILES IDX 9 24 11 25 10 26 13 27 14 28 18 29 15 30 17 31 16 32 25 33
REMARK SMILES IDX 30 37 31 38 32 39 33 40 34 42 35 43 36 44 88 45 37 46 87 47
REMARK SMILES IDX 38 48 39 49 40 50 81 51 41 52 86 53 80 54 82 55 42 56 85 57
REMARK SMILES IDX 79 58 78 59 43 61 69 62 52 63 68 64 53 65 56 66 67 67 83 68
REMARK SMILES IDX 54 69 55 70 66 72 84 73 57 74 44 75 45 76 50 77 46 78 47 79
REMARK SMILES IDX 49 80 51 81 48 82 70 83 71 84 76 85 72 86 73 87 75 88 77 89
REMARK SMILES IDX 74 90 58 91 59 92 64 93 60 94 61 95 63 96 65 97 62 98
REMARK H PARENT 28 5 25 34 25 35 25 36 32 41 82 60 56 71
REMARK Flexibility Score: inf
ROOT
ATOM      1  C   UNL A   1      32.127  30.811  26.518  1.00  0.00     0.118 C 
ENDROOT
BRANCH   1   2
ATOM      2  N   UNL A   1      32.428  30.093  25.297  1.00  0.00    -0.351 N 
ATOM      3  C   UNL A   1      32.028  28.874  24.831  1.00  0.00     0.278 C 
ATOM      4  O   UNL A   1      32.583  28.474  23.800  1.00  0.00    -0.268 OA
ATOM      5  H   UNL A   1      33.034  30.573  24.689  1.00  0.00     0.163 HD
BRANCH   3   6
ATOM      6  C   UNL A   1      31.018  27.973  25.581  1.00  0.00     0.276 C 
BRANCH   6   7
ATOM      7  C   UNL A   1      31.567  27.088  26.703  1.00  0.00     0.133 C 
BRANCH   7   8
ATOM      8  C   UNL A   1      31.978  25.716  26.313  1.00  0.00     0.065 A 
ATOM      9  N   UNL A   1      32.951  24.037  25.286  1.00  0.00    -0.319 N 
ATOM     10  C   UNL A   1      31.866  23.604  26.016  1.00  0.00     0.201 A 
ATOM     11  C   UNL A   1      33.093  25.371  25.587  1.00  0.00     0.112 A 
ATOM     12  N   UNL A   1      31.265  24.597  26.633  1.00  0.00    -0.241 NA
BRANCH   9  13
ATOM     13  C   UNL A   1      33.723  23.234  24.277  1.00  0.00     0.121 C 
BRANCH  13  14
ATOM     14  C   UNL A   1      33.276  21.718  24.358  1.00  0.00    -0.013 A 
ATOM     15  C   UNL A   1      32.155  17.530  24.712  1.00  0.00     0.044 C 
ATOM     16  C   UNL A   1      32.530  18.978  24.611  1.00  0.00    -0.051 A 
ATOM     17  C   UNL A   1      32.163  19.720  23.486  1.00  0.00     0.004 A 
ATOM     18  C   UNL A   1      33.247  19.609  25.627  1.00  0.00     0.004 A 
ATOM     19  C   UNL A   1      32.526  21.068  23.361  1.00  0.00     0.007 A 
ATOM     20  C   UNL A   1      33.601  20.956  25.507  1.00  0.00     0.007 A 
ENDBRANCH  13  14
BRANCH  13  21
ATOM     21  C   UNL A   1      33.396  23.859  22.848  1.00  0.00    -0.013 A 
ATOM     22  C   UNL A   1      32.803  25.140  22.730  1.00  0.00     0.007 A 
ATOM     23  C   UNL A   1      33.575  23.161  21.635  1.00  0.00     0.007 A 
ATOM     24  C   UNL A   1      32.502  25.717  21.489  1.00  0.00     0.000 A 
ATOM     25  C   UNL A   1      33.264  23.730  20.392  1.00  0.00     0.000 A 
ATOM     26  C   UNL A   1      32.745  25.015  20.319  1.00  0.00     0.000 A 
ENDBRANCH  13  21
BRANCH  13  27
ATOM     27  C   UNL A   1      35.267  23.357  24.673  1.00  0.00    -0.013 A 
ATOM     28  C   UNL A   1      36.235  22.478  24.123  1.00  0.00     0.007 A 
ATOM     29  C   UNL A   1      35.714  24.170  25.738  1.00  0.00     0.007 A 
ATOM     30  C   UNL A   1      37.551  22.424  24.598  1.00  0.00     0.000 A 
ATOM     31  C   UNL A   1      37.021  24.091  26.236  1.00  0.00     0.000 A 
ATOM     32  C   UNL A   1      37.939  23.219  25.667  1.00  0.00     0.000 A 
ENDBRANCH  13  27
ENDBRANCH   9  13
ENDBRANCH   7   8
ENDBRANCH   6   7
BRANCH   6  33
ATOM     33  N   UNL A   1      30.239  27.171  24.597  1.00  0.00    -0.347 N 
ATOM     34  H   UNL A   1      30.621  27.316  23.662  1.00  0.00     0.345 HD
ATOM     35  H   UNL A   1      29.263  27.465  24.616  1.00  0.00     0.345 HD
ATOM     36  H   UNL A   1      30.301  26.182  24.839  1.00  0.00     0.345 HD
ENDBRANCH   6  33
ENDBRANCH   3   6
ENDBRANCH   1   2
BRANCH   1  37
ATOM     37  C   UNL A   1      33.101  30.472  27.638  1.00  0.00     0.042 C 
BRANCH  37  38
ATOM     38  C   UNL A   1      34.461  31.116  27.441  1.00  0.00     0.118 C 
BRANCH  38  39
ATOM     39  N   UNL A   1      35.005  31.756  28.635  1.00  0.00    -0.352 N 
ATOM     40  C   UNL A   1      35.991  31.319  29.508  1.00  0.00     0.251 C 
ATOM     41  H   UNL A   1      34.613  32.632  28.853  1.00  0.00     0.163 HD
ATOM     42  O   UNL A   1      36.279  31.994  30.482  1.00  0.00    -0.269 OA
BRANCH  40  43
ATOM     43  C   UNL A   1      36.800  30.117  29.168  1.00  0.00     0.039 A 
ATOM     44  C   UNL A   1      36.932  29.123  30.148  1.00  0.00     0.014 A 
ATOM     45  C   UNL A   1      37.614  30.092  28.045  1.00  0.00     0.014 A 
ATOM     46  C   UNL A   1      38.060  28.307  30.142  1.00  0.00     0.010 A 
ATOM     47  C   UNL A   1      38.801  29.397  28.115  1.00  0.00     0.010 A 
ATOM     48  C   UNL A   1      39.053  28.552  29.199  1.00  0.00    -0.014 A 
BRANCH  48  49
ATOM     49  C   UNL A   1      40.424  28.083  29.330  1.00  0.00     0.031 A 
ATOM     50  C   UNL A   1      40.830  26.783  28.760  1.00  0.00     0.074 A 
ATOM     51  C   UNL A   1      41.359  28.912  29.848  1.00  0.00     0.049 A 
ATOM     52  N   UNL A   1      41.865  26.115  29.142  1.00  0.00    -0.248 NA
ATOM     53  C   UNL A   1      40.068  26.109  27.717  1.00  0.00     0.031 C 
ATOM     54  C   UNL A   1      42.810  28.772  29.761  1.00  0.00     0.029 A 
ATOM     55  N   UNL A   1      41.165  29.977  30.740  1.00  0.00    -0.354 N 
ATOM     56  C   UNL A   1      42.082  25.115  28.221  1.00  0.00     0.074 A 
ATOM     57  C   UNL A   1      40.896  25.110  27.397  1.00  0.00     0.031 C 
ATOM     58  C   UNL A   1      43.374  29.484  30.750  1.00  0.00     0.029 A 
ATOM     59  C   UNL A   1      42.296  29.981  31.586  1.00  0.00     0.049 A 
ATOM     60  H   UNL A   1      40.399  30.595  30.770  1.00  0.00     0.167 HD
ATOM     61  C   UNL A   1      43.303  24.508  28.173  1.00  0.00     0.037 A 
ATOM     62  C   UNL A   1      42.188  29.754  32.927  1.00  0.00     0.037 A 
ATOM     63  C   UNL A   1      44.185  25.018  29.223  1.00  0.00     0.049 A 
ATOM     64  C   UNL A   1      42.977  28.564  33.413  1.00  0.00     0.074 A 
ATOM     65  C   UNL A   1      45.212  25.949  29.212  1.00  0.00     0.029 A 
ATOM     66  N   UNL A   1      43.870  24.798  30.561  1.00  0.00    -0.354 N 
ATOM     67  N   UNL A   1      43.384  27.594  32.643  1.00  0.00    -0.248 NA
ATOM     68  C   UNL A   1      43.360  28.368  34.807  1.00  0.00     0.031 C 
ATOM     69  C   UNL A   1      45.507  26.298  30.552  1.00  0.00     0.029 A 
ATOM     70  C   UNL A   1      44.663  25.577  31.380  1.00  0.00     0.049 A 
ATOM     71  H   UNL A   1      43.179  24.173  30.879  1.00  0.00     0.167 HD
ATOM     72  C   UNL A   1      44.046  26.654  33.396  1.00  0.00     0.074 A 
ATOM     73  C   UNL A   1      44.023  27.200  34.740  1.00  0.00     0.031 C 
ATOM     74  C   UNL A   1      44.546  25.512  32.831  1.00  0.00     0.037 A 
BRANCH  61  75
ATOM     75  C   UNL A   1      43.796  23.694  26.992  1.00  0.00     0.057 A 
ATOM     76  C   UNL A   1      44.573  24.288  25.976  1.00  0.00     0.134 A 
ATOM     77  C   UNL A   1      43.498  22.341  26.760  1.00  0.00     0.134 A 
ATOM     78  F   UNL A   1      45.070  25.525  26.096  1.00  0.00    -0.206 F 
ATOM     79  C   UNL A   1      44.893  23.638  24.775  1.00  0.00     0.040 A 
ATOM     80  C   UNL A   1      43.763  21.694  25.543  1.00  0.00     0.040 A 
ATOM     81  F   UNL A   1      42.997  21.559  27.723  1.00  0.00    -0.206 F 
ATOM     82  C   UNL A   1      44.448  22.351  24.535  1.00  0.00     0.006 A 
ENDBRANCH  61  75
BRANCH  62  83
ATOM     83  C   UNL A   1      40.902  30.223  33.502  1.00  0.00     0.057 A 
ATOM     84  C   UNL A   1      40.756  31.590  33.793  1.00  0.00     0.134 A 
ATOM     85  C   UNL A   1      39.733  29.466  33.399  1.00  0.00     0.134 A 
ATOM     86  F   UNL A   1      41.842  32.373  33.910  1.00  0.00    -0.206 F 
ATOM     87  C   UNL A   1      39.502  32.201  33.861  1.00  0.00     0.040 A 
ATOM     88  C   UNL A   1      38.470  30.066  33.476  1.00  0.00     0.040 A 
ATOM     89  F   UNL A   1      39.789  28.160  33.100  1.00  0.00    -0.206 F 
ATOM     90  C   UNL A   1      38.353  31.441  33.666  1.00  0.00     0.006 A 
ENDBRANCH  62  83
BRANCH  74  91
ATOM     91  C   UNL A   1      45.068  24.277  33.544  1.00  0.00     0.057 A 
ATOM     92  C   UNL A   1      44.357  23.079  33.712  1.00  0.00     0.134 A 
ATOM     93  C   UNL A   1      46.413  24.222  33.990  1.00  0.00     0.134 A 
ATOM     94  F   UNL A   1      43.117  22.919  33.236  1.00  0.00    -0.206 F 
ATOM     95  C   UNL A   1      44.911  21.947  34.330  1.00  0.00     0.040 A 
ATOM     96  C   UNL A   1      46.992  23.080  34.554  1.00  0.00     0.040 A 
ATOM     97  F   UNL A   1      47.245  25.266  33.877  1.00  0.00    -0.206 F 
ATOM     98  C   UNL A   1      46.236  21.939  34.743  1.00  0.00     0.006 A 
ENDBRANCH  74  91
ENDBRANCH  48  49
ENDBRANCH  40  43
ENDBRANCH  38  39
ENDBRANCH  37  38
ENDBRANCH   1  37
TORSDOF 17
ENDMDL
MODEL 2
REMARK VINA RESULT:     -12.3      0.984      3.010
REMARK SMILES Cc1ccc(C(c2ccccc2)(c2ccccc2)n2cnc(C[C@H]([NH3+])C(=O)NCCCNC(=O)c3ccc(-c4c5nc(c(-c6c(F)cccc6F)c6ccc([nH]6)c(-c6c(F)cccc6F)c6nc(c(-c7c(F)cccc7F)c7ccc4[nH]7)C=C6)C=C5)cc3)c2)cc1
REMARK SMILES IDX 29 1 28 2 26 3 27 4 24 6 23 7 22 8 19 9 20 10 89 11 21 12
REMARK SMILES IDX 6 13 5 14 1 15 2 16 3 17 91 18 4 19 90 20 7 21 8 22 12 23
REMARK SMILES IDX 9 24 11 25 10 26 13 27 14 28 18 29 15 30 17 31 16 32 25 33
REMARK SMILES IDX 30 37 31 38 32 39 33 40 34 42 35 43 36 44 88 45 37 46 87 47
REMARK SMILES IDX 38 48 39 49 40 50 81 51 41 52 86 53 80 54 82 55 42 56 85 57
REMARK SMILES IDX 79 58 78 59 43 61 69 62 52 63 68 64 53 65 56 66 67 67 83 68
REMARK SMILES IDX 54 69 55 70 66 72 84 73 57 74 44 75 45 76 50 77 46 78 47 79
REMARK SMILES IDX 49 80 51 81 48 82 70 83 71 84 76 85 72 86 73 87 75 88 77 89
REMARK SMILES IDX 74 90 58 91 59 92 64 93 60 94 61 95 63 96 65 97 62 98
REMARK H PARENT 28 5 25 34 25 35 25 36 32 41 82 60 56 71
REMARK Flexibility Score: inf
ROOT
ATOM      1  C   UNL A   1      31.650  29.751  25.756  1.00  0.00     0.118 C 
ENDROOT
BRANCH   1   2
ATOM      2  N   UNL A   1      31.478  28.830  24.651  1.00  0.00    -0.351 N 
ATOM      3  C   UNL A   1      30.955  27.572  24.583  1.00  0.00     0.278 C 
ATOM      4  O   UNL A   1      31.085  26.985  23.502  1.00  0.00    -0.268 OA
ATOM      5  H   UNL A   1      31.799  29.177  23.788  1.00  0.00     0.163 HD
BRANCH   3   6
ATOM      6  C   UNL A   1      30.322  26.853  25.798  1.00  0.00     0.276 C 
BRANCH   6   7
ATOM      7  C   UNL A   1      31.275  26.330  26.877  1.00  0.00     0.133 C 
BRANCH   7   8
ATOM      8  C   UNL A   1      31.938  25.033  26.592  1.00  0.00     0.065 A 
ATOM      9  N   UNL A   1      33.137  23.463  25.633  1.00  0.00    -0.319 N 
ATOM     10  C   UNL A   1      32.273  22.924  26.560  1.00  0.00     0.201 A 
ATOM     11  C   UNL A   1      33.008  24.827  25.754  1.00  0.00     0.112 A 
ATOM     12  N   UNL A   1      31.539  23.848  27.139  1.00  0.00    -0.241 NA
BRANCH   9  13
ATOM     13  C   UNL A   1      33.947  22.702  24.621  1.00  0.00     0.121 C 
BRANCH  13  14
ATOM     14  C   UNL A   1      35.465  22.688  25.064  1.00  0.00    -0.013 A 
ATOM     15  C   UNL A   1      39.648  22.487  26.243  1.00  0.00     0.044 C 
ATOM     16  C   UNL A   1      38.213  22.554  25.813  1.00  0.00    -0.051 A 
ATOM     17  C   UNL A   1      37.427  23.654  26.165  1.00  0.00     0.004 A 
ATOM     18  C   UNL A   1      37.637  21.529  25.063  1.00  0.00     0.004 A 
ATOM     19  C   UNL A   1      36.077  23.723  25.795  1.00  0.00     0.007 A 
ATOM     20  C   UNL A   1      36.293  21.602  24.686  1.00  0.00     0.007 A 
ENDBRANCH  13  14
BRANCH  13  21
ATOM     21  C   UNL A   1      33.344  21.227  24.569  1.00  0.00    -0.013 A 
ATOM     22  C   UNL A   1      33.508  20.333  25.654  1.00  0.00     0.007 A 
ATOM     23  C   UNL A   1      32.708  20.688  23.431  1.00  0.00     0.007 A 
ATOM     24  C   UNL A   1      32.991  19.031  25.639  1.00  0.00     0.000 A 
ATOM     25  C   UNL A   1      32.200  19.382  23.407  1.00  0.00     0.000 A 
ATOM     26  C   UNL A   1      32.326  18.560  24.518  1.00  0.00     0.000 A 
ENDBRANCH  13  21
BRANCH  13  27
ATOM     27  C   UNL A   1      33.803  23.484  23.233  1.00  0.00    -0.013 A 
ATOM     28  C   UNL A   1      33.973  24.890  23.166  1.00  0.00     0.007 A 
ATOM     29  C   UNL A   1      33.285  22.874  22.069  1.00  0.00     0.007 A 
ATOM     30  C   UNL A   1      33.656  25.627  22.019  1.00  0.00     0.000 A 
ATOM     31  C   UNL A   1      32.936  23.616  20.933  1.00  0.00     0.000 A 
ATOM     32  C   UNL A   1      33.122  24.992  20.907  1.00  0.00     0.000 A 
ENDBRANCH  13  27
ENDBRANCH   9  13
ENDBRANCH   7   8
ENDBRANCH   6   7
BRANCH   6  33
ATOM     33  N   UNL A   1      29.409  25.778  25.321  1.00  0.00    -0.347 N 
ATOM     34  H   UNL A   1      29.940  24.918  25.181  1.00  0.00     0.345 HD
ATOM     35  H   UNL A   1      28.980  26.061  24.441  1.00  0.00     0.345 HD
ATOM     36  H   UNL A   1      28.681  25.617  26.018  1.00  0.00     0.345 HD
ENDBRANCH   6  33
ENDBRANCH   3   6
ENDBRANCH   1   2
BRANCH   1  37
ATOM     37  C   UNL A   1      33.113  29.922  26.140  1.00  0.00     0.042 C 
BRANCH  37  38
ATOM     38  C   UNL A   1      33.312  30.035  27.641  1.00  0.00     0.118 C 
BRANCH  38  39
ATOM     39  N   UNL A   1      34.059  31.215  28.063  1.00  0.00    -0.352 N 
ATOM     40  C   UNL A   1      35.362  31.323  28.530  1.00  0.00     0.251 C 
ATOM     41  H   UNL A   1      33.565  32.064  28.008  1.00  0.00     0.163 HD
ATOM     42  O   UNL A   1      35.793  32.412  28.872  1.00  0.00    -0.269 OA
BRANCH  40  43
ATOM     43  C   UNL A   1      36.273  30.148  28.459  1.00  0.00     0.039 A 
ATOM     44  C   UNL A   1      36.459  29.398  29.628  1.00  0.00     0.014 A 
ATOM     45  C   UNL A   1      37.114  29.956  27.373  1.00  0.00     0.014 A 
ATOM     46  C   UNL A   1      37.648  28.696  29.805  1.00  0.00     0.010 A 
ATOM     47  C   UNL A   1      38.351  29.393  27.599  1.00  0.00     0.010 A 
ATOM     48  C   UNL A   1      38.642  28.819  28.839  1.00  0.00    -0.014 A 
BRANCH  48  49
ATOM     49  C   UNL A   1      40.043  28.504  29.078  1.00  0.00     0.031 A 
ATOM     50  C   UNL A   1      40.647  27.287  28.503  1.00  0.00     0.074 A 
ATOM     51  C   UNL A   1      40.825  29.412  29.706  1.00  0.00     0.049 A 
ATOM     52  N   UNL A   1      41.717  26.725  28.954  1.00  0.00    -0.248 NA
ATOM     53  C   UNL A   1      40.062  26.576  27.373  1.00  0.00     0.031 C 
ATOM     54  C   UNL A   1      42.285  29.443  29.746  1.00  0.00     0.029 A 
ATOM     55  N   UNL A   1      40.431  30.407  30.612  1.00  0.00    -0.354 N 
ATOM     56  C   UNL A   1      42.128  25.798  28.023  1.00  0.00     0.074 A 
ATOM     57  C   UNL A   1      41.026  25.693  27.096  1.00  0.00     0.031 C 
ATOM     58  C   UNL A   1      42.674  30.169  30.805  1.00  0.00     0.029 A 
ATOM     59  C   UNL A   1      41.477  30.503  31.557  1.00  0.00     0.049 A 
ATOM     60  H   UNL A   1      39.598  30.932  30.594  1.00  0.00     0.167 HD
ATOM     61  C   UNL A   1      43.412  25.337  28.065  1.00  0.00     0.037 A 
ATOM     62  C   UNL A   1      41.281  30.206  32.874  1.00  0.00     0.037 A 
ATOM     63  C   UNL A   1      44.134  25.898  29.207  1.00  0.00     0.049 A 
ATOM     64  C   UNL A   1      42.161  29.093  33.389  1.00  0.00     0.074 A 
ATOM     65  C   UNL A   1      45.041  26.940  29.321  1.00  0.00     0.029 A 
ATOM     66  N   UNL A   1      43.734  25.584  30.503  1.00  0.00    -0.354 N 
ATOM     67  N   UNL A   1      42.744  28.211  32.627  1.00  0.00    -0.248 NA
ATOM     68  C   UNL A   1      42.443  28.881  34.805  1.00  0.00     0.031 C 
ATOM     69  C   UNL A   1      45.177  27.261  30.694  1.00  0.00     0.029 A 
ATOM     70  C   UNL A   1      44.356  26.412  31.417  1.00  0.00     0.049 A 
ATOM     71  H   UNL A   1      43.096  24.871  30.736  1.00  0.00     0.167 HD
ATOM     72  C   UNL A   1      43.445  27.321  33.403  1.00  0.00     0.074 A 
ATOM     73  C   UNL A   1      43.243  27.801  34.758  1.00  0.00     0.031 C 
ATOM     74  C   UNL A   1      44.123  26.269  32.848  1.00  0.00     0.037 A 
BRANCH  61  75
ATOM     75  C   UNL A   1      44.097  24.639  26.907  1.00  0.00     0.057 A 
ATOM     76  C   UNL A   1      43.892  23.264  26.664  1.00  0.00     0.134 A 
ATOM     77  C   UNL A   1      45.014  25.240  26.028  1.00  0.00     0.134 A 
ATOM     78  F   UNL A   1      42.952  22.564  27.308  1.00  0.00    -0.206 F 
ATOM     79  C   UNL A   1      44.641  22.529  25.734  1.00  0.00     0.040 A 
ATOM     80  C   UNL A   1      45.809  24.509  25.130  1.00  0.00     0.040 A 
ATOM     81  F   UNL A   1      45.137  26.569  25.945  1.00  0.00    -0.206 F 
ATOM     82  C   UNL A   1      45.637  23.142  24.994  1.00  0.00     0.006 A 
ENDBRANCH  61  75
BRANCH  62  83
ATOM     83  C   UNL A   1      39.905  30.498  33.346  1.00  0.00     0.057 A 
ATOM     84  C   UNL A   1      39.555  31.834  33.607  1.00  0.00     0.134 A 
ATOM     85  C   UNL A   1      38.859  29.590  33.167  1.00  0.00     0.134 A 
ATOM     86  F   UNL A   1      40.514  32.757  33.793  1.00  0.00    -0.206 F 
ATOM     87  C   UNL A   1      38.229  32.270  33.574  1.00  0.00     0.040 A 
ATOM     88  C   UNL A   1      37.525  30.014  33.142  1.00  0.00     0.040 A 
ATOM     89  F   UNL A   1      39.113  28.303  32.890  1.00  0.00    -0.206 F 
ATOM     90  C   UNL A   1      37.210  31.362  33.305  1.00  0.00     0.006 A 
ENDBRANCH  62  83
BRANCH  74  91
ATOM     91  C   UNL A   1      44.723  25.072  33.563  1.00  0.00     0.057 A 
ATOM     92  C   UNL A   1      46.096  24.796  33.664  1.00  0.00     0.134 A 
ATOM     93  C   UNL A   1      43.898  24.196  34.312  1.00  0.00     0.134 A 
ATOM     94  F   UNL A   1      47.021  25.596  33.122  1.00  0.00    -0.206 F 
ATOM     95  C   UNL A   1      46.599  23.704  34.389  1.00  0.00     0.040 A 
ATOM     96  C   UNL A   1      44.394  23.140  35.085  1.00  0.00     0.040 A 
ATOM     97  F   UNL A   1      42.566  24.335  34.356  1.00  0.00    -0.206 F 
ATOM     98  C   UNL A   1      45.752  22.879  35.112  1.00  0.00     0.006 A 
ENDBRANCH  74  91
ENDBRANCH  48  49
ENDBRANCH  40  43
ENDBRANCH  38  39
ENDBRANCH  37  38
ENDBRANCH   1  37
TORSDOF 17
ENDMDL
MODEL 3
REMARK VINA RESULT:     -12.3      0.346      2.679
REMARK SMILES Cc1ccc(C(c2ccccc2)(c2ccccc2)n2cnc(C[C@H]([NH3+])C(=O)NCCCNC(=O)c3ccc(-c4c5nc(c(-c6c(F)cccc6F)c6ccc([nH]6)c(-c6c(F)cccc6F)c6nc(c(-c7c(F)cccc7F)c7ccc4[nH]7)C=C6)C=C5)cc3)c2)cc1
REMARK SMILES IDX 29 1 28 2 26 3 27 4 24 6 23 7 22 8 19 9 20 10 89 11 21 12
REMARK SMILES IDX 6 13 5 14 1 15 2 16 3 17 91 18 4 19 90 20 7 21 8 22 12 23
REMARK SMILES IDX 9 24 11 25 10 26 13 27 14 28 18 29 15 30 17 31 16 32 25 33
REMARK SMILES IDX 30 37 31 38 32 39 33 40 34 42 35 43 36 44 88 45 37 46 87 47
REMARK SMILES IDX 38 48 39 49 40 50 81 51 41 52 86 53 80 54 82 55 42 56 85 57
REMARK SMILES IDX 79 58 78 59 43 61 69 62 52 63 68 64 53 65 56 66 67 67 83 68
REMARK SMILES IDX 54 69 55 70 66 72 84 73 57 74 44 75 45 76 50 77 46 78 47 79
REMARK SMILES IDX 49 80 51 81 48 82 70 83 71 84 76 85 72 86 73 87 75 88 77 89
REMARK SMILES IDX 74 90 58 91 59 92 64 93 60 94 61 95 63 96 65 97 62 98
REMARK H PARENT 28 5 25 34 25 35 25 36 32 41 82 60 56 71
REMARK Flexibility Score: inf
ROOT
ATOM      1  C   UNL A   1      31.768  30.736  26.532  1.00  0.00     0.118 C 
ENDROOT
BRANCH   1   2
ATOM      2  N   UNL A   1      32.058  29.995  25.321  1.00  0.00    -0.351 N 
ATOM      3  C   UNL A   1      31.754  28.723  24.934  1.00  0.00     0.278 C 
ATOM      4  O   UNL A   1      32.277  28.332  23.883  1.00  0.00    -0.268 OA
ATOM      5  H   UNL A   1      32.572  30.504  24.653  1.00  0.00     0.163 HD
BRANCH   3   6
ATOM      6  C   UNL A   1      30.891  27.763  25.787  1.00  0.00     0.276 C 
BRANCH   6   7
ATOM      7  C   UNL A   1      31.606  26.963  26.880  1.00  0.00     0.133 C 
BRANCH   7   8
ATOM      8  C   UNL A   1      32.029  25.588  26.513  1.00  0.00     0.065 A 
ATOM      9  N   UNL A   1      32.964  23.895  25.474  1.00  0.00    -0.319 N 
ATOM     10  C   UNL A   1      31.967  23.462  26.320  1.00  0.00     0.201 A 
ATOM     11  C   UNL A   1      33.084  25.246  25.701  1.00  0.00     0.112 A 
ATOM     12  N   UNL A   1      31.389  24.463  26.947  1.00  0.00    -0.241 NA
BRANCH   9  13
ATOM     13  C   UNL A   1      33.668  23.071  24.432  1.00  0.00     0.121 C 
BRANCH  13  14
ATOM     14  C   UNL A   1      33.381  23.677  22.999  1.00  0.00    -0.013 A 
ATOM     15  C   UNL A   1      32.522  25.480  19.135  1.00  0.00     0.044 C 
ATOM     16  C   UNL A   1      32.835  24.876  20.471  1.00  0.00    -0.051 A 
ATOM     17  C   UNL A   1      33.216  23.535  20.562  1.00  0.00     0.004 A 
ATOM     18  C   UNL A   1      32.753  25.631  21.640  1.00  0.00     0.004 A 
ATOM     19  C   UNL A   1      33.488  22.944  21.803  1.00  0.00     0.007 A 
ATOM     20  C   UNL A   1      33.033  25.046  22.878  1.00  0.00     0.007 A 
ENDBRANCH  13  14
BRANCH  13  21
ATOM     21  C   UNL A   1      35.222  23.121  24.784  1.00  0.00    -0.013 A 
ATOM     22  C   UNL A   1      36.118  22.152  24.272  1.00  0.00     0.007 A 
ATOM     23  C   UNL A   1      35.784  24.050  25.685  1.00  0.00     0.007 A 
ATOM     24  C   UNL A   1      37.488  22.168  24.563  1.00  0.00     0.000 A 
ATOM     25  C   UNL A   1      37.152  24.062  25.989  1.00  0.00     0.000 A 
ATOM     26  C   UNL A   1      38.007  23.133  25.413  1.00  0.00     0.000 A 
ENDBRANCH  13  21
BRANCH  13  27
ATOM     27  C   UNL A   1      33.056  21.596  24.520  1.00  0.00    -0.013 A 
ATOM     28  C   UNL A   1      33.311  20.765  25.640  1.00  0.00     0.007 A 
ATOM     29  C   UNL A   1      32.437  20.965  23.418  1.00  0.00     0.007 A 
ATOM     30  C   UNL A   1      32.965  19.408  25.658  1.00  0.00     0.000 A 
ATOM     31  C   UNL A   1      32.122  19.600  23.423  1.00  0.00     0.000 A 
ATOM     32  C   UNL A   1      32.386  18.821  24.542  1.00  0.00     0.000 A 
ENDBRANCH  13  27
ENDBRANCH   9  13
ENDBRANCH   7   8
ENDBRANCH   6   7
BRANCH   6  33
ATOM     33  N   UNL A   1      30.106  26.868  24.893  1.00  0.00    -0.347 N 
ATOM     34  H   UNL A   1      29.248  27.340  24.607  1.00  0.00     0.345 HD
ATOM     35  H   UNL A   1      29.873  26.009  25.390  1.00  0.00     0.345 HD
ATOM     36  H   UNL A   1      30.661  26.642  24.066  1.00  0.00     0.345 HD
ENDBRANCH   6  33
ENDBRANCH   3   6
ENDBRANCH   1   2
BRANCH   1  37
ATOM     37  C   UNL A   1      32.949  31.582  26.985  1.00  0.00     0.042 C 
BRANCH  37  38
ATOM     38  C   UNL A   1      33.841  30.854  27.974  1.00  0.00     0.118 C 
BRANCH  38  39
ATOM     39  N   UNL A   1      34.602  31.729  28.859  1.00  0.00    -0.352 N 
ATOM     40  C   UNL A   1      35.802  31.503  29.518  1.00  0.00     0.251 C 
ATOM     41  H   UNL A   1      34.204  32.616  29.012  1.00  0.00     0.163 HD
ATOM     42  O   UNL A   1      36.260  32.362  30.253  1.00  0.00    -0.269 OA
BRANCH  40  43
ATOM     43  C   UNL A   1      36.602  30.289  29.202  1.00  0.00     0.039 A 
ATOM     44  C   UNL A   1      36.768  29.337  30.217  1.00  0.00     0.014 A 
ATOM     45  C   UNL A   1      37.379  30.218  28.054  1.00  0.00     0.014 A 
ATOM     46  C   UNL A   1      37.897  28.522  30.208  1.00  0.00     0.010 A 
ATOM     47  C   UNL A   1      38.569  29.528  28.114  1.00  0.00     0.010 A 
ATOM     48  C   UNL A   1      38.858  28.728  29.223  1.00  0.00    -0.014 A 
BRANCH  48  49
ATOM     49  C   UNL A   1      40.235  28.265  29.329  1.00  0.00     0.031 A 
ATOM     50  C   UNL A   1      40.638  26.973  28.742  1.00  0.00     0.074 A 
ATOM     51  C   UNL A   1      41.172  29.096  29.838  1.00  0.00     0.049 A 
ATOM     52  N   UNL A   1      41.683  26.308  29.103  1.00  0.00    -0.248 NA
ATOM     53  C   UNL A   1      39.863  26.302  27.706  1.00  0.00     0.031 C 
ATOM     54  C   UNL A   1      42.623  28.966  29.727  1.00  0.00     0.029 A 
ATOM     55  N   UNL A   1      40.987  30.154  30.741  1.00  0.00    -0.354 N 
ATOM     56  C   UNL A   1      41.890  25.316  28.171  1.00  0.00     0.074 A 
ATOM     57  C   UNL A   1      40.691  25.310  27.366  1.00  0.00     0.031 C 
ATOM     58  C   UNL A   1      43.199  29.672  30.712  1.00  0.00     0.029 A 
ATOM     59  C   UNL A   1      42.132  30.158  31.569  1.00  0.00     0.049 A 
ATOM     60  H   UNL A   1      40.219  30.767  30.788  1.00  0.00     0.167 HD
ATOM     61  C   UNL A   1      43.113  24.716  28.098  1.00  0.00     0.037 A 
ATOM     62  C   UNL A   1      42.046  29.920  32.909  1.00  0.00     0.037 A 
ATOM     63  C   UNL A   1      44.009  25.223  29.138  1.00  0.00     0.049 A 
ATOM     64  C   UNL A   1      42.850  28.730  33.374  1.00  0.00     0.074 A 
ATOM     65  C   UNL A   1      45.031  26.160  29.118  1.00  0.00     0.029 A 
ATOM     66  N   UNL A   1      43.718  24.991  30.479  1.00  0.00    -0.354 N 
ATOM     67  N   UNL A   1      43.250  27.768  32.590  1.00  0.00    -0.248 NA
ATOM     68  C   UNL A   1      43.256  28.526  34.760  1.00  0.00     0.031 C 
ATOM     69  C   UNL A   1      45.346  26.500  30.455  1.00  0.00     0.029 A 
ATOM     70  C   UNL A   1      44.520  25.769  31.291  1.00  0.00     0.049 A 
ATOM     71  H   UNL A   1      43.036  24.360  30.803  1.00  0.00     0.167 HD
ATOM     72  C   UNL A   1      43.929  26.827  33.324  1.00  0.00     0.074 A 
ATOM     73  C   UNL A   1      43.925  27.362  34.673  1.00  0.00     0.031 C 
ATOM     74  C   UNL A   1      44.426  25.692  32.743  1.00  0.00     0.037 A 
BRANCH  61  75
ATOM     75  C   UNL A   1      43.592  23.914  26.903  1.00  0.00     0.057 A 
ATOM     76  C   UNL A   1      44.280  24.536  25.841  1.00  0.00     0.134 A 
ATOM     77  C   UNL A   1      43.362  22.542  26.704  1.00  0.00     0.134 A 
ATOM     78  F   UNL A   1      44.709  25.801  25.919  1.00  0.00    -0.206 F 
ATOM     79  C   UNL A   1      44.575  23.888  24.633  1.00  0.00     0.040 A 
ATOM     80  C   UNL A   1      43.602  21.893  25.483  1.00  0.00     0.040 A 
ATOM     81  F   UNL A   1      42.958  21.747  27.702  1.00  0.00    -0.206 F 
ATOM     82  C   UNL A   1      44.195  22.573  24.432  1.00  0.00     0.006 A 
ENDBRANCH  61  75
BRANCH  62  83
ATOM     83  C   UNL A   1      40.768  30.377  33.509  1.00  0.00     0.057 A 
ATOM     84  C   UNL A   1      40.634  31.734  33.850  1.00  0.00     0.134 A 
ATOM     85  C   UNL A   1      39.592  29.632  33.385  1.00  0.00     0.134 A 
ATOM     86  F   UNL A   1      41.726  32.503  33.988  1.00  0.00    -0.206 F 
ATOM     87  C   UNL A   1      39.385  32.351  33.947  1.00  0.00     0.040 A 
ATOM     88  C   UNL A   1      38.334  30.239  33.491  1.00  0.00     0.040 A 
ATOM     89  F   UNL A   1      39.637  28.338  33.038  1.00  0.00    -0.206 F 
ATOM     90  C   UNL A   1      38.229  31.607  33.732  1.00  0.00     0.006 A 
ENDBRANCH  62  83
BRANCH  74  91
ATOM     91  C   UNL A   1      44.966  24.455  33.439  1.00  0.00     0.057 A 
ATOM     92  C   UNL A   1      44.307  23.219  33.517  1.00  0.00     0.134 A 
ATOM     93  C   UNL A   1      46.284  24.444  33.961  1.00  0.00     0.134 A 
ATOM     94  F   UNL A   1      43.106  23.020  32.963  1.00  0.00    -0.206 F 
ATOM     95  C   UNL A   1      44.880  22.089  34.123  1.00  0.00     0.040 A 
ATOM     96  C   UNL A   1      46.886  23.309  34.514  1.00  0.00     0.040 A 
ATOM     97  F   UNL A   1      47.069  25.530  33.937  1.00  0.00    -0.206 F 
ATOM     98  C   UNL A   1      46.177  22.126  34.614  1.00  0.00     0.006 A 
ENDBRANCH  74  91
ENDBRANCH  48  49
ENDBRANCH  40  43
ENDBRANCH  38  39
ENDBRANCH  37  38
ENDBRANCH   1  37
TORSDOF 17
ENDMDL
