MODEL 1
REMARK VINA RESULT:     -11.1      0.000      0.000
REMARK SMILES Nc1ccc(O)c(C(=O)NCCCNC(=O)c2ccc(-c3c4nc(c(-c5c(F)cccc5F)c5ccc([nH]5)c(-c5c(F)cccc5F)c5nc(c(-c6c(F)cccc6F)c6ccc3[nH]6)C=C5)C=C4)cc2)c1
REMARK SMILES IDX 12 1 11 2 10 3 8 4 9 5 7 7 2 8 3 9 71 10 4 11 5 12 1 13 6 16
REMARK SMILES IDX 13 18 14 19 15 20 16 22 17 23 18 24 70 25 19 26 69 27 20 28
REMARK SMILES IDX 21 29 22 30 63 31 23 32 68 33 62 34 64 35 24 36 67 37 61 38
REMARK SMILES IDX 60 39 25 41 51 42 34 43 50 44 35 45 38 46 49 47 65 48 36 49
REMARK SMILES IDX 37 50 48 52 66 53 39 54 26 55 27 56 32 57 28 58 29 59 31 60
REMARK SMILES IDX 33 61 30 62 52 63 53 64 58 65 54 66 55 67 57 68 59 69 56 70
REMARK SMILES IDX 40 71 41 72 46 73 42 74 43 75 45 76 47 77 44 78
REMARK H PARENT 10 6 1 14 1 15 6 17 14 21 64 40 38 51
REMARK Flexibility Score: inf
ROOT
ATOM      1  C   UNL A   1      35.208  33.265  28.031  1.00  0.00     0.042 C 
ENDROOT
BRANCH   1   2
ATOM      2  C   UNL A   1      35.272  34.710  28.525  1.00  0.00     0.118 C 
BRANCH   2   3
ATOM      3  N   UNL A   1      33.963  35.330  28.460  1.00  0.00    -0.352 N 
ATOM      4  C   UNL A   1      33.119  35.850  29.403  1.00  0.00     0.255 C 
ATOM      5  O   UNL A   1      32.061  36.336  28.990  1.00  0.00    -0.269 OA
ATOM      6  H   UNL A   1      33.606  35.390  27.543  1.00  0.00     0.163 HD
BRANCH   4   7
ATOM      7  C   UNL A   1      33.407  35.933  30.863  1.00  0.00     0.083 A 
ATOM      8  C   UNL A   1      34.045  34.966  33.017  1.00  0.00     0.032 A 
ATOM      9  C   UNL A   1      34.025  36.237  33.590  1.00  0.00     0.029 A 
ATOM     10  C   UNL A   1      33.660  34.821  31.678  1.00  0.00     0.043 A 
ATOM     11  C   UNL A   1      33.703  37.353  32.823  1.00  0.00     0.049 A 
ATOM     12  C   UNL A   1      33.407  37.202  31.470  1.00  0.00     0.128 A 
BRANCH   8  13
ATOM     13  N   UNL A   1      34.312  33.850  33.796  1.00  0.00    -0.399 N 
ATOM     14  H   UNL A   1      33.581  33.241  34.050  1.00  0.00     0.156 HD
ATOM     15  H   UNL A   1      35.232  33.666  34.093  1.00  0.00     0.156 HD
ENDBRANCH   8  13
BRANCH  12  16
ATOM     16  O   UNL A   1      33.109  38.362  30.802  1.00  0.00    -0.507 OA
ATOM     17  H   UNL A   1      32.385  38.889  31.079  1.00  0.00     0.293 HD
ENDBRANCH  12  16
ENDBRANCH   4   7
ENDBRANCH   2   3
ENDBRANCH   1   2
BRANCH   1  18
ATOM     18  C   UNL A   1      34.613  32.314  29.068  1.00  0.00     0.118 C 
BRANCH  18  19
ATOM     19  N   UNL A   1      34.040  31.124  28.448  1.00  0.00    -0.352 N 
ATOM     20  C   UNL A   1      34.661  29.998  27.966  1.00  0.00     0.251 C 
ATOM     21  H   UNL A   1      33.060  31.130  28.361  1.00  0.00     0.163 HD
ATOM     22  O   UNL A   1      34.042  29.212  27.258  1.00  0.00    -0.269 OA
BRANCH  20  23
ATOM     23  C   UNL A   1      36.077  29.739  28.295  1.00  0.00     0.039 A 
ATOM     24  C   UNL A   1      36.404  29.265  29.568  1.00  0.00     0.014 A 
ATOM     25  C   UNL A   1      37.079  29.981  27.353  1.00  0.00     0.014 A 
ATOM     26  C   UNL A   1      37.734  28.964  29.872  1.00  0.00     0.010 A 
ATOM     27  C   UNL A   1      38.389  29.609  27.631  1.00  0.00     0.010 A 
ATOM     28  C   UNL A   1      38.730  29.096  28.892  1.00  0.00    -0.014 A 
BRANCH  28  29
ATOM     29  C   UNL A   1      40.136  28.696  29.147  1.00  0.00     0.031 A 
ATOM     30  C   UNL A   1      41.100  29.682  29.746  1.00  0.00     0.074 A 
ATOM     31  C   UNL A   1      40.566  27.482  28.749  1.00  0.00     0.049 A 
ATOM     32  N   UNL A   1      42.392  29.576  29.915  1.00  0.00    -0.248 NA
ATOM     33  C   UNL A   1      40.538  30.970  30.182  1.00  0.00     0.031 C 
ATOM     34  C   UNL A   1      39.735  26.453  28.122  1.00  0.00     0.029 A 
ATOM     35  N   UNL A   1      41.816  26.918  28.792  1.00  0.00    -0.354 N 
ATOM     36  C   UNL A   1      42.801  30.789  30.458  1.00  0.00     0.074 A 
ATOM     37  C   UNL A   1      41.628  31.632  30.541  1.00  0.00     0.031 C 
ATOM     38  C   UNL A   1      40.494  25.380  27.851  1.00  0.00     0.029 A 
ATOM     39  C   UNL A   1      41.872  25.662  28.237  1.00  0.00     0.049 A 
ATOM     40  H   UNL A   1      42.599  27.370  29.183  1.00  0.00     0.167 HD
ATOM     41  C   UNL A   1      44.037  31.158  30.866  1.00  0.00     0.037 A 
ATOM     42  C   UNL A   1      42.921  24.840  28.041  1.00  0.00     0.037 A 
ATOM     43  C   UNL A   1      45.195  30.304  30.797  1.00  0.00     0.049 A 
ATOM     44  C   UNL A   1      44.290  25.283  28.478  1.00  0.00     0.074 A 
ATOM     45  C   UNL A   1      46.482  30.562  31.238  1.00  0.00     0.029 A 
ATOM     46  N   UNL A   1      45.206  29.032  30.247  1.00  0.00    -0.354 N 
ATOM     47  N   UNL A   1      44.652  26.407  29.048  1.00  0.00    -0.248 NA
ATOM     48  C   UNL A   1      45.397  24.344  28.248  1.00  0.00     0.031 C 
ATOM     49  C   UNL A   1      47.284  29.466  30.905  1.00  0.00     0.029 A 
ATOM     50  C   UNL A   1      46.485  28.502  30.313  1.00  0.00     0.049 A 
ATOM     51  H   UNL A   1      44.423  28.573  29.867  1.00  0.00     0.167 HD
ATOM     52  C   UNL A   1      46.018  26.297  29.275  1.00  0.00     0.074 A 
ATOM     53  C   UNL A   1      46.418  24.993  28.789  1.00  0.00     0.031 C 
ATOM     54  C   UNL A   1      46.863  27.194  29.839  1.00  0.00     0.037 A 
BRANCH  41  55
ATOM     55  C   UNL A   1      44.203  32.543  31.421  1.00  0.00     0.057 A 
ATOM     56  C   UNL A   1      44.526  33.636  30.604  1.00  0.00     0.134 A 
ATOM     57  C   UNL A   1      44.002  32.796  32.784  1.00  0.00     0.134 A 
ATOM     58  F   UNL A   1      44.741  33.462  29.292  1.00  0.00    -0.206 F 
ATOM     59  C   UNL A   1      44.672  34.922  31.128  1.00  0.00     0.040 A 
ATOM     60  C   UNL A   1      44.115  34.083  33.313  1.00  0.00     0.040 A 
ATOM     61  F   UNL A   1      43.684  31.798  33.623  1.00  0.00    -0.206 F 
ATOM     62  C   UNL A   1      44.458  35.149  32.485  1.00  0.00     0.006 A 
ENDBRANCH  41  55
BRANCH  42  63
ATOM     63  C   UNL A   1      42.718  23.512  27.407  1.00  0.00     0.057 A 
ATOM     64  C   UNL A   1      42.405  22.386  28.177  1.00  0.00     0.134 A 
ATOM     65  C   UNL A   1      42.839  23.332  26.023  1.00  0.00     0.134 A 
ATOM     66  F   UNL A   1      42.292  22.490  29.509  1.00  0.00    -0.206 F 
ATOM     67  C   UNL A   1      42.241  21.126  27.599  1.00  0.00     0.040 A 
ATOM     68  C   UNL A   1      42.651  22.084  25.428  1.00  0.00     0.040 A 
ATOM     69  F   UNL A   1      43.127  24.372  25.227  1.00  0.00    -0.206 F 
ATOM     70  C   UNL A   1      42.359  20.974  26.219  1.00  0.00     0.006 A 
ENDBRANCH  42  63
BRANCH  54  71
ATOM     71  C   UNL A   1      48.297  26.785  30.007  1.00  0.00     0.057 A 
ATOM     72  C   UNL A   1      48.730  26.023  31.100  1.00  0.00     0.134 A 
ATOM     73  C   UNL A   1      49.245  27.104  29.026  1.00  0.00     0.134 A 
ATOM     74  F   UNL A   1      47.875  25.696  32.081  1.00  0.00    -0.206 F 
ATOM     75  C   UNL A   1      50.057  25.606  31.217  1.00  0.00     0.040 A 
ATOM     76  C   UNL A   1      50.566  26.668  29.116  1.00  0.00     0.040 A 
ATOM     77  F   UNL A   1      48.894  27.823  27.949  1.00  0.00    -0.206 F 
ATOM     78  C   UNL A   1      50.976  25.920  30.217  1.00  0.00     0.006 A 
ENDBRANCH  54  71
ENDBRANCH  28  29
ENDBRANCH  20  23
ENDBRANCH  18  19
ENDBRANCH   1  18
TORSDOF 12
ENDMDL
MODEL 2
REMARK VINA RESULT:     -10.9      4.468      9.088
REMARK SMILES Nc1ccc(O)c(C(=O)NCCCNC(=O)c2ccc(-c3c4nc(c(-c5c(F)cccc5F)c5ccc([nH]5)c(-c5c(F)cccc5F)c5nc(c(-c6c(F)cccc6F)c6ccc3[nH]6)C=C5)C=C4)cc2)c1
REMARK SMILES IDX 12 1 11 2 10 3 8 4 9 5 7 7 2 8 3 9 71 10 4 11 5 12 1 13 6 16
REMARK SMILES IDX 13 18 14 19 15 20 16 22 17 23 18 24 70 25 19 26 69 27 20 28
REMARK SMILES IDX 21 29 22 30 63 31 23 32 68 33 62 34 64 35 24 36 67 37 61 38
REMARK SMILES IDX 60 39 25 41 51 42 34 43 50 44 35 45 38 46 49 47 65 48 36 49
REMARK SMILES IDX 37 50 48 52 66 53 39 54 26 55 27 56 32 57 28 58 29 59 31 60
REMARK SMILES IDX 33 61 30 62 52 63 53 64 58 65 54 66 55 67 57 68 59 69 56 70
REMARK SMILES IDX 40 71 41 72 46 73 42 74 43 75 45 76 47 77 44 78
REMARK H PARENT 10 6 1 14 1 15 6 17 14 21 64 40 38 51
REMARK Flexibility Score: inf
ROOT
ATOM      1  C   UNL A   1      31.546  31.415  26.228  1.00  0.00     0.042 C 
ENDROOT
BRANCH   1   2
ATOM      2  C   UNL A   1      31.690  29.910  26.002  1.00  0.00     0.118 C 
BRANCH   2   3
ATOM      3  N   UNL A   1      32.222  29.642  24.680  1.00  0.00    -0.352 N 
ATOM      4  C   UNL A   1      31.659  29.212  23.508  1.00  0.00     0.255 C 
ATOM      5  O   UNL A   1      32.416  29.110  22.537  1.00  0.00    -0.269 OA
ATOM      6  H   UNL A   1      33.191  29.803  24.610  1.00  0.00     0.163 HD
BRANCH   4   7
ATOM      7  C   UNL A   1      30.211  28.926  23.303  1.00  0.00     0.083 A 
ATOM      8  C   UNL A   1      28.200  27.561  23.571  1.00  0.00     0.032 A 
ATOM      9  C   UNL A   1      27.447  28.551  22.939  1.00  0.00     0.029 A 
ATOM     10  C   UNL A   1      29.587  27.728  23.675  1.00  0.00     0.043 A 
ATOM     11  C   UNL A   1      28.054  29.720  22.490  1.00  0.00     0.049 A 
ATOM     12  C   UNL A   1      29.421  29.909  22.679  1.00  0.00     0.128 A 
BRANCH   8  13
ATOM     13  N   UNL A   1      27.603  26.373  23.967  1.00  0.00    -0.399 N 
ATOM     14  H   UNL A   1      26.705  26.140  23.639  1.00  0.00     0.156 HD
ATOM     15  H   UNL A   1      28.079  25.763  24.576  1.00  0.00     0.156 HD
ENDBRANCH   8  13
BRANCH  12  16
ATOM     16  O   UNL A   1      29.921  31.096  22.207  1.00  0.00    -0.507 OA
ATOM     17  H   UNL A   1      30.728  31.107  21.731  1.00  0.00     0.293 HD
ENDBRANCH  12  16
ENDBRANCH   4   7
ENDBRANCH   2   3
ENDBRANCH   1   2
BRANCH   1  18
ATOM     18  C   UNL A   1      32.707  32.003  27.030  1.00  0.00     0.118 C 
BRANCH  18  19
ATOM     19  N   UNL A   1      32.486  33.409  27.351  1.00  0.00    -0.352 N 
ATOM     20  C   UNL A   1      33.071  34.193  28.315  1.00  0.00     0.251 C 
ATOM     21  H   UNL A   1      31.815  33.864  26.793  1.00  0.00     0.163 HD
ATOM     22  O   UNL A   1      32.584  35.281  28.599  1.00  0.00    -0.269 OA
BRANCH  20  23
ATOM     23  C   UNL A   1      34.282  33.719  29.015  1.00  0.00     0.039 A 
ATOM     24  C   UNL A   1      34.149  32.806  30.063  1.00  0.00     0.014 A 
ATOM     25  C   UNL A   1      35.543  34.190  28.645  1.00  0.00     0.014 A 
ATOM     26  C   UNL A   1      35.291  32.308  30.695  1.00  0.00     0.010 A 
ATOM     27  C   UNL A   1      36.681  33.638  29.223  1.00  0.00     0.010 A 
ATOM     28  C   UNL A   1      36.566  32.691  30.252  1.00  0.00    -0.014 A 
BRANCH  28  29
ATOM     29  C   UNL A   1      37.803  32.112  30.835  1.00  0.00     0.031 A 
ATOM     30  C   UNL A   1      38.526  31.008  30.116  1.00  0.00     0.074 A 
ATOM     31  C   UNL A   1      38.215  32.512  32.054  1.00  0.00     0.049 A 
ATOM     32  N   UNL A   1      39.534  30.279  30.520  1.00  0.00    -0.248 NA
ATOM     33  C   UNL A   1      38.028  30.658  28.776  1.00  0.00     0.031 C 
ATOM     34  C   UNL A   1      37.574  33.548  32.867  1.00  0.00     0.029 A 
ATOM     35  N   UNL A   1      39.257  32.077  32.833  1.00  0.00    -0.354 N 
ATOM     36  C   UNL A   1      39.777  29.371  29.495  1.00  0.00     0.074 A 
ATOM     37  C   UNL A   1      38.780  29.609  28.474  1.00  0.00     0.031 C 
ATOM     38  C   UNL A   1      38.245  33.677  34.022  1.00  0.00     0.029 A 
ATOM     39  C   UNL A   1      39.329  32.702  34.055  1.00  0.00     0.049 A 
ATOM     40  H   UNL A   1      39.894  31.384  32.543  1.00  0.00     0.167 HD
ATOM     41  C   UNL A   1      40.754  28.439  29.407  1.00  0.00     0.037 A 
ATOM     42  C   UNL A   1      40.161  32.495  35.094  1.00  0.00     0.037 A 
ATOM     43  C   UNL A   1      41.754  28.224  30.420  1.00  0.00     0.049 A 
ATOM     44  C   UNL A   1      41.221  31.434  34.982  1.00  0.00     0.074 A 
ATOM     45  C   UNL A   1      42.822  27.344  30.401  1.00  0.00     0.029 A 
ATOM     46  N   UNL A   1      41.804  28.890  31.634  1.00  0.00    -0.354 N 
ATOM     47  N   UNL A   1      41.481  30.627  33.982  1.00  0.00    -0.248 NA
ATOM     48  C   UNL A   1      42.107  31.257  36.142  1.00  0.00     0.031 C 
ATOM     49  C   UNL A   1      43.487  27.439  31.627  1.00  0.00     0.029 A 
ATOM     50  C   UNL A   1      42.870  28.421  32.385  1.00  0.00     0.049 A 
ATOM     51  H   UNL A   1      41.176  29.592  31.921  1.00  0.00     0.167 HD
ATOM     52  C   UNL A   1      42.576  29.871  34.377  1.00  0.00     0.074 A 
ATOM     53  C   UNL A   1      42.939  30.322  35.704  1.00  0.00     0.031 C 
ATOM     54  C   UNL A   1      43.227  28.894  33.699  1.00  0.00     0.037 A 
BRANCH  41  55
ATOM     55  C   UNL A   1      40.787  27.581  28.175  1.00  0.00     0.057 A 
ATOM     56  C   UNL A   1      41.518  27.946  27.036  1.00  0.00     0.134 A 
ATOM     57  C   UNL A   1      40.109  26.355  28.139  1.00  0.00     0.134 A 
ATOM     58  F   UNL A   1      42.182  29.111  26.999  1.00  0.00    -0.206 F 
ATOM     59  C   UNL A   1      41.549  27.139  25.898  1.00  0.00     0.040 A 
ATOM     60  C   UNL A   1      40.158  25.525  27.018  1.00  0.00     0.040 A 
ATOM     61  F   UNL A   1      39.396  25.940  29.197  1.00  0.00    -0.206 F 
ATOM     62  C   UNL A   1      40.873  25.921  25.890  1.00  0.00     0.006 A 
ENDBRANCH  41  55
BRANCH  42  63
ATOM     63  C   UNL A   1      40.031  33.313  36.327  1.00  0.00     0.057 A 
ATOM     64  C   UNL A   1      39.176  32.923  37.363  1.00  0.00     0.134 A 
ATOM     65  C   UNL A   1      40.749  34.503  36.498  1.00  0.00     0.134 A 
ATOM     66  F   UNL A   1      38.449  31.802  37.252  1.00  0.00    -0.206 F 
ATOM     67  C   UNL A   1      39.021  33.697  38.515  1.00  0.00     0.040 A 
ATOM     68  C   UNL A   1      40.625  35.273  37.655  1.00  0.00     0.040 A 
ATOM     69  F   UNL A   1      41.594  34.928  35.546  1.00  0.00    -0.206 F 
ATOM     70  C   UNL A   1      39.751  34.874  38.665  1.00  0.00     0.006 A 
ENDBRANCH  42  63
BRANCH  54  71
ATOM     71  C   UNL A   1      44.426  28.275  34.355  1.00  0.00     0.057 A 
ATOM     72  C   UNL A   1      44.335  27.107  35.122  1.00  0.00     0.134 A 
ATOM     73  C   UNL A   1      45.701  28.822  34.161  1.00  0.00     0.134 A 
ATOM     74  F   UNL A   1      43.142  26.540  35.357  1.00  0.00    -0.206 F 
ATOM     75  C   UNL A   1      45.467  26.514  35.684  1.00  0.00     0.040 A 
ATOM     76  C   UNL A   1      46.843  28.223  34.692  1.00  0.00     0.040 A 
ATOM     77  F   UNL A   1      45.860  29.936  33.429  1.00  0.00    -0.206 F 
ATOM     78  C   UNL A   1      46.727  27.067  35.460  1.00  0.00     0.006 A 
ENDBRANCH  54  71
ENDBRANCH  28  29
ENDBRANCH  20  23
ENDBRANCH  18  19
ENDBRANCH   1  18
TORSDOF 12
ENDMDL
MODEL 3
REMARK VINA RESULT:     -10.9      3.097      5.113
REMARK SMILES Nc1ccc(O)c(C(=O)NCCCNC(=O)c2ccc(-c3c4nc(c(-c5c(F)cccc5F)c5ccc([nH]5)c(-c5c(F)cccc5F)c5nc(c(-c6c(F)cccc6F)c6ccc3[nH]6)C=C5)C=C4)cc2)c1
REMARK SMILES IDX 12 1 11 2 10 3 8 4 9 5 7 7 2 8 3 9 71 10 4 11 5 12 1 13 6 16
REMARK SMILES IDX 13 18 14 19 15 20 16 22 17 23 18 24 70 25 19 26 69 27 20 28
REMARK SMILES IDX 21 29 22 30 63 31 23 32 68 33 62 34 64 35 24 36 67 37 61 38
REMARK SMILES IDX 60 39 25 41 51 42 34 43 50 44 35 45 38 46 49 47 65 48 36 49
REMARK SMILES IDX 37 50 48 52 66 53 39 54 26 55 27 56 32 57 28 58 29 59 31 60
REMARK SMILES IDX 33 61 30 62 52 63 53 64 58 65 54 66 55 67 57 68 59 69 56 70
REMARK SMILES IDX 40 71 41 72 46 73 42 74 43 75 45 76 47 77 44 78
REMARK H PARENT 10 6 1 14 1 15 6 17 14 21 64 40 38 51
REMARK Flexibility Score: inf
ROOT
ATOM      1  C   UNL A   1      33.712  28.349  25.704  1.00  0.00     0.042 C 
ENDROOT
BRANCH   1   2
ATOM      2  C   UNL A   1      32.356  28.491  25.013  1.00  0.00     0.118 C 
BRANCH   2   3
ATOM      3  N   UNL A   1      32.284  27.630  23.849  1.00  0.00    -0.352 N 
ATOM      4  C   UNL A   1      31.363  27.473  22.848  1.00  0.00     0.255 C 
ATOM      5  O   UNL A   1      31.633  26.643  21.974  1.00  0.00    -0.269 OA
ATOM      6  H   UNL A   1      33.062  27.032  23.759  1.00  0.00     0.163 HD
BRANCH   4   7
ATOM      7  C   UNL A   1      30.110  28.266  22.701  1.00  0.00     0.083 A 
ATOM      8  C   UNL A   1      27.718  28.644  23.042  1.00  0.00     0.032 A 
ATOM      9  C   UNL A   1      27.835  29.901  22.450  1.00  0.00     0.029 A 
ATOM     10  C   UNL A   1      28.843  27.811  23.090  1.00  0.00     0.043 A 
ATOM     11  C   UNL A   1      29.068  30.351  21.984  1.00  0.00     0.049 A 
ATOM     12  C   UNL A   1      30.195  29.544  22.118  1.00  0.00     0.128 A 
BRANCH   8  13
ATOM     13  N   UNL A   1      26.479  28.177  23.454  1.00  0.00    -0.399 N 
ATOM     14  H   UNL A   1      26.342  27.904  24.390  1.00  0.00     0.156 HD
ATOM     15  H   UNL A   1      25.736  28.120  22.811  1.00  0.00     0.156 HD
ENDBRANCH   8  13
BRANCH  12  16
ATOM     16  O   UNL A   1      31.361  30.079  21.635  1.00  0.00    -0.507 OA
ATOM     17  H   UNL A   1      32.047  29.515  21.335  1.00  0.00     0.293 HD
ENDBRANCH  12  16
ENDBRANCH   4   7
ENDBRANCH   2   3
ENDBRANCH   1   2
BRANCH   1  18
ATOM     18  C   UNL A   1      33.627  28.562  27.215  1.00  0.00     0.118 C 
BRANCH  18  19
ATOM     19  N   UNL A   1      33.641  29.978  27.564  1.00  0.00    -0.352 N 
ATOM     20  C   UNL A   1      34.598  30.714  28.219  1.00  0.00     0.251 C 
ATOM     21  H   UNL A   1      32.842  30.484  27.290  1.00  0.00     0.163 HD
ATOM     22  O   UNL A   1      34.330  31.833  28.640  1.00  0.00    -0.269 OA
BRANCH  20  23
ATOM     23  C   UNL A   1      35.949  30.151  28.422  1.00  0.00     0.039 A 
ATOM     24  C   UNL A   1      36.869  30.194  27.372  1.00  0.00     0.014 A 
ATOM     25  C   UNL A   1      36.297  29.568  29.642  1.00  0.00     0.014 A 
ATOM     26  C   UNL A   1      38.166  29.716  27.570  1.00  0.00     0.010 A 
ATOM     27  C   UNL A   1      37.608  29.163  29.862  1.00  0.00     0.010 A 
ATOM     28  C   UNL A   1      38.557  29.234  28.829  1.00  0.00    -0.014 A 
BRANCH  28  29
ATOM     29  C   UNL A   1      39.951  28.807  29.105  1.00  0.00     0.031 A 
ATOM     30  C   UNL A   1      40.925  29.774  29.716  1.00  0.00     0.074 A 
ATOM     31  C   UNL A   1      40.361  27.583  28.716  1.00  0.00     0.049 A 
ATOM     32  N   UNL A   1      42.213  29.642  29.905  1.00  0.00    -0.248 NA
ATOM     33  C   UNL A   1      40.383  31.074  30.143  1.00  0.00     0.031 C 
ATOM     34  C   UNL A   1      39.518  26.570  28.078  1.00  0.00     0.029 A 
ATOM     35  N   UNL A   1      41.599  26.995  28.777  1.00  0.00    -0.354 N 
ATOM     36  C   UNL A   1      42.638  30.847  30.451  1.00  0.00     0.074 A 
ATOM     37  C   UNL A   1      41.482  31.714  30.517  1.00  0.00     0.031 C 
ATOM     38  C   UNL A   1      40.259  25.482  27.820  1.00  0.00     0.029 A 
ATOM     39  C   UNL A   1      41.637  25.736  28.224  1.00  0.00     0.049 A 
ATOM     40  H   UNL A   1      42.385  27.431  29.179  1.00  0.00     0.167 HD
ATOM     41  C   UNL A   1      43.876  31.191  30.877  1.00  0.00     0.037 A 
ATOM     42  C   UNL A   1      42.672  24.893  28.045  1.00  0.00     0.037 A 
ATOM     43  C   UNL A   1      45.017  30.315  30.826  1.00  0.00     0.049 A 
ATOM     44  C   UNL A   1      44.043  25.309  28.501  1.00  0.00     0.074 A 
ATOM     45  C   UNL A   1      46.302  30.547  31.285  1.00  0.00     0.029 A 
ATOM     46  N   UNL A   1      45.010  29.041  30.278  1.00  0.00    -0.354 N 
ATOM     47  N   UNL A   1      44.420  26.426  29.075  1.00  0.00    -0.248 NA
ATOM     48  C   UNL A   1      45.134  24.347  28.288  1.00  0.00     0.031 C 
ATOM     49  C   UNL A   1      47.086  29.434  30.965  1.00  0.00     0.029 A 
ATOM     50  C   UNL A   1      46.277  28.485  30.362  1.00  0.00     0.049 A 
ATOM     51  H   UNL A   1      44.223  28.598  29.887  1.00  0.00     0.167 HD
ATOM     52  C   UNL A   1      45.780  26.289  29.321  1.00  0.00     0.074 A 
ATOM     53  C   UNL A   1      46.160  24.976  28.843  1.00  0.00     0.031 C 
ATOM     54  C   UNL A   1      46.635  27.170  29.896  1.00  0.00     0.037 A 
BRANCH  41  55
ATOM     55  C   UNL A   1      44.062  32.574  31.432  1.00  0.00     0.057 A 
ATOM     56  C   UNL A   1      44.369  33.668  30.612  1.00  0.00     0.134 A 
ATOM     57  C   UNL A   1      43.897  32.823  32.801  1.00  0.00     0.134 A 
ATOM     58  F   UNL A   1      44.551  33.498  29.293  1.00  0.00    -0.206 F 
ATOM     59  C   UNL A   1      44.534  34.951  31.135  1.00  0.00     0.040 A 
ATOM     60  C   UNL A   1      44.028  34.108  33.332  1.00  0.00     0.040 A 
ATOM     61  F   UNL A   1      43.595  31.824  33.644  1.00  0.00    -0.206 F 
ATOM     62  C   UNL A   1      44.356  35.175  32.498  1.00  0.00     0.006 A 
ENDBRANCH  41  55
BRANCH  42  63
ATOM     63  C   UNL A   1      42.451  23.568  27.410  1.00  0.00     0.057 A 
ATOM     64  C   UNL A   1      42.078  22.457  28.173  1.00  0.00     0.134 A 
ATOM     65  C   UNL A   1      42.614  23.378  26.032  1.00  0.00     0.134 A 
ATOM     66  F   UNL A   1      41.922  22.571  29.500  1.00  0.00    -0.206 F 
ATOM     67  C   UNL A   1      41.897  21.199  27.595  1.00  0.00     0.040 A 
ATOM     68  C   UNL A   1      42.409  22.133  25.436  1.00  0.00     0.040 A 
ATOM     69  F   UNL A   1      42.961  24.405  25.242  1.00  0.00    -0.206 F 
ATOM     70  C   UNL A   1      42.058  21.036  26.221  1.00  0.00     0.006 A 
ENDBRANCH  42  63
BRANCH  54  71
ATOM     71  C   UNL A   1      48.058  26.731  30.085  1.00  0.00     0.057 A 
ATOM     72  C   UNL A   1      48.473  26.020  31.218  1.00  0.00     0.134 A 
ATOM     73  C   UNL A   1      49.011  26.970  29.087  1.00  0.00     0.134 A 
ATOM     74  F   UNL A   1      47.612  25.771  32.217  1.00  0.00    -0.206 F 
ATOM     75  C   UNL A   1      49.788  25.575  31.357  1.00  0.00     0.040 A 
ATOM     76  C   UNL A   1      50.321  26.504  29.200  1.00  0.00     0.040 A 
ATOM     77  F   UNL A   1      48.677  27.637  27.972  1.00  0.00    -0.206 F 
ATOM     78  C   UNL A   1      50.713  25.807  30.341  1.00  0.00     0.006 A 
ENDBRANCH  54  71
ENDBRANCH  28  29
ENDBRANCH  20  23
ENDBRANCH  18  19
ENDBRANCH   1  18
TORSDOF 12
ENDMDL
