MODEL 1
REMARK VINA RESULT:     -12.5      0.000      0.000
REMARK SMILES CCC(=O)Nc1cc(NC(=O)/C=C/C(=O)NCCCNC(=O)c2ccc(-c3c4nc(c(-c5c(F)cccc5F)c5ccc([nH]5)c(-c5c(F)cccc5F)c5nc(c(-c6c(F)cccc6F)c6ccc3[nH]6)C=C5)C=C4)cc2)ccc1C
REMARK SMILES IDX 17 1 16 2 14 3 15 4 13 6 12 7 10 8 9 9 11 11 8 12 6 13 7 14
REMARK SMILES IDX 79 15 78 16 80 17 77 18 5 19 3 20 4 21 2 23 1 24 18 25 19 26
REMARK SMILES IDX 20 27 21 28 22 30 23 31 24 32 76 33 25 34 75 35 26 36 27 37
REMARK SMILES IDX 28 38 69 39 29 40 74 41 68 42 70 43 30 44 73 45 67 46 66 47
REMARK SMILES IDX 31 49 57 50 40 51 56 52 41 53 44 54 55 55 71 56 42 57 43 58
REMARK SMILES IDX 54 60 72 61 45 62 32 63 33 64 38 65 34 66 35 67 37 68 39 69
REMARK SMILES IDX 36 70 58 71 59 72 64 73 60 74 61 75 63 76 65 77 62 78 46 79
REMARK SMILES IDX 47 80 52 81 48 82 49 83 51 84 53 85 50 86
REMARK H PARENT 16 5 9 10 5 22 20 29 70 48 44 59
REMARK Flexibility Score: inf
ROOT
ATOM      1  C   UNL A   1      37.899  23.247  25.946  1.00  0.00     0.118 C 
ENDROOT
BRANCH   1   2
ATOM      2  N   UNL A   1      37.499  23.321  24.548  1.00  0.00    -0.352 N 
ATOM      3  C   UNL A   1      36.321  22.959  23.970  1.00  0.00     0.244 C 
ATOM      4  O   UNL A   1      36.159  23.037  22.755  1.00  0.00    -0.270 OA
ATOM      5  H   UNL A   1      38.177  23.684  23.933  1.00  0.00     0.163 HD
BRANCH   3   6
ATOM      6  C   UNL A   1      35.211  22.462  24.807  1.00  0.00     0.077 C 
ATOM      7  C   UNL A   1      34.010  22.257  24.247  1.00  0.00     0.077 C 
BRANCH   7   8
ATOM      8  C   UNL A   1      32.995  21.455  24.943  1.00  0.00     0.248 C 
ATOM      9  N   UNL A   1      31.765  21.989  25.214  1.00  0.00    -0.322 N 
ATOM     10  H   UNL A   1      31.174  21.393  25.729  1.00  0.00     0.170 HD
ATOM     11  O   UNL A   1      33.272  20.305  25.280  1.00  0.00    -0.270 OA
BRANCH   9  12
ATOM     12  C   UNL A   1      31.183  23.235  24.894  1.00  0.00     0.043 A 
ATOM     13  C   UNL A   1      30.618  25.548  25.418  1.00  0.00     0.046 A 
ATOM     14  C   UNL A   1      30.902  24.241  25.818  1.00  0.00     0.052 A 
ATOM     15  C   UNL A   1      30.553  25.855  24.055  1.00  0.00    -0.027 A 
ATOM     16  C   UNL A   1      30.648  24.802  23.128  1.00  0.00     0.008 A 
ATOM     17  C   UNL A   1      30.568  27.258  23.515  1.00  0.00     0.046 C 
ATOM     18  C   UNL A   1      30.962  23.505  23.545  1.00  0.00     0.026 A 
BRANCH  13  19
ATOM     19  N   UNL A   1      30.681  26.530  26.416  1.00  0.00    -0.326 N 
ATOM     20  C   UNL A   1      31.774  27.127  26.979  1.00  0.00     0.224 C 
ATOM     21  O   UNL A   1      31.632  27.809  27.997  1.00  0.00    -0.275 OA
ATOM     22  H   UNL A   1      29.811  26.834  26.761  1.00  0.00     0.169 HD
BRANCH  20  23
ATOM     23  C   UNL A   1      33.113  27.076  26.269  1.00  0.00     0.097 C 
ATOM     24  C   UNL A   1      33.989  28.299  26.422  1.00  0.00     0.014 C 
ENDBRANCH  20  23
ENDBRANCH  13  19
ENDBRANCH   9  12
ENDBRANCH   7   8
ENDBRANCH   3   6
ENDBRANCH   1   2
BRANCH   1  25
ATOM     25  C   UNL A   1      39.092  22.321  26.170  1.00  0.00     0.042 C 
BRANCH  25  26
ATOM     26  C   UNL A   1      40.008  22.817  27.279  1.00  0.00     0.118 C 
BRANCH  26  27
ATOM     27  N   UNL A   1      41.287  23.325  26.793  1.00  0.00    -0.352 N 
ATOM     28  C   UNL A   1      41.670  24.637  26.562  1.00  0.00     0.251 C 
ATOM     29  H   UNL A   1      41.970  22.642  26.603  1.00  0.00     0.163 HD
ATOM     30  O   UNL A   1      42.786  24.898  26.164  1.00  0.00    -0.269 OA
BRANCH  28  31
ATOM     31  C   UNL A   1      40.730  25.720  26.943  1.00  0.00     0.039 A 
ATOM     32  C   UNL A   1      40.859  26.944  26.282  1.00  0.00     0.014 A 
ATOM     33  C   UNL A   1      39.933  25.603  28.080  1.00  0.00     0.014 A 
ATOM     34  C   UNL A   1      40.400  28.099  26.908  1.00  0.00     0.010 A 
ATOM     35  C   UNL A   1      39.553  26.755  28.744  1.00  0.00     0.010 A 
ATOM     36  C   UNL A   1      39.858  28.004  28.193  1.00  0.00    -0.014 A 
BRANCH  36  37
ATOM     37  C   UNL A   1      39.759  29.164  29.072  1.00  0.00     0.031 A 
ATOM     38  C   UNL A   1      38.685  30.162  28.903  1.00  0.00     0.074 A 
ATOM     39  C   UNL A   1      40.679  29.341  30.046  1.00  0.00     0.049 A 
ATOM     40  N   UNL A   1      38.834  31.425  29.128  1.00  0.00    -0.248 NA
ATOM     41  C   UNL A   1      37.355  29.805  28.429  1.00  0.00     0.031 C 
ATOM     42  C   UNL A   1      40.650  30.328  31.121  1.00  0.00     0.029 A 
ATOM     43  N   UNL A   1      41.957  28.768  30.128  1.00  0.00    -0.354 N 
ATOM     44  C   UNL A   1      37.588  32.003  29.078  1.00  0.00     0.074 A 
ATOM     45  C   UNL A   1      36.710  30.966  28.579  1.00  0.00     0.031 C 
ATOM     46  C   UNL A   1      41.900  30.507  31.575  1.00  0.00     0.029 A 
ATOM     47  C   UNL A   1      42.790  29.741  30.719  1.00  0.00     0.049 A 
ATOM     48  H   UNL A   1      42.220  27.867  29.832  1.00  0.00     0.167 HD
ATOM     49  C   UNL A   1      37.386  33.250  29.593  1.00  0.00     0.037 A 
ATOM     50  C   UNL A   1      43.881  30.241  30.075  1.00  0.00     0.037 A 
ATOM     51  C   UNL A   1      38.608  33.803  30.168  1.00  0.00     0.049 A 
ATOM     52  C   UNL A   1      43.850  31.736  29.874  1.00  0.00     0.074 A 
ATOM     53  C   UNL A   1      39.092  33.812  31.466  1.00  0.00     0.029 A 
ATOM     54  N   UNL A   1      39.668  34.173  29.349  1.00  0.00    -0.354 N 
ATOM     55  N   UNL A   1      42.771  32.459  29.969  1.00  0.00    -0.248 NA
ATOM     56  C   UNL A   1      45.019  32.521  29.480  1.00  0.00     0.031 C 
ATOM     57  C   UNL A   1      40.464  34.145  31.424  1.00  0.00     0.029 A 
ATOM     58  C   UNL A   1      40.815  34.350  30.102  1.00  0.00     0.049 A 
ATOM     59  H   UNL A   1      39.612  34.291  28.373  1.00  0.00     0.167 HD
ATOM     60  C   UNL A   1      43.055  33.744  29.587  1.00  0.00     0.074 A 
ATOM     61  C   UNL A   1      44.482  33.742  29.327  1.00  0.00     0.031 C 
ATOM     62  C   UNL A   1      42.082  34.694  29.480  1.00  0.00     0.037 A 
BRANCH  49  63
ATOM     63  C   UNL A   1      36.006  33.795  29.868  1.00  0.00     0.057 A 
ATOM     64  C   UNL A   1      35.176  34.257  28.828  1.00  0.00     0.134 A 
ATOM     65  C   UNL A   1      35.464  33.944  31.156  1.00  0.00     0.134 A 
ATOM     66  F   UNL A   1      35.489  34.075  27.540  1.00  0.00    -0.206 F 
ATOM     67  C   UNL A   1      33.977  34.942  29.059  1.00  0.00     0.040 A 
ATOM     68  C   UNL A   1      34.291  34.673  31.407  1.00  0.00     0.040 A 
ATOM     69  F   UNL A   1      36.040  33.368  32.222  1.00  0.00    -0.206 F 
ATOM     70  C   UNL A   1      33.553  35.194  30.355  1.00  0.00     0.006 A 
ENDBRANCH  49  63
BRANCH  50  71
ATOM     71  C   UNL A   1      44.513  29.295  29.120  1.00  0.00     0.057 A 
ATOM     72  C   UNL A   1      45.421  28.339  29.600  1.00  0.00     0.134 A 
ATOM     73  C   UNL A   1      44.010  29.109  27.830  1.00  0.00     0.134 A 
ATOM     74  F   UNL A   1      45.938  28.456  30.833  1.00  0.00    -0.206 F 
ATOM     75  C   UNL A   1      45.749  27.198  28.863  1.00  0.00     0.040 A 
ATOM     76  C   UNL A   1      44.335  27.973  27.081  1.00  0.00     0.040 A 
ATOM     77  F   UNL A   1      43.121  29.968  27.312  1.00  0.00    -0.206 F 
ATOM     78  C   UNL A   1      45.179  26.998  27.609  1.00  0.00     0.006 A 
ENDBRANCH  50  71
BRANCH  62  79
ATOM     79  C   UNL A   1      42.263  36.053  28.863  1.00  0.00     0.057 A 
ATOM     80  C   UNL A   1      42.952  37.105  29.483  1.00  0.00     0.134 A 
ATOM     81  C   UNL A   1      41.855  36.295  27.535  1.00  0.00     0.134 A 
ATOM     82  F   UNL A   1      43.484  36.969  30.706  1.00  0.00    -0.206 F 
ATOM     83  C   UNL A   1      43.170  38.334  28.847  1.00  0.00     0.040 A 
ATOM     84  C   UNL A   1      42.109  37.500  26.874  1.00  0.00     0.040 A 
ATOM     85  F   UNL A   1      41.211  35.360  26.819  1.00  0.00    -0.206 F 
ATOM     86  C   UNL A   1      42.757  38.532  27.536  1.00  0.00     0.006 A 
ENDBRANCH  62  79
ENDBRANCH  36  37
ENDBRANCH  28  31
ENDBRANCH  26  27
ENDBRANCH  25  26
ENDBRANCH   1  25
TORSDOF 14
ENDMDL
MODEL 2
REMARK VINA RESULT:     -12.4      3.851      9.143
REMARK SMILES CCC(=O)Nc1cc(NC(=O)/C=C/C(=O)NCCCNC(=O)c2ccc(-c3c4nc(c(-c5c(F)cccc5F)c5ccc([nH]5)c(-c5c(F)cccc5F)c5nc(c(-c6c(F)cccc6F)c6ccc3[nH]6)C=C5)C=C4)cc2)ccc1C
REMARK SMILES IDX 17 1 16 2 14 3 15 4 13 6 12 7 10 8 9 9 11 11 8 12 6 13 7 14
REMARK SMILES IDX 79 15 78 16 80 17 77 18 5 19 3 20 4 21 2 23 1 24 18 25 19 26
REMARK SMILES IDX 20 27 21 28 22 30 23 31 24 32 76 33 25 34 75 35 26 36 27 37
REMARK SMILES IDX 28 38 69 39 29 40 74 41 68 42 70 43 30 44 73 45 67 46 66 47
REMARK SMILES IDX 31 49 57 50 40 51 56 52 41 53 44 54 55 55 71 56 42 57 43 58
REMARK SMILES IDX 54 60 72 61 45 62 32 63 33 64 38 65 34 66 35 67 37 68 39 69
REMARK SMILES IDX 36 70 58 71 59 72 64 73 60 74 61 75 63 76 65 77 62 78 46 79
REMARK SMILES IDX 47 80 52 81 48 82 49 83 51 84 53 85 50 86
REMARK H PARENT 16 5 9 10 5 22 20 29 70 48 44 59
REMARK Flexibility Score: inf
ROOT
ATOM      1  C   UNL A   1      32.893  29.588  25.147  1.00  0.00     0.118 C 
ENDROOT
BRANCH   1   2
ATOM      2  N   UNL A   1      31.686  29.474  24.339  1.00  0.00    -0.352 N 
ATOM      3  C   UNL A   1      31.421  28.633  23.303  1.00  0.00     0.244 C 
ATOM      4  O   UNL A   1      30.361  28.700  22.685  1.00  0.00    -0.270 OA
ATOM      5  H   UNL A   1      30.959  30.093  24.577  1.00  0.00     0.163 HD
BRANCH   3   6
ATOM      6  C   UNL A   1      32.416  27.618  22.903  1.00  0.00     0.077 C 
ATOM      7  C   UNL A   1      31.998  26.393  22.553  1.00  0.00     0.077 C 
BRANCH   7   8
ATOM      8  C   UNL A   1      32.896  25.481  21.834  1.00  0.00     0.248 C 
ATOM      9  N   UNL A   1      33.453  24.412  22.482  1.00  0.00    -0.322 N 
ATOM     10  H   UNL A   1      34.081  23.892  21.930  1.00  0.00     0.170 HD
ATOM     11  O   UNL A   1      33.141  25.697  20.648  1.00  0.00    -0.270 OA
BRANCH   9  12
ATOM     12  C   UNL A   1      33.296  23.915  23.794  1.00  0.00     0.043 A 
ATOM     13  C   UNL A   1      32.698  22.160  25.377  1.00  0.00     0.046 A 
ATOM     14  C   UNL A   1      32.570  22.772  24.129  1.00  0.00     0.052 A 
ATOM     15  C   UNL A   1      33.529  22.732  26.346  1.00  0.00    -0.027 A 
ATOM     16  C   UNL A   1      34.111  23.982  26.073  1.00  0.00     0.008 A 
ATOM     17  C   UNL A   1      33.984  22.011  27.585  1.00  0.00     0.046 C 
ATOM     18  C   UNL A   1      33.995  24.567  24.808  1.00  0.00     0.026 A 
BRANCH  13  19
ATOM     19  N   UNL A   1      32.189  20.859  25.484  1.00  0.00    -0.326 N 
ATOM     20  C   UNL A   1      32.691  19.687  24.993  1.00  0.00     0.224 C 
ATOM     21  O   UNL A   1      31.986  18.675  25.004  1.00  0.00    -0.275 OA
ATOM     22  H   UNL A   1      31.348  20.777  25.988  1.00  0.00     0.169 HD
BRANCH  20  23
ATOM     23  C   UNL A   1      34.150  19.600  24.587  1.00  0.00     0.097 C 
ATOM     24  C   UNL A   1      34.728  18.207  24.487  1.00  0.00     0.014 C 
ENDBRANCH  20  23
ENDBRANCH  13  19
ENDBRANCH   9  12
ENDBRANCH   7   8
ENDBRANCH   3   6
ENDBRANCH   1   2
BRANCH   1  25
ATOM     25  C   UNL A   1      32.669  30.378  26.434  1.00  0.00     0.042 C 
BRANCH  25  26
ATOM     26  C   UNL A   1      33.630  29.966  27.539  1.00  0.00     0.118 C 
BRANCH  26  27
ATOM     27  N   UNL A   1      34.130  31.090  28.324  1.00  0.00    -0.352 N 
ATOM     28  C   UNL A   1      35.364  31.241  28.937  1.00  0.00     0.251 C 
ATOM     29  H   UNL A   1      33.506  31.843  28.432  1.00  0.00     0.163 HD
ATOM     30  O   UNL A   1      35.634  32.253  29.551  1.00  0.00    -0.269 OA
BRANCH  28  31
ATOM     31  C   UNL A   1      36.393  30.197  28.711  1.00  0.00     0.039 A 
ATOM     32  C   UNL A   1      36.705  29.360  29.785  1.00  0.00     0.014 A 
ATOM     33  C   UNL A   1      37.190  30.218  27.568  1.00  0.00     0.014 A 
ATOM     34  C   UNL A   1      37.952  28.743  29.817  1.00  0.00     0.010 A 
ATOM     35  C   UNL A   1      38.460  29.678  27.635  1.00  0.00     0.010 A 
ATOM     36  C   UNL A   1      38.867  29.007  28.794  1.00  0.00    -0.014 A 
BRANCH  36  37
ATOM     37  C   UNL A   1      40.296  28.766  28.960  1.00  0.00     0.031 A 
ATOM     38  C   UNL A   1      40.939  27.561  28.404  1.00  0.00     0.074 A 
ATOM     39  C   UNL A   1      41.043  29.654  29.656  1.00  0.00     0.049 A 
ATOM     40  N   UNL A   1      41.922  26.943  28.969  1.00  0.00    -0.248 NA
ATOM     41  C   UNL A   1      40.489  26.936  27.167  1.00  0.00     0.031 C 
ATOM     42  C   UNL A   1      42.497  29.678  29.780  1.00  0.00     0.029 A 
ATOM     43  N   UNL A   1      40.594  30.613  30.575  1.00  0.00    -0.354 N 
ATOM     44  C   UNL A   1      42.395  26.014  28.073  1.00  0.00     0.074 A 
ATOM     45  C   UNL A   1      41.432  26.006  26.992  1.00  0.00     0.031 C 
ATOM     46  C   UNL A   1      42.823  30.373  30.881  1.00  0.00     0.029 A 
ATOM     47  C   UNL A   1      41.588  30.702  31.572  1.00  0.00     0.049 A 
ATOM     48  H   UNL A   1      39.753  31.122  30.533  1.00  0.00     0.167 HD
ATOM     49  C   UNL A   1      43.621  25.443  28.255  1.00  0.00     0.037 A 
ATOM     50  C   UNL A   1      41.323  30.425  32.879  1.00  0.00     0.037 A 
ATOM     51  C   UNL A   1      44.286  25.958  29.448  1.00  0.00     0.049 A 
ATOM     52  C   UNL A   1      42.160  29.312  33.458  1.00  0.00     0.074 A 
ATOM     53  C   UNL A   1      45.209  26.977  29.618  1.00  0.00     0.029 A 
ATOM     54  N   UNL A   1      43.808  25.642  30.714  1.00  0.00    -0.354 N 
ATOM     55  N   UNL A   1      42.820  28.449  32.738  1.00  0.00    -0.248 NA
ATOM     56  C   UNL A   1      42.261  29.040  34.891  1.00  0.00     0.031 C 
ATOM     57  C   UNL A   1      45.254  27.308  30.991  1.00  0.00     0.029 A 
ATOM     58  C   UNL A   1      44.367  26.484  31.659  1.00  0.00     0.049 A 
ATOM     59  H   UNL A   1      43.164  24.924  30.910  1.00  0.00     0.167 HD
ATOM     60  C   UNL A   1      43.351  27.489  33.558  1.00  0.00     0.074 A 
ATOM     61  C   UNL A   1      43.007  27.923  34.899  1.00  0.00     0.031 C 
ATOM     62  C   UNL A   1      43.998  26.396  33.062  1.00  0.00     0.037 A 
BRANCH  49  63
ATOM     63  C   UNL A   1      44.329  24.685  27.159  1.00  0.00     0.057 A 
ATOM     64  C   UNL A   1      44.580  23.303  27.263  1.00  0.00     0.134 A 
ATOM     65  C   UNL A   1      44.841  25.285  25.996  1.00  0.00     0.134 A 
ATOM     66  F   UNL A   1      44.054  22.562  28.245  1.00  0.00    -0.206 F 
ATOM     67  C   UNL A   1      45.396  22.608  26.363  1.00  0.00     0.040 A 
ATOM     68  C   UNL A   1      45.702  24.615  25.113  1.00  0.00     0.040 A 
ATOM     69  F   UNL A   1      44.507  26.539  25.657  1.00  0.00    -0.206 F 
ATOM     70  C   UNL A   1      46.000  23.275  25.308  1.00  0.00     0.006 A 
ENDBRANCH  49  63
BRANCH  50  71
ATOM     71  C   UNL A   1      39.923  30.701  33.290  1.00  0.00     0.057 A 
ATOM     72  C   UNL A   1      39.520  32.027  33.510  1.00  0.00     0.134 A 
ATOM     73  C   UNL A   1      38.917  29.740  33.160  1.00  0.00     0.134 A 
ATOM     74  F   UNL A   1      40.436  33.000  33.639  1.00  0.00    -0.206 F 
ATOM     75  C   UNL A   1      38.173  32.397  33.513  1.00  0.00     0.040 A 
ATOM     76  C   UNL A   1      37.565  30.098  33.166  1.00  0.00     0.040 A 
ATOM     77  F   UNL A   1      39.224  28.456  32.926  1.00  0.00    -0.206 F 
ATOM     78  C   UNL A   1      37.190  31.433  33.309  1.00  0.00     0.006 A 
ENDBRANCH  50  71
BRANCH  62  79
ATOM     79  C   UNL A   1      44.413  25.196  33.866  1.00  0.00     0.057 A 
ATOM     80  C   UNL A   1      43.517  24.388  34.582  1.00  0.00     0.134 A 
ATOM     81  C   UNL A   1      45.744  24.733  33.824  1.00  0.00     0.134 A 
ATOM     82  F   UNL A   1      42.204  24.659  34.614  1.00  0.00    -0.206 F 
ATOM     83  C   UNL A   1      43.927  23.232  35.258  1.00  0.00     0.040 A 
ATOM     84  C   UNL A   1      46.155  23.554  34.454  1.00  0.00     0.040 A 
ATOM     85  F   UNL A   1      46.696  25.396  33.149  1.00  0.00    -0.206 F 
ATOM     86  C   UNL A   1      45.246  22.806  35.188  1.00  0.00     0.006 A 
ENDBRANCH  62  79
ENDBRANCH  36  37
ENDBRANCH  28  31
ENDBRANCH  26  27
ENDBRANCH  25  26
ENDBRANCH   1  25
TORSDOF 14
ENDMDL
MODEL 3
REMARK VINA RESULT:     -12.3      3.754      9.441
REMARK SMILES CCC(=O)Nc1cc(NC(=O)/C=C/C(=O)NCCCNC(=O)c2ccc(-c3c4nc(c(-c5c(F)cccc5F)c5ccc([nH]5)c(-c5c(F)cccc5F)c5nc(c(-c6c(F)cccc6F)c6ccc3[nH]6)C=C5)C=C4)cc2)ccc1C
REMARK SMILES IDX 17 1 16 2 14 3 15 4 13 6 12 7 10 8 9 9 11 11 8 12 6 13 7 14
REMARK SMILES IDX 79 15 78 16 80 17 77 18 5 19 3 20 4 21 2 23 1 24 18 25 19 26
REMARK SMILES IDX 20 27 21 28 22 30 23 31 24 32 76 33 25 34 75 35 26 36 27 37
REMARK SMILES IDX 28 38 69 39 29 40 74 41 68 42 70 43 30 44 73 45 67 46 66 47
REMARK SMILES IDX 31 49 57 50 40 51 56 52 41 53 44 54 55 55 71 56 42 57 43 58
REMARK SMILES IDX 54 60 72 61 45 62 32 63 33 64 38 65 34 66 35 67 37 68 39 69
REMARK SMILES IDX 36 70 58 71 59 72 64 73 60 74 61 75 63 76 65 77 62 78 46 79
REMARK SMILES IDX 47 80 52 81 48 82 49 83 51 84 53 85 50 86
REMARK H PARENT 16 5 9 10 5 22 20 29 70 48 44 59
REMARK Flexibility Score: inf
ROOT
ATOM      1  C   UNL A   1      32.482  30.549  26.772  1.00  0.00     0.118 C 
ENDROOT
BRANCH   1   2
ATOM      2  N   UNL A   1      33.186  30.044  25.601  1.00  0.00    -0.352 N 
ATOM      3  C   UNL A   1      32.703  29.329  24.549  1.00  0.00     0.244 C 
ATOM      4  O   UNL A   1      33.448  28.928  23.658  1.00  0.00    -0.270 OA
ATOM      5  H   UNL A   1      34.148  30.249  25.566  1.00  0.00     0.163 HD
BRANCH   3   6
ATOM      6  C   UNL A   1      31.261  29.021  24.466  1.00  0.00     0.077 C 
ATOM      7  C   UNL A   1      30.645  29.087  23.278  1.00  0.00     0.077 C 
BRANCH   7   8
ATOM      8  C   UNL A   1      29.326  28.468  23.091  1.00  0.00     0.248 C 
ATOM      9  N   UNL A   1      29.135  27.150  23.405  1.00  0.00    -0.322 N 
ATOM     10  H   UNL A   1      28.233  26.815  23.195  1.00  0.00     0.170 HD
ATOM     11  O   UNL A   1      28.406  29.151  22.645  1.00  0.00    -0.270 OA
BRANCH   9  12
ATOM     12  C   UNL A   1      29.989  26.179  23.973  1.00  0.00     0.043 A 
ATOM     13  C   UNL A   1      32.025  24.840  23.980  1.00  0.00     0.046 A 
ATOM     14  C   UNL A   1      31.035  25.551  23.299  1.00  0.00     0.052 A 
ATOM     15  C   UNL A   1      31.943  24.698  25.369  1.00  0.00    -0.027 A 
ATOM     16  C   UNL A   1      30.791  25.170  26.021  1.00  0.00     0.008 A 
ATOM     17  C   UNL A   1      33.088  24.238  26.228  1.00  0.00     0.046 C 
ATOM     18  C   UNL A   1      29.824  25.904  25.329  1.00  0.00     0.026 A 
BRANCH  13  19
ATOM     19  N   UNL A   1      33.185  24.540  23.252  1.00  0.00    -0.326 N 
ATOM     20  C   UNL A   1      33.611  23.341  22.753  1.00  0.00     0.224 C 
ATOM     21  O   UNL A   1      34.765  23.239  22.330  1.00  0.00    -0.275 OA
ATOM     22  H   UNL A   1      33.778  25.304  23.074  1.00  0.00     0.169 HD
BRANCH  20  23
ATOM     23  C   UNL A   1      32.625  22.201  22.580  1.00  0.00     0.097 C 
ATOM     24  C   UNL A   1      32.509  21.245  23.745  1.00  0.00     0.014 C 
ENDBRANCH  20  23
ENDBRANCH  13  19
ENDBRANCH   9  12
ENDBRANCH   7   8
ENDBRANCH   3   6
ENDBRANCH   1   2
BRANCH   1  25
ATOM     25  C   UNL A   1      33.358  31.441  27.648  1.00  0.00     0.042 C 
BRANCH  25  26
ATOM     26  C   UNL A   1      34.741  30.850  27.872  1.00  0.00     0.118 C 
BRANCH  26  27
ATOM     27  N   UNL A   1      35.530  31.576  28.863  1.00  0.00    -0.352 N 
ATOM     28  C   UNL A   1      36.696  31.184  29.503  1.00  0.00     0.251 C 
ATOM     29  H   UNL A   1      35.186  32.464  29.111  1.00  0.00     0.163 HD
ATOM     30  O   UNL A   1      37.242  31.915  30.303  1.00  0.00    -0.269 OA
BRANCH  28  31
ATOM     31  C   UNL A   1      37.331  29.911  29.085  1.00  0.00     0.039 A 
ATOM     32  C   UNL A   1      37.589  28.965  30.081  1.00  0.00     0.014 A 
ATOM     33  C   UNL A   1      37.877  29.771  27.811  1.00  0.00     0.014 A 
ATOM     34  C   UNL A   1      38.597  28.028  29.875  1.00  0.00     0.010 A 
ATOM     35  C   UNL A   1      38.935  28.899  27.635  1.00  0.00     0.010 A 
ATOM     36  C   UNL A   1      39.344  28.084  28.695  1.00  0.00    -0.014 A 
BRANCH  36  37
ATOM     37  C   UNL A   1      40.654  27.451  28.585  1.00  0.00     0.031 A 
ATOM     38  C   UNL A   1      40.787  26.018  28.265  1.00  0.00     0.074 A 
ATOM     39  C   UNL A   1      41.768  28.187  28.801  1.00  0.00     0.049 A 
ATOM     40  N   UNL A   1      41.718  25.257  28.739  1.00  0.00    -0.248 NA
ATOM     41  C   UNL A   1      39.843  25.319  27.402  1.00  0.00     0.031 C 
ATOM     42  C   UNL A   1      43.151  27.784  28.569  1.00  0.00     0.029 A 
ATOM     43  N   UNL A   1      41.866  29.409  29.483  1.00  0.00    -0.354 N 
ATOM     44  C   UNL A   1      41.656  24.061  28.064  1.00  0.00     0.074 A 
ATOM     45  C   UNL A   1      40.436  24.127  27.288  1.00  0.00     0.031 C 
ATOM     46  C   UNL A   1      43.956  28.557  29.315  1.00  0.00     0.029 A 
ATOM     47  C   UNL A   1      43.108  29.391  30.151  1.00  0.00     0.049 A 
ATOM     48  H   UNL A   1      41.200  30.134  29.494  1.00  0.00     0.167 HD
ATOM     49  C   UNL A   1      42.704  23.189  28.112  1.00  0.00     0.037 A 
ATOM     50  C   UNL A   1      43.198  29.491  31.506  1.00  0.00     0.037 A 
ATOM     51  C   UNL A   1      43.806  23.709  28.915  1.00  0.00     0.049 A 
ATOM     52  C   UNL A   1      43.880  28.319  32.169  1.00  0.00     0.074 A 
ATOM     53  C   UNL A   1      44.952  24.402  28.564  1.00  0.00     0.029 A 
ATOM     54  N   UNL A   1      43.677  23.830  30.293  1.00  0.00    -0.354 N 
ATOM     55  N   UNL A   1      44.060  27.164  31.595  1.00  0.00    -0.248 NA
ATOM     56  C   UNL A   1      44.346  28.336  33.554  1.00  0.00     0.031 C 
ATOM     57  C   UNL A   1      45.494  24.983  29.733  1.00  0.00     0.029 A 
ATOM     58  C   UNL A   1      44.683  24.634  30.798  1.00  0.00     0.049 A 
ATOM     59  H   UNL A   1      42.972  23.405  30.833  1.00  0.00     0.167 HD
ATOM     60  C   UNL A   1      44.570  26.280  32.509  1.00  0.00     0.074 A 
ATOM     61  C   UNL A   1      44.768  27.070  33.710  1.00  0.00     0.031 C 
ATOM     62  C   UNL A   1      44.752  24.962  32.212  1.00  0.00     0.037 A 
BRANCH  49  63
ATOM     63  C   UNL A   1      42.839  22.036  27.146  1.00  0.00     0.057 A 
ATOM     64  C   UNL A   1      42.076  20.861  27.292  1.00  0.00     0.134 A 
ATOM     65  C   UNL A   1      43.755  22.008  26.082  1.00  0.00     0.134 A 
ATOM     66  F   UNL A   1      41.075  20.773  28.176  1.00  0.00    -0.206 F 
ATOM     67  C   UNL A   1      42.309  19.705  26.538  1.00  0.00     0.040 A 
ATOM     68  C   UNL A   1      44.036  20.842  25.352  1.00  0.00     0.040 A 
ATOM     69  F   UNL A   1      44.399  23.118  25.691  1.00  0.00    -0.206 F 
ATOM     70  C   UNL A   1      43.325  19.677  25.595  1.00  0.00     0.006 A 
ENDBRANCH  49  63
BRANCH  50  71
ATOM     71  C   UNL A   1      42.100  30.267  32.135  1.00  0.00     0.057 A 
ATOM     72  C   UNL A   1      40.987  29.588  32.653  1.00  0.00     0.134 A 
ATOM     73  C   UNL A   1      42.269  31.602  32.515  1.00  0.00     0.134 A 
ATOM     74  F   UNL A   1      40.769  28.303  32.331  1.00  0.00    -0.206 F 
ATOM     75  C   UNL A   1      40.126  30.182  33.579  1.00  0.00     0.040 A 
ATOM     76  C   UNL A   1      41.410  32.208  33.438  1.00  0.00     0.040 A 
ATOM     77  F   UNL A   1      43.321  32.309  32.079  1.00  0.00    -0.206 F 
ATOM     78  C   UNL A   1      40.356  31.489  33.998  1.00  0.00     0.006 A 
ENDBRANCH  50  71
BRANCH  62  79
ATOM     79  C   UNL A   1      45.093  23.889  33.208  1.00  0.00     0.057 A 
ATOM     80  C   UNL A   1      46.345  23.770  33.829  1.00  0.00     0.134 A 
ATOM     81  C   UNL A   1      44.097  23.009  33.681  1.00  0.00     0.134 A 
ATOM     82  F   UNL A   1      47.348  24.614  33.547  1.00  0.00    -0.206 F 
ATOM     83  C   UNL A   1      46.605  22.807  34.812  1.00  0.00     0.040 A 
ATOM     84  C   UNL A   1      44.332  22.075  34.694  1.00  0.00     0.040 A 
ATOM     85  F   UNL A   1      42.848  23.037  33.191  1.00  0.00    -0.206 F 
ATOM     86  C   UNL A   1      45.596  21.962  35.254  1.00  0.00     0.006 A 
ENDBRANCH  62  79
ENDBRANCH  36  37
ENDBRANCH  28  31
ENDBRANCH  26  27
ENDBRANCH  25  26
ENDBRANCH   1  25
TORSDOF 14
ENDMDL
