MODEL 1
REMARK VINA RESULT:     -13.4      0.000      0.000
REMARK SMILES Cc1nc(S[C@@H](C(=O)NCCCNC(=O)c2ccc(-c3c4nc(c(-c5c(F)cccc5F)c5ccc([nH]5)c(-c5c(F)cccc5F)c5nc(c(-c6c(F)cccc6F)c6ccc3[nH]6)C=C5)C=C4)cc2)c2ccccc2)nc2ccccc12
REMARK SMILES IDX 11 1 10 2 9 3 7 4 8 5 6 7 5 8 4 9 1 10 2 11 3 12 82 13 77 14
REMARK SMILES IDX 81 15 76 16 78 17 80 18 79 19 70 20 71 21 75 22 72 23 74 24
REMARK SMILES IDX 73 25 12 26 13 27 14 28 15 30 16 31 17 32 69 33 18 34 68 35
REMARK SMILES IDX 19 36 20 37 21 38 62 39 22 40 67 41 61 42 63 43 23 44 66 45
REMARK SMILES IDX 60 46 59 47 24 49 50 50 33 51 49 52 34 53 37 54 48 55 64 56
REMARK SMILES IDX 35 57 36 58 47 60 65 61 38 62 25 63 26 64 31 65 27 66 28 67
REMARK SMILES IDX 30 68 32 69 29 70 51 71 52 72 57 73 53 74 54 75 56 76 58 77
REMARK SMILES IDX 55 78 39 79 40 80 45 81 41 82 42 83 44 84 46 85 43 86
REMARK H PARENT 9 6 13 29 63 48 37 59
REMARK Flexibility Score: inf
ROOT
ATOM      1  C   UNL A   1      32.299  30.000  25.354  1.00  0.00     0.042 C 
ENDROOT
BRANCH   1   2
ATOM      2  C   UNL A   1      33.283  28.850  25.171  1.00  0.00     0.117 C 
BRANCH   2   3
ATOM      3  N   UNL A   1      33.860  28.831  23.837  1.00  0.00    -0.355 N 
ATOM      4  C   UNL A   1      33.603  28.029  22.753  1.00  0.00     0.238 C 
ATOM      5  O   UNL A   1      34.258  28.288  21.741  1.00  0.00    -0.273 OA
ATOM      6  H   UNL A   1      34.555  29.511  23.684  1.00  0.00     0.163 HD
BRANCH   4   7
ATOM      7  C   UNL A   1      32.479  26.977  22.816  1.00  0.00     0.174 C 
BRANCH   7   8
ATOM      8  S   UNL A   1      32.688  25.603  21.620  1.00  0.00    -0.068 SA
BRANCH   8   9
ATOM      9  C   UNL A   1      33.260  24.239  22.593  1.00  0.00     0.189 A 
ATOM     10  C   UNL A   1      31.868  21.845  24.938  1.00  0.00     0.067 C 
ATOM     11  C   UNL A   1      32.909  22.561  24.125  1.00  0.00     0.050 A 
ATOM     12  N   UNL A   1      32.404  23.513  23.307  1.00  0.00    -0.227 NA
ATOM     13  C   UNL A   1      34.283  22.297  24.213  1.00  0.00     0.022 A 
ATOM     14  C   UNL A   1      35.079  23.074  23.359  1.00  0.00     0.075 A 
ATOM     15  C   UNL A   1      34.905  21.347  25.066  1.00  0.00     0.012 A 
ATOM     16  N   UNL A   1      34.581  24.026  22.563  1.00  0.00    -0.222 NA
ATOM     17  C   UNL A   1      36.452  22.861  23.350  1.00  0.00     0.029 A 
ATOM     18  C   UNL A   1      36.286  21.168  25.052  1.00  0.00     0.001 A 
ATOM     19  C   UNL A   1      37.063  21.920  24.183  1.00  0.00     0.002 A 
ENDBRANCH   8   9
ENDBRANCH   7   8
BRANCH   7  20
ATOM     20  C   UNL A   1      31.043  27.494  22.899  1.00  0.00    -0.025 A 
ATOM     21  C   UNL A   1      30.638  28.713  22.336  1.00  0.00     0.005 A 
ATOM     22  C   UNL A   1      30.064  26.722  23.552  1.00  0.00     0.005 A 
ATOM     23  C   UNL A   1      29.312  29.145  22.409  1.00  0.00     0.000 A 
ATOM     24  C   UNL A   1      28.739  27.161  23.640  1.00  0.00     0.000 A 
ATOM     25  C   UNL A   1      28.362  28.371  23.063  1.00  0.00     0.000 A 
ENDBRANCH   7  20
ENDBRANCH   4   7
ENDBRANCH   2   3
ENDBRANCH   1   2
BRANCH   1  26
ATOM     26  C   UNL A   1      32.048  30.394  26.806  1.00  0.00     0.118 C 
BRANCH  26  27
ATOM     27  N   UNL A   1      31.998  31.835  27.023  1.00  0.00    -0.352 N 
ATOM     28  C   UNL A   1      32.947  32.681  27.549  1.00  0.00     0.251 C 
ATOM     29  H   UNL A   1      31.156  32.268  26.753  1.00  0.00     0.163 HD
ATOM     30  O   UNL A   1      32.667  33.859  27.756  1.00  0.00    -0.269 OA
BRANCH  28  31
ATOM     31  C   UNL A   1      34.288  32.170  27.911  1.00  0.00     0.039 A 
ATOM     32  C   UNL A   1      34.489  30.823  28.213  1.00  0.00     0.014 A 
ATOM     33  C   UNL A   1      35.362  33.065  27.977  1.00  0.00     0.014 A 
ATOM     34  C   UNL A   1      35.695  30.415  28.773  1.00  0.00     0.010 A 
ATOM     35  C   UNL A   1      36.604  32.631  28.455  1.00  0.00     0.010 A 
ATOM     36  C   UNL A   1      36.760  31.319  28.926  1.00  0.00    -0.014 A 
BRANCH  36  37
ATOM     37  C   UNL A   1      37.994  30.872  29.628  1.00  0.00     0.031 A 
ATOM     38  C   UNL A   1      38.235  31.242  31.071  1.00  0.00     0.074 A 
ATOM     39  C   UNL A   1      38.855  30.049  28.998  1.00  0.00     0.049 A 
ATOM     40  N   UNL A   1      39.194  30.851  31.875  1.00  0.00    -0.248 NA
ATOM     41  C   UNL A   1      37.281  32.174  31.690  1.00  0.00     0.031 C 
ATOM     42  C   UNL A   1      38.741  29.614  27.605  1.00  0.00     0.029 A 
ATOM     43  N   UNL A   1      39.971  29.400  29.460  1.00  0.00    -0.354 N 
ATOM     44  C   UNL A   1      38.962  31.493  33.086  1.00  0.00     0.074 A 
ATOM     45  C   UNL A   1      37.801  32.334  32.899  1.00  0.00     0.031 C 
ATOM     46  C   UNL A   1      39.704  28.718  27.346  1.00  0.00     0.029 A 
ATOM     47  C   UNL A   1      40.530  28.550  28.537  1.00  0.00     0.049 A 
ATOM     48  H   UNL A   1      40.337  29.531  30.365  1.00  0.00     0.167 HD
ATOM     49  C   UNL A   1      39.639  31.381  34.256  1.00  0.00     0.037 A 
ATOM     50  C   UNL A   1      41.584  27.719  28.642  1.00  0.00     0.037 A 
ATOM     51  C   UNL A   1      40.789  30.537  34.455  1.00  0.00     0.049 A 
ATOM     52  C   UNL A   1      42.332  27.636  29.941  1.00  0.00     0.074 A 
ATOM     53  C   UNL A   1      41.538  30.353  35.605  1.00  0.00     0.029 A 
ATOM     54  N   UNL A   1      41.355  29.732  33.479  1.00  0.00    -0.354 N 
ATOM     55  N   UNL A   1      42.088  28.234  31.080  1.00  0.00    -0.248 NA
ATOM     56  C   UNL A   1      43.508  26.754  29.963  1.00  0.00     0.031 C 
ATOM     57  C   UNL A   1      42.577  29.460  35.316  1.00  0.00     0.029 A 
ATOM     58  C   UNL A   1      42.450  29.058  33.997  1.00  0.00     0.049 A 
ATOM     59  H   UNL A   1      41.028  29.651  32.555  1.00  0.00     0.167 HD
ATOM     60  C   UNL A   1      43.063  27.788  31.960  1.00  0.00     0.074 A 
ATOM     61  C   UNL A   1      43.889  26.848  31.228  1.00  0.00     0.031 C 
ATOM     62  C   UNL A   1      43.262  28.127  33.258  1.00  0.00     0.037 A 
BRANCH  49  63
ATOM     63  C   UNL A   1      39.150  32.207  35.411  1.00  0.00     0.057 A 
ATOM     64  C   UNL A   1      38.295  31.657  36.375  1.00  0.00     0.134 A 
ATOM     65  C   UNL A   1      39.518  33.550  35.565  1.00  0.00     0.134 A 
ATOM     66  F   UNL A   1      37.898  30.379  36.284  1.00  0.00    -0.206 F 
ATOM     67  C   UNL A   1      37.829  32.412  37.453  1.00  0.00     0.040 A 
ATOM     68  C   UNL A   1      39.078  34.308  36.653  1.00  0.00     0.040 A 
ATOM     69  F   UNL A   1      40.345  34.134  34.685  1.00  0.00    -0.206 F 
ATOM     70  C   UNL A   1      38.227  33.740  37.598  1.00  0.00     0.006 A 
ENDBRANCH  49  63
BRANCH  50  71
ATOM     71  C   UNL A   1      41.986  26.879  27.487  1.00  0.00     0.057 A 
ATOM     72  C   UNL A   1      41.524  25.566  27.343  1.00  0.00     0.134 A 
ATOM     73  C   UNL A   1      42.822  27.385  26.484  1.00  0.00     0.134 A 
ATOM     74  F   UNL A   1      40.722  25.025  28.272  1.00  0.00    -0.206 F 
ATOM     75  C   UNL A   1      41.882  24.783  26.245  1.00  0.00     0.040 A 
ATOM     76  C   UNL A   1      43.167  26.622  25.369  1.00  0.00     0.040 A 
ATOM     77  F   UNL A   1      43.279  28.644  26.558  1.00  0.00    -0.206 F 
ATOM     78  C   UNL A   1      42.699  25.314  25.250  1.00  0.00     0.006 A 
ENDBRANCH  50  71
BRANCH  62  79
ATOM     79  C   UNL A   1      44.400  27.449  33.964  1.00  0.00     0.057 A 
ATOM     80  C   UNL A   1      44.208  26.222  34.609  1.00  0.00     0.134 A 
ATOM     81  C   UNL A   1      45.688  28.000  33.990  1.00  0.00     0.134 A 
ATOM     82  F   UNL A   1      42.998  25.643  34.628  1.00  0.00    -0.206 F 
ATOM     83  C   UNL A   1      45.260  25.559  35.244  1.00  0.00     0.040 A 
ATOM     84  C   UNL A   1      46.754  27.335  34.599  1.00  0.00     0.040 A 
ATOM     85  F   UNL A   1      45.941  29.166  33.376  1.00  0.00    -0.206 F 
ATOM     86  C   UNL A   1      46.539  26.111  35.230  1.00  0.00     0.006 A 
ENDBRANCH  62  79
ENDBRANCH  36  37
ENDBRANCH  28  31
ENDBRANCH  26  27
ENDBRANCH   1  26
TORSDOF 13
ENDMDL
MODEL 2
REMARK VINA RESULT:     -13.3      0.089      1.398
REMARK SMILES Cc1nc(S[C@@H](C(=O)NCCCNC(=O)c2ccc(-c3c4nc(c(-c5c(F)cccc5F)c5ccc([nH]5)c(-c5c(F)cccc5F)c5nc(c(-c6c(F)cccc6F)c6ccc3[nH]6)C=C5)C=C4)cc2)c2ccccc2)nc2ccccc12
REMARK SMILES IDX 11 1 10 2 9 3 7 4 8 5 6 7 5 8 4 9 1 10 2 11 3 12 82 13 77 14
REMARK SMILES IDX 81 15 76 16 78 17 80 18 79 19 70 20 71 21 75 22 72 23 74 24
REMARK SMILES IDX 73 25 12 26 13 27 14 28 15 30 16 31 17 32 69 33 18 34 68 35
REMARK SMILES IDX 19 36 20 37 21 38 62 39 22 40 67 41 61 42 63 43 23 44 66 45
REMARK SMILES IDX 60 46 59 47 24 49 50 50 33 51 49 52 34 53 37 54 48 55 64 56
REMARK SMILES IDX 35 57 36 58 47 60 65 61 38 62 25 63 26 64 31 65 27 66 28 67
REMARK SMILES IDX 30 68 32 69 29 70 51 71 52 72 57 73 53 74 54 75 56 76 58 77
REMARK SMILES IDX 55 78 39 79 40 80 45 81 41 82 42 83 44 84 46 85 43 86
REMARK H PARENT 9 6 13 29 63 48 37 59
REMARK Flexibility Score: inf
ROOT
ATOM      1  C   UNL A   1      32.273  29.970  25.403  1.00  0.00     0.042 C 
ENDROOT
BRANCH   1   2
ATOM      2  C   UNL A   1      33.297  28.854  25.222  1.00  0.00     0.117 C 
BRANCH   2   3
ATOM      3  N   UNL A   1      33.875  28.855  23.889  1.00  0.00    -0.355 N 
ATOM      4  C   UNL A   1      33.608  28.080  22.788  1.00  0.00     0.238 C 
ATOM      5  O   UNL A   1      34.269  28.350  21.782  1.00  0.00    -0.273 OA
ATOM      6  H   UNL A   1      34.581  29.527  23.751  1.00  0.00     0.163 HD
BRANCH   4   7
ATOM      7  C   UNL A   1      32.467  27.045  22.826  1.00  0.00     0.174 C 
BRANCH   7   8
ATOM      8  S   UNL A   1      32.682  25.667  21.636  1.00  0.00    -0.068 SA
BRANCH   8   9
ATOM      9  C   UNL A   1      33.244  24.305  22.617  1.00  0.00     0.189 A 
ATOM     10  C   UNL A   1      31.849  21.971  25.020  1.00  0.00     0.067 C 
ATOM     11  C   UNL A   1      32.889  22.655  24.177  1.00  0.00     0.050 A 
ATOM     12  N   UNL A   1      32.387  23.607  23.356  1.00  0.00    -0.227 NA
ATOM     13  C   UNL A   1      34.258  22.364  24.243  1.00  0.00     0.022 A 
ATOM     14  C   UNL A   1      35.054  23.113  23.364  1.00  0.00     0.075 A 
ATOM     15  C   UNL A   1      34.877  21.413  25.098  1.00  0.00     0.012 A 
ATOM     16  N   UNL A   1      34.560  24.064  22.565  1.00  0.00    -0.222 NA
ATOM     17  C   UNL A   1      36.422  22.871  23.332  1.00  0.00     0.029 A 
ATOM     18  C   UNL A   1      36.254  21.204  25.060  1.00  0.00     0.001 A 
ATOM     19  C   UNL A   1      37.029  21.929  24.166  1.00  0.00     0.002 A 
ENDBRANCH   8   9
ENDBRANCH   7   8
BRANCH   7  20
ATOM     20  C   UNL A   1      31.038  27.584  22.878  1.00  0.00    -0.025 A 
ATOM     21  C   UNL A   1      29.986  26.896  23.500  1.00  0.00     0.005 A 
ATOM     22  C   UNL A   1      30.745  28.832  22.297  1.00  0.00     0.005 A 
ATOM     23  C   UNL A   1      28.696  27.427  23.551  1.00  0.00     0.000 A 
ATOM     24  C   UNL A   1      29.450  29.359  22.332  1.00  0.00     0.000 A 
ATOM     25  C   UNL A   1      28.427  28.658  22.965  1.00  0.00     0.000 A 
ENDBRANCH   7  20
ENDBRANCH   4   7
ENDBRANCH   2   3
ENDBRANCH   1   2
BRANCH   1  26
ATOM     26  C   UNL A   1      32.037  30.384  26.852  1.00  0.00     0.118 C 
BRANCH  26  27
ATOM     27  N   UNL A   1      32.001  31.828  27.052  1.00  0.00    -0.352 N 
ATOM     28  C   UNL A   1      32.961  32.671  27.562  1.00  0.00     0.251 C 
ATOM     29  H   UNL A   1      31.161  32.265  26.781  1.00  0.00     0.163 HD
ATOM     30  O   UNL A   1      32.693  33.854  27.756  1.00  0.00    -0.269 OA
BRANCH  28  31
ATOM     31  C   UNL A   1      34.299  32.152  27.923  1.00  0.00     0.039 A 
ATOM     32  C   UNL A   1      34.490  30.805  28.232  1.00  0.00     0.014 A 
ATOM     33  C   UNL A   1      35.380  33.039  27.980  1.00  0.00     0.014 A 
ATOM     34  C   UNL A   1      35.696  30.391  28.791  1.00  0.00     0.010 A 
ATOM     35  C   UNL A   1      36.620  32.599  28.456  1.00  0.00     0.010 A 
ATOM     36  C   UNL A   1      36.768  31.289  28.934  1.00  0.00    -0.014 A 
BRANCH  36  37
ATOM     37  C   UNL A   1      38.001  30.837  29.634  1.00  0.00     0.031 A 
ATOM     38  C   UNL A   1      38.240  31.196  31.081  1.00  0.00     0.074 A 
ATOM     39  C   UNL A   1      38.863  30.019  29.000  1.00  0.00     0.049 A 
ATOM     40  N   UNL A   1      39.197  30.799  31.883  1.00  0.00    -0.248 NA
ATOM     41  C   UNL A   1      37.285  32.123  31.705  1.00  0.00     0.031 C 
ATOM     42  C   UNL A   1      38.751  29.594  27.604  1.00  0.00     0.029 A 
ATOM     43  N   UNL A   1      39.978  29.366  29.459  1.00  0.00    -0.354 N 
ATOM     44  C   UNL A   1      38.964  31.432  33.099  1.00  0.00     0.074 A 
ATOM     45  C   UNL A   1      37.802  32.274  32.916  1.00  0.00     0.031 C 
ATOM     46  C   UNL A   1      39.715  28.700  27.340  1.00  0.00     0.029 A 
ATOM     47  C   UNL A   1      40.540  28.523  28.531  1.00  0.00     0.049 A 
ATOM     48  H   UNL A   1      40.343  29.491  30.365  1.00  0.00     0.167 HD
ATOM     49  C   UNL A   1      39.639  31.312  34.269  1.00  0.00     0.037 A 
ATOM     50  C   UNL A   1      41.593  27.692  28.631  1.00  0.00     0.037 A 
ATOM     51  C   UNL A   1      40.789  30.467  34.464  1.00  0.00     0.049 A 
ATOM     52  C   UNL A   1      42.339  27.599  29.931  1.00  0.00     0.074 A 
ATOM     53  C   UNL A   1      41.536  30.274  35.614  1.00  0.00     0.029 A 
ATOM     54  N   UNL A   1      41.356  29.669  33.482  1.00  0.00    -0.354 N 
ATOM     55  N   UNL A   1      42.093  28.189  31.073  1.00  0.00    -0.248 NA
ATOM     56  C   UNL A   1      43.515  26.717  29.948  1.00  0.00     0.031 C 
ATOM     57  C   UNL A   1      42.576  29.384  35.319  1.00  0.00     0.029 A 
ATOM     58  C   UNL A   1      42.451  28.991  33.997  1.00  0.00     0.049 A 
ATOM     59  H   UNL A   1      41.030  29.595  32.557  1.00  0.00     0.167 HD
ATOM     60  C   UNL A   1      43.067  27.736  31.952  1.00  0.00     0.074 A 
ATOM     61  C   UNL A   1      43.894  26.802  31.214  1.00  0.00     0.031 C 
ATOM     62  C   UNL A   1      43.265  28.065  33.252  1.00  0.00     0.037 A 
BRANCH  49  63
ATOM     63  C   UNL A   1      39.148  32.129  35.430  1.00  0.00     0.057 A 
ATOM     64  C   UNL A   1      39.520  33.471  35.570  1.00  0.00     0.134 A 
ATOM     65  C   UNL A   1      38.313  31.584  36.414  1.00  0.00     0.134 A 
ATOM     66  F   UNL A   1      40.322  34.054  34.667  1.00  0.00    -0.206 F 
ATOM     67  C   UNL A   1      39.074  34.244  36.645  1.00  0.00     0.040 A 
ATOM     68  C   UNL A   1      37.841  32.353  37.480  1.00  0.00     0.040 A 
ATOM     69  F   UNL A   1      37.908  30.307  36.331  1.00  0.00    -0.206 F 
ATOM     70  C   UNL A   1      38.225  33.686  37.600  1.00  0.00     0.006 A 
ENDBRANCH  49  63
BRANCH  50  71
ATOM     71  C   UNL A   1      41.997  26.860  27.471  1.00  0.00     0.057 A 
ATOM     72  C   UNL A   1      42.840  27.359  26.472  1.00  0.00     0.134 A 
ATOM     73  C   UNL A   1      41.568  25.532  27.352  1.00  0.00     0.134 A 
ATOM     74  F   UNL A   1      43.281  28.624  26.530  1.00  0.00    -0.206 F 
ATOM     75  C   UNL A   1      43.240  26.571  25.393  1.00  0.00     0.040 A 
ATOM     76  C   UNL A   1      41.980  24.724  26.293  1.00  0.00     0.040 A 
ATOM     77  F   UNL A   1      40.775  24.992  28.290  1.00  0.00    -0.206 F 
ATOM     78  C   UNL A   1      42.817  25.246  25.307  1.00  0.00     0.006 A 
ENDBRANCH  50  71
BRANCH  62  79
ATOM     79  C   UNL A   1      44.401  27.383  33.955  1.00  0.00     0.057 A 
ATOM     80  C   UNL A   1      44.209  26.150  34.590  1.00  0.00     0.134 A 
ATOM     81  C   UNL A   1      45.688  27.934  33.988  1.00  0.00     0.134 A 
ATOM     82  F   UNL A   1      42.999  25.570  34.601  1.00  0.00    -0.206 F 
ATOM     83  C   UNL A   1      45.260  25.483  35.221  1.00  0.00     0.040 A 
ATOM     84  C   UNL A   1      46.754  27.265  34.594  1.00  0.00     0.040 A 
ATOM     85  F   UNL A   1      45.942  29.105  33.384  1.00  0.00    -0.206 F 
ATOM     86  C   UNL A   1      46.539  26.036  35.214  1.00  0.00     0.006 A 
ENDBRANCH  62  79
ENDBRANCH  36  37
ENDBRANCH  28  31
ENDBRANCH  26  27
ENDBRANCH   1  26
TORSDOF 13
ENDMDL
MODEL 3
REMARK VINA RESULT:     -13.2      4.197      9.025
REMARK SMILES Cc1nc(S[C@@H](C(=O)NCCCNC(=O)c2ccc(-c3c4nc(c(-c5c(F)cccc5F)c5ccc([nH]5)c(-c5c(F)cccc5F)c5nc(c(-c6c(F)cccc6F)c6ccc3[nH]6)C=C5)C=C4)cc2)c2ccccc2)nc2ccccc12
REMARK SMILES IDX 11 1 10 2 9 3 7 4 8 5 6 7 5 8 4 9 1 10 2 11 3 12 82 13 77 14
REMARK SMILES IDX 81 15 76 16 78 17 80 18 79 19 70 20 71 21 75 22 72 23 74 24
REMARK SMILES IDX 73 25 12 26 13 27 14 28 15 30 16 31 17 32 69 33 18 34 68 35
REMARK SMILES IDX 19 36 20 37 21 38 62 39 22 40 67 41 61 42 63 43 23 44 66 45
REMARK SMILES IDX 60 46 59 47 24 49 50 50 33 51 49 52 34 53 37 54 48 55 64 56
REMARK SMILES IDX 35 57 36 58 47 60 65 61 38 62 25 63 26 64 31 65 27 66 28 67
REMARK SMILES IDX 30 68 32 69 29 70 51 71 52 72 57 73 53 74 54 75 56 76 58 77
REMARK SMILES IDX 55 78 39 79 40 80 45 81 41 82 42 83 44 84 46 85 43 86
REMARK H PARENT 9 6 13 29 63 48 37 59
REMARK Flexibility Score: inf
ROOT
ATOM      1  C   UNL A   1      37.664  20.568  24.885  1.00  0.00     0.042 C 
ENDROOT
BRANCH   1   2
ATOM      2  C   UNL A   1      36.611  21.668  24.964  1.00  0.00     0.117 C 
BRANCH   2   3
ATOM      3  N   UNL A   1      35.736  21.505  26.112  1.00  0.00    -0.355 N 
ATOM      4  C   UNL A   1      34.378  21.319  26.194  1.00  0.00     0.238 C 
ATOM      5  O   UNL A   1      33.933  21.190  27.338  1.00  0.00    -0.273 OA
ATOM      6  H   UNL A   1      36.195  21.534  26.982  1.00  0.00     0.163 HD
BRANCH   4   7
ATOM      7  C   UNL A   1      33.538  21.165  24.912  1.00  0.00     0.174 C 
BRANCH   7   8
ATOM      8  S   UNL A   1      31.929  22.043  24.977  1.00  0.00    -0.068 SA
BRANCH   8   9
ATOM      9  C   UNL A   1      32.298  23.702  24.479  1.00  0.00     0.189 A 
ATOM     10  C   UNL A   1      32.679  25.554  21.382  1.00  0.00     0.067 C 
ATOM     11  C   UNL A   1      32.679  25.290  22.862  1.00  0.00     0.050 A 
ATOM     12  N   UNL A   1      32.272  24.043  23.194  1.00  0.00    -0.227 NA
ATOM     13  C   UNL A   1      33.086  26.229  23.820  1.00  0.00     0.022 A 
ATOM     14  C   UNL A   1      32.999  25.780  25.145  1.00  0.00     0.075 A 
ATOM     15  C   UNL A   1      33.562  27.542  23.563  1.00  0.00     0.012 A 
ATOM     16  N   UNL A   1      32.612  24.543  25.473  1.00  0.00    -0.222 NA
ATOM     17  C   UNL A   1      33.348  26.652  26.169  1.00  0.00     0.029 A 
ATOM     18  C   UNL A   1      33.924  28.390  24.607  1.00  0.00     0.001 A 
ATOM     19  C   UNL A   1      33.808  27.947  25.917  1.00  0.00     0.002 A 
ENDBRANCH   8   9
ENDBRANCH   7   8
BRANCH   7  20
ATOM     20  C   UNL A   1      33.441  19.767  24.305  1.00  0.00    -0.025 A 
ATOM     21  C   UNL A   1      32.449  19.403  23.384  1.00  0.00     0.005 A 
ATOM     22  C   UNL A   1      34.389  18.789  24.659  1.00  0.00     0.005 A 
ATOM     23  C   UNL A   1      32.403  18.122  22.828  1.00  0.00     0.000 A 
ATOM     24  C   UNL A   1      34.336  17.501  24.117  1.00  0.00     0.000 A 
ATOM     25  C   UNL A   1      33.345  17.170  23.197  1.00  0.00     0.000 A 
ENDBRANCH   7  20
ENDBRANCH   4   7
ENDBRANCH   2   3
ENDBRANCH   1   2
BRANCH   1  26
ATOM     26  C   UNL A   1      38.849  20.758  25.828  1.00  0.00     0.118 C 
BRANCH  26  27
ATOM     27  N   UNL A   1      39.865  19.719  25.709  1.00  0.00    -0.352 N 
ATOM     28  C   UNL A   1      41.209  19.763  25.999  1.00  0.00     0.251 C 
ATOM     29  H   UNL A   1      39.539  18.853  25.369  1.00  0.00     0.163 HD
ATOM     30  O   UNL A   1      41.925  18.805  25.720  1.00  0.00    -0.269 OA
BRANCH  28  31
ATOM     31  C   UNL A   1      41.806  20.976  26.600  1.00  0.00     0.039 A 
ATOM     32  C   UNL A   1      41.904  21.121  27.984  1.00  0.00     0.014 A 
ATOM     33  C   UNL A   1      42.251  22.003  25.760  1.00  0.00     0.014 A 
ATOM     34  C   UNL A   1      42.249  22.356  28.525  1.00  0.00     0.010 A 
ATOM     35  C   UNL A   1      42.686  23.215  26.309  1.00  0.00     0.010 A 
ATOM     36  C   UNL A   1      42.619  23.427  27.694  1.00  0.00    -0.014 A 
BRANCH  36  37
ATOM     37  C   UNL A   1      42.875  24.761  28.303  1.00  0.00     0.031 A 
ATOM     38  C   UNL A   1      44.284  25.218  28.590  1.00  0.00     0.074 A 
ATOM     39  C   UNL A   1      41.846  25.605  28.508  1.00  0.00     0.049 A 
ATOM     40  N   UNL A   1      44.703  26.386  29.012  1.00  0.00    -0.248 NA
ATOM     41  C   UNL A   1      45.360  24.238  28.382  1.00  0.00     0.031 C 
ATOM     42  C   UNL A   1      40.436  25.290  28.274  1.00  0.00     0.029 A 
ATOM     43  N   UNL A   1      41.831  26.913  28.921  1.00  0.00    -0.354 N 
ATOM     44  C   UNL A   1      46.085  26.277  29.126  1.00  0.00     0.074 A 
ATOM     45  C   UNL A   1      46.428  24.917  28.774  1.00  0.00     0.031 C 
ATOM     46  C   UNL A   1      39.700  26.392  28.479  1.00  0.00     0.029 A 
ATOM     47  C   UNL A   1      40.578  27.478  28.904  1.00  0.00     0.049 A 
ATOM     48  H   UNL A   1      42.638  27.400  29.204  1.00  0.00     0.167 HD
ATOM     49  C   UNL A   1      46.991  27.225  29.473  1.00  0.00     0.037 A 
ATOM     50  C   UNL A   1      40.183  28.733  29.186  1.00  0.00     0.037 A 
ATOM     51  C   UNL A   1      46.660  28.584  29.813  1.00  0.00     0.049 A 
ATOM     52  C   UNL A   1      41.205  29.755  29.594  1.00  0.00     0.074 A 
ATOM     53  C   UNL A   1      47.509  29.618  30.172  1.00  0.00     0.029 A 
ATOM     54  N   UNL A   1      45.374  29.101  29.834  1.00  0.00    -0.354 N 
ATOM     55  N   UNL A   1      42.506  29.639  29.678  1.00  0.00    -0.248 NA
ATOM     56  C   UNL A   1      40.693  31.086  29.947  1.00  0.00     0.031 C 
ATOM     57  C   UNL A   1      46.734  30.752  30.440  1.00  0.00     0.029 A 
ATOM     58  C   UNL A   1      45.405  30.435  30.210  1.00  0.00     0.049 A 
ATOM     59  H   UNL A   1      44.559  28.595  29.614  1.00  0.00     0.167 HD
ATOM     60  C   UNL A   1      42.973  30.886  30.071  1.00  0.00     0.074 A 
ATOM     61  C   UNL A   1      41.815  31.749  30.185  1.00  0.00     0.031 C 
ATOM     62  C   UNL A   1      44.246  31.282  30.320  1.00  0.00     0.037 A 
BRANCH  49  63
ATOM     63  C   UNL A   1      48.435  26.810  29.508  1.00  0.00     0.057 A 
ATOM     64  C   UNL A   1      48.992  26.250  30.664  1.00  0.00     0.134 A 
ATOM     65  C   UNL A   1      49.276  26.974  28.399  1.00  0.00     0.134 A 
ATOM     66  F   UNL A   1      48.244  26.071  31.763  1.00  0.00    -0.206 F 
ATOM     67  C   UNL A   1      50.333  25.863  30.714  1.00  0.00     0.040 A 
ATOM     68  C   UNL A   1      50.612  26.568  28.430  1.00  0.00     0.040 A 
ATOM     69  F   UNL A   1      48.802  27.492  27.257  1.00  0.00    -0.206 F 
ATOM     70  C   UNL A   1      51.145  26.014  29.591  1.00  0.00     0.006 A 
ENDBRANCH  49  63
BRANCH  50  71
ATOM     71  C   UNL A   1      38.751  29.104  29.074  1.00  0.00     0.057 A 
ATOM     72  C   UNL A   1      37.890  29.037  30.175  1.00  0.00     0.134 A 
ATOM     73  C   UNL A   1      38.219  29.564  27.863  1.00  0.00     0.134 A 
ATOM     74  F   UNL A   1      38.342  28.602  31.361  1.00  0.00    -0.206 F 
ATOM     75  C   UNL A   1      36.549  29.409  30.077  1.00  0.00     0.040 A 
ATOM     76  C   UNL A   1      36.887  29.964  27.757  1.00  0.00     0.040 A 
ATOM     77  F   UNL A   1      39.001  29.670  26.778  1.00  0.00    -0.206 F 
ATOM     78  C   UNL A   1      36.047  29.883  28.867  1.00  0.00     0.006 A 
ENDBRANCH  50  71
BRANCH  62  79
ATOM     79  C   UNL A   1      44.440  32.717  30.709  1.00  0.00     0.057 A 
ATOM     80  C   UNL A   1      44.614  33.704  29.730  1.00  0.00     0.134 A 
ATOM     81  C   UNL A   1      44.438  33.128  32.048  1.00  0.00     0.134 A 
ATOM     82  F   UNL A   1      44.633  33.378  28.430  1.00  0.00    -0.206 F 
ATOM     83  C   UNL A   1      44.764  35.050  30.071  1.00  0.00     0.040 A 
ATOM     84  C   UNL A   1      44.561  34.474  32.400  1.00  0.00     0.040 A 
ATOM     85  F   UNL A   1      44.259  32.234  33.033  1.00  0.00    -0.206 F 
ATOM     86  C   UNL A   1      44.726  35.438  31.407  1.00  0.00     0.006 A 
ENDBRANCH  62  79
ENDBRANCH  36  37
ENDBRANCH  28  31
ENDBRANCH  26  27
ENDBRANCH   1  26
TORSDOF 13
ENDMDL
