MODEL 1
REMARK VINA RESULT:      -9.5      0.000      0.000
REMARK SMILES CCN(CC)C(=O)[C@H](C)SCC(=O)NCCCNC(=O)c1ccc(-c2c3nc(c(-c4c(F)cccc4F)c4ccc([nH]4)c(-c4c(F)cccc4F)c4nc(c(-c5c(F)cccc5F)c5ccc2[nH]5)C=C4)C=C3)cc1
REMARK SMILES IDX 15 1 14 2 12 3 13 4 11 6 10 7 8 8 9 9 6 10 3 11 7 12 2 13
REMARK SMILES IDX 1 14 4 15 5 16 16 17 17 18 18 19 19 20 20 22 21 23 22 24
REMARK SMILES IDX 74 25 23 26 73 27 24 28 25 29 26 30 67 31 27 32 72 33 66 34
REMARK SMILES IDX 68 35 28 36 71 37 65 38 64 39 29 41 55 42 38 43 54 44 39 45
REMARK SMILES IDX 42 46 53 47 69 48 40 49 41 50 52 52 70 53 43 54 30 55 31 56
REMARK SMILES IDX 36 57 32 58 33 59 35 60 37 61 34 62 56 63 57 64 62 65 58 66
REMARK SMILES IDX 59 67 61 68 63 69 60 70 44 71 45 72 50 73 46 74 47 75 49 76
REMARK SMILES IDX 51 77 48 78
REMARK H PARENT 14 5 18 21 68 40 42 51
REMARK Flexibility Score: inf
ROOT
ATOM      1  C   UNL A   1      33.677  26.927  25.173  1.00  0.00     0.117 C 
ENDROOT
BRANCH   1   2
ATOM      2  N   UNL A   1      33.934  26.782  23.751  1.00  0.00    -0.355 N 
ATOM      3  C   UNL A   1      33.374  25.949  22.824  1.00  0.00     0.230 C 
ATOM      4  O   UNL A   1      33.760  26.045  21.653  1.00  0.00    -0.274 OA
ATOM      5  H   UNL A   1      34.626  27.385  23.396  1.00  0.00     0.163 HD
BRANCH   3   6
ATOM      6  C   UNL A   1      32.234  25.012  23.173  1.00  0.00     0.170 C 
BRANCH   6   7
ATOM      7  S   UNL A   1      32.394  23.280  22.632  1.00  0.00    -0.139 SA
BRANCH   7   8
ATOM      8  C   UNL A   1      33.387  22.474  23.960  1.00  0.00     0.133 C 
ATOM      9  C   UNL A   1      33.130  20.974  24.036  1.00  0.00     0.030 C 
BRANCH   8  10
ATOM     10  C   UNL A   1      34.889  22.792  23.892  1.00  0.00     0.235 C 
ATOM     11  N   UNL A   1      35.624  22.694  25.075  1.00  0.00    -0.342 N 
ATOM     12  O   UNL A   1      35.465  23.117  22.856  1.00  0.00    -0.274 OA
BRANCH  11  13
ATOM     13  C   UNL A   1      37.072  22.512  24.940  1.00  0.00     0.116 C 
ATOM     14  C   UNL A   1      37.436  21.031  24.892  1.00  0.00     0.027 C 
ENDBRANCH  11  13
BRANCH  11  15
ATOM     15  C   UNL A   1      35.119  23.245  26.330  1.00  0.00     0.116 C 
ATOM     16  C   UNL A   1      34.596  22.139  27.241  1.00  0.00     0.027 C 
ENDBRANCH  11  15
ENDBRANCH   8  10
ENDBRANCH   7   8
ENDBRANCH   6   7
ENDBRANCH   3   6
ENDBRANCH   1   2
BRANCH   1  17
ATOM     17  C   UNL A   1      33.898  28.340  25.723  1.00  0.00     0.042 C 
BRANCH  17  18
ATOM     18  C   UNL A   1      33.734  28.498  27.233  1.00  0.00     0.118 C 
BRANCH  18  19
ATOM     19  N   UNL A   1      33.708  29.890  27.653  1.00  0.00    -0.352 N 
ATOM     20  C   UNL A   1      34.641  30.663  28.298  1.00  0.00     0.251 C 
ATOM     21  H   UNL A   1      32.871  30.362  27.438  1.00  0.00     0.163 HD
ATOM     22  O   UNL A   1      34.310  31.776  28.702  1.00  0.00    -0.269 OA
BRANCH  20  23
ATOM     23  C   UNL A   1      36.029  30.196  28.539  1.00  0.00     0.039 A 
ATOM     24  C   UNL A   1      36.934  30.248  27.470  1.00  0.00     0.014 A 
ATOM     25  C   UNL A   1      36.435  29.628  29.748  1.00  0.00     0.014 A 
ATOM     26  C   UNL A   1      38.246  29.787  27.628  1.00  0.00     0.010 A 
ATOM     27  C   UNL A   1      37.763  29.223  29.926  1.00  0.00     0.010 A 
ATOM     28  C   UNL A   1      38.682  29.296  28.868  1.00  0.00    -0.014 A 
BRANCH  28  29
ATOM     29  C   UNL A   1      40.094  28.868  29.070  1.00  0.00     0.031 A 
ATOM     30  C   UNL A   1      41.105  29.808  29.667  1.00  0.00     0.074 A 
ATOM     31  C   UNL A   1      40.483  27.641  28.671  1.00  0.00     0.049 A 
ATOM     32  N   UNL A   1      42.393  29.635  29.847  1.00  0.00    -0.248 NA
ATOM     33  C   UNL A   1      40.612  31.123  30.102  1.00  0.00     0.031 C 
ATOM     34  C   UNL A   1      39.613  26.637  28.055  1.00  0.00     0.029 A 
ATOM     35  N   UNL A   1      41.713  27.032  28.714  1.00  0.00    -0.354 N 
ATOM     36  C   UNL A   1      42.862  30.819  30.401  1.00  0.00     0.074 A 
ATOM     37  C   UNL A   1      41.730  31.717  30.492  1.00  0.00     0.031 C 
ATOM     38  C   UNL A   1      40.332  25.534  27.793  1.00  0.00     0.029 A 
ATOM     39  C   UNL A   1      41.719  25.764  28.186  1.00  0.00     0.049 A 
ATOM     40  H   UNL A   1      42.514  27.464  29.088  1.00  0.00     0.167 HD
ATOM     41  C   UNL A   1      44.117  31.125  30.813  1.00  0.00     0.037 A 
ATOM     42  C   UNL A   1      42.729  24.887  28.022  1.00  0.00     0.037 A 
ATOM     43  C   UNL A   1      45.241  30.227  30.748  1.00  0.00     0.049 A 
ATOM     44  C   UNL A   1      44.114  25.258  28.471  1.00  0.00     0.074 A 
ATOM     45  C   UNL A   1      46.538  30.436  31.186  1.00  0.00     0.029 A 
ATOM     46  N   UNL A   1      45.203  28.949  30.212  1.00  0.00    -0.354 N 
ATOM     47  N   UNL A   1      44.533  26.365  29.032  1.00  0.00    -0.248 NA
ATOM     48  C   UNL A   1      45.169  24.254  28.264  1.00  0.00     0.031 C 
ATOM     49  C   UNL A   1      47.294  29.298  30.882  1.00  0.00     0.029 A 
ATOM     50  C   UNL A   1      46.457  28.365  30.292  1.00  0.00     0.049 A 
ATOM     51  H   UNL A   1      44.403  28.519  29.832  1.00  0.00     0.167 HD
ATOM     52  C   UNL A   1      45.888  26.182  29.272  1.00  0.00     0.074 A 
ATOM     53  C   UNL A   1      46.221  24.852  28.803  1.00  0.00     0.031 C 
ATOM     54  C   UNL A   1      46.777  27.038  29.831  1.00  0.00     0.037 A 
BRANCH  41  55
ATOM     55  C   UNL A   1      44.343  32.497  31.377  1.00  0.00     0.057 A 
ATOM     56  C   UNL A   1      44.235  32.759  32.748  1.00  0.00     0.134 A 
ATOM     57  C   UNL A   1      44.717  33.561  30.544  1.00  0.00     0.134 A 
ATOM     58  F   UNL A   1      43.873  31.786  33.598  1.00  0.00    -0.206 F 
ATOM     59  C   UNL A   1      44.466  34.034  33.269  1.00  0.00     0.040 A 
ATOM     60  C   UNL A   1      44.974  34.834  31.056  1.00  0.00     0.040 A 
ATOM     61  F   UNL A   1      44.849  33.377  29.221  1.00  0.00    -0.206 F 
ATOM     62  C   UNL A   1      44.842  35.074  32.422  1.00  0.00     0.006 A 
ENDBRANCH  41  55
BRANCH  42  63
ATOM     63  C   UNL A   1      42.466  23.559  27.416  1.00  0.00     0.057 A 
ATOM     64  C   UNL A   1      42.160  22.451  28.214  1.00  0.00     0.134 A 
ATOM     65  C   UNL A   1      42.525  23.362  26.031  1.00  0.00     0.134 A 
ATOM     66  F   UNL A   1      42.112  22.574  29.549  1.00  0.00    -0.206 F 
ATOM     67  C   UNL A   1      41.940  21.189  27.660  1.00  0.00     0.040 A 
ATOM     68  C   UNL A   1      42.283  22.111  25.462  1.00  0.00     0.040 A 
ATOM     69  F   UNL A   1      42.809  24.386  25.213  1.00  0.00    -0.206 F 
ATOM     70  C   UNL A   1      41.996  21.018  26.278  1.00  0.00     0.006 A 
ENDBRANCH  42  63
BRANCH  54  71
ATOM     71  C   UNL A   1      48.186  26.553  30.000  1.00  0.00     0.057 A 
ATOM     72  C   UNL A   1      49.164  26.768  29.021  1.00  0.00     0.134 A 
ATOM     73  C   UNL A   1      48.576  25.890  31.171  1.00  0.00     0.134 A 
ATOM     74  F   UNL A   1      48.851  27.384  27.871  1.00  0.00    -0.206 F 
ATOM     75  C   UNL A   1      50.477  26.324  29.193  1.00  0.00     0.040 A 
ATOM     76  C   UNL A   1      49.890  25.462  31.364  1.00  0.00     0.040 A 
ATOM     77  F   UNL A   1      47.689  25.658  32.150  1.00  0.00    -0.206 F 
ATOM     78  C   UNL A   1      50.843  25.674  30.371  1.00  0.00     0.006 A 
ENDBRANCH  54  71
ENDBRANCH  28  29
ENDBRANCH  20  23
ENDBRANCH  18  19
ENDBRANCH  17  18
ENDBRANCH   1  17
TORSDOF 15
ENDMDL
MODEL 2
REMARK VINA RESULT:      -9.4      2.091      7.367
REMARK SMILES CCN(CC)C(=O)[C@H](C)SCC(=O)NCCCNC(=O)c1ccc(-c2c3nc(c(-c4c(F)cccc4F)c4ccc([nH]4)c(-c4c(F)cccc4F)c4nc(c(-c5c(F)cccc5F)c5ccc2[nH]5)C=C4)C=C3)cc1
REMARK SMILES IDX 15 1 14 2 12 3 13 4 11 6 10 7 8 8 9 9 6 10 3 11 7 12 2 13
REMARK SMILES IDX 1 14 4 15 5 16 16 17 17 18 18 19 19 20 20 22 21 23 22 24
REMARK SMILES IDX 74 25 23 26 73 27 24 28 25 29 26 30 67 31 27 32 72 33 66 34
REMARK SMILES IDX 68 35 28 36 71 37 65 38 64 39 29 41 55 42 38 43 54 44 39 45
REMARK SMILES IDX 42 46 53 47 69 48 40 49 41 50 52 52 70 53 43 54 30 55 31 56
REMARK SMILES IDX 36 57 32 58 33 59 35 60 37 61 34 62 56 63 57 64 62 65 58 66
REMARK SMILES IDX 59 67 61 68 63 69 60 70 44 71 45 72 50 73 46 74 47 75 49 76
REMARK SMILES IDX 51 77 48 78
REMARK H PARENT 14 5 18 21 68 40 42 51
REMARK Flexibility Score: inf
ROOT
ATOM      1  C   UNL A   1      36.028  20.295  24.989  1.00  0.00     0.117 C 
ENDROOT
BRANCH   1   2
ATOM      2  N   UNL A   1      34.803  19.517  25.020  1.00  0.00    -0.355 N 
ATOM      3  C   UNL A   1      33.500  19.911  25.129  1.00  0.00     0.230 C 
ATOM      4  O   UNL A   1      32.627  19.035  25.105  1.00  0.00    -0.274 OA
ATOM      5  H   UNL A   1      34.933  18.545  24.950  1.00  0.00     0.163 HD
BRANCH   3   6
ATOM      6  C   UNL A   1      33.104  21.375  25.162  1.00  0.00     0.170 C 
BRANCH   6   7
ATOM      7  S   UNL A   1      32.896  22.211  23.558  1.00  0.00    -0.139 SA
BRANCH   7   8
ATOM      8  C   UNL A   1      33.913  23.742  23.703  1.00  0.00     0.133 C 
ATOM      9  C   UNL A   1      35.396  23.466  23.484  1.00  0.00     0.030 C 
BRANCH   8  10
ATOM     10  C   UNL A   1      33.414  24.904  22.829  1.00  0.00     0.235 C 
ATOM     11  N   UNL A   1      32.888  26.021  23.479  1.00  0.00    -0.342 N 
ATOM     12  O   UNL A   1      33.466  24.897  21.601  1.00  0.00    -0.274 OA
BRANCH  11  13
ATOM     13  C   UNL A   1      32.871  27.278  22.727  1.00  0.00     0.116 C 
ATOM     14  C   UNL A   1      33.749  28.330  23.400  1.00  0.00     0.027 C 
ENDBRANCH  11  13
BRANCH  11  15
ATOM     15  C   UNL A   1      31.951  25.878  24.591  1.00  0.00     0.116 C 
ATOM     16  C   UNL A   1      30.582  25.421  24.097  1.00  0.00     0.027 C 
ENDBRANCH  11  15
ENDBRANCH   8  10
ENDBRANCH   7   8
ENDBRANCH   6   7
ENDBRANCH   3   6
ENDBRANCH   1   2
BRANCH   1  17
ATOM     17  C   UNL A   1      37.315  19.463  24.955  1.00  0.00     0.042 C 
BRANCH  17  18
ATOM     18  C   UNL A   1      38.590  20.192  25.372  1.00  0.00     0.118 C 
BRANCH  18  19
ATOM     19  N   UNL A   1      39.711  19.291  25.580  1.00  0.00    -0.352 N 
ATOM     20  C   UNL A   1      40.984  19.514  26.043  1.00  0.00     0.251 C 
ATOM     21  H   UNL A   1      39.525  18.353  25.347  1.00  0.00     0.163 HD
ATOM     22  O   UNL A   1      41.810  18.608  25.961  1.00  0.00    -0.269 OA
BRANCH  20  23
ATOM     23  C   UNL A   1      41.401  20.816  26.622  1.00  0.00     0.039 A 
ATOM     24  C   UNL A   1      41.871  21.804  25.747  1.00  0.00     0.014 A 
ATOM     25  C   UNL A   1      41.426  21.055  27.998  1.00  0.00     0.014 A 
ATOM     26  C   UNL A   1      42.312  23.037  26.241  1.00  0.00     0.010 A 
ATOM     27  C   UNL A   1      41.810  22.309  28.488  1.00  0.00     0.010 A 
ATOM     28  C   UNL A   1      42.258  23.313  27.616  1.00  0.00    -0.014 A 
BRANCH  28  29
ATOM     29  C   UNL A   1      42.658  24.645  28.147  1.00  0.00     0.031 A 
ATOM     30  C   UNL A   1      41.632  25.720  28.379  1.00  0.00     0.074 A 
ATOM     31  C   UNL A   1      43.960  24.908  28.379  1.00  0.00     0.049 A 
ATOM     32  N   UNL A   1      41.805  26.962  28.764  1.00  0.00    -0.248 NA
ATOM     33  C   UNL A   1      40.228  25.361  28.129  1.00  0.00     0.031 C 
ATOM     34  C   UNL A   1      45.061  23.967  28.175  1.00  0.00     0.029 A 
ATOM     35  N   UNL A   1      44.577  26.049  28.828  1.00  0.00    -0.354 N 
ATOM     36  C   UNL A   1      40.539  27.532  28.788  1.00  0.00     0.074 A 
ATOM     37  C   UNL A   1      39.611  26.515  28.342  1.00  0.00     0.031 C 
ATOM     38  C   UNL A   1      46.217  24.563  28.512  1.00  0.00     0.029 A 
ATOM     39  C   UNL A   1      45.943  25.937  28.919  1.00  0.00     0.049 A 
ATOM     40  H   UNL A   1      44.087  26.870  29.062  1.00  0.00     0.167 HD
ATOM     41  C   UNL A   1      40.179  28.785  29.164  1.00  0.00     0.037 A 
ATOM     42  C   UNL A   1      46.875  26.842  29.277  1.00  0.00     0.037 A 
ATOM     43  C   UNL A   1      41.094  29.793  29.632  1.00  0.00     0.049 A 
ATOM     44  C   UNL A   1      46.451  28.228  29.672  1.00  0.00     0.074 A 
ATOM     45  C   UNL A   1      40.812  31.073  30.079  1.00  0.00     0.029 A 
ATOM     46  N   UNL A   1      42.469  29.637  29.716  1.00  0.00    -0.354 N 
ATOM     47  N   UNL A   1      45.246  28.739  29.731  1.00  0.00    -0.248 NA
ATOM     48  C   UNL A   1      47.519  29.165  30.053  1.00  0.00     0.031 C 
ATOM     49  C   UNL A   1      42.020  31.704  30.398  1.00  0.00     0.029 A 
ATOM     50  C   UNL A   1      43.050  30.802  30.189  1.00  0.00     0.049 A 
ATOM     51  H   UNL A   1      42.960  28.818  29.475  1.00  0.00     0.167 HD
ATOM     52  C   UNL A   1      45.407  30.043  30.181  1.00  0.00     0.074 A 
ATOM     53  C   UNL A   1      46.826  30.243  30.390  1.00  0.00     0.031 C 
ATOM     54  C   UNL A   1      44.463  30.989  30.402  1.00  0.00     0.037 A 
BRANCH  41  55
ATOM     55  C   UNL A   1      38.722  29.137  29.085  1.00  0.00     0.057 A 
ATOM     56  C   UNL A   1      37.879  29.041  30.199  1.00  0.00     0.134 A 
ATOM     57  C   UNL A   1      38.166  29.621  27.893  1.00  0.00     0.134 A 
ATOM     58  F   UNL A   1      38.347  28.578  31.367  1.00  0.00    -0.206 F 
ATOM     59  C   UNL A   1      36.528  29.389  30.124  1.00  0.00     0.040 A 
ATOM     60  C   UNL A   1      36.824  29.994  27.813  1.00  0.00     0.040 A 
ATOM     61  F   UNL A   1      38.921  29.747  26.791  1.00  0.00    -0.206 F 
ATOM     62  C   UNL A   1      35.999  29.873  28.930  1.00  0.00     0.006 A 
ENDBRANCH  41  55
BRANCH  42  63
ATOM     63  C   UNL A   1      48.309  26.461  29.294  1.00  0.00     0.057 A 
ATOM     64  C   UNL A   1      49.131  26.704  28.188  1.00  0.00     0.134 A 
ATOM     65  C   UNL A   1      48.887  25.837  30.406  1.00  0.00     0.134 A 
ATOM     66  F   UNL A   1      48.628  27.277  27.086  1.00  0.00    -0.206 F 
ATOM     67  C   UNL A   1      50.475  26.324  28.179  1.00  0.00     0.040 A 
ATOM     68  C   UNL A   1      50.234  25.474  30.419  1.00  0.00     0.040 A 
ATOM     69  F   UNL A   1      48.151  25.581  31.498  1.00  0.00    -0.206 F 
ATOM     70  C   UNL A   1      51.031  25.711  29.301  1.00  0.00     0.006 A 
ENDBRANCH  42  63
BRANCH  54  71
ATOM     71  C   UNL A   1      44.927  32.314  30.929  1.00  0.00     0.057 A 
ATOM     72  C   UNL A   1      45.247  33.378  30.076  1.00  0.00     0.134 A 
ATOM     73  C   UNL A   1      45.025  32.538  32.309  1.00  0.00     0.134 A 
ATOM     74  F   UNL A   1      45.188  33.223  28.745  1.00  0.00    -0.206 F 
ATOM     75  C   UNL A   1      45.667  34.612  30.577  1.00  0.00     0.040 A 
ATOM     76  C   UNL A   1      45.422  33.773  32.821  1.00  0.00     0.040 A 
ATOM     77  F   UNL A   1      44.727  31.562  33.180  1.00  0.00    -0.206 F 
ATOM     78  C   UNL A   1      45.749  34.813  31.954  1.00  0.00     0.006 A 
ENDBRANCH  54  71
ENDBRANCH  28  29
ENDBRANCH  20  23
ENDBRANCH  18  19
ENDBRANCH  17  18
ENDBRANCH   1  17
TORSDOF 15
ENDMDL
MODEL 3
REMARK VINA RESULT:      -9.4      2.105      7.412
REMARK SMILES CCN(CC)C(=O)[C@H](C)SCC(=O)NCCCNC(=O)c1ccc(-c2c3nc(c(-c4c(F)cccc4F)c4ccc([nH]4)c(-c4c(F)cccc4F)c4nc(c(-c5c(F)cccc5F)c5ccc2[nH]5)C=C4)C=C3)cc1
REMARK SMILES IDX 15 1 14 2 12 3 13 4 11 6 10 7 8 8 9 9 6 10 3 11 7 12 2 13
REMARK SMILES IDX 1 14 4 15 5 16 16 17 17 18 18 19 19 20 20 22 21 23 22 24
REMARK SMILES IDX 74 25 23 26 73 27 24 28 25 29 26 30 67 31 27 32 72 33 66 34
REMARK SMILES IDX 68 35 28 36 71 37 65 38 64 39 29 41 55 42 38 43 54 44 39 45
REMARK SMILES IDX 42 46 53 47 69 48 40 49 41 50 52 52 70 53 43 54 30 55 31 56
REMARK SMILES IDX 36 57 32 58 33 59 35 60 37 61 34 62 56 63 57 64 62 65 58 66
REMARK SMILES IDX 59 67 61 68 63 69 60 70 44 71 45 72 50 73 46 74 47 75 49 76
REMARK SMILES IDX 51 77 48 78
REMARK H PARENT 14 5 18 21 68 40 42 51
REMARK Flexibility Score: inf
ROOT
ATOM      1  C   UNL A   1      35.919  20.496  24.991  1.00  0.00     0.117 C 
ENDROOT
BRANCH   1   2
ATOM      2  N   UNL A   1      34.671  19.790  25.220  1.00  0.00    -0.355 N 
ATOM      3  C   UNL A   1      33.377  20.183  25.031  1.00  0.00     0.230 C 
ATOM      4  O   UNL A   1      32.483  19.368  25.285  1.00  0.00    -0.274 OA
ATOM      5  H   UNL A   1      34.776  18.876  25.570  1.00  0.00     0.163 HD
BRANCH   3   6
ATOM      6  C   UNL A   1      33.028  21.526  24.420  1.00  0.00     0.170 C 
BRANCH   6   7
ATOM      7  S   UNL A   1      33.297  23.000  25.455  1.00  0.00    -0.139 SA
BRANCH   7   8
ATOM      8  C   UNL A   1      32.149  24.264  24.761  1.00  0.00     0.133 C 
ATOM      9  C   UNL A   1      30.935  23.630  24.094  1.00  0.00     0.030 C 
BRANCH   8  10
ATOM     10  C   UNL A   1      31.742  25.353  25.767  1.00  0.00     0.235 C 
ATOM     11  N   UNL A   1      32.274  26.631  25.586  1.00  0.00    -0.342 N 
ATOM     12  O   UNL A   1      30.973  25.154  26.705  1.00  0.00    -0.274 OA
BRANCH  11  13
ATOM     13  C   UNL A   1      31.546  27.744  26.200  1.00  0.00     0.116 C 
ATOM     14  C   UNL A   1      32.223  28.194  27.491  1.00  0.00     0.027 C 
ENDBRANCH  11  13
BRANCH  11  15
ATOM     15  C   UNL A   1      33.689  26.826  25.281  1.00  0.00     0.116 C 
ATOM     16  C   UNL A   1      33.876  27.914  24.229  1.00  0.00     0.027 C 
ENDBRANCH  11  15
ENDBRANCH   8  10
ENDBRANCH   7   8
ENDBRANCH   6   7
ENDBRANCH   3   6
ENDBRANCH   1   2
BRANCH   1  17
ATOM     17  C   UNL A   1      37.161  19.600  24.934  1.00  0.00     0.042 C 
BRANCH  17  18
ATOM     18  C   UNL A   1      38.500  20.305  25.139  1.00  0.00     0.118 C 
BRANCH  18  19
ATOM     19  N   UNL A   1      39.586  19.381  25.422  1.00  0.00    -0.352 N 
ATOM     20  C   UNL A   1      40.831  19.579  25.964  1.00  0.00     0.251 C 
ATOM     21  H   UNL A   1      39.394  18.446  25.181  1.00  0.00     0.163 HD
ATOM     22  O   UNL A   1      41.640  18.654  25.939  1.00  0.00    -0.269 OA
BRANCH  20  23
ATOM     23  C   UNL A   1      41.239  20.874  26.563  1.00  0.00     0.039 A 
ATOM     24  C   UNL A   1      41.935  21.782  25.753  1.00  0.00     0.014 A 
ATOM     25  C   UNL A   1      41.037  21.179  27.911  1.00  0.00     0.014 A 
ATOM     26  C   UNL A   1      42.377  23.003  26.275  1.00  0.00     0.010 A 
ATOM     27  C   UNL A   1      41.425  22.425  28.417  1.00  0.00     0.010 A 
ATOM     28  C   UNL A   1      42.100  23.350  27.606  1.00  0.00    -0.014 A 
BRANCH  28  29
ATOM     29  C   UNL A   1      42.502  24.674  28.153  1.00  0.00     0.031 A 
ATOM     30  C   UNL A   1      41.484  25.762  28.363  1.00  0.00     0.074 A 
ATOM     31  C   UNL A   1      43.801  24.920  28.420  1.00  0.00     0.049 A 
ATOM     32  N   UNL A   1      41.663  27.000  28.758  1.00  0.00    -0.248 NA
ATOM     33  C   UNL A   1      40.083  25.422  28.075  1.00  0.00     0.031 C 
ATOM     34  C   UNL A   1      44.895  23.966  28.241  1.00  0.00     0.029 A 
ATOM     35  N   UNL A   1      44.420  26.052  28.890  1.00  0.00    -0.354 N 
ATOM     36  C   UNL A   1      40.404  27.586  28.752  1.00  0.00     0.074 A 
ATOM     37  C   UNL A   1      39.475  26.582  28.277  1.00  0.00     0.031 C 
ATOM     38  C   UNL A   1      46.049  24.546  28.610  1.00  0.00     0.029 A 
ATOM     39  C   UNL A   1      45.782  25.922  29.016  1.00  0.00     0.049 A 
ATOM     40  H   UNL A   1      43.935  26.878  29.115  1.00  0.00     0.167 HD
ATOM     41  C   UNL A   1      40.049  28.841  29.124  1.00  0.00     0.037 A 
ATOM     42  C   UNL A   1      46.716  26.813  29.402  1.00  0.00     0.037 A 
ATOM     43  C   UNL A   1      40.965  29.836  29.620  1.00  0.00     0.049 A 
ATOM     44  C   UNL A   1      46.299  28.204  29.793  1.00  0.00     0.074 A 
ATOM     45  C   UNL A   1      40.687  31.118  30.065  1.00  0.00     0.029 A 
ATOM     46  N   UNL A   1      42.335  29.662  29.739  1.00  0.00    -0.354 N 
ATOM     47  N   UNL A   1      45.099  28.729  29.822  1.00  0.00    -0.248 NA
ATOM     48  C   UNL A   1      47.368  29.125  30.205  1.00  0.00     0.031 C 
ATOM     49  C   UNL A   1      41.894  31.732  30.418  1.00  0.00     0.029 A 
ATOM     50  C   UNL A   1      42.918  30.818  30.232  1.00  0.00     0.049 A 
ATOM     51  H   UNL A   1      42.822  28.838  29.507  1.00  0.00     0.167 HD
ATOM     52  C   UNL A   1      45.265  30.029  30.282  1.00  0.00     0.074 A 
ATOM     53  C   UNL A   1      46.680  30.211  30.528  1.00  0.00     0.031 C 
ATOM     54  C   UNL A   1      44.327  30.986  30.482  1.00  0.00     0.037 A 
BRANCH  41  55
ATOM     55  C   UNL A   1      38.600  29.213  29.008  1.00  0.00     0.057 A 
ATOM     56  C   UNL A   1      37.734  29.155  30.108  1.00  0.00     0.134 A 
ATOM     57  C   UNL A   1      38.073  29.675  27.794  1.00  0.00     0.134 A 
ATOM     58  F   UNL A   1      38.173  28.714  31.296  1.00  0.00    -0.206 F 
ATOM     59  C   UNL A   1      36.390  29.520  29.999  1.00  0.00     0.040 A 
ATOM     60  C   UNL A   1      36.738  30.065  27.680  1.00  0.00     0.040 A 
ATOM     61  F   UNL A   1      38.851  29.764  26.704  1.00  0.00    -0.206 F 
ATOM     62  C   UNL A   1      35.891  29.983  28.783  1.00  0.00     0.006 A 
ENDBRANCH  41  55
BRANCH  42  63
ATOM     63  C   UNL A   1      48.143  26.415  29.455  1.00  0.00     0.057 A 
ATOM     64  C   UNL A   1      48.680  25.808  30.596  1.00  0.00     0.134 A 
ATOM     65  C   UNL A   1      49.007  26.641  28.376  1.00  0.00     0.134 A 
ATOM     66  F   UNL A   1      47.907  25.588  31.670  1.00  0.00    -0.206 F 
ATOM     67  C   UNL A   1      50.028  25.454  30.671  1.00  0.00     0.040 A 
ATOM     68  C   UNL A   1      50.351  26.270  28.429  1.00  0.00     0.040 A 
ATOM     69  F   UNL A   1      48.552  27.215  27.253  1.00  0.00    -0.206 F 
ATOM     70  C   UNL A   1      50.867  25.681  29.582  1.00  0.00     0.006 A 
ENDBRANCH  42  63
BRANCH  54  71
ATOM     71  C   UNL A   1      44.794  32.303  31.027  1.00  0.00     0.057 A 
ATOM     72  C   UNL A   1      44.916  32.532  32.403  1.00  0.00     0.134 A 
ATOM     73  C   UNL A   1      45.154  33.345  30.162  1.00  0.00     0.134 A 
ATOM     74  F   UNL A   1      44.573  31.580  33.284  1.00  0.00    -0.206 F 
ATOM     75  C   UNL A   1      45.364  33.757  32.902  1.00  0.00     0.040 A 
ATOM     76  C   UNL A   1      45.623  34.566  30.648  1.00  0.00     0.040 A 
ATOM     77  F   UNL A   1      45.065  33.189  28.834  1.00  0.00    -0.206 F 
ATOM     78  C   UNL A   1      45.725  34.776  32.021  1.00  0.00     0.006 A 
ENDBRANCH  54  71
ENDBRANCH  28  29
ENDBRANCH  20  23
ENDBRANCH  18  19
ENDBRANCH  17  18
ENDBRANCH   1  17
TORSDOF 15
ENDMDL
