MODEL 1
REMARK VINA RESULT:     -11.7      0.000      0.000
REMARK SMILES O=C1OC(c2ccc(Cl)cc2)=N/C1=C/Nc1ccc(O)c(C(=O)NCCCNC(=O)c2ccc(-c3c4nc(c(-c5c(F)cccc5F)c5ccc([nH]5)c(-c5c(F)cccc5F)c5nc(c(-c6c(F)cccc6F)c6ccc3[nH]6)C=C5)C=C4)cc2)c1
REMARK SMILES IDX 25 1 24 2 22 3 23 4 21 6 16 7 17 8 85 9 18 10 19 11 15 12
REMARK SMILES IDX 14 14 1 15 2 16 3 17 13 18 4 19 12 20 5 21 6 22 11 23 7 24
REMARK SMILES IDX 10 25 8 26 9 27 20 28 26 30 27 31 28 32 29 33 30 35 31 36
REMARK SMILES IDX 32 37 84 38 33 39 83 40 34 41 35 42 36 43 77 44 37 45 82 46
REMARK SMILES IDX 76 47 78 48 38 49 81 50 75 51 74 52 39 54 65 55 48 56 64 57
REMARK SMILES IDX 49 58 52 59 63 60 79 61 50 62 51 63 62 65 80 66 53 67 40 68
REMARK SMILES IDX 41 69 46 70 42 71 43 72 45 73 47 74 44 75 66 76 67 77 72 78
REMARK SMILES IDX 68 79 69 80 71 81 73 82 70 83 54 84 55 85 60 86 56 87 57 88
REMARK SMILES IDX 59 89 61 90 58 91
REMARK H PARENT 24 5 15 13 20 29 28 34 78 53 52 64
REMARK Flexibility Score: inf
ROOT
ATOM      1  C   UNL A   1      35.342  34.614  28.529  1.00  0.00     0.118 C 
ENDROOT
BRANCH   1   2
ATOM      2  N   UNL A   1      34.048  35.245  28.394  1.00  0.00    -0.352 N 
ATOM      3  C   UNL A   1      33.174  35.772  29.307  1.00  0.00     0.255 C 
ATOM      4  O   UNL A   1      32.098  36.168  28.845  1.00  0.00    -0.269 OA
ATOM      5  H   UNL A   1      33.733  35.307  27.463  1.00  0.00     0.163 HD
BRANCH   3   6
ATOM      6  C   UNL A   1      33.455  35.994  30.759  1.00  0.00     0.083 A 
ATOM      7  C   UNL A   1      34.189  34.835  32.807  1.00  0.00     0.039 A 
ATOM      8  C   UNL A   1      33.972  36.006  33.532  1.00  0.00     0.030 A 
ATOM      9  C   UNL A   1      33.905  34.840  31.437  1.00  0.00     0.043 A 
ATOM     10  C   UNL A   1      33.582  37.175  32.884  1.00  0.00     0.049 A 
ATOM     11  C   UNL A   1      33.357  37.177  31.503  1.00  0.00     0.128 A 
BRANCH   7  12
ATOM     12  N   UNL A   1      34.622  33.653  33.416  1.00  0.00    -0.360 N 
ATOM     13  H   UNL A   1      34.290  33.475  34.326  1.00  0.00     0.166 HD
BRANCH  12  14
ATOM     14  C   UNL A   1      35.463  32.718  32.872  1.00  0.00     0.119 C 
ATOM     15  O   UNL A   1      36.666  33.183  35.604  1.00  0.00    -0.244 OA
ATOM     16  C   UNL A   1      37.090  32.435  34.748  1.00  0.00     0.365 C 
ATOM     17  O   UNL A   1      38.171  31.604  34.822  1.00  0.00    -0.402 OA
ATOM     18  C   UNL A   1      36.576  32.181  33.375  1.00  0.00     0.168 C 
ATOM     19  C   UNL A   1      38.264  31.009  33.612  1.00  0.00     0.231 C 
ATOM     20  N   UNL A   1      37.380  31.293  32.714  1.00  0.00    -0.204 NA
BRANCH  19  21
ATOM     21  C   UNL A   1      39.419  30.138  33.436  1.00  0.00     0.037 A 
ATOM     22  C   UNL A   1      39.275  28.874  32.859  1.00  0.00     0.015 A 
ATOM     23  C   UNL A   1      40.677  30.616  33.816  1.00  0.00     0.015 A 
ATOM     24  C   UNL A   1      40.409  28.083  32.659  1.00  0.00     0.021 A 
ATOM     25  C   UNL A   1      41.802  29.814  33.633  1.00  0.00     0.021 A 
ATOM     26  C   UNL A   1      41.664  28.553  33.050  1.00  0.00     0.041 A 
ATOM     27  Cl  UNL A   1      43.057  27.574  32.804  1.00  0.00    -0.084 Cl
ENDBRANCH  19  21
ENDBRANCH  12  14
ENDBRANCH   7  12
BRANCH  11  28
ATOM     28  O   UNL A   1      33.108  38.389  30.933  1.00  0.00    -0.507 OA
ATOM     29  H   UNL A   1      33.800  38.861  30.515  1.00  0.00     0.293 HD
ENDBRANCH  11  28
ENDBRANCH   3   6
ENDBRANCH   1   2
BRANCH   1  30
ATOM     30  C   UNL A   1      35.272  33.155  28.075  1.00  0.00     0.042 C 
BRANCH  30  31
ATOM     31  C   UNL A   1      34.626  32.237  29.104  1.00  0.00     0.118 C 
BRANCH  31  32
ATOM     32  N   UNL A   1      34.077  31.038  28.484  1.00  0.00    -0.352 N 
ATOM     33  C   UNL A   1      34.718  29.948  27.957  1.00  0.00     0.251 C 
ATOM     34  H   UNL A   1      33.095  31.006  28.438  1.00  0.00     0.163 HD
ATOM     35  O   UNL A   1      34.101  29.167  27.238  1.00  0.00    -0.269 OA
BRANCH  33  36
ATOM     36  C   UNL A   1      36.149  29.711  28.240  1.00  0.00     0.039 A 
ATOM     37  C   UNL A   1      36.518  29.239  29.503  1.00  0.00     0.014 A 
ATOM     38  C   UNL A   1      37.128  29.982  27.281  1.00  0.00     0.014 A 
ATOM     39  C   UNL A   1      37.860  28.974  29.779  1.00  0.00     0.010 A 
ATOM     40  C   UNL A   1      38.455  29.645  27.528  1.00  0.00     0.010 A 
ATOM     41  C   UNL A   1      38.833  29.136  28.779  1.00  0.00    -0.014 A 
BRANCH  41  42
ATOM     42  C   UNL A   1      40.247  28.749  29.011  1.00  0.00     0.031 A 
ATOM     43  C   UNL A   1      41.219  29.731  29.598  1.00  0.00     0.074 A 
ATOM     44  C   UNL A   1      40.667  27.531  28.618  1.00  0.00     0.049 A 
ATOM     45  N   UNL A   1      42.505  29.601  29.801  1.00  0.00    -0.248 NA
ATOM     46  C   UNL A   1      40.678  31.043  29.987  1.00  0.00     0.031 C 
ATOM     47  C   UNL A   1      39.824  26.505  28.000  1.00  0.00     0.029 A 
ATOM     48  N   UNL A   1      41.910  26.954  28.669  1.00  0.00    -0.354 N 
ATOM     49  C   UNL A   1      42.928  30.813  30.331  1.00  0.00     0.074 A 
ATOM     50  C   UNL A   1      41.773  31.685  30.365  1.00  0.00     0.031 C 
ATOM     51  C   UNL A   1      40.568  25.416  27.753  1.00  0.00     0.029 A 
ATOM     52  C   UNL A   1      41.947  25.683  28.146  1.00  0.00     0.049 A 
ATOM     53  H   UNL A   1      42.701  27.406  29.043  1.00  0.00     0.167 HD
ATOM     54  C   UNL A   1      44.162  31.159  30.771  1.00  0.00     0.037 A 
ATOM     55  C   UNL A   1      42.980  24.835  27.988  1.00  0.00     0.037 A 
ATOM     56  C   UNL A   1      45.306  30.285  30.731  1.00  0.00     0.049 A 
ATOM     57  C   UNL A   1      44.350  25.261  28.434  1.00  0.00     0.074 A 
ATOM     58  C   UNL A   1      46.589  30.521  31.192  1.00  0.00     0.029 A 
ATOM     59  N   UNL A   1      45.308  29.010  30.182  1.00  0.00    -0.354 N 
ATOM     60  N   UNL A   1      44.725  26.383  28.999  1.00  0.00    -0.248 NA
ATOM     61  C   UNL A   1      45.444  24.303  28.219  1.00  0.00     0.031 C 
ATOM     62  C   UNL A   1      47.380  29.414  30.869  1.00  0.00     0.029 A 
ATOM     63  C   UNL A   1      46.578  28.461  30.262  1.00  0.00     0.049 A 
ATOM     64  H   UNL A   1      44.522  28.560  29.795  1.00  0.00     0.167 HD
ATOM     65  C   UNL A   1      46.088  26.258  29.231  1.00  0.00     0.074 A 
ATOM     66  C   UNL A   1      46.471  24.943  28.759  1.00  0.00     0.031 C 
ATOM     67  C   UNL A   1      46.945  27.150  29.786  1.00  0.00     0.037 A 
BRANCH  54  68
ATOM     68  C   UNL A   1      44.336  32.548  31.318  1.00  0.00     0.057 A 
ATOM     69  C   UNL A   1      44.327  32.809  32.696  1.00  0.00     0.134 A 
ATOM     70  C   UNL A   1      44.529  33.638  30.460  1.00  0.00     0.134 A 
ATOM     71  F   UNL A   1      44.138  31.813  33.575  1.00  0.00    -0.206 F 
ATOM     72  C   UNL A   1      44.465  34.104  33.197  1.00  0.00     0.040 A 
ATOM     73  C   UNL A   1      44.701  34.934  30.950  1.00  0.00     0.040 A 
ATOM     74  F   UNL A   1      44.559  33.463  29.130  1.00  0.00    -0.206 F 
ATOM     75  C   UNL A   1      44.658  35.171  32.323  1.00  0.00     0.006 A 
ENDBRANCH  54  68
BRANCH  55  76
ATOM     76  C   UNL A   1      42.752  23.493  27.396  1.00  0.00     0.057 A 
ATOM     77  C   UNL A   1      42.398  22.403  28.199  1.00  0.00     0.134 A 
ATOM     78  C   UNL A   1      42.870  23.267  26.019  1.00  0.00     0.134 A 
ATOM     79  F   UNL A   1      42.285  22.552  29.527  1.00  0.00    -0.206 F 
ATOM     80  C   UNL A   1      42.185  21.134  27.659  1.00  0.00     0.040 A 
ATOM     81  C   UNL A   1      42.633  22.009  25.461  1.00  0.00     0.040 A 
ATOM     82  F   UNL A   1      43.197  24.272  25.192  1.00  0.00    -0.206 F 
ATOM     83  C   UNL A   1      42.296  20.937  26.283  1.00  0.00     0.006 A 
ENDBRANCH  55  76
BRANCH  67  84
ATOM     84  C   UNL A   1      48.377  26.725  29.940  1.00  0.00     0.057 A 
ATOM     85  C   UNL A   1      48.813  25.971  31.037  1.00  0.00     0.134 A 
ATOM     86  C   UNL A   1      49.322  27.034  28.953  1.00  0.00     0.134 A 
ATOM     87  F   UNL A   1      47.963  25.653  32.026  1.00  0.00    -0.206 F 
ATOM     88  C   UNL A   1      50.141  25.556  31.156  1.00  0.00     0.040 A 
ATOM     89  C   UNL A   1      50.644  26.600  29.044  1.00  0.00     0.040 A 
ATOM     90  F   UNL A   1      48.970  27.747  27.872  1.00  0.00    -0.206 F 
ATOM     91  C   UNL A   1      51.059  25.863  30.152  1.00  0.00     0.006 A 
ENDBRANCH  67  84
ENDBRANCH  41  42
ENDBRANCH  33  36
ENDBRANCH  31  32
ENDBRANCH  30  31
ENDBRANCH   1  30
TORSDOF 14
ENDMDL
MODEL 2
REMARK VINA RESULT:     -11.4      4.460     11.632
REMARK SMILES O=C1OC(c2ccc(Cl)cc2)=N/C1=C/Nc1ccc(O)c(C(=O)NCCCNC(=O)c2ccc(-c3c4nc(c(-c5c(F)cccc5F)c5ccc([nH]5)c(-c5c(F)cccc5F)c5nc(c(-c6c(F)cccc6F)c6ccc3[nH]6)C=C5)C=C4)cc2)c1
REMARK SMILES IDX 25 1 24 2 22 3 23 4 21 6 16 7 17 8 85 9 18 10 19 11 15 12
REMARK SMILES IDX 14 14 1 15 2 16 3 17 13 18 4 19 12 20 5 21 6 22 11 23 7 24
REMARK SMILES IDX 10 25 8 26 9 27 20 28 26 30 27 31 28 32 29 33 30 35 31 36
REMARK SMILES IDX 32 37 84 38 33 39 83 40 34 41 35 42 36 43 77 44 37 45 82 46
REMARK SMILES IDX 76 47 78 48 38 49 81 50 75 51 74 52 39 54 65 55 48 56 64 57
REMARK SMILES IDX 49 58 52 59 63 60 79 61 50 62 51 63 62 65 80 66 53 67 40 68
REMARK SMILES IDX 41 69 46 70 42 71 43 72 45 73 47 74 44 75 66 76 67 77 72 78
REMARK SMILES IDX 68 79 69 80 71 81 73 82 70 83 54 84 55 85 60 86 56 87 57 88
REMARK SMILES IDX 59 89 61 90 58 91
REMARK H PARENT 24 5 15 13 20 29 28 34 78 53 52 64
REMARK Flexibility Score: inf
ROOT
ATOM      1  C   UNL A   1      42.096  20.526  27.788  1.00  0.00     0.118 C 
ENDROOT
BRANCH   1   2
ATOM      2  N   UNL A   1      42.064  19.254  27.101  1.00  0.00    -0.352 N 
ATOM      3  C   UNL A   1      42.811  18.734  26.079  1.00  0.00     0.255 C 
ATOM      4  O   UNL A   1      42.455  17.622  25.672  1.00  0.00    -0.269 OA
ATOM      5  H   UNL A   1      41.367  18.642  27.433  1.00  0.00     0.163 HD
BRANCH   3   6
ATOM      6  C   UNL A   1      44.051  19.342  25.503  1.00  0.00     0.083 A 
ATOM      7  C   UNL A   1      44.903  21.388  24.424  1.00  0.00     0.039 A 
ATOM      8  C   UNL A   1      46.137  20.764  24.248  1.00  0.00     0.030 A 
ATOM      9  C   UNL A   1      43.872  20.660  25.027  1.00  0.00     0.043 A 
ATOM     10  C   UNL A   1      46.362  19.488  24.755  1.00  0.00     0.049 A 
ATOM     11  C   UNL A   1      45.336  18.795  25.408  1.00  0.00     0.128 A 
BRANCH   7  12
ATOM     12  N   UNL A   1      44.653  22.685  23.965  1.00  0.00    -0.360 N 
ATOM     13  H   UNL A   1      44.951  22.898  23.051  1.00  0.00     0.166 HD
BRANCH  12  14
ATOM     14  C   UNL A   1      44.036  23.690  24.662  1.00  0.00     0.119 C 
ATOM     15  O   UNL A   1      46.819  24.788  24.241  1.00  0.00    -0.244 OA
ATOM     16  C   UNL A   1      45.911  25.333  24.834  1.00  0.00     0.365 C 
ATOM     17  O   UNL A   1      45.911  26.570  25.410  1.00  0.00    -0.402 OA
ATOM     18  C   UNL A   1      44.533  24.843  25.112  1.00  0.00     0.168 C 
ATOM     19  C   UNL A   1      44.694  26.714  25.980  1.00  0.00     0.231 C 
ATOM     20  N   UNL A   1      43.837  25.754  25.858  1.00  0.00    -0.204 NA
BRANCH  19  21
ATOM     21  C   UNL A   1      44.505  27.942  26.741  1.00  0.00     0.037 A 
ATOM     22  C   UNL A   1      43.346  28.706  26.582  1.00  0.00     0.015 A 
ATOM     23  C   UNL A   1      45.490  28.311  27.663  1.00  0.00     0.015 A 
ATOM     24  C   UNL A   1      43.174  29.852  27.362  1.00  0.00     0.021 A 
ATOM     25  C   UNL A   1      45.320  29.468  28.424  1.00  0.00     0.021 A 
ATOM     26  C   UNL A   1      44.161  30.230  28.274  1.00  0.00     0.041 A 
ATOM     27  Cl  UNL A   1      43.945  31.643  29.230  1.00  0.00    -0.084 Cl
ENDBRANCH  19  21
ENDBRANCH  12  14
ENDBRANCH   7  12
BRANCH  11  28
ATOM     28  O   UNL A   1      45.679  17.611  25.987  1.00  0.00    -0.507 OA
ATOM     29  H   UNL A   1      45.015  17.051  26.336  1.00  0.00     0.293 HD
ENDBRANCH  11  28
ENDBRANCH   3   6
ENDBRANCH   1   2
BRANCH   1  30
ATOM     30  C   UNL A   1      40.810  21.310  27.517  1.00  0.00     0.042 C 
BRANCH  30  31
ATOM     31  C   UNL A   1      40.942  22.297  26.365  1.00  0.00     0.118 C 
BRANCH  31  32
ATOM     32  N   UNL A   1      39.640  22.659  25.819  1.00  0.00    -0.352 N 
ATOM     33  C   UNL A   1      38.787  23.672  26.173  1.00  0.00     0.251 C 
ATOM     34  H   UNL A   1      39.326  22.089  25.081  1.00  0.00     0.163 HD
ATOM     35  O   UNL A   1      37.624  23.652  25.784  1.00  0.00    -0.269 OA
BRANCH  33  36
ATOM     36  C   UNL A   1      39.258  24.782  27.028  1.00  0.00     0.039 A 
ATOM     37  C   UNL A   1      40.062  25.775  26.462  1.00  0.00     0.014 A 
ATOM     38  C   UNL A   1      38.937  24.831  28.387  1.00  0.00     0.014 A 
ATOM     39  C   UNL A   1      40.487  26.851  27.243  1.00  0.00     0.010 A 
ATOM     40  C   UNL A   1      39.294  25.941  29.145  1.00  0.00     0.010 A 
ATOM     41  C   UNL A   1      40.071  26.963  28.580  1.00  0.00    -0.014 A 
BRANCH  41  42
ATOM     42  C   UNL A   1      40.410  28.156  29.395  1.00  0.00     0.031 A 
ATOM     43  C   UNL A   1      41.696  28.208  30.169  1.00  0.00     0.074 A 
ATOM     44  C   UNL A   1      39.517  29.159  29.494  1.00  0.00     0.049 A 
ATOM     45  N   UNL A   1      42.127  29.128  30.993  1.00  0.00    -0.248 NA
ATOM     46  C   UNL A   1      42.608  27.064  30.013  1.00  0.00     0.031 C 
ATOM     47  C   UNL A   1      38.218  29.204  28.819  1.00  0.00     0.029 A 
ATOM     48  N   UNL A   1      39.561  30.329  30.209  1.00  0.00    -0.354 N 
ATOM     49  C   UNL A   1      43.353  28.671  31.460  1.00  0.00     0.074 A 
ATOM     50  C   UNL A   1      43.569  27.366  30.873  1.00  0.00     0.031 C 
ATOM     51  C   UNL A   1      37.600  30.353  29.132  1.00  0.00     0.029 A 
ATOM     52  C   UNL A   1      38.434  31.101  30.066  1.00  0.00     0.049 A 
ATOM     53  H   UNL A   1      40.326  30.590  30.770  1.00  0.00     0.167 HD
ATOM     54  C   UNL A   1      44.228  29.293  32.288  1.00  0.00     0.037 A 
ATOM     55  C   UNL A   1      38.103  32.275  30.637  1.00  0.00     0.037 A 
ATOM     56  C   UNL A   1      44.002  30.590  32.870  1.00  0.00     0.049 A 
ATOM     57  C   UNL A   1      39.066  32.920  31.593  1.00  0.00     0.074 A 
ATOM     58  C   UNL A   1      44.844  31.330  33.683  1.00  0.00     0.029 A 
ATOM     59  N   UNL A   1      42.843  31.337  32.714  1.00  0.00    -0.354 N 
ATOM     60  N   UNL A   1      40.253  32.512  31.973  1.00  0.00    -0.248 NA
ATOM     61  C   UNL A   1      38.644  34.189  32.202  1.00  0.00     0.031 C 
ATOM     62  C   UNL A   1      44.170  32.493  34.067  1.00  0.00     0.029 A 
ATOM     63  C   UNL A   1      42.932  32.511  33.444  1.00  0.00     0.049 A 
ATOM     64  H   UNL A   1      42.070  31.072  32.164  1.00  0.00     0.167 HD
ATOM     65  C   UNL A   1      40.730  33.483  32.842  1.00  0.00     0.074 A 
ATOM     66  C   UNL A   1      39.710  34.509  32.921  1.00  0.00     0.031 C 
ATOM     67  C   UNL A   1      41.908  33.524  33.514  1.00  0.00     0.037 A 
BRANCH  54  68
ATOM     68  C   UNL A   1      45.501  28.566  32.619  1.00  0.00     0.057 A 
ATOM     69  C   UNL A   1      46.705  28.840  31.956  1.00  0.00     0.134 A 
ATOM     70  C   UNL A   1      45.528  27.589  33.623  1.00  0.00     0.134 A 
ATOM     71  F   UNL A   1      46.750  29.757  30.978  1.00  0.00    -0.206 F 
ATOM     72  C   UNL A   1      47.879  28.144  32.252  1.00  0.00     0.040 A 
ATOM     73  C   UNL A   1      46.703  26.910  33.951  1.00  0.00     0.040 A 
ATOM     74  F   UNL A   1      44.415  27.281  34.306  1.00  0.00    -0.206 F 
ATOM     75  C   UNL A   1      47.881  27.179  33.256  1.00  0.00     0.006 A 
ENDBRANCH  54  68
BRANCH  55  76
ATOM     76  C   UNL A   1      36.807  32.920  30.305  1.00  0.00     0.057 A 
ATOM     77  C   UNL A   1      36.665  33.693  29.148  1.00  0.00     0.134 A 
ATOM     78  C   UNL A   1      35.682  32.774  31.125  1.00  0.00     0.134 A 
ATOM     79  F   UNL A   1      37.712  33.884  28.331  1.00  0.00    -0.206 F 
ATOM     80  C   UNL A   1      35.456  34.311  28.824  1.00  0.00     0.040 A 
ATOM     81  C   UNL A   1      34.458  33.363  30.799  1.00  0.00     0.040 A 
ATOM     82  F   UNL A   1      35.748  32.037  32.244  1.00  0.00    -0.206 F 
ATOM     83  C   UNL A   1      34.345  34.139  29.649  1.00  0.00     0.006 A 
ENDBRANCH  55  76
BRANCH  67  84
ATOM     84  C   UNL A   1      42.170  34.728  34.371  1.00  0.00     0.057 A 
ATOM     85  C   UNL A   1      41.876  34.741  35.741  1.00  0.00     0.134 A 
ATOM     86  C   UNL A   1      42.768  35.872  33.829  1.00  0.00     0.134 A 
ATOM     87  F   UNL A   1      41.290  33.683  36.322  1.00  0.00    -0.206 F 
ATOM     88  C   UNL A   1      42.151  35.856  36.536  1.00  0.00     0.040 A 
ATOM     89  C   UNL A   1      43.075  36.981  34.618  1.00  0.00     0.040 A 
ATOM     90  F   UNL A   1      43.082  35.925  32.526  1.00  0.00    -0.206 F 
ATOM     91  C   UNL A   1      42.760  36.978  35.975  1.00  0.00     0.006 A 
ENDBRANCH  67  84
ENDBRANCH  41  42
ENDBRANCH  33  36
ENDBRANCH  31  32
ENDBRANCH  30  31
ENDBRANCH   1  30
TORSDOF 14
ENDMDL
MODEL 3
REMARK VINA RESULT:     -11.1      4.783     10.283
REMARK SMILES O=C1OC(c2ccc(Cl)cc2)=N/C1=C/Nc1ccc(O)c(C(=O)NCCCNC(=O)c2ccc(-c3c4nc(c(-c5c(F)cccc5F)c5ccc([nH]5)c(-c5c(F)cccc5F)c5nc(c(-c6c(F)cccc6F)c6ccc3[nH]6)C=C5)C=C4)cc2)c1
REMARK SMILES IDX 25 1 24 2 22 3 23 4 21 6 16 7 17 8 85 9 18 10 19 11 15 12
REMARK SMILES IDX 14 14 1 15 2 16 3 17 13 18 4 19 12 20 5 21 6 22 11 23 7 24
REMARK SMILES IDX 10 25 8 26 9 27 20 28 26 30 27 31 28 32 29 33 30 35 31 36
REMARK SMILES IDX 32 37 84 38 33 39 83 40 34 41 35 42 36 43 77 44 37 45 82 46
REMARK SMILES IDX 76 47 78 48 38 49 81 50 75 51 74 52 39 54 65 55 48 56 64 57
REMARK SMILES IDX 49 58 52 59 63 60 79 61 50 62 51 63 62 65 80 66 53 67 40 68
REMARK SMILES IDX 41 69 46 70 42 71 43 72 45 73 47 74 44 75 66 76 67 77 72 78
REMARK SMILES IDX 68 79 69 80 71 81 73 82 70 83 54 84 55 85 60 86 56 87 57 88
REMARK SMILES IDX 59 89 61 90 58 91
REMARK H PARENT 24 5 15 13 20 29 28 34 78 53 52 64
REMARK Flexibility Score: inf
ROOT
ATOM      1  C   UNL A   1      31.586  30.637  26.618  1.00  0.00     0.118 C 
ENDROOT
BRANCH   1   2
ATOM      2  N   UNL A   1      32.385  30.253  25.475  1.00  0.00    -0.352 N 
ATOM      3  C   UNL A   1      32.117  29.484  24.375  1.00  0.00     0.255 C 
ATOM      4  O   UNL A   1      33.074  29.289  23.617  1.00  0.00    -0.269 OA
ATOM      5  H   UNL A   1      33.301  30.613  25.493  1.00  0.00     0.163 HD
BRANCH   3   6
ATOM      6  C   UNL A   1      30.772  28.963  23.977  1.00  0.00     0.083 A 
ATOM      7  C   UNL A   1      29.470  26.882  23.757  1.00  0.00     0.039 A 
ATOM      8  C   UNL A   1      28.417  27.614  23.212  1.00  0.00     0.030 A 
ATOM      9  C   UNL A   1      30.641  27.563  24.109  1.00  0.00     0.043 A 
ATOM     10  C   UNL A   1      28.494  29.001  23.121  1.00  0.00     0.049 A 
ATOM     11  C   UNL A   1      29.651  29.674  23.531  1.00  0.00     0.128 A 
BRANCH   7  12
ATOM     12  N   UNL A   1      29.412  25.492  23.904  1.00  0.00    -0.360 N 
ATOM     13  H   UNL A   1      28.597  25.122  24.313  1.00  0.00     0.166 HD
BRANCH  12  14
ATOM     14  C   UNL A   1      30.379  24.594  23.536  1.00  0.00     0.119 C 
ATOM     15  O   UNL A   1      30.984  25.057  26.459  1.00  0.00    -0.244 OA
ATOM     16  C   UNL A   1      31.599  24.337  25.702  1.00  0.00     0.365 C 
ATOM     17  O   UNL A   1      32.671  23.541  25.988  1.00  0.00    -0.402 OA
ATOM     18  C   UNL A   1      31.385  24.086  24.250  1.00  0.00     0.168 C 
ATOM     19  C   UNL A   1      33.029  22.967  24.818  1.00  0.00     0.231 C 
ATOM     20  N   UNL A   1      32.337  23.236  23.760  1.00  0.00    -0.204 NA
BRANCH  19  21
ATOM     21  C   UNL A   1      34.226  22.138  24.874  1.00  0.00     0.037 A 
ATOM     22  C   UNL A   1      34.124  20.746  24.945  1.00  0.00     0.015 A 
ATOM     23  C   UNL A   1      35.474  22.766  24.810  1.00  0.00     0.015 A 
ATOM     24  C   UNL A   1      35.290  19.977  24.949  1.00  0.00     0.021 A 
ATOM     25  C   UNL A   1      36.635  21.993  24.834  1.00  0.00     0.021 A 
ATOM     26  C   UNL A   1      36.538  20.602  24.898  1.00  0.00     0.041 A 
ATOM     27  Cl  UNL A   1      37.971  19.651  24.905  1.00  0.00    -0.084 Cl
ENDBRANCH  19  21
ENDBRANCH  12  14
ENDBRANCH   7  12
BRANCH  11  28
ATOM     28  O   UNL A   1      29.591  31.034  23.531  1.00  0.00    -0.507 OA
ATOM     29  H   UNL A   1      29.908  31.517  22.793  1.00  0.00     0.293 HD
ENDBRANCH  11  28
ENDBRANCH   3   6
ENDBRANCH   1   2
BRANCH   1  30
ATOM     30  C   UNL A   1      31.485  32.162  26.706  1.00  0.00     0.042 C 
BRANCH  30  31
ATOM     31  C   UNL A   1      32.752  32.816  27.238  1.00  0.00     0.118 C 
BRANCH  31  32
ATOM     32  N   UNL A   1      32.523  34.207  27.607  1.00  0.00    -0.352 N 
ATOM     33  C   UNL A   1      33.052  34.945  28.634  1.00  0.00     0.251 C 
ATOM     34  H   UNL A   1      31.892  34.692  27.029  1.00  0.00     0.163 HD
ATOM     35  O   UNL A   1      32.536  36.013  28.946  1.00  0.00    -0.269 OA
BRANCH  33  36
ATOM     36  C   UNL A   1      34.235  34.455  29.375  1.00  0.00     0.039 A 
ATOM     37  C   UNL A   1      34.047  33.847  30.619  1.00  0.00     0.014 A 
ATOM     38  C   UNL A   1      35.525  34.621  28.864  1.00  0.00     0.014 A 
ATOM     39  C   UNL A   1      35.146  33.345  31.318  1.00  0.00     0.010 A 
ATOM     40  C   UNL A   1      36.610  34.052  29.521  1.00  0.00     0.010 A 
ATOM     41  C   UNL A   1      36.430  33.407  30.754  1.00  0.00    -0.014 A 
BRANCH  41  42
ATOM     42  C   UNL A   1      37.596  32.775  31.422  1.00  0.00     0.031 A 
ATOM     43  C   UNL A   1      38.251  31.563  30.824  1.00  0.00     0.074 A 
ATOM     44  C   UNL A   1      38.010  33.254  32.610  1.00  0.00     0.049 A 
ATOM     45  N   UNL A   1      39.226  30.831  31.300  1.00  0.00    -0.248 NA
ATOM     46  C   UNL A   1      37.726  31.099  29.530  1.00  0.00     0.031 C 
ATOM     47  C   UNL A   1      37.428  34.402  33.308  1.00  0.00     0.029 A 
ATOM     48  N   UNL A   1      39.011  32.829  33.446  1.00  0.00    -0.354 N 
ATOM     49  C   UNL A   1      39.424  29.818  30.372  1.00  0.00     0.074 A 
ATOM     50  C   UNL A   1      38.431  29.995  29.334  1.00  0.00     0.031 C 
ATOM     51  C   UNL A   1      38.097  34.605  34.453  1.00  0.00     0.029 A 
ATOM     52  C   UNL A   1      39.120  33.575  34.595  1.00  0.00     0.049 A 
ATOM     53  H   UNL A   1      39.595  32.063  33.243  1.00  0.00     0.167 HD
ATOM     54  C   UNL A   1      40.363  28.841  30.374  1.00  0.00     0.037 A 
ATOM     55  C   UNL A   1      39.942  33.435  35.651  1.00  0.00     0.037 A 
ATOM     56  C   UNL A   1      41.346  28.671  31.413  1.00  0.00     0.049 A 
ATOM     57  C   UNL A   1      40.940  32.312  35.657  1.00  0.00     0.074 A 
ATOM     58  C   UNL A   1      42.370  27.743  31.489  1.00  0.00     0.029 A 
ATOM     59  N   UNL A   1      41.416  29.438  32.568  1.00  0.00    -0.354 N 
ATOM     60  N   UNL A   1      41.166  31.401  34.740  1.00  0.00    -0.248 NA
ATOM     61  C   UNL A   1      41.798  32.194  36.844  1.00  0.00     0.031 C 
ATOM     62  C   UNL A   1      43.021  27.909  32.716  1.00  0.00     0.029 A 
ATOM     63  C   UNL A   1      42.444  28.981  33.379  1.00  0.00     0.049 A 
ATOM     64  H   UNL A   1      40.824  30.195  32.781  1.00  0.00     0.167 HD
ATOM     65  C   UNL A   1      42.206  30.621  35.226  1.00  0.00     0.074 A 
ATOM     66  C   UNL A   1      42.578  31.175  36.512  1.00  0.00     0.031 C 
ATOM     67  C   UNL A   1      42.802  29.542  34.658  1.00  0.00     0.037 A 
BRANCH  54  68
ATOM     68  C   UNL A   1      40.359  27.875  29.223  1.00  0.00     0.057 A 
ATOM     69  C   UNL A   1      41.148  28.078  28.081  1.00  0.00     0.134 A 
ATOM     70  C   UNL A   1      39.567  26.720  29.258  1.00  0.00     0.134 A 
ATOM     71  F   UNL A   1      41.923  29.168  27.976  1.00  0.00    -0.206 F 
ATOM     72  C   UNL A   1      41.121  27.190  27.005  1.00  0.00     0.040 A 
ATOM     73  C   UNL A   1      39.556  25.807  28.202  1.00  0.00     0.040 A 
ATOM     74  F   UNL A   1      38.794  26.455  30.322  1.00  0.00    -0.206 F 
ATOM     75  C   UNL A   1      40.327  26.047  27.066  1.00  0.00     0.006 A 
ENDBRANCH  54  68
BRANCH  55  76
ATOM     76  C   UNL A   1      39.866  34.394  36.782  1.00  0.00     0.057 A 
ATOM     77  C   UNL A   1      40.553  35.612  36.739  1.00  0.00     0.134 A 
ATOM     78  C   UNL A   1      39.099  34.126  37.923  1.00  0.00     0.134 A 
ATOM     79  F   UNL A   1      41.317  35.919  35.681  1.00  0.00    -0.206 F 
ATOM     80  C   UNL A   1      40.495  36.522  37.796  1.00  0.00     0.040 A 
ATOM     81  C   UNL A   1      39.010  35.040  38.975  1.00  0.00     0.040 A 
ATOM     82  F   UNL A   1      38.407  32.981  38.022  1.00  0.00    -0.206 F 
ATOM     83  C   UNL A   1      39.715  36.239  38.916  1.00  0.00     0.006 A 
ENDBRANCH  55  76
BRANCH  67  84
ATOM     84  C   UNL A   1      43.936  28.907  35.409  1.00  0.00     0.057 A 
ATOM     85  C   UNL A   1      45.266  29.304  35.219  1.00  0.00     0.134 A 
ATOM     86  C   UNL A   1      43.688  27.918  36.371  1.00  0.00     0.134 A 
ATOM     87  F   UNL A   1      45.574  30.235  34.304  1.00  0.00    -0.206 F 
ATOM     88  C   UNL A   1      46.310  28.726  35.944  1.00  0.00     0.040 A 
ATOM     89  C   UNL A   1      44.719  27.355  37.123  1.00  0.00     0.040 A 
ATOM     90  F   UNL A   1      42.437  27.497  36.609  1.00  0.00    -0.206 F 
ATOM     91  C   UNL A   1      46.037  27.755  36.906  1.00  0.00     0.006 A 
ENDBRANCH  67  84
ENDBRANCH  41  42
ENDBRANCH  33  36
ENDBRANCH  31  32
ENDBRANCH  30  31
ENDBRANCH   1  30
TORSDOF 14
ENDMDL
