MODEL 1
REMARK VINA RESULT:     -13.1      0.000      0.000
REMARK SMILES Cc1ccc2cc(C[N@H+]3CC[NH2+][C@H](C(=O)NCCCNC(=O)c4ccc(-c5c6nc(c(-c7c(F)cccc7F)c7ccc([nH]7)c(-c7c(F)cccc7F)c7nc(c(-c8c(F)cccc8F)c8ccc5[nH]8)C=C7)C=C6)cc4)C3)c(N3CCOCC3)nc2c1
REMARK SMILES IDX 17 1 16 2 14 3 15 4 13 6 9 7 10 8 77 9 11 11 12 12 8 15 7 16
REMARK SMILES IDX 1 17 2 18 3 19 87 20 4 21 86 22 5 23 85 24 6 25 78 26 79 27
REMARK SMILES IDX 80 28 84 29 81 30 83 31 82 32 18 33 19 34 20 35 21 36 22 38
REMARK SMILES IDX 23 39 24 40 76 41 25 42 75 43 26 44 27 45 28 46 69 47 29 48
REMARK SMILES IDX 74 49 68 50 70 51 30 52 73 53 67 54 66 55 31 57 57 58 40 59
REMARK SMILES IDX 56 60 41 61 44 62 55 63 71 64 42 65 43 66 54 68 72 69 45 70
REMARK SMILES IDX 32 71 33 72 38 73 34 74 35 75 37 76 39 77 36 78 58 79 59 80
REMARK SMILES IDX 64 81 60 82 61 83 63 84 65 85 62 86 46 87 47 88 52 89 48 90
REMARK SMILES IDX 49 91 51 92 53 93 50 94
REMARK H PARENT 16 5 9 10 12 13 12 14 20 37 70 56 44 67
REMARK Flexibility Score: inf
ROOT
ATOM      1  C   UNL A   1      35.855  23.795  25.077  1.00  0.00     0.118 C 
ENDROOT
BRANCH   1   2
ATOM      2  N   UNL A   1      34.850  22.811  24.715  1.00  0.00    -0.351 N 
ATOM      3  C   UNL A   1      33.719  22.970  23.933  1.00  0.00     0.284 C 
ATOM      4  O   UNL A   1      33.117  21.955  23.578  1.00  0.00    -0.268 OA
ATOM      5  H   UNL A   1      34.994  21.906  25.074  1.00  0.00     0.163 HD
BRANCH   3   6
ATOM      6  C   UNL A   1      33.203  24.387  23.596  1.00  0.00     0.328 C 
ATOM      7  N   UNL A   1      31.064  25.569  22.802  1.00  0.00    -0.321 N 
ATOM      8  C   UNL A   1      31.929  26.419  21.978  1.00  0.00     0.324 C 
ATOM      9  C   UNL A   1      31.699  24.308  23.212  1.00  0.00     0.339 C 
ATOM     10  H   UNL A   1      30.336  25.234  22.172  1.00  0.00     0.348 HD
ATOM     11  C   UNL A   1      33.430  26.427  22.364  1.00  0.00     0.323 C 
ATOM     12  N   UNL A   1      34.016  25.081  22.566  1.00  0.00    -0.327 N 
ATOM     13  H   UNL A   1      34.982  25.166  22.885  1.00  0.00     0.347 HD
ATOM     14  H   UNL A   1      34.014  24.554  21.693  1.00  0.00     0.347 HD
BRANCH   7  15
ATOM     15  C   UNL A   1      30.166  26.259  23.750  1.00  0.00     0.303 C 
BRANCH  15  16
ATOM     16  C   UNL A   1      30.699  27.477  24.473  1.00  0.00     0.049 A 
ATOM     17  C   UNL A   1      34.581  31.282  28.078  1.00  0.00     0.044 C 
ATOM     18  C   UNL A   1      33.863  30.263  27.248  1.00  0.00    -0.049 A 
ATOM     19  C   UNL A   1      34.269  28.946  27.379  1.00  0.00     0.004 A 
ATOM     20  C   UNL A   1      32.791  30.573  26.376  1.00  0.00     0.032 A 
ATOM     21  C   UNL A   1      33.528  27.964  26.764  1.00  0.00     0.010 A 
ATOM     22  C   UNL A   1      32.059  29.587  25.687  1.00  0.00     0.073 A 
ATOM     23  C   UNL A   1      32.382  28.276  26.014  1.00  0.00     0.001 A 
ATOM     24  N   UNL A   1      31.085  29.839  24.764  1.00  0.00    -0.230 NA
ATOM     25  C   UNL A   1      31.554  27.275  25.534  1.00  0.00     0.023 A 
ATOM     26  C   UNL A   1      30.447  28.804  24.135  1.00  0.00     0.138 A 
BRANCH  26  27
ATOM     27  N   UNL A   1      29.575  29.087  23.114  1.00  0.00    -0.352 N 
ATOM     28  C   UNL A   1      30.024  29.619  21.828  1.00  0.00     0.146 C 
ATOM     29  C   UNL A   1      28.234  28.525  23.127  1.00  0.00     0.146 C 
ATOM     30  C   UNL A   1      28.977  30.625  21.307  1.00  0.00     0.181 C 
ATOM     31  C   UNL A   1      27.282  29.629  22.637  1.00  0.00     0.181 C 
ATOM     32  O   UNL A   1      27.644  30.081  21.316  1.00  0.00    -0.378 OA
ENDBRANCH  26  27
ENDBRANCH  15  16
ENDBRANCH   7  15
ENDBRANCH   3   6
ENDBRANCH   1   2
BRANCH   1  33
ATOM     33  C   UNL A   1      37.299  23.331  25.070  1.00  0.00     0.042 C 
BRANCH  33  34
ATOM     34  C   UNL A   1      38.089  23.788  26.284  1.00  0.00     0.118 C 
BRANCH  34  35
ATOM     35  N   UNL A   1      39.544  23.763  26.116  1.00  0.00    -0.352 N 
ATOM     36  C   UNL A   1      40.526  24.587  26.640  1.00  0.00     0.251 C 
ATOM     37  H   UNL A   1      39.879  23.042  25.536  1.00  0.00     0.163 HD
ATOM     38  O   UNL A   1      41.696  24.398  26.348  1.00  0.00    -0.269 OA
BRANCH  36  39
ATOM     39  C   UNL A   1      40.157  25.738  27.505  1.00  0.00     0.039 A 
ATOM     40  C   UNL A   1      40.686  27.001  27.269  1.00  0.00     0.014 A 
ATOM     41  C   UNL A   1      39.326  25.537  28.613  1.00  0.00     0.014 A 
ATOM     42  C   UNL A   1      40.644  27.956  28.273  1.00  0.00     0.010 A 
ATOM     43  C   UNL A   1      39.148  26.565  29.549  1.00  0.00     0.010 A 
ATOM     44  C   UNL A   1      39.874  27.759  29.430  1.00  0.00    -0.014 A 
BRANCH  44  45
ATOM     45  C   UNL A   1      39.878  28.815  30.483  1.00  0.00     0.031 A 
ATOM     46  C   UNL A   1      38.857  29.927  30.483  1.00  0.00     0.074 A 
ATOM     47  C   UNL A   1      40.753  28.713  31.505  1.00  0.00     0.049 A 
ATOM     48  N   UNL A   1      38.708  30.909  31.338  1.00  0.00    -0.248 NA
ATOM     49  C   UNL A   1      37.881  29.949  29.381  1.00  0.00     0.031 C 
ATOM     50  C   UNL A   1      41.790  27.685  31.631  1.00  0.00     0.029 A 
ATOM     51  N   UNL A   1      40.886  29.452  32.654  1.00  0.00    -0.354 N 
ATOM     52  C   UNL A   1      37.660  31.685  30.855  1.00  0.00     0.074 A 
ATOM     53  C   UNL A   1      37.215  31.069  29.624  1.00  0.00     0.031 C 
ATOM     54  C   UNL A   1      42.389  27.802  32.824  1.00  0.00     0.029 A 
ATOM     55  C   UNL A   1      41.852  28.971  33.506  1.00  0.00     0.049 A 
ATOM     56  H   UNL A   1      40.343  30.250  32.849  1.00  0.00     0.167 HD
ATOM     57  C   UNL A   1      37.113  32.803  31.391  1.00  0.00     0.037 A 
ATOM     58  C   UNL A   1      42.282  29.431  34.694  1.00  0.00     0.037 A 
ATOM     59  C   UNL A   1      37.525  33.390  32.641  1.00  0.00     0.049 A 
ATOM     60  C   UNL A   1      41.664  30.676  35.257  1.00  0.00     0.074 A 
ATOM     61  C   UNL A   1      37.016  34.509  33.279  1.00  0.00     0.029 A 
ATOM     62  N   UNL A   1      38.539  32.898  33.449  1.00  0.00    -0.354 N 
ATOM     63  N   UNL A   1      40.683  31.400  34.778  1.00  0.00    -0.248 NA
ATOM     64  C   UNL A   1      42.228  31.179  36.516  1.00  0.00     0.031 C 
ATOM     65  C   UNL A   1      37.747  34.715  34.454  1.00  0.00     0.029 A 
ATOM     66  C   UNL A   1      38.681  33.699  34.570  1.00  0.00     0.049 A 
ATOM     67  H   UNL A   1      39.079  32.098  33.254  1.00  0.00     0.167 HD
ATOM     68  C   UNL A   1      40.504  32.438  35.681  1.00  0.00     0.074 A 
ATOM     69  C   UNL A   1      41.459  32.232  36.751  1.00  0.00     0.031 C 
ATOM     70  C   UNL A   1      39.634  33.476  35.626  1.00  0.00     0.037 A 
BRANCH  57  71
ATOM     71  C   UNL A   1      36.021  33.488  30.618  1.00  0.00     0.057 A 
ATOM     72  C   UNL A   1      36.323  34.216  29.459  1.00  0.00     0.134 A 
ATOM     73  C   UNL A   1      34.686  33.471  31.038  1.00  0.00     0.134 A 
ATOM     74  F   UNL A   1      37.583  34.282  29.004  1.00  0.00    -0.206 F 
ATOM     75  C   UNL A   1      35.338  34.905  28.749  1.00  0.00     0.040 A 
ATOM     76  C   UNL A   1      33.687  34.136  30.323  1.00  0.00     0.040 A 
ATOM     77  F   UNL A   1      34.327  32.783  32.132  1.00  0.00    -0.206 F 
ATOM     78  C   UNL A   1      34.013  34.861  29.178  1.00  0.00     0.006 A 
ENDBRANCH  57  71
BRANCH  58  79
ATOM     79  C   UNL A   1      43.380  28.735  35.412  1.00  0.00     0.057 A 
ATOM     80  C   UNL A   1      44.722  29.044  35.159  1.00  0.00     0.134 A 
ATOM     81  C   UNL A   1      43.115  27.755  36.373  1.00  0.00     0.134 A 
ATOM     82  F   UNL A   1      45.044  29.970  34.243  1.00  0.00    -0.206 F 
ATOM     83  C   UNL A   1      45.762  28.397  35.828  1.00  0.00     0.040 A 
ATOM     84  C   UNL A   1      44.144  27.123  37.074  1.00  0.00     0.040 A 
ATOM     85  F   UNL A   1      41.849  27.427  36.673  1.00  0.00    -0.206 F 
ATOM     86  C   UNL A   1      45.472  27.440  36.797  1.00  0.00     0.006 A 
ENDBRANCH  58  79
BRANCH  70  87
ATOM     87  C   UNL A   1      39.663  34.439  36.773  1.00  0.00     0.057 A 
ATOM     88  C   UNL A   1      38.883  34.213  37.913  1.00  0.00     0.134 A 
ATOM     89  C   UNL A   1      40.464  35.589  36.750  1.00  0.00     0.134 A 
ATOM     90  F   UNL A   1      38.092  33.132  37.994  1.00  0.00    -0.206 F 
ATOM     91  C   UNL A   1      38.902  35.094  38.995  1.00  0.00     0.040 A 
ATOM     92  C   UNL A   1      40.509  36.464  37.837  1.00  0.00     0.040 A 
ATOM     93  F   UNL A   1      41.246  35.852  35.694  1.00  0.00    -0.206 F 
ATOM     94  C   UNL A   1      39.724  36.219  38.961  1.00  0.00     0.006 A 
ENDBRANCH  70  87
ENDBRANCH  44  45
ENDBRANCH  36  39
ENDBRANCH  34  35
ENDBRANCH  33  34
ENDBRANCH   1  33
TORSDOF 13
ENDMDL
MODEL 2
REMARK VINA RESULT:     -13.0      4.214      7.610
REMARK SMILES Cc1ccc2cc(C[N@H+]3CC[NH2+][C@H](C(=O)NCCCNC(=O)c4ccc(-c5c6nc(c(-c7c(F)cccc7F)c7ccc([nH]7)c(-c7c(F)cccc7F)c7nc(c(-c8c(F)cccc8F)c8ccc5[nH]8)C=C7)C=C6)cc4)C3)c(N3CCOCC3)nc2c1
REMARK SMILES IDX 17 1 16 2 14 3 15 4 13 6 9 7 10 8 77 9 11 11 12 12 8 15 7 16
REMARK SMILES IDX 1 17 2 18 3 19 87 20 4 21 86 22 5 23 85 24 6 25 78 26 79 27
REMARK SMILES IDX 80 28 84 29 81 30 83 31 82 32 18 33 19 34 20 35 21 36 22 38
REMARK SMILES IDX 23 39 24 40 76 41 25 42 75 43 26 44 27 45 28 46 69 47 29 48
REMARK SMILES IDX 74 49 68 50 70 51 30 52 73 53 67 54 66 55 31 57 57 58 40 59
REMARK SMILES IDX 56 60 41 61 44 62 55 63 71 64 42 65 43 66 54 68 72 69 45 70
REMARK SMILES IDX 32 71 33 72 38 73 34 74 35 75 37 76 39 77 36 78 58 79 59 80
REMARK SMILES IDX 64 81 60 82 61 83 63 84 65 85 62 86 46 87 47 88 52 89 48 90
REMARK SMILES IDX 49 91 51 92 53 93 50 94
REMARK H PARENT 16 5 9 10 12 13 12 14 20 37 70 56 44 67
REMARK Flexibility Score: inf
ROOT
ATOM      1  C   UNL A   1      33.991  21.372  26.838  1.00  0.00     0.118 C 
ENDROOT
BRANCH   1   2
ATOM      2  N   UNL A   1      32.900  22.101  27.461  1.00  0.00    -0.351 N 
ATOM      3  C   UNL A   1      31.978  22.953  26.878  1.00  0.00     0.284 C 
ATOM      4  O   UNL A   1      31.007  23.299  27.553  1.00  0.00    -0.268 OA
ATOM      5  H   UNL A   1      32.802  21.971  28.433  1.00  0.00     0.163 HD
BRANCH   3   6
ATOM      6  C   UNL A   1      32.221  23.500  25.454  1.00  0.00     0.328 C 
ATOM      7  N   UNL A   1      31.676  25.557  24.013  1.00  0.00    -0.321 N 
ATOM      8  C   UNL A   1      31.480  24.628  22.894  1.00  0.00     0.324 C 
ATOM      9  C   UNL A   1      31.587  24.914  25.332  1.00  0.00     0.339 C 
ATOM     10  H   UNL A   1      30.847  26.149  24.019  1.00  0.00     0.348 HD
ATOM     11  C   UNL A   1      32.084  23.213  23.081  1.00  0.00     0.323 C 
ATOM     12  N   UNL A   1      31.765  22.579  24.382  1.00  0.00    -0.327 N 
ATOM     13  H   UNL A   1      32.251  21.686  24.462  1.00  0.00     0.347 HD
ATOM     14  H   UNL A   1      30.763  22.406  24.461  1.00  0.00     0.347 HD
BRANCH   7  15
ATOM     15  C   UNL A   1      32.660  26.639  23.810  1.00  0.00     0.303 C 
BRANCH  15  16
ATOM     16  C   UNL A   1      32.588  27.842  24.725  1.00  0.00     0.049 A 
ATOM     17  C   UNL A   1      34.376  32.434  29.000  1.00  0.00     0.044 C 
ATOM     18  C   UNL A   1      34.186  31.334  28.001  1.00  0.00    -0.049 A 
ATOM     19  C   UNL A   1      35.165  30.356  27.949  1.00  0.00     0.004 A 
ATOM     20  C   UNL A   1      33.062  31.233  27.145  1.00  0.00     0.032 A 
ATOM     21  C   UNL A   1      34.945  29.246  27.168  1.00  0.00     0.010 A 
ATOM     22  C   UNL A   1      32.850  30.135  26.290  1.00  0.00     0.073 A 
ATOM     23  C   UNL A   1      33.759  29.095  26.430  1.00  0.00     0.001 A 
ATOM     24  N   UNL A   1      31.838  30.038  25.379  1.00  0.00    -0.230 NA
ATOM     25  C   UNL A   1      33.477  27.907  25.776  1.00  0.00     0.023 A 
ATOM     26  C   UNL A   1      31.734  28.931  24.580  1.00  0.00     0.138 A 
BRANCH  26  27
ATOM     27  N   UNL A   1      30.793  28.924  23.581  1.00  0.00    -0.352 N 
ATOM     28  C   UNL A   1      31.103  29.340  22.214  1.00  0.00     0.146 C 
ATOM     29  C   UNL A   1      29.569  28.156  23.742  1.00  0.00     0.146 C 
ATOM     30  C   UNL A   1      29.883  30.078  21.624  1.00  0.00     0.181 C 
ATOM     31  C   UNL A   1      28.427  29.010  23.165  1.00  0.00     0.181 C 
ATOM     32  O   UNL A   1      28.663  29.328  21.779  1.00  0.00    -0.378 OA
ENDBRANCH  26  27
ENDBRANCH  15  16
ENDBRANCH   7  15
ENDBRANCH   3   6
ENDBRANCH   1   2
BRANCH   1  33
ATOM     33  C   UNL A   1      35.365  22.011  26.903  1.00  0.00     0.042 C 
BRANCH  33  34
ATOM     34  C   UNL A   1      36.045  22.126  25.550  1.00  0.00     0.118 C 
BRANCH  34  35
ATOM     35  N   UNL A   1      37.134  21.173  25.326  1.00  0.00    -0.352 N 
ATOM     36  C   UNL A   1      38.469  21.227  25.691  1.00  0.00     0.251 C 
ATOM     37  H   UNL A   1      36.874  20.360  24.835  1.00  0.00     0.163 HD
ATOM     38  O   UNL A   1      39.220  20.317  25.378  1.00  0.00    -0.269 OA
BRANCH  36  39
ATOM     39  C   UNL A   1      39.004  22.415  26.405  1.00  0.00     0.039 A 
ATOM     40  C   UNL A   1      38.523  23.688  26.125  1.00  0.00     0.014 A 
ATOM     41  C   UNL A   1      40.054  22.262  27.318  1.00  0.00     0.014 A 
ATOM     42  C   UNL A   1      39.267  24.796  26.501  1.00  0.00     0.010 A 
ATOM     43  C   UNL A   1      40.703  23.393  27.831  1.00  0.00     0.010 A 
ATOM     44  C   UNL A   1      40.368  24.671  27.362  1.00  0.00    -0.014 A 
BRANCH  44  45
ATOM     45  C   UNL A   1      41.140  25.896  27.720  1.00  0.00     0.031 A 
ATOM     46  C   UNL A   1      42.516  26.150  27.151  1.00  0.00     0.074 A 
ATOM     47  C   UNL A   1      40.555  26.835  28.490  1.00  0.00     0.049 A 
ATOM     48  N   UNL A   1      43.311  27.174  27.343  1.00  0.00    -0.248 NA
ATOM     49  C   UNL A   1      43.079  25.123  26.260  1.00  0.00     0.031 C 
ATOM     50  C   UNL A   1      39.227  26.720  29.102  1.00  0.00     0.029 A 
ATOM     51  N   UNL A   1      40.973  28.091  28.857  1.00  0.00    -0.354 N 
ATOM     52  C   UNL A   1      44.477  26.895  26.637  1.00  0.00     0.074 A 
ATOM     53  C   UNL A   1      44.294  25.598  26.023  1.00  0.00     0.031 C 
ATOM     54  C   UNL A   1      38.905  27.881  29.687  1.00  0.00     0.029 A 
ATOM     55  C   UNL A   1      40.038  28.790  29.583  1.00  0.00     0.049 A 
ATOM     56  H   UNL A   1      41.858  28.454  28.623  1.00  0.00     0.167 HD
ATOM     57  C   UNL A   1      45.594  27.651  26.508  1.00  0.00     0.037 A 
ATOM     58  C   UNL A   1      40.090  30.017  30.129  1.00  0.00     0.037 A 
ATOM     59  C   UNL A   1      45.757  28.962  27.081  1.00  0.00     0.049 A 
ATOM     60  C   UNL A   1      41.344  30.826  29.977  1.00  0.00     0.074 A 
ATOM     61  C   UNL A   1      46.843  29.818  26.985  1.00  0.00     0.029 A 
ATOM     62  N   UNL A   1      44.804  29.614  27.849  1.00  0.00    -0.354 N 
ATOM     63  N   UNL A   1      42.438  30.538  29.317  1.00  0.00    -0.248 NA
ATOM     64  C   UNL A   1      41.376  32.124  30.664  1.00  0.00     0.031 C 
ATOM     65  C   UNL A   1      46.561  30.971  27.726  1.00  0.00     0.029 A 
ATOM     66  C   UNL A   1      45.282  30.853  28.245  1.00  0.00     0.049 A 
ATOM     67  H   UNL A   1      43.918  29.250  28.078  1.00  0.00     0.167 HD
ATOM     68  C   UNL A   1      43.286  31.621  29.499  1.00  0.00     0.074 A 
ATOM     69  C   UNL A   1      42.566  32.584  30.307  1.00  0.00     0.031 C 
ATOM     70  C   UNL A   1      44.550  31.799  29.047  1.00  0.00     0.037 A 
BRANCH  57  71
ATOM     71  C   UNL A   1      46.744  27.072  25.734  1.00  0.00     0.057 A 
ATOM     72  C   UNL A   1      47.657  26.211  26.359  1.00  0.00     0.134 A 
ATOM     73  C   UNL A   1      46.981  27.397  24.393  1.00  0.00     0.134 A 
ATOM     74  F   UNL A   1      47.496  25.864  27.645  1.00  0.00    -0.206 F 
ATOM     75  C   UNL A   1      48.765  25.699  25.681  1.00  0.00     0.040 A 
ATOM     76  C   UNL A   1      48.073  26.872  23.696  1.00  0.00     0.040 A 
ATOM     77  F   UNL A   1      46.140  28.206  23.732  1.00  0.00    -0.206 F 
ATOM     78  C   UNL A   1      48.972  26.026  24.342  1.00  0.00     0.006 A 
ENDBRANCH  57  71
BRANCH  58  79
ATOM     79  C   UNL A   1      38.937  30.539  30.906  1.00  0.00     0.057 A 
ATOM     80  C   UNL A   1      37.972  31.359  30.309  1.00  0.00     0.134 A 
ATOM     81  C   UNL A   1      38.766  30.221  32.257  1.00  0.00     0.134 A 
ATOM     82  F   UNL A   1      38.082  31.707  29.018  1.00  0.00    -0.206 F 
ATOM     83  C   UNL A   1      36.884  31.853  31.029  1.00  0.00     0.040 A 
ATOM     84  C   UNL A   1      37.664  30.681  32.981  1.00  0.00     0.040 A 
ATOM     85  F   UNL A   1      39.647  29.424  32.880  1.00  0.00    -0.206 F 
ATOM     86  C   UNL A   1      36.723  31.505  32.367  1.00  0.00     0.006 A 
ENDBRANCH  58  79
BRANCH  70  87
ATOM     87  C   UNL A   1      45.212  33.098  29.394  1.00  0.00     0.057 A 
ATOM     88  C   UNL A   1      45.987  33.214  30.554  1.00  0.00     0.134 A 
ATOM     89  C   UNL A   1      45.085  34.232  28.581  1.00  0.00     0.134 A 
ATOM     90  F   UNL A   1      46.144  32.166  31.377  1.00  0.00    -0.206 F 
ATOM     91  C   UNL A   1      46.618  34.412  30.892  1.00  0.00     0.040 A 
ATOM     92  C   UNL A   1      45.733  35.428  28.895  1.00  0.00     0.040 A 
ATOM     93  F   UNL A   1      44.371  34.178  27.447  1.00  0.00    -0.206 F 
ATOM     94  C   UNL A   1      46.498  35.520  30.055  1.00  0.00     0.006 A 
ENDBRANCH  70  87
ENDBRANCH  44  45
ENDBRANCH  36  39
ENDBRANCH  34  35
ENDBRANCH  33  34
ENDBRANCH   1  33
TORSDOF 13
ENDMDL
MODEL 3
REMARK VINA RESULT:     -12.9      2.868      8.028
REMARK SMILES Cc1ccc2cc(C[N@H+]3CC[NH2+][C@H](C(=O)NCCCNC(=O)c4ccc(-c5c6nc(c(-c7c(F)cccc7F)c7ccc([nH]7)c(-c7c(F)cccc7F)c7nc(c(-c8c(F)cccc8F)c8ccc5[nH]8)C=C7)C=C6)cc4)C3)c(N3CCOCC3)nc2c1
REMARK SMILES IDX 17 1 16 2 14 3 15 4 13 6 9 7 10 8 77 9 11 11 12 12 8 15 7 16
REMARK SMILES IDX 1 17 2 18 3 19 87 20 4 21 86 22 5 23 85 24 6 25 78 26 79 27
REMARK SMILES IDX 80 28 84 29 81 30 83 31 82 32 18 33 19 34 20 35 21 36 22 38
REMARK SMILES IDX 23 39 24 40 76 41 25 42 75 43 26 44 27 45 28 46 69 47 29 48
REMARK SMILES IDX 74 49 68 50 70 51 30 52 73 53 67 54 66 55 31 57 57 58 40 59
REMARK SMILES IDX 56 60 41 61 44 62 55 63 71 64 42 65 43 66 54 68 72 69 45 70
REMARK SMILES IDX 32 71 33 72 38 73 34 74 35 75 37 76 39 77 36 78 58 79 59 80
REMARK SMILES IDX 64 81 60 82 61 83 63 84 65 85 62 86 46 87 47 88 52 89 48 90
REMARK SMILES IDX 49 91 51 92 53 93 50 94
REMARK H PARENT 16 5 9 10 12 13 12 14 20 37 70 56 44 67
REMARK Flexibility Score: inf
ROOT
ATOM      1  C   UNL A   1      32.364  27.964  24.706  1.00  0.00     0.118 C 
ENDROOT
BRANCH   1   2
ATOM      2  N   UNL A   1      30.992  27.513  24.562  1.00  0.00    -0.351 N 
ATOM      3  C   UNL A   1      30.431  26.302  24.927  1.00  0.00     0.284 C 
ATOM      4  O   UNL A   1      29.202  26.207  24.908  1.00  0.00    -0.268 OA
ATOM      5  H   UNL A   1      30.374  28.158  24.146  1.00  0.00     0.163 HD
BRANCH   3   6
ATOM      6  C   UNL A   1      31.338  25.099  25.270  1.00  0.00     0.328 C 
ATOM      7  N   UNL A   1      31.516  22.575  24.827  1.00  0.00    -0.321 N 
ATOM      8  C   UNL A   1      31.949  22.436  26.222  1.00  0.00     0.324 C 
ATOM      9  C   UNL A   1      30.798  23.828  24.557  1.00  0.00     0.339 C 
ATOM     10  H   UNL A   1      30.775  21.885  24.706  1.00  0.00     0.348 HD
ATOM     11  C   UNL A   1      32.431  23.739  26.909  1.00  0.00     0.323 C 
ATOM     12  N   UNL A   1      31.524  24.897  26.729  1.00  0.00    -0.327 N 
ATOM     13  H   UNL A   1      31.938  25.731  27.145  1.00  0.00     0.347 HD
ATOM     14  H   UNL A   1      30.627  24.724  27.183  1.00  0.00     0.347 HD
BRANCH   7  15
ATOM     15  C   UNL A   1      32.424  22.034  23.795  1.00  0.00     0.303 C 
BRANCH  15  16
ATOM     16  C   UNL A   1      33.843  21.703  24.202  1.00  0.00     0.049 A 
ATOM     17  C   UNL A   1      39.912  22.414  26.486  1.00  0.00     0.044 C 
ATOM     18  C   UNL A   1      38.478  22.453  26.054  1.00  0.00    -0.049 A 
ATOM     19  C   UNL A   1      37.904  23.703  25.893  1.00  0.00     0.004 A 
ATOM     20  C   UNL A   1      37.707  21.298  25.779  1.00  0.00     0.032 A 
ATOM     21  C   UNL A   1      36.649  23.784  25.338  1.00  0.00     0.010 A 
ATOM     22  C   UNL A   1      36.396  21.359  25.270  1.00  0.00     0.073 A 
ATOM     23  C   UNL A   1      35.950  22.632  24.940  1.00  0.00     0.001 A 
ATOM     24  N   UNL A   1      35.580  20.280  25.081  1.00  0.00    -0.230 NA
ATOM     25  C   UNL A   1      34.760  22.731  24.239  1.00  0.00     0.023 A 
ATOM     26  C   UNL A   1      34.311  20.453  24.597  1.00  0.00     0.138 A 
BRANCH  26  27
ATOM     27  N   UNL A   1      33.469  19.371  24.551  1.00  0.00    -0.352 N 
ATOM     28  C   UNL A   1      32.834  18.823  25.749  1.00  0.00     0.146 C 
ATOM     29  C   UNL A   1      32.880  18.963  23.286  1.00  0.00     0.146 C 
ATOM     30  C   UNL A   1      32.759  17.287  25.621  1.00  0.00     0.181 C 
ATOM     31  C   UNL A   1      32.905  17.425  23.256  1.00  0.00     0.181 C 
ATOM     32  O   UNL A   1      32.179  16.870  24.371  1.00  0.00    -0.378 OA
ENDBRANCH  26  27
ENDBRANCH  15  16
ENDBRANCH   7  15
ENDBRANCH   3   6
ENDBRANCH   1   2
BRANCH   1  33
ATOM     33  C   UNL A   1      32.569  29.421  25.078  1.00  0.00     0.042 C 
BRANCH  33  34
ATOM     34  C   UNL A   1      32.333  29.711  26.550  1.00  0.00     0.118 C 
BRANCH  34  35
ATOM     35  N   UNL A   1      32.159  31.128  26.877  1.00  0.00    -0.352 N 
ATOM     36  C   UNL A   1      33.050  32.046  27.408  1.00  0.00     0.251 C 
ATOM     37  H   UNL A   1      31.262  31.486  26.689  1.00  0.00     0.163 HD
ATOM     38  O   UNL A   1      32.683  33.190  27.625  1.00  0.00    -0.269 OA
BRANCH  36  39
ATOM     39  C   UNL A   1      34.429  31.630  27.772  1.00  0.00     0.039 A 
ATOM     40  C   UNL A   1      34.732  30.292  27.993  1.00  0.00     0.014 A 
ATOM     41  C   UNL A   1      35.418  32.600  27.969  1.00  0.00     0.014 A 
ATOM     42  C   UNL A   1      35.886  29.960  28.685  1.00  0.00     0.010 A 
ATOM     43  C   UNL A   1      36.655  32.236  28.517  1.00  0.00     0.010 A 
ATOM     44  C   UNL A   1      36.871  30.922  28.958  1.00  0.00    -0.014 A 
BRANCH  44  45
ATOM     45  C   UNL A   1      38.085  30.510  29.719  1.00  0.00     0.031 A 
ATOM     46  C   UNL A   1      38.254  30.865  31.177  1.00  0.00     0.074 A 
ATOM     47  C   UNL A   1      38.998  29.723  29.115  1.00  0.00     0.049 A 
ATOM     48  N   UNL A   1      39.239  30.565  31.989  1.00  0.00    -0.248 NA
ATOM     49  C   UNL A   1      37.193  31.667  31.805  1.00  0.00     0.031 C 
ATOM     50  C   UNL A   1      38.954  29.299  27.712  1.00  0.00     0.029 A 
ATOM     51  N   UNL A   1      40.118  29.099  29.607  1.00  0.00    -0.354 N 
ATOM     52  C   UNL A   1      38.937  31.176  33.203  1.00  0.00     0.074 A 
ATOM     53  C   UNL A   1      37.685  31.876  33.019  1.00  0.00     0.031 C 
ATOM     54  C   UNL A   1      39.939  28.422  27.481  1.00  0.00     0.029 A 
ATOM     55  C   UNL A   1      40.747  28.294  28.686  1.00  0.00     0.049 A 
ATOM     56  H   UNL A   1      40.439  29.217  30.530  1.00  0.00     0.167 HD
ATOM     57  C   UNL A   1      39.635  31.150  34.363  1.00  0.00     0.037 A 
ATOM     58  C   UNL A   1      41.865  27.555  28.787  1.00  0.00     0.037 A 
ATOM     59  C   UNL A   1      40.857  30.413  34.560  1.00  0.00     0.049 A 
ATOM     60  C   UNL A   1      42.621  27.554  30.082  1.00  0.00     0.074 A 
ATOM     61  C   UNL A   1      41.626  30.304  35.707  1.00  0.00     0.029 A 
ATOM     62  N   UNL A   1      41.485  29.650  33.587  1.00  0.00    -0.354 N 
ATOM     63  N   UNL A   1      42.324  28.147  31.211  1.00  0.00    -0.248 NA
ATOM     64  C   UNL A   1      43.878  26.795  30.109  1.00  0.00     0.031 C 
ATOM     65  C   UNL A   1      42.738  29.506  35.418  1.00  0.00     0.029 A 
ATOM     66  C   UNL A   1      42.638  29.081  34.104  1.00  0.00     0.049 A 
ATOM     67  H   UNL A   1      41.160  29.530  32.665  1.00  0.00     0.167 HD
ATOM     68  C   UNL A   1      43.351  27.826  32.088  1.00  0.00     0.074 A 
ATOM     69  C   UNL A   1      44.262  26.962  31.366  1.00  0.00     0.031 C 
ATOM     70  C   UNL A   1      43.531  28.220  33.372  1.00  0.00     0.037 A 
BRANCH  57  71
ATOM     71  C   UNL A   1      39.109  31.960  35.514  1.00  0.00     0.057 A 
ATOM     72  C   UNL A   1      38.257  31.376  36.462  1.00  0.00     0.134 A 
ATOM     73  C   UNL A   1      39.400  33.322  35.663  1.00  0.00     0.134 A 
ATOM     74  F   UNL A   1      37.929  30.078  36.375  1.00  0.00    -0.206 F 
ATOM     75  C   UNL A   1      37.711  32.117  37.512  1.00  0.00     0.040 A 
ATOM     76  C   UNL A   1      38.880  34.068  36.724  1.00  0.00     0.040 A 
ATOM     77  F   UNL A   1      40.218  33.940  34.798  1.00  0.00    -0.206 F 
ATOM     78  C   UNL A   1      38.028  33.468  37.648  1.00  0.00     0.006 A 
ENDBRANCH  57  71
BRANCH  58  79
ATOM     79  C   UNL A   1      42.360  26.787  27.615  1.00  0.00     0.057 A 
ATOM     80  C   UNL A   1      42.045  25.433  27.450  1.00  0.00     0.134 A 
ATOM     81  C   UNL A   1      43.147  27.391  26.630  1.00  0.00     0.134 A 
ATOM     82  F   UNL A   1      41.300  24.793  28.364  1.00  0.00    -0.206 F 
ATOM     83  C   UNL A   1      42.504  24.703  26.353  1.00  0.00     0.040 A 
ATOM     84  C   UNL A   1      43.586  26.681  25.510  1.00  0.00     0.040 A 
ATOM     85  F   UNL A   1      43.467  28.690  26.722  1.00  0.00    -0.206 F 
ATOM     86  C   UNL A   1      43.269  25.331  25.373  1.00  0.00     0.006 A 
ENDBRANCH  58  79
BRANCH  70  87
ATOM     87  C   UNL A   1      44.741  27.687  34.076  1.00  0.00     0.057 A 
ATOM     88  C   UNL A   1      44.686  26.469  34.764  1.00  0.00     0.134 A 
ATOM     89  C   UNL A   1      45.961  28.378  34.071  1.00  0.00     0.134 A 
ATOM     90  F   UNL A   1      43.547  25.762  34.809  1.00  0.00    -0.206 F 
ATOM     91  C   UNL A   1      45.805  25.952  35.419  1.00  0.00     0.040 A 
ATOM     92  C   UNL A   1      47.092  27.858  34.702  1.00  0.00     0.040 A 
ATOM     93  F   UNL A   1      46.081  29.540  33.414  1.00  0.00    -0.206 F 
ATOM     94  C   UNL A   1      47.014  26.644  35.380  1.00  0.00     0.006 A 
ENDBRANCH  70  87
ENDBRANCH  44  45
ENDBRANCH  36  39
ENDBRANCH  34  35
ENDBRANCH  33  34
ENDBRANCH   1  33
TORSDOF 13
ENDMDL
