MODEL 1
REMARK VINA RESULT:     -11.7      0.000      0.000
REMARK SMILES CC(=O)c1cc2c(cc1NC(=O)/C=C/C(=O)NCCCNC(=O)c1ccc(-c3c4nc(c(-c5c(F)cccc5F)c5ccc([nH]5)c(-c5c(F)cccc5F)c5nc(c(-c6c(F)cccc6F)c6ccc3[nH]6)C=C5)C=C4)cc1)OCO2
REMARK SMILES IDX 18 1 17 2 15 3 16 4 14 6 13 7 11 8 10 9 12 11 9 12 4 13 5 14
REMARK SMILES IDX 6 15 8 16 7 17 80 18 78 19 79 20 2 21 1 22 3 23 19 24 20 25
REMARK SMILES IDX 21 26 22 27 23 29 24 30 25 31 77 32 26 33 76 34 27 35 28 36
REMARK SMILES IDX 29 37 70 38 30 39 75 40 69 41 71 42 31 43 74 44 68 45 67 46
REMARK SMILES IDX 32 48 58 49 41 50 57 51 42 52 45 53 56 54 72 55 43 56 44 57
REMARK SMILES IDX 55 59 73 60 46 61 33 62 34 63 39 64 35 65 36 66 38 67 40 68
REMARK SMILES IDX 37 69 59 70 60 71 65 72 61 73 62 74 64 75 66 76 63 77 47 78
REMARK SMILES IDX 48 79 53 80 49 81 50 82 52 83 54 84 51 85
REMARK H PARENT 17 5 10 10 21 28 71 47 45 58
REMARK Flexibility Score: inf
ROOT
ATOM      1  C   UNL A   1      36.004  22.589  23.586  1.00  0.00     0.118 C 
ENDROOT
BRANCH   1   2
ATOM      2  N   UNL A   1      34.637  22.224  23.913  1.00  0.00    -0.352 N 
ATOM      3  C   UNL A   1      33.482  22.613  23.320  1.00  0.00     0.244 C 
ATOM      4  O   UNL A   1      32.419  22.070  23.614  1.00  0.00    -0.270 OA
ATOM      5  H   UNL A   1      34.534  21.608  24.674  1.00  0.00     0.163 HD
BRANCH   3   6
ATOM      6  C   UNL A   1      33.500  23.682  22.310  1.00  0.00     0.077 C 
ATOM      7  C   UNL A   1      33.175  24.937  22.655  1.00  0.00     0.077 C 
BRANCH   7   8
ATOM      8  C   UNL A   1      32.964  25.950  21.613  1.00  0.00     0.248 C 
ATOM      9  N   UNL A   1      32.695  27.245  21.956  1.00  0.00    -0.322 N 
ATOM     10  H   UNL A   1      32.512  27.828  21.185  1.00  0.00     0.170 HD
ATOM     11  O   UNL A   1      33.032  25.604  20.436  1.00  0.00    -0.270 OA
BRANCH   9  12
ATOM     12  C   UNL A   1      32.624  27.915  23.205  1.00  0.00     0.056 A 
ATOM     13  C   UNL A   1      31.346  28.181  23.770  1.00  0.00     0.045 A 
ATOM     14  C   UNL A   1      31.204  28.607  25.100  1.00  0.00     0.064 A 
ATOM     15  C   UNL A   1      32.354  28.811  25.824  1.00  0.00     0.166 A 
ATOM     16  C   UNL A   1      33.752  28.307  23.931  1.00  0.00     0.077 A 
ATOM     17  C   UNL A   1      33.590  28.706  25.241  1.00  0.00     0.167 A 
ATOM     18  O   UNL A   1      32.435  29.154  27.136  1.00  0.00    -0.454 OA
ATOM     19  O   UNL A   1      34.600  29.005  26.100  1.00  0.00    -0.454 OA
ATOM     20  C   UNL A   1      33.867  29.110  27.336  1.00  0.00     0.468 C 
BRANCH  13  21
ATOM     21  C   UNL A   1      30.132  28.063  22.931  1.00  0.00     0.162 C 
ATOM     22  C   UNL A   1      29.030  27.179  23.453  1.00  0.00     0.093 C 
ATOM     23  O   UNL A   1      30.011  28.756  21.926  1.00  0.00    -0.294 OA
ENDBRANCH  13  21
ENDBRANCH   9  12
ENDBRANCH   7   8
ENDBRANCH   3   6
ENDBRANCH   1   2
BRANCH   1  24
ATOM     24  C   UNL A   1      36.561  23.626  24.552  1.00  0.00     0.042 C 
BRANCH  24  25
ATOM     25  C   UNL A   1      36.691  23.122  25.985  1.00  0.00     0.118 C 
BRANCH  25  26
ATOM     26  N   UNL A   1      37.875  22.297  26.171  1.00  0.00    -0.352 N 
ATOM     27  C   UNL A   1      39.172  22.658  26.414  1.00  0.00     0.251 C 
ATOM     28  H   UNL A   1      37.719  21.327  26.112  1.00  0.00     0.163 HD
ATOM     29  O   UNL A   1      40.070  21.831  26.266  1.00  0.00    -0.269 OA
BRANCH  27  30
ATOM     30  C   UNL A   1      39.499  24.023  26.868  1.00  0.00     0.039 A 
ATOM     31  C   UNL A   1      40.046  24.928  25.953  1.00  0.00     0.014 A 
ATOM     32  C   UNL A   1      39.347  24.387  28.209  1.00  0.00     0.014 A 
ATOM     33  C   UNL A   1      40.427  26.200  26.382  1.00  0.00     0.010 A 
ATOM     34  C   UNL A   1      39.647  25.680  28.618  1.00  0.00     0.010 A 
ATOM     35  C   UNL A   1      40.225  26.586  27.717  1.00  0.00    -0.014 A 
BRANCH  35  36
ATOM     36  C   UNL A   1      40.682  27.907  28.208  1.00  0.00     0.031 A 
ATOM     37  C   UNL A   1      42.153  28.227  28.225  1.00  0.00     0.074 A 
ATOM     38  C   UNL A   1      39.787  28.791  28.684  1.00  0.00     0.049 A 
ATOM     39  N   UNL A   1      42.762  29.301  28.656  1.00  0.00    -0.248 NA
ATOM     40  C   UNL A   1      43.062  27.183  27.724  1.00  0.00     0.031 C 
ATOM     41  C   UNL A   1      38.344  28.567  28.774  1.00  0.00     0.029 A 
ATOM     42  N   UNL A   1      39.965  30.052  29.188  1.00  0.00    -0.354 N 
ATOM     43  C   UNL A   1      44.120  29.049  28.506  1.00  0.00     0.074 A 
ATOM     44  C   UNL A   1      44.249  27.702  27.997  1.00  0.00     0.031 C 
ATOM     45  C   UNL A   1      37.763  29.667  29.282  1.00  0.00     0.029 A 
ATOM     46  C   UNL A   1      38.794  30.659  29.571  1.00  0.00     0.049 A 
ATOM     47  H   UNL A   1      40.847  30.482  29.268  1.00  0.00     0.167 HD
ATOM     48  C   UNL A   1      45.167  29.876  28.744  1.00  0.00     0.037 A 
ATOM     49  C   UNL A   1      38.580  31.882  30.090  1.00  0.00     0.037 A 
ATOM     50  C   UNL A   1      45.029  31.231  29.207  1.00  0.00     0.049 A 
ATOM     51  C   UNL A   1      39.748  32.805  30.289  1.00  0.00     0.074 A 
ATOM     52  C   UNL A   1      46.014  32.179  29.414  1.00  0.00     0.029 A 
ATOM     53  N   UNL A   1      43.819  31.831  29.528  1.00  0.00    -0.354 N 
ATOM     54  N   UNL A   1      41.024  32.583  30.075  1.00  0.00    -0.248 NA
ATOM     55  C   UNL A   1      39.447  34.156  30.780  1.00  0.00     0.031 C 
ATOM     56  C   UNL A   1      45.404  33.344  29.892  1.00  0.00     0.029 A 
ATOM     57  C   UNL A   1      44.034  33.135  29.941  1.00  0.00     0.049 A 
ATOM     58  H   UNL A   1      42.939  31.394  29.472  1.00  0.00     0.167 HD
ATOM     59  C   UNL A   1      41.674  33.772  30.377  1.00  0.00     0.074 A 
ATOM     60  C   UNL A   1      40.650  34.716  30.778  1.00  0.00     0.031 C 
ATOM     61  C   UNL A   1      42.998  34.059  30.327  1.00  0.00     0.037 A 
BRANCH  48  62
ATOM     62  C   UNL A   1      46.545  29.328  28.502  1.00  0.00     0.057 A 
ATOM     63  C   UNL A   1      47.172  29.424  27.252  1.00  0.00     0.134 A 
ATOM     64  C   UNL A   1      47.252  28.693  29.530  1.00  0.00     0.134 A 
ATOM     65  F   UNL A   1      46.544  30.007  26.219  1.00  0.00    -0.206 F 
ATOM     66  C   UNL A   1      48.435  28.874  27.023  1.00  0.00     0.040 A 
ATOM     67  C   UNL A   1      48.527  28.165  29.322  1.00  0.00     0.040 A 
ATOM     68  F   UNL A   1      46.714  28.571  30.754  1.00  0.00    -0.206 F 
ATOM     69  C   UNL A   1      49.118  28.246  28.062  1.00  0.00     0.006 A 
ENDBRANCH  48  62
BRANCH  49  70
ATOM     70  C   UNL A   1      37.197  32.317  30.400  1.00  0.00     0.057 A 
ATOM     71  C   UNL A   1      36.435  33.019  29.458  1.00  0.00     0.134 A 
ATOM     72  C   UNL A   1      36.594  32.022  31.627  1.00  0.00     0.134 A 
ATOM     73  F   UNL A   1      36.964  33.342  28.269  1.00  0.00    -0.206 F 
ATOM     74  C   UNL A   1      35.129  33.426  29.732  1.00  0.00     0.040 A 
ATOM     75  C   UNL A   1      35.281  32.403  31.907  1.00  0.00     0.040 A 
ATOM     76  F   UNL A   1      37.269  31.339  32.565  1.00  0.00    -0.206 F 
ATOM     77  C   UNL A   1      34.547  33.113  30.958  1.00  0.00     0.006 A 
ENDBRANCH  49  70
BRANCH  61  78
ATOM     78  C   UNL A   1      43.405  35.459  30.676  1.00  0.00     0.057 A 
ATOM     79  C   UNL A   1      43.474  36.473  29.713  1.00  0.00     0.134 A 
ATOM     80  C   UNL A   1      43.707  35.802  32.001  1.00  0.00     0.134 A 
ATOM     81  F   UNL A   1      43.208  36.206  28.425  1.00  0.00    -0.206 F 
ATOM     82  C   UNL A   1      43.852  37.773  30.049  1.00  0.00     0.040 A 
ATOM     83  C   UNL A   1      44.061  37.103  32.354  1.00  0.00     0.040 A 
ATOM     84  F   UNL A   1      43.651  34.878  32.973  1.00  0.00    -0.206 F 
ATOM     85  C   UNL A   1      44.142  38.092  31.376  1.00  0.00     0.006 A 
ENDBRANCH  61  78
ENDBRANCH  35  36
ENDBRANCH  27  30
ENDBRANCH  25  26
ENDBRANCH  24  25
ENDBRANCH   1  24
TORSDOF 13
ENDMDL
MODEL 2
REMARK VINA RESULT:     -11.6      2.794      7.996
REMARK SMILES CC(=O)c1cc2c(cc1NC(=O)/C=C/C(=O)NCCCNC(=O)c1ccc(-c3c4nc(c(-c5c(F)cccc5F)c5ccc([nH]5)c(-c5c(F)cccc5F)c5nc(c(-c6c(F)cccc6F)c6ccc3[nH]6)C=C5)C=C4)cc1)OCO2
REMARK SMILES IDX 18 1 17 2 15 3 16 4 14 6 13 7 11 8 10 9 12 11 9 12 4 13 5 14
REMARK SMILES IDX 6 15 8 16 7 17 80 18 78 19 79 20 2 21 1 22 3 23 19 24 20 25
REMARK SMILES IDX 21 26 22 27 23 29 24 30 25 31 77 32 26 33 76 34 27 35 28 36
REMARK SMILES IDX 29 37 70 38 30 39 75 40 69 41 71 42 31 43 74 44 68 45 67 46
REMARK SMILES IDX 32 48 58 49 41 50 57 51 42 52 45 53 56 54 72 55 43 56 44 57
REMARK SMILES IDX 55 59 73 60 46 61 33 62 34 63 39 64 35 65 36 66 38 67 40 68
REMARK SMILES IDX 37 69 59 70 60 71 65 72 61 73 62 74 64 75 66 76 63 77 47 78
REMARK SMILES IDX 48 79 53 80 49 81 50 82 52 83 54 84 51 85
REMARK H PARENT 17 5 10 10 21 28 71 47 45 58
REMARK Flexibility Score: inf
ROOT
ATOM      1  C   UNL A   1      31.568  28.504  25.873  1.00  0.00     0.118 C 
ENDROOT
BRANCH   1   2
ATOM      2  N   UNL A   1      31.024  27.921  24.660  1.00  0.00    -0.352 N 
ATOM      3  C   UNL A   1      30.389  26.736  24.490  1.00  0.00     0.244 C 
ATOM      4  O   UNL A   1      29.836  26.474  23.425  1.00  0.00    -0.270 OA
ATOM      5  H   UNL A   1      31.132  28.463  23.845  1.00  0.00     0.163 HD
BRANCH   3   6
ATOM      6  C   UNL A   1      30.351  25.761  25.591  1.00  0.00     0.077 C 
ATOM      7  C   UNL A   1      31.266  24.782  25.652  1.00  0.00     0.077 C 
BRANCH   7   8
ATOM      8  C   UNL A   1      31.091  23.678  26.605  1.00  0.00     0.248 C 
ATOM      9  N   UNL A   1      32.072  22.739  26.757  1.00  0.00    -0.322 N 
ATOM     10  H   UNL A   1      31.831  22.012  27.375  1.00  0.00     0.170 HD
ATOM     11  O   UNL A   1      30.049  23.621  27.253  1.00  0.00    -0.270 OA
BRANCH   9  12
ATOM     12  C   UNL A   1      33.370  22.602  26.198  1.00  0.00     0.056 A 
ATOM     13  C   UNL A   1      33.510  21.962  24.937  1.00  0.00     0.045 A 
ATOM     14  C   UNL A   1      34.712  22.015  24.214  1.00  0.00     0.064 A 
ATOM     15  C   UNL A   1      35.773  22.665  24.799  1.00  0.00     0.166 A 
ATOM     16  C   UNL A   1      34.526  23.093  26.812  1.00  0.00     0.077 A 
ATOM     17  C   UNL A   1      35.691  23.150  26.078  1.00  0.00     0.167 A 
ATOM     18  O   UNL A   1      36.992  22.887  24.244  1.00  0.00    -0.454 OA
ATOM     19  O   UNL A   1      36.859  23.703  26.502  1.00  0.00    -0.454 OA
ATOM     20  C   UNL A   1      37.612  23.691  25.274  1.00  0.00     0.468 C 
BRANCH  13  21
ATOM     21  C   UNL A   1      32.386  21.171  24.384  1.00  0.00     0.162 C 
ATOM     22  C   UNL A   1      31.957  21.494  22.977  1.00  0.00     0.093 C 
ATOM     23  O   UNL A   1      31.929  20.227  25.020  1.00  0.00    -0.294 OA
ENDBRANCH  13  21
ENDBRANCH   9  12
ENDBRANCH   7   8
ENDBRANCH   3   6
ENDBRANCH   1   2
BRANCH   1  24
ATOM     24  C   UNL A   1      33.091  28.455  25.893  1.00  0.00     0.042 C 
BRANCH  24  25
ATOM     25  C   UNL A   1      33.692  28.620  27.284  1.00  0.00     0.118 C 
BRANCH  25  26
ATOM     26  N   UNL A   1      33.726  30.013  27.705  1.00  0.00    -0.352 N 
ATOM     27  C   UNL A   1      34.693  30.705  28.382  1.00  0.00     0.251 C 
ATOM     28  H   UNL A   1      32.929  30.538  27.467  1.00  0.00     0.163 HD
ATOM     29  O   UNL A   1      34.419  31.794  28.884  1.00  0.00    -0.269 OA
BRANCH  27  30
ATOM     30  C   UNL A   1      36.061  30.166  28.498  1.00  0.00     0.039 A 
ATOM     31  C   UNL A   1      36.486  29.656  29.729  1.00  0.00     0.014 A 
ATOM     32  C   UNL A   1      36.952  30.237  27.423  1.00  0.00     0.014 A 
ATOM     33  C   UNL A   1      37.798  29.208  29.876  1.00  0.00     0.010 A 
ATOM     34  C   UNL A   1      38.233  29.713  27.545  1.00  0.00     0.010 A 
ATOM     35  C   UNL A   1      38.679  29.228  28.782  1.00  0.00    -0.014 A 
BRANCH  35  36
ATOM     36  C   UNL A   1      40.095  28.819  28.934  1.00  0.00     0.031 A 
ATOM     37  C   UNL A   1      41.094  29.789  29.505  1.00  0.00     0.074 A 
ATOM     38  C   UNL A   1      40.489  27.604  28.513  1.00  0.00     0.049 A 
ATOM     39  N   UNL A   1      42.383  29.646  29.677  1.00  0.00    -0.248 NA
ATOM     40  C   UNL A   1      40.580  31.110  29.900  1.00  0.00     0.031 C 
ATOM     41  C   UNL A   1      39.623  26.604  27.888  1.00  0.00     0.029 A 
ATOM     42  N   UNL A   1      41.723  27.010  28.541  1.00  0.00    -0.354 N 
ATOM     43  C   UNL A   1      42.834  30.864  30.170  1.00  0.00     0.074 A 
ATOM     44  C   UNL A   1      41.695  31.752  30.217  1.00  0.00     0.031 C 
ATOM     45  C   UNL A   1      40.350  25.508  27.612  1.00  0.00     0.029 A 
ATOM     46  C   UNL A   1      41.732  25.740  28.021  1.00  0.00     0.049 A 
ATOM     47  H   UNL A   1      42.526  27.451  28.901  1.00  0.00     0.167 HD
ATOM     48  C   UNL A   1      44.081  31.205  30.575  1.00  0.00     0.037 A 
ATOM     49  C   UNL A   1      42.743  24.860  27.896  1.00  0.00     0.037 A 
ATOM     50  C   UNL A   1      45.201  30.301  30.567  1.00  0.00     0.049 A 
ATOM     51  C   UNL A   1      44.105  25.236  28.407  1.00  0.00     0.074 A 
ATOM     52  C   UNL A   1      46.490  30.518  31.019  1.00  0.00     0.029 A 
ATOM     53  N   UNL A   1      45.157  29.000  30.087  1.00  0.00    -0.354 N 
ATOM     54  N   UNL A   1      44.506  26.366  28.939  1.00  0.00    -0.248 NA
ATOM     55  C   UNL A   1      45.150  24.207  28.320  1.00  0.00     0.031 C 
ATOM     56  C   UNL A   1      47.235  29.357  30.783  1.00  0.00     0.029 A 
ATOM     57  C   UNL A   1      46.399  28.403  30.223  1.00  0.00     0.049 A 
ATOM     58  H   UNL A   1      44.360  28.566  29.705  1.00  0.00     0.167 HD
ATOM     59  C   UNL A   1      45.839  26.177  29.277  1.00  0.00     0.074 A 
ATOM     60  C   UNL A   1      46.175  24.818  28.900  1.00  0.00     0.031 C 
ATOM     61  C   UNL A   1      46.707  27.047  29.848  1.00  0.00     0.037 A 
BRANCH  48  62
ATOM     62  C   UNL A   1      44.287  32.612  31.057  1.00  0.00     0.057 A 
ATOM     63  C   UNL A   1      44.675  33.644  30.191  1.00  0.00     0.134 A 
ATOM     64  C   UNL A   1      44.101  32.940  32.406  1.00  0.00     0.134 A 
ATOM     65  F   UNL A   1      44.886  33.395  28.889  1.00  0.00    -0.206 F 
ATOM     66  C   UNL A   1      44.907  34.940  30.655  1.00  0.00     0.040 A 
ATOM     67  C   UNL A   1      44.301  34.239  32.876  1.00  0.00     0.040 A 
ATOM     68  F   UNL A   1      43.725  32.003  33.290  1.00  0.00    -0.206 F 
ATOM     69  C   UNL A   1      44.716  35.241  32.002  1.00  0.00     0.006 A 
ENDBRANCH  48  62
BRANCH  49  70
ATOM     70  C   UNL A   1      42.484  23.521  27.314  1.00  0.00     0.057 A 
ATOM     71  C   UNL A   1      42.135  22.437  28.129  1.00  0.00     0.134 A 
ATOM     72  C   UNL A   1      42.552  23.297  25.935  1.00  0.00     0.134 A 
ATOM     73  F   UNL A   1      42.067  22.588  29.460  1.00  0.00    -0.206 F 
ATOM     74  C   UNL A   1      41.880  21.174  27.595  1.00  0.00     0.040 A 
ATOM     75  C   UNL A   1      42.277  22.044  25.384  1.00  0.00     0.040 A 
ATOM     76  F   UNL A   1      42.868  24.299  25.101  1.00  0.00    -0.206 F 
ATOM     77  C   UNL A   1      41.945  20.977  26.217  1.00  0.00     0.006 A 
ENDBRANCH  49  70
BRANCH  61  78
ATOM     78  C   UNL A   1      48.089  26.540  30.136  1.00  0.00     0.057 A 
ATOM     79  C   UNL A   1      49.136  26.681  29.217  1.00  0.00     0.134 A 
ATOM     80  C   UNL A   1      48.380  25.927  31.362  1.00  0.00     0.134 A 
ATOM     81  F   UNL A   1      48.920  27.249  28.021  1.00  0.00    -0.206 F 
ATOM     82  C   UNL A   1      50.419  26.208  29.497  1.00  0.00     0.040 A 
ATOM     83  C   UNL A   1      49.663  25.473  31.663  1.00  0.00     0.040 A 
ATOM     84  F   UNL A   1      47.422  25.770  32.289  1.00  0.00    -0.206 F 
ATOM     85  C   UNL A   1      50.686  25.606  30.726  1.00  0.00     0.006 A 
ENDBRANCH  61  78
ENDBRANCH  35  36
ENDBRANCH  27  30
ENDBRANCH  25  26
ENDBRANCH  24  25
ENDBRANCH   1  24
TORSDOF 13
ENDMDL
MODEL 3
REMARK VINA RESULT:     -11.5      2.494      3.858
REMARK SMILES CC(=O)c1cc2c(cc1NC(=O)/C=C/C(=O)NCCCNC(=O)c1ccc(-c3c4nc(c(-c5c(F)cccc5F)c5ccc([nH]5)c(-c5c(F)cccc5F)c5nc(c(-c6c(F)cccc6F)c6ccc3[nH]6)C=C5)C=C4)cc1)OCO2
REMARK SMILES IDX 18 1 17 2 15 3 16 4 14 6 13 7 11 8 10 9 12 11 9 12 4 13 5 14
REMARK SMILES IDX 6 15 8 16 7 17 80 18 78 19 79 20 2 21 1 22 3 23 19 24 20 25
REMARK SMILES IDX 21 26 22 27 23 29 24 30 25 31 77 32 26 33 76 34 27 35 28 36
REMARK SMILES IDX 29 37 70 38 30 39 75 40 69 41 71 42 31 43 74 44 68 45 67 46
REMARK SMILES IDX 32 48 58 49 41 50 57 51 42 52 45 53 56 54 72 55 43 56 44 57
REMARK SMILES IDX 55 59 73 60 46 61 33 62 34 63 39 64 35 65 36 66 38 67 40 68
REMARK SMILES IDX 37 69 59 70 60 71 65 72 61 73 62 74 64 75 66 76 63 77 47 78
REMARK SMILES IDX 48 79 53 80 49 81 50 82 52 83 54 84 51 85
REMARK H PARENT 17 5 10 10 21 28 71 47 45 58
REMARK Flexibility Score: inf
ROOT
ATOM      1  C   UNL A   1      36.427  20.338  24.994  1.00  0.00     0.118 C 
ENDROOT
BRANCH   1   2
ATOM      2  N   UNL A   1      36.579  21.643  25.612  1.00  0.00    -0.352 N 
ATOM      3  C   UNL A   1      35.831  22.761  25.448  1.00  0.00     0.244 C 
ATOM      4  O   UNL A   1      35.995  23.732  26.183  1.00  0.00    -0.270 OA
ATOM      5  H   UNL A   1      37.334  21.728  26.238  1.00  0.00     0.163 HD
BRANCH   3   6
ATOM      6  C   UNL A   1      34.809  22.810  24.391  1.00  0.00     0.077 C 
ATOM      7  C   UNL A   1      34.783  23.837  23.530  1.00  0.00     0.077 C 
BRANCH   7   8
ATOM      8  C   UNL A   1      33.632  24.009  22.633  1.00  0.00     0.248 C 
ATOM      9  N   UNL A   1      32.656  24.917  22.932  1.00  0.00    -0.322 N 
ATOM     10  H   UNL A   1      31.903  24.911  22.299  1.00  0.00     0.170 HD
ATOM     11  O   UNL A   1      33.570  23.318  21.618  1.00  0.00    -0.270 OA
BRANCH   9  12
ATOM     12  C   UNL A   1      32.512  25.867  23.977  1.00  0.00     0.056 A 
ATOM     13  C   UNL A   1      32.058  25.424  25.249  1.00  0.00     0.045 A 
ATOM     14  C   UNL A   1      32.132  26.247  26.384  1.00  0.00     0.064 A 
ATOM     15  C   UNL A   1      32.610  27.523  26.209  1.00  0.00     0.166 A 
ATOM     16  C   UNL A   1      32.821  27.222  23.831  1.00  0.00     0.077 A 
ATOM     17  C   UNL A   1      32.904  28.007  24.960  1.00  0.00     0.167 A 
ATOM     18  O   UNL A   1      32.824  28.449  27.180  1.00  0.00    -0.454 OA
ATOM     19  O   UNL A   1      33.302  29.307  24.985  1.00  0.00    -0.454 OA
ATOM     20  C   UNL A   1      33.419  29.516  26.406  1.00  0.00     0.468 C 
BRANCH  13  21
ATOM     21  C   UNL A   1      31.442  24.084  25.385  1.00  0.00     0.162 C 
ATOM     22  C   UNL A   1      31.669  23.361  26.687  1.00  0.00     0.093 C 
ATOM     23  O   UNL A   1      30.690  23.663  24.512  1.00  0.00    -0.294 OA
ENDBRANCH  13  21
ENDBRANCH   9  12
ENDBRANCH   7   8
ENDBRANCH   3   6
ENDBRANCH   1   2
BRANCH   1  24
ATOM     24  C   UNL A   1      37.765  19.632  24.819  1.00  0.00     0.042 C 
BRANCH  24  25
ATOM     25  C   UNL A   1      38.881  20.212  25.682  1.00  0.00     0.118 C 
BRANCH  25  26
ATOM     26  N   UNL A   1      40.016  19.307  25.790  1.00  0.00    -0.352 N 
ATOM     27  C   UNL A   1      41.336  19.575  26.031  1.00  0.00     0.251 C 
ATOM     28  H   UNL A   1      39.801  18.354  25.670  1.00  0.00     0.163 HD
ATOM     29  O   UNL A   1      42.181  18.708  25.812  1.00  0.00    -0.269 OA
BRANCH  27  30
ATOM     30  C   UNL A   1      41.751  20.885  26.568  1.00  0.00     0.039 A 
ATOM     31  C   UNL A   1      41.645  21.117  27.943  1.00  0.00     0.014 A 
ATOM     32  C   UNL A   1      42.163  21.911  25.713  1.00  0.00     0.014 A 
ATOM     33  C   UNL A   1      41.965  22.373  28.459  1.00  0.00     0.010 A 
ATOM     34  C   UNL A   1      42.563  23.135  26.236  1.00  0.00     0.010 A 
ATOM     35  C   UNL A   1      42.431  23.389  27.609  1.00  0.00    -0.014 A 
BRANCH  35  36
ATOM     36  C   UNL A   1      42.714  24.748  28.126  1.00  0.00     0.031 A 
ATOM     37  C   UNL A   1      44.124  25.130  28.488  1.00  0.00     0.074 A 
ATOM     38  C   UNL A   1      41.703  25.615  28.317  1.00  0.00     0.049 A 
ATOM     39  N   UNL A   1      44.575  26.246  28.998  1.00  0.00    -0.248 NA
ATOM     40  C   UNL A   1      45.159  24.104  28.284  1.00  0.00     0.031 C 
ATOM     41  C   UNL A   1      40.290  25.336  28.060  1.00  0.00     0.029 A 
ATOM     42  N   UNL A   1      41.712  26.904  28.781  1.00  0.00    -0.354 N 
ATOM     43  C   UNL A   1      45.934  26.045  29.202  1.00  0.00     0.074 A 
ATOM     44  C   UNL A   1      46.225  24.683  28.814  1.00  0.00     0.031 C 
ATOM     45  C   UNL A   1      39.569  26.432  28.348  1.00  0.00     0.029 A 
ATOM     46  C   UNL A   1      40.466  27.478  28.829  1.00  0.00     0.049 A 
ATOM     47  H   UNL A   1      42.533  27.373  29.053  1.00  0.00     0.167 HD
ATOM     48  C   UNL A   1      46.864  26.925  29.646  1.00  0.00     0.037 A 
ATOM     49  C   UNL A   1      40.094  28.713  29.213  1.00  0.00     0.037 A 
ATOM     50  C   UNL A   1      46.575  28.292  29.987  1.00  0.00     0.049 A 
ATOM     51  C   UNL A   1      41.148  29.692  29.644  1.00  0.00     0.074 A 
ATOM     52  C   UNL A   1      47.450  29.289  30.380  1.00  0.00     0.029 A 
ATOM     53  N   UNL A   1      45.307  28.855  29.967  1.00  0.00    -0.354 N 
ATOM     54  N   UNL A   1      42.443  29.514  29.764  1.00  0.00    -0.248 NA
ATOM     55  C   UNL A   1      40.695  31.050  29.972  1.00  0.00     0.031 C 
ATOM     56  C   UNL A   1      46.706  30.448  30.628  1.00  0.00     0.029 A 
ATOM     57  C   UNL A   1      45.374  30.185  30.349  1.00  0.00     0.049 A 
ATOM     58  H   UNL A   1      44.482  28.380  29.718  1.00  0.00     0.167 HD
ATOM     59  C   UNL A   1      42.962  30.742  30.153  1.00  0.00     0.074 A 
ATOM     60  C   UNL A   1      41.843  31.659  30.237  1.00  0.00     0.031 C 
ATOM     61  C   UNL A   1      44.248  31.081  30.417  1.00  0.00     0.037 A 
BRANCH  48  62
ATOM     62  C   UNL A   1      48.274  26.425  29.783  1.00  0.00     0.057 A 
ATOM     63  C   UNL A   1      48.737  25.825  30.962  1.00  0.00     0.134 A 
ATOM     64  C   UNL A   1      49.183  26.549  28.724  1.00  0.00     0.134 A 
ATOM     65  F   UNL A   1      47.923  25.688  32.020  1.00  0.00    -0.206 F 
ATOM     66  C   UNL A   1      50.061  25.402  31.096  1.00  0.00     0.040 A 
ATOM     67  C   UNL A   1      50.500  26.104  28.836  1.00  0.00     0.040 A 
ATOM     68  F   UNL A   1      48.805  27.109  27.564  1.00  0.00    -0.206 F 
ATOM     69  C   UNL A   1      50.946  25.538  30.029  1.00  0.00     0.006 A 
ENDBRANCH  48  62
BRANCH  49  70
ATOM     70  C   UNL A   1      38.665  29.103  29.147  1.00  0.00     0.057 A 
ATOM     71  C   UNL A   1      37.844  29.023  30.278  1.00  0.00     0.134 A 
ATOM     72  C   UNL A   1      38.093  29.589  27.966  1.00  0.00     0.134 A 
ATOM     73  F   UNL A   1      38.333  28.553  31.434  1.00  0.00    -0.206 F 
ATOM     74  C   UNL A   1      36.500  29.396  30.233  1.00  0.00     0.040 A 
ATOM     75  C   UNL A   1      36.756  29.987  27.912  1.00  0.00     0.040 A 
ATOM     76  F   UNL A   1      38.832  29.702  26.852  1.00  0.00    -0.206 F 
ATOM     77  C   UNL A   1      35.954  29.886  29.048  1.00  0.00     0.006 A 
ENDBRANCH  49  70
BRANCH  61  78
ATOM     78  C   UNL A   1      44.514  32.511  30.779  1.00  0.00     0.057 A 
ATOM     79  C   UNL A   1      44.491  32.956  32.106  1.00  0.00     0.134 A 
ATOM     80  C   UNL A   1      44.827  33.449  29.785  1.00  0.00     0.134 A 
ATOM     81  F   UNL A   1      44.187  32.109  33.102  1.00  0.00    -0.206 F 
ATOM     82  C   UNL A   1      44.743  34.289  32.432  1.00  0.00     0.040 A 
ATOM     83  C   UNL A   1      45.106  34.778  30.101  1.00  0.00     0.040 A 
ATOM     84  F   UNL A   1      44.875  33.084  28.495  1.00  0.00    -0.206 F 
ATOM     85  C   UNL A   1      45.057  35.204  31.427  1.00  0.00     0.006 A 
ENDBRANCH  61  78
ENDBRANCH  35  36
ENDBRANCH  27  30
ENDBRANCH  25  26
ENDBRANCH  24  25
ENDBRANCH   1  24
TORSDOF 13
ENDMDL
