MODEL 1
REMARK VINA RESULT:     -11.9      0.000      0.000
REMARK SMILES Cc1ccccc1OCC(=O)N1C[C@@H](O)C[C@H]1C(=O)NCCCNC(=O)c1ccc(-c2c3nc(c(-c4c(F)cccc4F)c4ccc([nH]4)c(-c4c(F)cccc4F)c4nc(c(-c5c(F)cccc5F)c5ccc2[nH]5)C=C4)C=C3)cc1
REMARK SMILES IDX 21 1 20 2 18 3 19 4 17 6 12 7 13 8 14 9 16 10 10 11 11 12
REMARK SMILES IDX 9 13 8 14 7 15 1 16 2 17 3 18 4 19 6 20 5 21 15 22 22 24
REMARK SMILES IDX 23 25 24 26 25 27 26 29 27 30 28 31 80 32 29 33 79 34 30 35
REMARK SMILES IDX 31 36 32 37 73 38 33 39 78 40 72 41 74 42 34 43 77 44 71 45
REMARK SMILES IDX 70 46 35 48 61 49 44 50 60 51 45 52 48 53 59 54 75 55 46 56
REMARK SMILES IDX 47 57 58 59 76 60 49 61 36 62 37 63 42 64 38 65 39 66 41 67
REMARK SMILES IDX 43 68 40 69 62 70 63 71 68 72 64 73 65 74 67 75 69 76 66 77
REMARK SMILES IDX 50 78 51 79 56 80 52 81 53 82 55 83 57 84 54 85
REMARK H PARENT 20 5 15 23 24 28 74 47 48 58
REMARK Flexibility Score: inf
ROOT
ATOM      1  C   UNL A   1      34.146  29.255  26.963  1.00  0.00     0.117 C 
ENDROOT
BRANCH   1   2
ATOM      2  N   UNL A   1      32.877  28.880  27.560  1.00  0.00    -0.354 N 
ATOM      3  C   UNL A   1      31.890  28.036  27.137  1.00  0.00     0.242 C 
ATOM      4  O   UNL A   1      31.047  27.718  27.984  1.00  0.00    -0.273 OA
ATOM      5  H   UNL A   1      32.696  29.312  28.425  1.00  0.00     0.163 HD
BRANCH   3   6
ATOM      6  C   UNL A   1      31.867  27.383  25.735  1.00  0.00     0.177 C 
ATOM      7  N   UNL A   1      31.210  26.078  25.651  1.00  0.00    -0.325 N 
ATOM      8  C   UNL A   1      30.120  26.074  24.697  1.00  0.00     0.152 C 
ATOM      9  C   UNL A   1      30.308  27.335  23.859  1.00  0.00     0.136 C 
ATOM     10  C   UNL A   1      31.197  28.267  24.682  1.00  0.00     0.069 C 
BRANCH   7  11
ATOM     11  C   UNL A   1      31.826  24.964  26.194  1.00  0.00     0.261 C 
ATOM     12  O   UNL A   1      31.393  24.426  27.215  1.00  0.00    -0.271 OA
BRANCH  11  13
ATOM     13  C   UNL A   1      33.128  24.463  25.557  1.00  0.00     0.329 C 
BRANCH  13  14
ATOM     14  O   UNL A   1      33.482  23.116  25.755  1.00  0.00    -0.484 OA
BRANCH  14  15
ATOM     15  C   UNL A   1      34.750  22.637  25.630  1.00  0.00     0.122 A 
ATOM     16  C   UNL A   1      34.401  20.156  24.951  1.00  0.00     0.048 C 
ATOM     17  C   UNL A   1      35.230  21.366  25.278  1.00  0.00    -0.009 A 
ATOM     18  C   UNL A   1      36.630  21.188  25.169  1.00  0.00     0.007 A 
ATOM     19  C   UNL A   1      37.531  22.222  25.420  1.00  0.00     0.001 A 
ATOM     20  C   UNL A   1      35.677  23.663  25.898  1.00  0.00     0.047 A 
ATOM     21  C   UNL A   1      37.052  23.465  25.794  1.00  0.00     0.004 A 
ENDBRANCH  14  15
ENDBRANCH  13  14
ENDBRANCH  11  13
ENDBRANCH   7  11
BRANCH   9  22
ATOM     22  O   UNL A   1      29.072  27.956  23.535  1.00  0.00    -0.391 OA
ATOM     23  H   UNL A   1      29.170  28.461  22.713  1.00  0.00     0.211 HD
ENDBRANCH   9  22
ENDBRANCH   3   6
ENDBRANCH   1   2
BRANCH   1  24
ATOM     24  C   UNL A   1      34.567  30.676  27.292  1.00  0.00     0.042 C 
BRANCH  24  25
ATOM     25  C   UNL A   1      34.656  30.938  28.785  1.00  0.00     0.118 C 
BRANCH  25  26
ATOM     26  N   UNL A   1      35.708  31.882  29.165  1.00  0.00    -0.352 N 
ATOM     27  C   UNL A   1      37.067  31.647  29.309  1.00  0.00     0.251 C 
ATOM     28  H   UNL A   1      35.412  32.805  29.342  1.00  0.00     0.163 HD
ATOM     29  O   UNL A   1      37.831  32.549  29.611  1.00  0.00    -0.269 OA
BRANCH  27  30
ATOM     30  C   UNL A   1      37.589  30.306  28.956  1.00  0.00     0.039 A 
ATOM     31  C   UNL A   1      37.675  29.352  29.973  1.00  0.00     0.014 A 
ATOM     32  C   UNL A   1      38.229  30.105  27.737  1.00  0.00     0.014 A 
ATOM     33  C   UNL A   1      38.625  28.342  29.869  1.00  0.00     0.010 A 
ATOM     34  C   UNL A   1      39.246  29.175  27.678  1.00  0.00     0.010 A 
ATOM     35  C   UNL A   1      39.495  28.347  28.779  1.00  0.00    -0.014 A 
BRANCH  35  36
ATOM     36  C   UNL A   1      40.764  27.627  28.778  1.00  0.00     0.031 A 
ATOM     37  C   UNL A   1      40.810  26.177  28.515  1.00  0.00     0.074 A 
ATOM     38  C   UNL A   1      41.918  28.311  28.952  1.00  0.00     0.049 A 
ATOM     39  N   UNL A   1      41.789  25.409  28.853  1.00  0.00    -0.248 NA
ATOM     40  C   UNL A   1      39.713  25.466  27.875  1.00  0.00     0.031 C 
ATOM     41  C   UNL A   1      43.280  27.828  28.736  1.00  0.00     0.029 A 
ATOM     42  N   UNL A   1      42.086  29.542  29.605  1.00  0.00    -0.354 N 
ATOM     43  C   UNL A   1      41.592  24.186  28.256  1.00  0.00     0.074 A 
ATOM     44  C   UNL A   1      40.258  24.257  27.705  1.00  0.00     0.031 C 
ATOM     45  C   UNL A   1      44.115  28.551  29.499  1.00  0.00     0.029 A 
ATOM     46  C   UNL A   1      43.298  29.421  30.325  1.00  0.00     0.049 A 
ATOM     47  H   UNL A   1      41.487  30.324  29.569  1.00  0.00     0.167 HD
ATOM     48  C   UNL A   1      42.628  23.297  28.198  1.00  0.00     0.037 A 
ATOM     49  C   UNL A   1      43.304  29.451  31.689  1.00  0.00     0.037 A 
ATOM     50  C   UNL A   1      43.798  23.778  28.936  1.00  0.00     0.049 A 
ATOM     51  C   UNL A   1      43.833  28.195  32.353  1.00  0.00     0.074 A 
ATOM     52  C   UNL A   1      45.005  24.360  28.584  1.00  0.00     0.029 A 
ATOM     53  N   UNL A   1      43.693  23.936  30.306  1.00  0.00    -0.354 N 
ATOM     54  N   UNL A   1      44.214  27.120  31.719  1.00  0.00    -0.248 NA
ATOM     55  C   UNL A   1      43.868  28.023  33.807  1.00  0.00     0.031 C 
ATOM     56  C   UNL A   1      45.628  24.855  29.767  1.00  0.00     0.029 A 
ATOM     57  C   UNL A   1      44.796  24.577  30.834  1.00  0.00     0.049 A 
ATOM     58  H   UNL A   1      42.925  23.628  30.840  1.00  0.00     0.167 HD
ATOM     59  C   UNL A   1      44.478  26.127  32.628  1.00  0.00     0.074 A 
ATOM     60  C   UNL A   1      44.248  26.740  33.921  1.00  0.00     0.031 C 
ATOM     61  C   UNL A   1      44.816  24.856  32.259  1.00  0.00     0.037 A 
BRANCH  48  62
ATOM     62  C   UNL A   1      42.652  22.103  27.269  1.00  0.00     0.057 A 
ATOM     63  C   UNL A   1      41.818  20.991  27.498  1.00  0.00     0.134 A 
ATOM     64  C   UNL A   1      43.509  21.957  26.165  1.00  0.00     0.134 A 
ATOM     65  F   UNL A   1      40.851  21.012  28.425  1.00  0.00    -0.206 F 
ATOM     66  C   UNL A   1      41.931  19.790  26.785  1.00  0.00     0.040 A 
ATOM     67  C   UNL A   1      43.678  20.743  25.482  1.00  0.00     0.040 A 
ATOM     68  F   UNL A   1      44.175  22.998  25.651  1.00  0.00    -0.206 F 
ATOM     69  C   UNL A   1      42.898  19.645  25.804  1.00  0.00     0.006 A 
ENDBRANCH  48  62
BRANCH  49  70
ATOM     70  C   UNL A   1      42.253  30.334  32.259  1.00  0.00     0.057 A 
ATOM     71  C   UNL A   1      42.490  31.719  32.324  1.00  0.00     0.134 A 
ATOM     72  C   UNL A   1      40.932  29.907  32.413  1.00  0.00     0.134 A 
ATOM     73  F   UNL A   1      43.737  32.199  32.182  1.00  0.00    -0.206 F 
ATOM     74  C   UNL A   1      41.448  32.643  32.427  1.00  0.00     0.040 A 
ATOM     75  C   UNL A   1      39.882  30.824  32.535  1.00  0.00     0.040 A 
ATOM     76  F   UNL A   1      40.620  28.606  32.336  1.00  0.00    -0.206 F 
ATOM     77  C   UNL A   1      40.134  32.194  32.502  1.00  0.00     0.006 A 
ENDBRANCH  49  70
BRANCH  61  78
ATOM     78  C   UNL A   1      45.152  23.761  33.236  1.00  0.00     0.057 A 
ATOM     79  C   UNL A   1      44.218  22.801  33.652  1.00  0.00     0.134 A 
ATOM     80  C   UNL A   1      46.405  23.703  33.880  1.00  0.00     0.134 A 
ATOM     81  F   UNL A   1      42.962  22.809  33.184  1.00  0.00    -0.206 F 
ATOM     82  C   UNL A   1      44.532  21.809  34.590  1.00  0.00     0.040 A 
ATOM     83  C   UNL A   1      46.713  22.749  34.853  1.00  0.00     0.040 A 
ATOM     84  F   UNL A   1      47.393  24.559  33.583  1.00  0.00    -0.206 F 
ATOM     85  C   UNL A   1      45.780  21.783  35.199  1.00  0.00     0.006 A 
ENDBRANCH  61  78
ENDBRANCH  35  36
ENDBRANCH  27  30
ENDBRANCH  25  26
ENDBRANCH  24  25
ENDBRANCH   1  24
TORSDOF 15
ENDMDL
MODEL 2
REMARK VINA RESULT:     -11.9      1.594      2.508
REMARK SMILES Cc1ccccc1OCC(=O)N1C[C@@H](O)C[C@H]1C(=O)NCCCNC(=O)c1ccc(-c2c3nc(c(-c4c(F)cccc4F)c4ccc([nH]4)c(-c4c(F)cccc4F)c4nc(c(-c5c(F)cccc5F)c5ccc2[nH]5)C=C4)C=C3)cc1
REMARK SMILES IDX 21 1 20 2 18 3 19 4 17 6 12 7 13 8 14 9 16 10 10 11 11 12
REMARK SMILES IDX 9 13 8 14 7 15 1 16 2 17 3 18 4 19 6 20 5 21 15 22 22 24
REMARK SMILES IDX 23 25 24 26 25 27 26 29 27 30 28 31 80 32 29 33 79 34 30 35
REMARK SMILES IDX 31 36 32 37 73 38 33 39 78 40 72 41 74 42 34 43 77 44 71 45
REMARK SMILES IDX 70 46 35 48 61 49 44 50 60 51 45 52 48 53 59 54 75 55 46 56
REMARK SMILES IDX 47 57 58 59 76 60 49 61 36 62 37 63 42 64 38 65 39 66 41 67
REMARK SMILES IDX 43 68 40 69 62 70 63 71 68 72 64 73 65 74 67 75 69 76 66 77
REMARK SMILES IDX 50 78 51 79 56 80 52 81 53 82 55 83 57 84 54 85
REMARK H PARENT 20 5 15 23 24 28 74 47 48 58
REMARK Flexibility Score: inf
ROOT
ATOM      1  C   UNL A   1      32.006  29.862  26.755  1.00  0.00     0.117 C 
ENDROOT
BRANCH   1   2
ATOM      2  N   UNL A   1      31.363  30.126  25.481  1.00  0.00    -0.354 N 
ATOM      3  C   UNL A   1      31.209  29.353  24.366  1.00  0.00     0.242 C 
ATOM      4  O   UNL A   1      30.387  29.756  23.534  1.00  0.00    -0.273 OA
ATOM      5  H   UNL A   1      30.967  31.024  25.408  1.00  0.00     0.163 HD
BRANCH   3   6
ATOM      6  C   UNL A   1      31.895  27.980  24.177  1.00  0.00     0.177 C 
ATOM      7  N   UNL A   1      31.074  26.937  23.561  1.00  0.00    -0.325 N 
ATOM      8  C   UNL A   1      31.675  26.409  22.353  1.00  0.00     0.152 C 
ATOM      9  C   UNL A   1      33.127  26.877  22.383  1.00  0.00     0.136 C 
ATOM     10  C   UNL A   1      33.173  28.067  23.342  1.00  0.00     0.069 C 
BRANCH   7  11
ATOM     11  C   UNL A   1      30.044  26.359  24.282  1.00  0.00     0.261 C 
ATOM     12  O   UNL A   1      28.886  26.360  23.859  1.00  0.00    -0.271 OA
BRANCH  11  13
ATOM     13  C   UNL A   1      30.351  25.797  25.676  1.00  0.00     0.329 C 
BRANCH  13  14
ATOM     14  O   UNL A   1      31.006  24.556  25.757  1.00  0.00    -0.484 OA
BRANCH  14  15
ATOM     15  C   UNL A   1      32.228  24.304  25.214  1.00  0.00     0.122 A 
ATOM     16  C   UNL A   1      31.710  22.657  23.275  1.00  0.00     0.048 C 
ATOM     17  C   UNL A   1      32.615  23.497  24.133  1.00  0.00    -0.009 A 
ATOM     18  C   UNL A   1      33.980  23.488  23.761  1.00  0.00     0.007 A 
ATOM     19  C   UNL A   1      34.940  24.233  24.446  1.00  0.00     0.001 A 
ATOM     20  C   UNL A   1      33.216  25.033  25.904  1.00  0.00     0.047 A 
ATOM     21  C   UNL A   1      34.557  25.004  25.529  1.00  0.00     0.004 A 
ENDBRANCH  14  15
ENDBRANCH  13  14
ENDBRANCH  11  13
ENDBRANCH   7  11
BRANCH   9  22
ATOM     22  O   UNL A   1      33.604  27.237  21.095  1.00  0.00    -0.391 OA
ATOM     23  H   UNL A   1      33.025  26.853  20.417  1.00  0.00     0.211 HD
ENDBRANCH   9  22
ENDBRANCH   3   6
ENDBRANCH   1   2
BRANCH   1  24
ATOM     24  C   UNL A   1      32.913  30.991  27.214  1.00  0.00     0.042 C 
BRANCH  24  25
ATOM     25  C   UNL A   1      34.264  30.504  27.707  1.00  0.00     0.118 C 
BRANCH  25  26
ATOM     26  N   UNL A   1      34.868  31.355  28.734  1.00  0.00    -0.352 N 
ATOM     27  C   UNL A   1      36.047  31.155  29.436  1.00  0.00     0.251 C 
ATOM     28  H   UNL A   1      34.372  32.177  28.954  1.00  0.00     0.163 HD
ATOM     29  O   UNL A   1      36.438  31.973  30.253  1.00  0.00    -0.269 OA
BRANCH  27  30
ATOM     30  C   UNL A   1      36.890  29.990  29.076  1.00  0.00     0.039 A 
ATOM     31  C   UNL A   1      37.081  29.001  30.043  1.00  0.00     0.014 A 
ATOM     32  C   UNL A   1      37.682  30.029  27.933  1.00  0.00     0.014 A 
ATOM     33  C   UNL A   1      38.239  28.232  29.998  1.00  0.00     0.010 A 
ATOM     34  C   UNL A   1      38.881  29.349  27.944  1.00  0.00     0.010 A 
ATOM     35  C   UNL A   1      39.194  28.511  29.021  1.00  0.00    -0.014 A 
BRANCH  35  36
ATOM     36  C   UNL A   1      40.585  28.085  29.132  1.00  0.00     0.031 A 
ATOM     37  C   UNL A   1      41.022  26.785  28.593  1.00  0.00     0.074 A 
ATOM     38  C   UNL A   1      41.497  28.924  29.674  1.00  0.00     0.049 A 
ATOM     39  N   UNL A   1      42.096  26.171  28.959  1.00  0.00    -0.248 NA
ATOM     40  C   UNL A   1      40.243  26.045  27.611  1.00  0.00     0.031 C 
ATOM     41  C   UNL A   1      42.952  28.795  29.646  1.00  0.00     0.029 A 
ATOM     42  N   UNL A   1      41.258  29.965  30.585  1.00  0.00    -0.354 N 
ATOM     43  C   UNL A   1      42.296  25.118  28.098  1.00  0.00     0.074 A 
ATOM     44  C   UNL A   1      41.085  25.051  27.312  1.00  0.00     0.031 C 
ATOM     45  C   UNL A   1      43.459  29.462  30.695  1.00  0.00     0.029 A 
ATOM     46  C   UNL A   1      42.339  29.918  31.497  1.00  0.00     0.049 A 
ATOM     47  H   UNL A   1      40.500  30.593  30.588  1.00  0.00     0.167 HD
ATOM     48  C   UNL A   1      43.513  24.500  28.071  1.00  0.00     0.037 A 
ATOM     49  C   UNL A   1      42.131  29.612  32.810  1.00  0.00     0.037 A 
ATOM     50  C   UNL A   1      44.404  25.010  29.115  1.00  0.00     0.049 A 
ATOM     51  C   UNL A   1      42.842  28.365  33.296  1.00  0.00     0.074 A 
ATOM     52  C   UNL A   1      45.473  25.892  29.143  1.00  0.00     0.029 A 
ATOM     53  N   UNL A   1      44.057  24.802  30.437  1.00  0.00    -0.354 N 
ATOM     54  N   UNL A   1      43.566  27.579  32.548  1.00  0.00    -0.248 NA
ATOM     55  C   UNL A   1      42.696  27.852  34.661  1.00  0.00     0.031 C 
ATOM     56  C   UNL A   1      45.769  26.197  30.504  1.00  0.00     0.029 A 
ATOM     57  C   UNL A   1      44.878  25.504  31.299  1.00  0.00     0.049 A 
ATOM     58  H   UNL A   1      43.315  24.224  30.729  1.00  0.00     0.167 HD
ATOM     59  C   UNL A   1      43.922  26.468  33.269  1.00  0.00     0.074 A 
ATOM     60  C   UNL A   1      43.356  26.685  34.585  1.00  0.00     0.031 C 
ATOM     61  C   UNL A   1      44.612  25.422  32.725  1.00  0.00     0.037 A 
BRANCH  48  62
ATOM     62  C   UNL A   1      43.969  23.600  26.943  1.00  0.00     0.057 A 
ATOM     63  C   UNL A   1      44.842  24.077  25.946  1.00  0.00     0.134 A 
ATOM     64  C   UNL A   1      43.544  22.275  26.745  1.00  0.00     0.134 A 
ATOM     65  F   UNL A   1      45.445  25.269  26.044  1.00  0.00    -0.206 F 
ATOM     66  C   UNL A   1      45.147  23.353  24.785  1.00  0.00     0.040 A 
ATOM     67  C   UNL A   1      43.788  21.561  25.563  1.00  0.00     0.040 A 
ATOM     68  F   UNL A   1      42.930  21.584  27.713  1.00  0.00    -0.206 F 
ATOM     69  C   UNL A   1      44.579  22.108  24.566  1.00  0.00     0.006 A 
ENDBRANCH  48  62
BRANCH  49  70
ATOM     70  C   UNL A   1      40.822  30.097  33.322  1.00  0.00     0.057 A 
ATOM     71  C   UNL A   1      40.676  31.462  33.631  1.00  0.00     0.134 A 
ATOM     72  C   UNL A   1      39.652  29.347  33.189  1.00  0.00     0.134 A 
ATOM     73  F   UNL A   1      41.759  32.243  33.772  1.00  0.00    -0.206 F 
ATOM     74  C   UNL A   1      39.422  32.074  33.695  1.00  0.00     0.040 A 
ATOM     75  C   UNL A   1      38.390  29.947  33.269  1.00  0.00     0.040 A 
ATOM     76  F   UNL A   1      39.706  28.046  32.868  1.00  0.00    -0.206 F 
ATOM     77  C   UNL A   1      38.274  31.319  33.483  1.00  0.00     0.006 A 
ENDBRANCH  49  70
BRANCH  61  78
ATOM     78  C   UNL A   1      45.052  24.212  33.505  1.00  0.00     0.057 A 
ATOM     79  C   UNL A   1      46.356  24.061  33.999  1.00  0.00     0.134 A 
ATOM     80  C   UNL A   1      44.204  23.102  33.690  1.00  0.00     0.134 A 
ATOM     81  F   UNL A   1      47.285  25.008  33.804  1.00  0.00    -0.206 F 
ATOM     82  C   UNL A   1      46.766  22.915  34.692  1.00  0.00     0.040 A 
ATOM     83  C   UNL A   1      44.616  21.933  34.336  1.00  0.00     0.040 A 
ATOM     84  F   UNL A   1      42.932  23.106  33.268  1.00  0.00    -0.206 F 
ATOM     85  C   UNL A   1      45.898  21.843  34.857  1.00  0.00     0.006 A 
ENDBRANCH  61  78
ENDBRANCH  35  36
ENDBRANCH  27  30
ENDBRANCH  25  26
ENDBRANCH  24  25
ENDBRANCH   1  24
TORSDOF 15
ENDMDL
MODEL 3
REMARK VINA RESULT:     -11.4      1.094      1.541
REMARK SMILES Cc1ccccc1OCC(=O)N1C[C@@H](O)C[C@H]1C(=O)NCCCNC(=O)c1ccc(-c2c3nc(c(-c4c(F)cccc4F)c4ccc([nH]4)c(-c4c(F)cccc4F)c4nc(c(-c5c(F)cccc5F)c5ccc2[nH]5)C=C4)C=C3)cc1
REMARK SMILES IDX 21 1 20 2 18 3 19 4 17 6 12 7 13 8 14 9 16 10 10 11 11 12
REMARK SMILES IDX 9 13 8 14 7 15 1 16 2 17 3 18 4 19 6 20 5 21 15 22 22 24
REMARK SMILES IDX 23 25 24 26 25 27 26 29 27 30 28 31 80 32 29 33 79 34 30 35
REMARK SMILES IDX 31 36 32 37 73 38 33 39 78 40 72 41 74 42 34 43 77 44 71 45
REMARK SMILES IDX 70 46 35 48 61 49 44 50 60 51 45 52 48 53 59 54 75 55 46 56
REMARK SMILES IDX 47 57 58 59 76 60 49 61 36 62 37 63 42 64 38 65 39 66 41 67
REMARK SMILES IDX 43 68 40 69 62 70 63 71 68 72 64 73 65 74 67 75 69 76 66 77
REMARK SMILES IDX 50 78 51 79 56 80 52 81 53 82 55 83 57 84 54 85
REMARK H PARENT 20 5 15 23 24 28 74 47 48 58
REMARK Flexibility Score: inf
ROOT
ATOM      1  C   UNL A   1      33.894  29.240  26.829  1.00  0.00     0.117 C 
ENDROOT
BRANCH   1   2
ATOM      2  N   UNL A   1      32.715  28.400  26.943  1.00  0.00    -0.354 N 
ATOM      3  C   UNL A   1      31.823  27.959  26.008  1.00  0.00     0.242 C 
ATOM      4  O   UNL A   1      31.073  27.042  26.362  1.00  0.00    -0.273 OA
ATOM      5  H   UNL A   1      32.525  28.093  27.858  1.00  0.00     0.163 HD
BRANCH   3   6
ATOM      6  C   UNL A   1      31.810  28.449  24.541  1.00  0.00     0.177 C 
ATOM      7  N   UNL A   1      31.665  27.409  23.522  1.00  0.00    -0.325 N 
ATOM      8  C   UNL A   1      30.511  27.628  22.675  1.00  0.00     0.152 C 
ATOM      9  C   UNL A   1      30.092  29.073  22.925  1.00  0.00     0.136 C 
ATOM     10  C   UNL A   1      30.705  29.470  24.268  1.00  0.00     0.069 C 
BRANCH   7  11
ATOM     11  C   UNL A   1      32.722  26.554  23.260  1.00  0.00     0.261 C 
ATOM     12  O   UNL A   1      33.715  26.935  22.637  1.00  0.00    -0.271 OA
BRANCH  11  13
ATOM     13  C   UNL A   1      32.595  25.083  23.675  1.00  0.00     0.329 C 
BRANCH  13  14
ATOM     14  O   UNL A   1      33.248  24.671  24.850  1.00  0.00    -0.484 OA
BRANCH  14  15
ATOM     15  C   UNL A   1      34.275  23.779  24.878  1.00  0.00     0.122 A 
ATOM     16  C   UNL A   1      33.215  21.595  23.958  1.00  0.00     0.048 C 
ATOM     17  C   UNL A   1      34.341  22.429  24.502  1.00  0.00    -0.009 A 
ATOM     18  C   UNL A   1      35.592  21.772  24.589  1.00  0.00     0.007 A 
ATOM     19  C   UNL A   1      36.737  22.417  25.054  1.00  0.00     0.001 A 
ATOM     20  C   UNL A   1      35.439  24.407  25.363  1.00  0.00     0.047 A 
ATOM     21  C   UNL A   1      36.659  23.740  25.451  1.00  0.00     0.004 A 
ENDBRANCH  14  15
ENDBRANCH  13  14
ENDBRANCH  11  13
ENDBRANCH   7  11
BRANCH   9  22
ATOM     22  O   UNL A   1      28.680  29.230  22.938  1.00  0.00    -0.391 OA
ATOM     23  H   UNL A   1      28.287  28.679  22.243  1.00  0.00     0.211 HD
ENDBRANCH   9  22
ENDBRANCH   3   6
ENDBRANCH   1   2
BRANCH   1  24
ATOM     24  C   UNL A   1      33.782  30.537  27.612  1.00  0.00     0.042 C 
BRANCH  24  25
ATOM     25  C   UNL A   1      35.018  31.411  27.491  1.00  0.00     0.118 C 
BRANCH  25  26
ATOM     26  N   UNL A   1      35.517  31.920  28.770  1.00  0.00    -0.352 N 
ATOM     27  C   UNL A   1      36.417  31.327  29.642  1.00  0.00     0.251 C 
ATOM     28  H   UNL A   1      35.168  32.799  29.046  1.00  0.00     0.163 HD
ATOM     29  O   UNL A   1      36.759  31.890  30.669  1.00  0.00    -0.269 OA
BRANCH  27  30
ATOM     30  C   UNL A   1      37.056  30.054  29.234  1.00  0.00     0.039 A 
ATOM     31  C   UNL A   1      37.213  29.063  30.205  1.00  0.00     0.014 A 
ATOM     32  C   UNL A   1      37.725  29.968  28.016  1.00  0.00     0.014 A 
ATOM     33  C   UNL A   1      38.248  28.143  30.067  1.00  0.00     0.010 A 
ATOM     34  C   UNL A   1      38.818  29.133  27.928  1.00  0.00     0.010 A 
ATOM     35  C   UNL A   1      39.125  28.276  28.991  1.00  0.00    -0.014 A 
BRANCH  35  36
ATOM     36  C   UNL A   1      40.452  27.668  28.975  1.00  0.00     0.031 A 
ATOM     37  C   UNL A   1      40.627  26.245  28.632  1.00  0.00     0.074 A 
ATOM     38  C   UNL A   1      41.539  28.437  29.211  1.00  0.00     0.049 A 
ATOM     39  N   UNL A   1      41.663  25.544  28.946  1.00  0.00    -0.248 NA
ATOM     40  C   UNL A   1      39.605  25.481  27.931  1.00  0.00     0.031 C 
ATOM     41  C   UNL A   1      42.941  28.085  28.996  1.00  0.00     0.029 A 
ATOM     42  N   UNL A   1      41.591  29.638  29.935  1.00  0.00    -0.354 N 
ATOM     43  C   UNL A   1      41.581  24.346  28.277  1.00  0.00     0.074 A 
ATOM     44  C   UNL A   1      40.255  24.335  27.704  1.00  0.00     0.031 C 
ATOM     45  C   UNL A   1      43.699  28.831  29.814  1.00  0.00     0.029 A 
ATOM     46  C   UNL A   1      42.798  29.578  30.672  1.00  0.00     0.049 A 
ATOM     47  H   UNL A   1      40.927  30.366  29.932  1.00  0.00     0.167 HD
ATOM     48  C   UNL A   1      42.690  23.554  28.190  1.00  0.00     0.037 A 
ATOM     49  C   UNL A   1      42.781  29.529  32.035  1.00  0.00     0.037 A 
ATOM     50  C   UNL A   1      43.803  24.089  28.977  1.00  0.00     0.049 A 
ATOM     51  C   UNL A   1      43.406  28.287  32.637  1.00  0.00     0.074 A 
ATOM     52  C   UNL A   1      44.961  24.790  28.683  1.00  0.00     0.029 A 
ATOM     53  N   UNL A   1      43.664  24.157  30.351  1.00  0.00    -0.354 N 
ATOM     54  N   UNL A   1      43.888  27.287  31.952  1.00  0.00    -0.248 NA
ATOM     55  C   UNL A   1      43.433  28.035  34.081  1.00  0.00     0.031 C 
ATOM     56  C   UNL A   1      45.521  25.267  29.904  1.00  0.00     0.029 A 
ATOM     57  C   UNL A   1      44.700  24.858  30.936  1.00  0.00     0.049 A 
ATOM     58  H   UNL A   1      42.917  23.755  30.852  1.00  0.00     0.167 HD
ATOM     59  C   UNL A   1      44.222  26.269  32.809  1.00  0.00     0.074 A 
ATOM     60  C   UNL A   1      43.921  26.784  34.129  1.00  0.00     0.031 C 
ATOM     61  C   UNL A   1      44.674  25.055  32.376  1.00  0.00     0.037 A 
BRANCH  48  62
ATOM     62  C   UNL A   1      42.831  22.421  27.195  1.00  0.00     0.057 A 
ATOM     63  C   UNL A   1      42.073  21.242  27.330  1.00  0.00     0.134 A 
ATOM     64  C   UNL A   1      43.733  22.402  26.117  1.00  0.00     0.134 A 
ATOM     65  F   UNL A   1      41.077  21.139  28.220  1.00  0.00    -0.206 F 
ATOM     66  C   UNL A   1      42.295  20.097  26.554  1.00  0.00     0.040 A 
ATOM     67  C   UNL A   1      44.011  21.247  25.373  1.00  0.00     0.040 A 
ATOM     68  F   UNL A   1      44.338  23.516  25.689  1.00  0.00    -0.206 F 
ATOM     69  C   UNL A   1      43.303  20.079  25.603  1.00  0.00     0.006 A 
ENDBRANCH  48  62
BRANCH  49  70
ATOM     70  C   UNL A   1      41.649  30.286  32.633  1.00  0.00     0.057 A 
ATOM     71  C   UNL A   1      40.495  29.584  33.027  1.00  0.00     0.134 A 
ATOM     72  C   UNL A   1      41.805  31.582  33.128  1.00  0.00     0.134 A 
ATOM     73  F   UNL A   1      40.282  28.332  32.590  1.00  0.00    -0.206 F 
ATOM     74  C   UNL A   1      39.596  30.107  33.959  1.00  0.00     0.040 A 
ATOM     75  C   UNL A   1      40.900  32.123  34.048  1.00  0.00     0.040 A 
ATOM     76  F   UNL A   1      42.891  32.306  32.821  1.00  0.00    -0.206 F 
ATOM     77  C   UNL A   1      39.815  31.371  34.495  1.00  0.00     0.006 A 
ENDBRANCH  49  70
BRANCH  61  78
ATOM     78  C   UNL A   1      45.089  23.938  33.296  1.00  0.00     0.057 A 
ATOM     79  C   UNL A   1      44.213  22.916  33.692  1.00  0.00     0.134 A 
ATOM     80  C   UNL A   1      46.359  23.915  33.906  1.00  0.00     0.134 A 
ATOM     81  F   UNL A   1      42.946  22.881  33.255  1.00  0.00    -0.206 F 
ATOM     82  C   UNL A   1      44.599  21.902  34.578  1.00  0.00     0.040 A 
ATOM     83  C   UNL A   1      46.739  22.937  34.829  1.00  0.00     0.040 A 
ATOM     84  F   UNL A   1      47.297  24.830  33.622  1.00  0.00    -0.206 F 
ATOM     85  C   UNL A   1      45.863  21.913  35.155  1.00  0.00     0.006 A 
ENDBRANCH  61  78
ENDBRANCH  35  36
ENDBRANCH  27  30
ENDBRANCH  25  26
ENDBRANCH  24  25
ENDBRANCH   1  24
TORSDOF 15
ENDMDL
