MODEL 1
REMARK VINA RESULT:     -12.1      0.000      0.000
REMARK SMILES CC1(C)CCC[C@H]1NS(=O)(=O)c1cccc(C(=O)NCCCNC(=O)c2ccc(-c3c4nc(c(-c5c(F)cccc5F)c5ccc([nH]5)c(-c5c(F)cccc5F)c5nc(c(-c6c(F)cccc6F)c6ccc3[nH]6)C=C5)C=C4)cc2)c1
REMARK SMILES IDX 20 1 19 2 17 3 18 4 16 6 12 7 13 8 80 9 14 10 15 11 9 12
REMARK SMILES IDX 10 13 11 14 8 15 7 17 1 18 2 19 3 20 4 21 5 22 6 23 21 24
REMARK SMILES IDX 22 25 23 26 24 27 25 29 26 30 27 31 79 32 28 33 78 34 29 35
REMARK SMILES IDX 30 36 31 37 72 38 32 39 77 40 71 41 73 42 33 43 76 44 70 45
REMARK SMILES IDX 69 46 34 48 60 49 43 50 59 51 44 52 47 53 58 54 74 55 45 56
REMARK SMILES IDX 46 57 57 59 75 60 48 61 35 62 36 63 41 64 37 65 38 66 40 67
REMARK SMILES IDX 42 68 39 69 61 70 62 71 67 72 63 73 64 74 66 75 68 76 65 77
REMARK SMILES IDX 49 78 50 79 55 80 51 81 52 82 54 83 56 84 53 85
REMARK H PARENT 19 5 8 16 23 28 73 47 47 58
REMARK Flexibility Score: inf
ROOT
ATOM      1  C   UNL A   1      35.977  20.464  24.986  1.00  0.00     0.118 C 
ENDROOT
BRANCH   1   2
ATOM      2  N   UNL A   1      34.788  19.670  25.302  1.00  0.00    -0.352 N 
ATOM      3  C   UNL A   1      33.437  19.912  25.160  1.00  0.00     0.251 C 
ATOM      4  O   UNL A   1      32.635  19.069  25.555  1.00  0.00    -0.269 OA
ATOM      5  H   UNL A   1      34.993  18.790  25.693  1.00  0.00     0.163 HD
BRANCH   3   6
ATOM      6  C   UNL A   1      32.928  21.191  24.607  1.00  0.00     0.041 A 
ATOM      7  C   UNL A   1      31.940  23.342  24.999  1.00  0.00     0.083 A 
ATOM      8  C   UNL A   1      31.468  23.404  23.690  1.00  0.00     0.022 A 
ATOM      9  C   UNL A   1      32.784  22.311  25.409  1.00  0.00     0.035 A 
ATOM     10  C   UNL A   1      31.813  22.377  22.806  1.00  0.00     0.002 A 
ATOM     11  C   UNL A   1      32.506  21.252  23.274  1.00  0.00     0.014 A 
BRANCH   7  12
ATOM     12  S   UNL A   1      31.350  24.390  26.293  1.00  0.00     0.240 S 
ATOM     13  O   UNL A   1      31.529  23.679  27.538  1.00  0.00    -0.207 OA
ATOM     14  O   UNL A   1      30.040  24.842  25.877  1.00  0.00    -0.207 OA
BRANCH  12  15
ATOM     15  N   UNL A   1      32.315  25.748  26.293  1.00  0.00    -0.208 NA
ATOM     16  H   UNL A   1      32.225  26.159  27.221  1.00  0.00     0.141 HD
BRANCH  15  17
ATOM     17  C   UNL A   1      32.131  26.848  25.342  1.00  0.00     0.075 C 
ATOM     18  C   UNL A   1      31.983  28.249  27.549  1.00  0.00     0.013 C 
ATOM     19  C   UNL A   1      32.328  28.218  26.051  1.00  0.00    -0.019 C 
ATOM     20  C   UNL A   1      31.466  29.288  25.351  1.00  0.00     0.013 C 
ATOM     21  C   UNL A   1      33.826  28.493  25.839  1.00  0.00     0.008 C 
ATOM     22  C   UNL A   1      34.098  28.023  24.420  1.00  0.00     0.002 C 
ATOM     23  C   UNL A   1      33.186  26.819  24.223  1.00  0.00     0.020 C 
ENDBRANCH  15  17
ENDBRANCH  12  15
ENDBRANCH   7  12
ENDBRANCH   3   6
ENDBRANCH   1   2
BRANCH   1  24
ATOM     24  C   UNL A   1      37.260  19.659  24.866  1.00  0.00     0.042 C 
BRANCH  24  25
ATOM     25  C   UNL A   1      38.477  20.306  25.503  1.00  0.00     0.118 C 
BRANCH  25  26
ATOM     26  N   UNL A   1      39.607  19.395  25.635  1.00  0.00    -0.352 N 
ATOM     27  C   UNL A   1      40.904  19.591  26.040  1.00  0.00     0.251 C 
ATOM     28  H   UNL A   1      39.401  18.464  25.388  1.00  0.00     0.163 HD
ATOM     29  O   UNL A   1      41.713  18.676  25.901  1.00  0.00    -0.269 OA
BRANCH  27  30
ATOM     30  C   UNL A   1      41.359  20.877  26.618  1.00  0.00     0.039 A 
ATOM     31  C   UNL A   1      41.817  21.878  25.752  1.00  0.00     0.014 A 
ATOM     32  C   UNL A   1      41.405  21.093  27.995  1.00  0.00     0.014 A 
ATOM     33  C   UNL A   1      42.249  23.106  26.263  1.00  0.00     0.010 A 
ATOM     34  C   UNL A   1      41.737  22.348  28.497  1.00  0.00     0.010 A 
ATOM     35  C   UNL A   1      42.177  23.366  27.640  1.00  0.00    -0.014 A 
BRANCH  35  36
ATOM     36  C   UNL A   1      42.579  24.677  28.211  1.00  0.00     0.031 A 
ATOM     37  C   UNL A   1      41.546  25.750  28.440  1.00  0.00     0.074 A 
ATOM     38  C   UNL A   1      43.880  24.937  28.447  1.00  0.00     0.049 A 
ATOM     39  N   UNL A   1      41.712  26.994  28.812  1.00  0.00    -0.248 NA
ATOM     40  C   UNL A   1      40.145  25.385  28.179  1.00  0.00     0.031 C 
ATOM     41  C   UNL A   1      44.986  24.007  28.217  1.00  0.00     0.029 A 
ATOM     42  N   UNL A   1      44.492  26.071  28.920  1.00  0.00    -0.354 N 
ATOM     43  C   UNL A   1      40.445  27.566  28.792  1.00  0.00     0.074 A 
ATOM     44  C   UNL A   1      39.528  26.548  28.332  1.00  0.00     0.031 C 
ATOM     45  C   UNL A   1      46.139  24.599  28.569  1.00  0.00     0.029 A 
ATOM     46  C   UNL A   1      45.858  25.959  29.015  1.00  0.00     0.049 A 
ATOM     47  H   UNL A   1      43.999  26.886  29.167  1.00  0.00     0.167 HD
ATOM     48  C   UNL A   1      40.076  28.821  29.145  1.00  0.00     0.037 A 
ATOM     49  C   UNL A   1      46.780  26.855  29.412  1.00  0.00     0.037 A 
ATOM     50  C   UNL A   1      40.979  29.817  29.657  1.00  0.00     0.049 A 
ATOM     51  C   UNL A   1      46.340  28.224  29.849  1.00  0.00     0.074 A 
ATOM     52  C   UNL A   1      40.689  31.090  30.115  1.00  0.00     0.029 A 
ATOM     53  N   UNL A   1      42.349  29.645  29.791  1.00  0.00    -0.354 N 
ATOM     54  N   UNL A   1      45.132  28.733  29.876  1.00  0.00    -0.248 NA
ATOM     55  C   UNL A   1      47.390  29.140  30.317  1.00  0.00     0.031 C 
ATOM     56  C   UNL A   1      41.889  31.700  30.502  1.00  0.00     0.029 A 
ATOM     57  C   UNL A   1      42.919  30.792  30.316  1.00  0.00     0.049 A 
ATOM     58  H   UNL A   1      42.842  28.828  29.548  1.00  0.00     0.167 HD
ATOM     59  C   UNL A   1      45.273  30.017  30.383  1.00  0.00     0.074 A 
ATOM     60  C   UNL A   1      46.682  30.205  30.664  1.00  0.00     0.031 C 
ATOM     61  C   UNL A   1      44.321  30.957  30.598  1.00  0.00     0.037 A 
BRANCH  48  62
ATOM     62  C   UNL A   1      38.627  29.181  28.999  1.00  0.00     0.057 A 
ATOM     63  C   UNL A   1      37.736  29.105  30.078  1.00  0.00     0.134 A 
ATOM     64  C   UNL A   1      38.122  29.630  27.773  1.00  0.00     0.134 A 
ATOM     65  F   UNL A   1      38.153  28.669  31.275  1.00  0.00    -0.206 F 
ATOM     66  C   UNL A   1      36.387  29.438  29.935  1.00  0.00     0.040 A 
ATOM     67  C   UNL A   1      36.782  29.991  27.625  1.00  0.00     0.040 A 
ATOM     68  F   UNL A   1      38.922  29.731  26.702  1.00  0.00    -0.206 F 
ATOM     69  C   UNL A   1      35.908  29.887  28.706  1.00  0.00     0.006 A 
ENDBRANCH  48  62
BRANCH  49  70
ATOM     70  C   UNL A   1      48.213  26.474  29.450  1.00  0.00     0.057 A 
ATOM     71  C   UNL A   1      49.058  26.751  28.371  1.00  0.00     0.134 A 
ATOM     72  C   UNL A   1      48.770  25.828  30.561  1.00  0.00     0.134 A 
ATOM     73  F   UNL A   1      48.576  27.350  27.272  1.00  0.00    -0.206 F 
ATOM     74  C   UNL A   1      50.406  26.387  28.386  1.00  0.00     0.040 A 
ATOM     75  C   UNL A   1      50.121  25.479  30.598  1.00  0.00     0.040 A 
ATOM     76  F   UNL A   1      48.012  25.542  31.629  1.00  0.00    -0.206 F 
ATOM     77  C   UNL A   1      50.942  25.753  29.505  1.00  0.00     0.006 A 
ENDBRANCH  49  70
BRANCH  61  78
ATOM     78  C   UNL A   1      44.766  32.258  31.193  1.00  0.00     0.057 A 
ATOM     79  C   UNL A   1      45.146  33.342  30.392  1.00  0.00     0.134 A 
ATOM     80  C   UNL A   1      44.782  32.438  32.582  1.00  0.00     0.134 A 
ATOM     81  F   UNL A   1      45.164  33.227  29.056  1.00  0.00    -0.206 F 
ATOM     82  C   UNL A   1      45.545  34.556  30.954  1.00  0.00     0.040 A 
ATOM     83  C   UNL A   1      45.159  33.653  33.154  1.00  0.00     0.040 A 
ATOM     84  F   UNL A   1      44.423  31.439  33.402  1.00  0.00    -0.206 F 
ATOM     85  C   UNL A   1      45.546  34.715  32.339  1.00  0.00     0.006 A 
ENDBRANCH  61  78
ENDBRANCH  35  36
ENDBRANCH  27  30
ENDBRANCH  25  26
ENDBRANCH  24  25
ENDBRANCH   1  24
TORSDOF 13
ENDMDL
MODEL 2
REMARK VINA RESULT:     -11.9      3.501      8.711
REMARK SMILES CC1(C)CCC[C@H]1NS(=O)(=O)c1cccc(C(=O)NCCCNC(=O)c2ccc(-c3c4nc(c(-c5c(F)cccc5F)c5ccc([nH]5)c(-c5c(F)cccc5F)c5nc(c(-c6c(F)cccc6F)c6ccc3[nH]6)C=C5)C=C4)cc2)c1
REMARK SMILES IDX 20 1 19 2 17 3 18 4 16 6 12 7 13 8 80 9 14 10 15 11 9 12
REMARK SMILES IDX 10 13 11 14 8 15 7 17 1 18 2 19 3 20 4 21 5 22 6 23 21 24
REMARK SMILES IDX 22 25 23 26 24 27 25 29 26 30 27 31 79 32 28 33 78 34 29 35
REMARK SMILES IDX 30 36 31 37 72 38 32 39 77 40 71 41 73 42 33 43 76 44 70 45
REMARK SMILES IDX 69 46 34 48 60 49 43 50 59 51 44 52 47 53 58 54 74 55 45 56
REMARK SMILES IDX 46 57 57 59 75 60 48 61 35 62 36 63 41 64 37 65 38 66 40 67
REMARK SMILES IDX 42 68 39 69 61 70 62 71 67 72 63 73 64 74 66 75 68 76 65 77
REMARK SMILES IDX 49 78 50 79 55 80 51 81 52 82 54 83 56 84 53 85
REMARK H PARENT 19 5 8 16 23 28 73 47 47 58
REMARK Flexibility Score: inf
ROOT
ATOM      1  C   UNL A   1      31.331  30.112  25.262  1.00  0.00     0.118 C 
ENDROOT
BRANCH   1   2
ATOM      2  N   UNL A   1      30.649  30.135  23.967  1.00  0.00    -0.352 N 
ATOM      3  C   UNL A   1      30.251  29.136  23.102  1.00  0.00     0.251 C 
ATOM      4  O   UNL A   1      29.723  29.445  22.036  1.00  0.00    -0.269 OA
ATOM      5  H   UNL A   1      30.432  31.041  23.651  1.00  0.00     0.163 HD
BRANCH   3   6
ATOM      6  C   UNL A   1      30.508  27.704  23.394  1.00  0.00     0.041 A 
ATOM      7  C   UNL A   1      31.903  25.774  23.106  1.00  0.00     0.083 A 
ATOM      8  C   UNL A   1      30.848  24.920  23.416  1.00  0.00     0.022 A 
ATOM      9  C   UNL A   1      31.769  27.155  23.235  1.00  0.00     0.035 A 
ATOM     10  C   UNL A   1      29.627  25.480  23.807  1.00  0.00     0.002 A 
ATOM     11  C   UNL A   1      29.444  26.868  23.755  1.00  0.00     0.014 A 
BRANCH   7  12
ATOM     12  S   UNL A   1      33.390  25.233  22.318  1.00  0.00     0.240 S 
ATOM     13  O   UNL A   1      33.954  26.374  21.635  1.00  0.00    -0.207 OA
ATOM     14  O   UNL A   1      33.044  24.029  21.593  1.00  0.00    -0.207 OA
BRANCH  12  15
ATOM     15  N   UNL A   1      34.428  24.748  23.527  1.00  0.00    -0.208 NA
ATOM     16  H   UNL A   1      35.346  24.662  23.093  1.00  0.00     0.141 HD
BRANCH  15  17
ATOM     17  C   UNL A   1      34.225  23.517  24.295  1.00  0.00     0.075 C 
ATOM     18  C   UNL A   1      36.632  22.995  23.406  1.00  0.00     0.013 C 
ATOM     19  C   UNL A   1      35.577  22.776  24.503  1.00  0.00    -0.019 C 
ATOM     20  C   UNL A   1      35.322  21.260  24.610  1.00  0.00     0.013 C 
ATOM     21  C   UNL A   1      36.070  23.347  25.844  1.00  0.00     0.008 C 
ATOM     22  C   UNL A   1      34.815  23.450  26.693  1.00  0.00     0.002 C 
ATOM     23  C   UNL A   1      33.704  23.807  25.714  1.00  0.00     0.020 C 
ENDBRANCH  15  17
ENDBRANCH  12  15
ENDBRANCH   7  12
ENDBRANCH   3   6
ENDBRANCH   1   2
BRANCH   1  24
ATOM     24  C   UNL A   1      31.107  31.349  26.115  1.00  0.00     0.042 C 
BRANCH  24  25
ATOM     25  C   UNL A   1      32.342  31.853  26.840  1.00  0.00     0.118 C 
BRANCH  25  26
ATOM     26  N   UNL A   1      32.209  33.224  27.315  1.00  0.00    -0.352 N 
ATOM     27  C   UNL A   1      32.990  33.991  28.144  1.00  0.00     0.251 C 
ATOM     28  H   UNL A   1      31.408  33.688  26.979  1.00  0.00     0.163 HD
ATOM     29  O   UNL A   1      32.562  35.078  28.524  1.00  0.00    -0.269 OA
BRANCH  27  30
ATOM     30  C   UNL A   1      34.322  33.536  28.608  1.00  0.00     0.039 A 
ATOM     31  C   UNL A   1      34.403  32.794  29.793  1.00  0.00     0.014 A 
ATOM     32  C   UNL A   1      35.496  33.879  27.937  1.00  0.00     0.014 A 
ATOM     33  C   UNL A   1      35.643  32.344  30.258  1.00  0.00     0.010 A 
ATOM     34  C   UNL A   1      36.716  33.346  28.342  1.00  0.00     0.010 A 
ATOM     35  C   UNL A   1      36.808  32.584  29.514  1.00  0.00    -0.014 A 
BRANCH  35  36
ATOM     36  C   UNL A   1      38.134  32.077  29.952  1.00  0.00     0.031 A 
ATOM     37  C   UNL A   1      38.651  30.762  29.426  1.00  0.00     0.074 A 
ATOM     38  C   UNL A   1      38.838  32.750  30.882  1.00  0.00     0.049 A 
ATOM     39  N   UNL A   1      39.720  30.093  29.776  1.00  0.00    -0.248 NA
ATOM     40  C   UNL A   1      37.836  30.095  28.398  1.00  0.00     0.031 C 
ATOM     41  C   UNL A   1      38.427  34.005  31.513  1.00  0.00     0.029 A 
ATOM     42  N   UNL A   1      40.045  32.463  31.469  1.00  0.00    -0.354 N 
ATOM     43  C   UNL A   1      39.685  28.914  29.040  1.00  0.00     0.074 A 
ATOM     44  C   UNL A   1      38.469  28.940  28.258  1.00  0.00     0.031 C 
ATOM     45  C   UNL A   1      39.374  34.391  32.383  1.00  0.00     0.029 A 
ATOM     46  C   UNL A   1      40.440  33.396  32.398  1.00  0.00     0.049 A 
ATOM     47  H   UNL A   1      40.576  31.665  31.247  1.00  0.00     0.167 HD
ATOM     48  C   UNL A   1      40.593  27.910  29.004  1.00  0.00     0.037 A 
ATOM     49  C   UNL A   1      41.537  33.439  33.177  1.00  0.00     0.037 A 
ATOM     50  C   UNL A   1      41.830  27.909  29.739  1.00  0.00     0.049 A 
ATOM     51  C   UNL A   1      42.556  32.339  33.081  1.00  0.00     0.074 A 
ATOM     52  C   UNL A   1      42.850  26.975  29.710  1.00  0.00     0.029 A 
ATOM     53  N   UNL A   1      42.219  28.901  30.627  1.00  0.00    -0.354 N 
ATOM     54  N   UNL A   1      42.535  31.257  32.341  1.00  0.00    -0.248 NA
ATOM     55  C   UNL A   1      43.753  32.469  33.922  1.00  0.00     0.031 C 
ATOM     56  C   UNL A   1      43.848  27.389  30.602  1.00  0.00     0.029 A 
ATOM     57  C   UNL A   1      43.461  28.597  31.159  1.00  0.00     0.049 A 
ATOM     58  H   UNL A   1      41.690  29.701  30.847  1.00  0.00     0.167 HD
ATOM     59  C   UNL A   1      43.722  30.591  32.610  1.00  0.00     0.074 A 
ATOM     60  C   UNL A   1      44.447  31.397  33.570  1.00  0.00     0.031 C 
ATOM     61  C   UNL A   1      44.172  29.416  32.106  1.00  0.00     0.037 A 
BRANCH  48  62
ATOM     62  C   UNL A   1      40.284  26.730  28.129  1.00  0.00     0.057 A 
ATOM     63  C   UNL A   1      39.430  25.702  28.551  1.00  0.00     0.134 A 
ATOM     64  C   UNL A   1      40.828  26.633  26.843  1.00  0.00     0.134 A 
ATOM     65  F   UNL A   1      38.888  25.729  29.777  1.00  0.00    -0.206 F 
ATOM     66  C   UNL A   1      39.151  24.605  27.733  1.00  0.00     0.040 A 
ATOM     67  C   UNL A   1      40.535  25.555  26.007  1.00  0.00     0.040 A 
ATOM     68  F   UNL A   1      41.649  27.586  26.376  1.00  0.00    -0.206 F 
ATOM     69  C   UNL A   1      39.700  24.532  26.455  1.00  0.00     0.006 A 
ENDBRANCH  48  62
BRANCH  49  70
ATOM     70  C   UNL A   1      41.747  34.587  34.093  1.00  0.00     0.057 A 
ATOM     71  C   UNL A   1      42.370  35.757  33.647  1.00  0.00     0.134 A 
ATOM     72  C   UNL A   1      41.331  34.543  35.429  1.00  0.00     0.134 A 
ATOM     73  F   UNL A   1      42.807  35.849  32.382  1.00  0.00    -0.206 F 
ATOM     74  C   UNL A   1      42.586  36.841  34.500  1.00  0.00     0.040 A 
ATOM     75  C   UNL A   1      41.521  35.628  36.287  1.00  0.00     0.040 A 
ATOM     76  F   UNL A   1      40.721  33.452  35.913  1.00  0.00    -0.206 F 
ATOM     77  C   UNL A   1      42.156  36.779  35.824  1.00  0.00     0.006 A 
ENDBRANCH  49  70
BRANCH  61  78
ATOM     78  C   UNL A   1      45.522  28.950  32.558  1.00  0.00     0.057 A 
ATOM     79  C   UNL A   1      45.677  28.114  33.671  1.00  0.00     0.134 A 
ATOM     80  C   UNL A   1      46.675  29.315  31.852  1.00  0.00     0.134 A 
ATOM     81  F   UNL A   1      44.612  27.740  34.395  1.00  0.00    -0.206 F 
ATOM     82  C   UNL A   1      46.937  27.672  34.077  1.00  0.00     0.040 A 
ATOM     83  C   UNL A   1      47.937  28.862  32.237  1.00  0.00     0.040 A 
ATOM     84  F   UNL A   1      46.591  30.109  30.775  1.00  0.00    -0.206 F 
ATOM     85  C   UNL A   1      48.071  28.042  33.355  1.00  0.00     0.006 A 
ENDBRANCH  61  78
ENDBRANCH  35  36
ENDBRANCH  27  30
ENDBRANCH  25  26
ENDBRANCH  24  25
ENDBRANCH   1  24
TORSDOF 13
ENDMDL
MODEL 3
REMARK VINA RESULT:     -11.9      3.326      8.593
REMARK SMILES CC1(C)CCC[C@H]1NS(=O)(=O)c1cccc(C(=O)NCCCNC(=O)c2ccc(-c3c4nc(c(-c5c(F)cccc5F)c5ccc([nH]5)c(-c5c(F)cccc5F)c5nc(c(-c6c(F)cccc6F)c6ccc3[nH]6)C=C5)C=C4)cc2)c1
REMARK SMILES IDX 20 1 19 2 17 3 18 4 16 6 12 7 13 8 80 9 14 10 15 11 9 12
REMARK SMILES IDX 10 13 11 14 8 15 7 17 1 18 2 19 3 20 4 21 5 22 6 23 21 24
REMARK SMILES IDX 22 25 23 26 24 27 25 29 26 30 27 31 79 32 28 33 78 34 29 35
REMARK SMILES IDX 30 36 31 37 72 38 32 39 77 40 71 41 73 42 33 43 76 44 70 45
REMARK SMILES IDX 69 46 34 48 60 49 43 50 59 51 44 52 47 53 58 54 74 55 45 56
REMARK SMILES IDX 46 57 57 59 75 60 48 61 35 62 36 63 41 64 37 65 38 66 40 67
REMARK SMILES IDX 42 68 39 69 61 70 62 71 67 72 63 73 64 74 66 75 68 76 65 77
REMARK SMILES IDX 49 78 50 79 55 80 51 81 52 82 54 83 56 84 53 85
REMARK H PARENT 19 5 8 16 23 28 73 47 47 58
REMARK Flexibility Score: inf
ROOT
ATOM      1  C   UNL A   1      31.698  30.462  26.812  1.00  0.00     0.118 C 
ENDROOT
BRANCH   1   2
ATOM      2  N   UNL A   1      32.579  30.090  25.703  1.00  0.00    -0.352 N 
ATOM      3  C   UNL A   1      32.499  29.111  24.733  1.00  0.00     0.251 C 
ATOM      4  O   UNL A   1      33.422  28.992  23.929  1.00  0.00    -0.269 OA
ATOM      5  H   UNL A   1      33.386  30.648  25.636  1.00  0.00     0.163 HD
BRANCH   3   6
ATOM      6  C   UNL A   1      31.365  28.157  24.680  1.00  0.00     0.041 A 
ATOM      7  C   UNL A   1      30.520  25.954  25.116  1.00  0.00     0.083 A 
ATOM      8  C   UNL A   1      29.510  26.116  24.171  1.00  0.00     0.022 A 
ATOM      9  C   UNL A   1      31.349  27.018  25.468  1.00  0.00     0.035 A 
ATOM     10  C   UNL A   1      29.379  27.355  23.537  1.00  0.00     0.002 A 
ATOM     11  C   UNL A   1      30.330  28.360  23.760  1.00  0.00     0.014 A 
BRANCH   7  12
ATOM     12  S   UNL A   1      30.995  24.383  25.770  1.00  0.00     0.240 S 
ATOM     13  O   UNL A   1      30.676  23.388  24.771  1.00  0.00    -0.207 OA
ATOM     14  O   UNL A   1      30.424  24.312  27.098  1.00  0.00    -0.207 OA
BRANCH  12  15
ATOM     15  N   UNL A   1      32.645  24.430  25.991  1.00  0.00    -0.208 NA
ATOM     16  H   UNL A   1      32.959  25.312  25.588  1.00  0.00     0.141 HD
BRANCH  15  17
ATOM     17  C   UNL A   1      33.542  23.399  25.461  1.00  0.00     0.075 C 
ATOM     18  C   UNL A   1      33.958  25.220  23.625  1.00  0.00     0.013 C 
ATOM     19  C   UNL A   1      34.503  24.008  24.399  1.00  0.00    -0.019 C 
ATOM     20  C   UNL A   1      34.882  22.926  23.368  1.00  0.00     0.013 C 
ATOM     21  C   UNL A   1      35.722  24.414  25.244  1.00  0.00     0.008 C 
ATOM     22  C   UNL A   1      35.882  23.281  26.243  1.00  0.00     0.002 C 
ATOM     23  C   UNL A   1      34.462  22.825  26.553  1.00  0.00     0.020 C 
ENDBRANCH  15  17
ENDBRANCH  12  15
ENDBRANCH   7  12
ENDBRANCH   3   6
ENDBRANCH   1   2
BRANCH   1  24
ATOM     24  C   UNL A   1      31.361  31.942  26.883  1.00  0.00     0.042 C 
BRANCH  24  25
ATOM     25  C   UNL A   1      32.563  32.869  26.835  1.00  0.00     0.118 C 
BRANCH  25  26
ATOM     26  N   UNL A   1      32.404  34.055  27.667  1.00  0.00    -0.352 N 
ATOM     27  C   UNL A   1      33.129  34.539  28.727  1.00  0.00     0.251 C 
ATOM     28  H   UNL A   1      31.632  34.615  27.421  1.00  0.00     0.163 HD
ATOM     29  O   UNL A   1      32.682  35.487  29.369  1.00  0.00    -0.269 OA
BRANCH  27  30
ATOM     30  C   UNL A   1      34.422  33.938  29.132  1.00  0.00     0.039 A 
ATOM     31  C   UNL A   1      34.449  33.090  30.246  1.00  0.00     0.014 A 
ATOM     32  C   UNL A   1      35.616  34.243  28.477  1.00  0.00     0.014 A 
ATOM     33  C   UNL A   1      35.651  32.502  30.653  1.00  0.00     0.010 A 
ATOM     34  C   UNL A   1      36.791  33.579  28.818  1.00  0.00     0.010 A 
ATOM     35  C   UNL A   1      36.827  32.712  29.918  1.00  0.00    -0.014 A 
BRANCH  35  36
ATOM     36  C   UNL A   1      38.110  32.062  30.292  1.00  0.00     0.031 A 
ATOM     37  C   UNL A   1      39.070  32.764  31.217  1.00  0.00     0.074 A 
ATOM     38  C   UNL A   1      38.452  30.882  29.739  1.00  0.00     0.049 A 
ATOM     39  N   UNL A   1      40.286  32.421  31.564  1.00  0.00    -0.248 NA
ATOM     40  C   UNL A   1      38.618  34.038  31.797  1.00  0.00     0.031 C 
ATOM     41  C   UNL A   1      37.639  30.123  28.787  1.00  0.00     0.029 A 
ATOM     42  N   UNL A   1      39.584  30.121  29.889  1.00  0.00    -0.354 N 
ATOM     43  C   UNL A   1      40.753  33.454  32.370  1.00  0.00     0.074 A 
ATOM     44  C   UNL A   1      39.709  34.452  32.425  1.00  0.00     0.031 C 
ATOM     45  C   UNL A   1      38.288  28.996  28.455  1.00  0.00     0.029 A 
ATOM     46  C   UNL A   1      39.575  28.968  29.141  1.00  0.00     0.049 A 
ATOM     47  H   UNL A   1      40.331  30.376  30.477  1.00  0.00     0.167 HD
ATOM     48  C   UNL A   1      41.936  33.552  33.021  1.00  0.00     0.037 A 
ATOM     49  C   UNL A   1      40.503  28.002  29.018  1.00  0.00     0.037 A 
ATOM     50  C   UNL A   1      42.952  32.533  33.013  1.00  0.00     0.049 A 
ATOM     51  C   UNL A   1      41.787  28.108  29.792  1.00  0.00     0.074 A 
ATOM     52  C   UNL A   1      44.151  32.504  33.702  1.00  0.00     0.029 A 
ATOM     53  N   UNL A   1      42.880  31.354  32.286  1.00  0.00    -0.354 N 
ATOM     54  N   UNL A   1      42.192  29.063  30.591  1.00  0.00    -0.248 NA
ATOM     55  C   UNL A   1      42.738  26.997  29.651  1.00  0.00     0.031 C 
ATOM     56  C   UNL A   1      44.818  31.318  33.372  1.00  0.00     0.029 A 
ATOM     57  C   UNL A   1      44.017  30.595  32.504  1.00  0.00     0.049 A 
ATOM     58  H   UNL A   1      42.131  31.096  31.701  1.00  0.00     0.167 HD
ATOM     59  C   UNL A   1      43.432  28.661  31.066  1.00  0.00     0.074 A 
ATOM     60  C   UNL A   1      43.707  27.367  30.476  1.00  0.00     0.031 C 
ATOM     61  C   UNL A   1      44.269  29.305  31.916  1.00  0.00     0.037 A 
BRANCH  48  62
ATOM     62  C   UNL A   1      42.190  34.803  33.809  1.00  0.00     0.057 A 
ATOM     63  C   UNL A   1      41.847  34.904  35.164  1.00  0.00     0.134 A 
ATOM     64  C   UNL A   1      42.804  35.911  33.212  1.00  0.00     0.134 A 
ATOM     65  F   UNL A   1      41.244  33.884  35.790  1.00  0.00    -0.206 F 
ATOM     66  C   UNL A   1      42.082  36.074  35.890  1.00  0.00     0.040 A 
ATOM     67  C   UNL A   1      43.067  37.075  33.935  1.00  0.00     0.040 A 
ATOM     68  F   UNL A   1      43.162  35.879  31.920  1.00  0.00    -0.206 F 
ATOM     69  C   UNL A   1      42.699  37.161  35.277  1.00  0.00     0.006 A 
ENDBRANCH  48  62
BRANCH  49  70
ATOM     70  C   UNL A   1      40.237  26.827  28.151  1.00  0.00     0.057 A 
ATOM     71  C   UNL A   1      40.795  26.738  26.872  1.00  0.00     0.134 A 
ATOM     72  C   UNL A   1      39.425  25.770  28.579  1.00  0.00     0.134 A 
ATOM     73  F   UNL A   1      41.565  27.730  26.401  1.00  0.00    -0.206 F 
ATOM     74  C   UNL A   1      40.543  25.646  26.040  1.00  0.00     0.040 A 
ATOM     75  C   UNL A   1      39.183  24.662  27.766  1.00  0.00     0.040 A 
ATOM     76  F   UNL A   1      38.867  25.795  29.799  1.00  0.00    -0.206 F 
ATOM     77  C   UNL A   1      39.738  24.601  26.489  1.00  0.00     0.006 A 
ENDBRANCH  49  70
BRANCH  61  78
ATOM     78  C   UNL A   1      45.543  28.606  32.282  1.00  0.00     0.057 A 
ATOM     79  C   UNL A   1      46.726  28.807  31.560  1.00  0.00     0.134 A 
ATOM     80  C   UNL A   1      45.592  27.750  33.389  1.00  0.00     0.134 A 
ATOM     81  F   UNL A   1      46.738  29.605  30.483  1.00  0.00    -0.206 F 
ATOM     82  C   UNL A   1      47.912  28.164  31.917  1.00  0.00     0.040 A 
ATOM     83  C   UNL A   1      46.777  27.118  33.767  1.00  0.00     0.040 A 
ATOM     84  F   UNL A   1      44.494  27.522  34.124  1.00  0.00    -0.206 F 
ATOM     85  C   UNL A   1      47.940  27.321  33.027  1.00  0.00     0.006 A 
ENDBRANCH  61  78
ENDBRANCH  35  36
ENDBRANCH  27  30
ENDBRANCH  25  26
ENDBRANCH  24  25
ENDBRANCH   1  24
TORSDOF 13
ENDMDL
