MODEL 1
REMARK VINA RESULT:     -13.8      0.000      0.000
REMARK SMILES CN1C(=O)C[C@@H](C(=O)NCCCNC(=O)c2ccc(-c3c4nc(c(-c5c(F)cccc5F)c5ccc([nH]5)c(-c5c(F)cccc5F)c5nc(c(-c6c(F)cccc6F)c6ccc3[nH]6)C=C5)C=C4)cc2)C12CCN(C(=O)c1cccc3ccccc13)CC2
REMARK SMILES IDX 11 1 10 2 9 3 7 4 8 5 6 7 1 8 2 9 3 10 70 11 4 12 5 13 71 14
REMARK SMILES IDX 87 15 72 16 86 17 73 18 74 19 75 20 76 21 77 22 85 23 78 24
REMARK SMILES IDX 80 25 84 26 79 27 81 28 83 29 82 30 12 31 13 32 14 33 15 35
REMARK SMILES IDX 16 36 17 37 69 38 18 39 68 40 19 41 20 42 21 43 62 44 22 45
REMARK SMILES IDX 67 46 61 47 63 48 23 49 66 50 60 51 59 52 24 54 50 55 33 56
REMARK SMILES IDX 49 57 34 58 37 59 48 60 64 61 35 62 36 63 47 65 65 66 38 67
REMARK SMILES IDX 25 68 26 69 31 70 27 71 28 72 30 73 32 74 29 75 51 76 52 77
REMARK SMILES IDX 57 78 53 79 54 80 56 81 58 82 55 83 39 84 40 85 45 86 41 87
REMARK SMILES IDX 42 88 44 89 46 90 43 91
REMARK H PARENT 9 6 13 34 63 53 37 64
REMARK Flexibility Score: inf
ROOT
ATOM      1  C   UNL A   1      30.982  31.564  26.076  1.00  0.00     0.042 C 
ENDROOT
BRANCH   1   2
ATOM      2  C   UNL A   1      31.122  30.195  25.408  1.00  0.00     0.117 C 
BRANCH   2   3
ATOM      3  N   UNL A   1      32.449  29.918  24.875  1.00  0.00    -0.356 N 
ATOM      4  C   UNL A   1      32.913  29.342  23.738  1.00  0.00     0.226 C 
ATOM      5  O   UNL A   1      34.142  29.355  23.592  1.00  0.00    -0.275 OA
ATOM      6  H   UNL A   1      33.172  30.216  25.473  1.00  0.00     0.163 HD
BRANCH   4   7
ATOM      7  C   UNL A   1      32.060  28.638  22.683  1.00  0.00     0.113 C 
ATOM      8  C   UNL A   1      29.138  26.649  23.948  1.00  0.00     0.147 C 
ATOM      9  N   UNL A   1      30.109  27.584  23.414  1.00  0.00    -0.339 N 
ATOM     10  C   UNL A   1      29.679  28.775  22.832  1.00  0.00     0.223 C 
ATOM     11  C   UNL A   1      31.499  27.245  23.058  1.00  0.00     0.058 C 
ATOM     12  O   UNL A   1      28.542  29.206  22.821  1.00  0.00    -0.275 OA
ATOM     13  C   UNL A   1      30.868  29.474  22.230  1.00  0.00     0.116 C 
ATOM     14  C   UNL A   1      32.296  26.563  24.193  1.00  0.00     0.051 C 
ATOM     15  C   UNL A   1      31.470  26.278  21.835  1.00  0.00     0.051 C 
ATOM     16  C   UNL A   1      33.680  26.089  23.748  1.00  0.00     0.122 C 
ATOM     17  C   UNL A   1      32.829  25.659  21.500  1.00  0.00     0.122 C 
ATOM     18  N   UNL A   1      33.484  25.121  22.693  1.00  0.00    -0.338 N 
ATOM     19  C   UNL A   1      33.754  23.761  22.782  1.00  0.00     0.254 C 
ATOM     20  O   UNL A   1      33.345  22.957  21.943  1.00  0.00    -0.269 OA
BRANCH  19  21
ATOM     21  C   UNL A   1      34.674  23.210  23.819  1.00  0.00     0.047 A 
ATOM     22  C   UNL A   1      35.932  22.845  23.309  1.00  0.00     0.014 A 
ATOM     23  C   UNL A   1      34.294  22.834  25.140  1.00  0.00    -0.006 A 
ATOM     24  C   UNL A   1      36.796  22.054  24.057  1.00  0.00     0.001 A 
ATOM     25  C   UNL A   1      35.173  21.990  25.868  1.00  0.00    -0.018 A 
ATOM     26  C   UNL A   1      33.109  23.233  25.803  1.00  0.00     0.009 A 
ATOM     27  C   UNL A   1      36.398  21.597  25.310  1.00  0.00     0.009 A 
ATOM     28  C   UNL A   1      34.826  21.536  27.153  1.00  0.00     0.009 A 
ATOM     29  C   UNL A   1      32.830  22.866  27.124  1.00  0.00     0.001 A 
ATOM     30  C   UNL A   1      33.674  21.990  27.788  1.00  0.00     0.001 A 
ENDBRANCH  19  21
ENDBRANCH   4   7
ENDBRANCH   2   3
ENDBRANCH   1   2
BRANCH   1  31
ATOM     31  C   UNL A   1      32.215  31.980  26.867  1.00  0.00     0.118 C 
BRANCH  31  32
ATOM     32  N   UNL A   1      32.169  33.396  27.200  1.00  0.00    -0.352 N 
ATOM     33  C   UNL A   1      32.918  34.099  28.110  1.00  0.00     0.251 C 
ATOM     34  H   UNL A   1      31.505  33.925  26.700  1.00  0.00     0.163 HD
ATOM     35  O   UNL A   1      32.523  35.189  28.511  1.00  0.00    -0.269 OA
BRANCH  33  36
ATOM     36  C   UNL A   1      34.198  33.549  28.603  1.00  0.00     0.039 A 
ATOM     37  C   UNL A   1      35.384  33.885  27.945  1.00  0.00     0.014 A 
ATOM     38  C   UNL A   1      34.225  32.662  29.682  1.00  0.00     0.014 A 
ATOM     39  C   UNL A   1      36.599  33.364  28.397  1.00  0.00     0.010 A 
ATOM     40  C   UNL A   1      35.443  32.216  30.187  1.00  0.00     0.010 A 
ATOM     41  C   UNL A   1      36.641  32.547  29.538  1.00  0.00    -0.014 A 
BRANCH  41  42
ATOM     42  C   UNL A   1      37.923  32.004  30.055  1.00  0.00     0.031 A 
ATOM     43  C   UNL A   1      38.460  30.702  29.523  1.00  0.00     0.074 A 
ATOM     44  C   UNL A   1      38.573  32.650  31.042  1.00  0.00     0.049 A 
ATOM     45  N   UNL A   1      39.520  30.030  29.895  1.00  0.00    -0.248 NA
ATOM     46  C   UNL A   1      37.686  30.054  28.452  1.00  0.00     0.031 C 
ATOM     47  C   UNL A   1      38.134  33.896  31.672  1.00  0.00     0.029 A 
ATOM     48  N   UNL A   1      39.740  32.342  31.695  1.00  0.00    -0.354 N 
ATOM     49  C   UNL A   1      39.528  28.878  29.117  1.00  0.00     0.074 A 
ATOM     50  C   UNL A   1      38.338  28.910  28.298  1.00  0.00     0.031 C 
ATOM     51  C   UNL A   1      39.033  34.262  32.600  1.00  0.00     0.029 A 
ATOM     52  C   UNL A   1      40.088  33.256  32.661  1.00  0.00     0.049 A 
ATOM     53  H   UNL A   1      40.278  31.543  31.491  1.00  0.00     0.167 HD
ATOM     54  C   UNL A   1      40.459  27.894  29.069  1.00  0.00     0.037 A 
ATOM     55  C   UNL A   1      41.136  33.275  33.507  1.00  0.00     0.037 A 
ATOM     56  C   UNL A   1      41.656  27.878  29.867  1.00  0.00     0.049 A 
ATOM     57  C   UNL A   1      42.149  32.164  33.442  1.00  0.00     0.074 A 
ATOM     58  C   UNL A   1      42.689  26.959  29.853  1.00  0.00     0.029 A 
ATOM     59  N   UNL A   1      41.978  28.828  30.825  1.00  0.00    -0.354 N 
ATOM     60  N   UNL A   1      42.178  31.115  32.657  1.00  0.00    -0.248 NA
ATOM     61  C   UNL A   1      43.277  32.244  34.381  1.00  0.00     0.031 C 
ATOM     62  C   UNL A   1      43.611  27.322  30.840  1.00  0.00     0.029 A 
ATOM     63  C   UNL A   1      43.183  28.502  31.427  1.00  0.00     0.049 A 
ATOM     64  H   UNL A   1      41.432  29.618  31.045  1.00  0.00     0.167 HD
ATOM     65  C   UNL A   1      43.342  30.429  32.981  1.00  0.00     0.074 A 
ATOM     66  C   UNL A   1      43.997  31.188  34.025  1.00  0.00     0.031 C 
ATOM     67  C   UNL A   1      43.825  29.274  32.460  1.00  0.00     0.037 A 
BRANCH  54  68
ATOM     68  C   UNL A   1      40.217  26.754  28.119  1.00  0.00     0.057 A 
ATOM     69  C   UNL A   1      40.791  26.720  26.841  1.00  0.00     0.134 A 
ATOM     70  C   UNL A   1      39.427  25.662  28.499  1.00  0.00     0.134 A 
ATOM     71  F   UNL A   1      41.550  27.739  26.408  1.00  0.00    -0.206 F 
ATOM     72  C   UNL A   1      40.564  25.656  25.965  1.00  0.00     0.040 A 
ATOM     73  C   UNL A   1      39.218  24.578  27.643  1.00  0.00     0.040 A 
ATOM     74  F   UNL A   1      38.851  25.625  29.710  1.00  0.00    -0.206 F 
ATOM     75  C   UNL A   1      39.782  24.577  26.369  1.00  0.00     0.006 A 
ENDBRANCH  54  68
BRANCH  55  76
ATOM     76  C   UNL A   1      41.294  34.392  34.473  1.00  0.00     0.057 A 
ATOM     77  C   UNL A   1      40.780  34.302  35.772  1.00  0.00     0.134 A 
ATOM     78  C   UNL A   1      41.953  35.577  34.122  1.00  0.00     0.134 A 
ATOM     79  F   UNL A   1      40.124  33.200  36.164  1.00  0.00    -0.206 F 
ATOM     80  C   UNL A   1      40.890  35.359  36.678  1.00  0.00     0.040 A 
ATOM     81  C   UNL A   1      42.096  36.630  35.026  1.00  0.00     0.040 A 
ATOM     82  F   UNL A   1      42.478  35.722  32.897  1.00  0.00    -0.206 F 
ATOM     83  C   UNL A   1      41.555  36.526  36.306  1.00  0.00     0.006 A 
ENDBRANCH  55  76
BRANCH  67  84
ATOM     84  C   UNL A   1      45.145  28.783  32.982  1.00  0.00     0.057 A 
ATOM     85  C   UNL A   1      45.235  27.894  34.059  1.00  0.00     0.134 A 
ATOM     86  C   UNL A   1      46.342  29.178  32.368  1.00  0.00     0.134 A 
ATOM     87  F   UNL A   1      44.127  27.487  34.700  1.00  0.00    -0.206 F 
ATOM     88  C   UNL A   1      46.467  27.434  34.525  1.00  0.00     0.040 A 
ATOM     89  C   UNL A   1      47.578  28.700  32.804  1.00  0.00     0.040 A 
ATOM     90  F   UNL A   1      46.327  30.020  31.323  1.00  0.00    -0.206 F 
ATOM     91  C   UNL A   1      47.643  27.832  33.891  1.00  0.00     0.006 A 
ENDBRANCH  67  84
ENDBRANCH  41  42
ENDBRANCH  33  36
ENDBRANCH  31  32
ENDBRANCH   1  31
TORSDOF 11
ENDMDL
MODEL 2
REMARK VINA RESULT:     -13.8      3.438      8.886
REMARK SMILES CN1C(=O)C[C@@H](C(=O)NCCCNC(=O)c2ccc(-c3c4nc(c(-c5c(F)cccc5F)c5ccc([nH]5)c(-c5c(F)cccc5F)c5nc(c(-c6c(F)cccc6F)c6ccc3[nH]6)C=C5)C=C4)cc2)C12CCN(C(=O)c1cccc3ccccc13)CC2
REMARK SMILES IDX 11 1 10 2 9 3 7 4 8 5 6 7 1 8 2 9 3 10 70 11 4 12 5 13 71 14
REMARK SMILES IDX 87 15 72 16 86 17 73 18 74 19 75 20 76 21 77 22 85 23 78 24
REMARK SMILES IDX 80 25 84 26 79 27 81 28 83 29 82 30 12 31 13 32 14 33 15 35
REMARK SMILES IDX 16 36 17 37 69 38 18 39 68 40 19 41 20 42 21 43 62 44 22 45
REMARK SMILES IDX 67 46 61 47 63 48 23 49 66 50 60 51 59 52 24 54 50 55 33 56
REMARK SMILES IDX 49 57 34 58 37 59 48 60 64 61 35 62 36 63 47 65 65 66 38 67
REMARK SMILES IDX 25 68 26 69 31 70 27 71 28 72 30 73 32 74 29 75 51 76 52 77
REMARK SMILES IDX 57 78 53 79 54 80 56 81 58 82 55 83 39 84 40 85 45 86 41 87
REMARK SMILES IDX 42 88 44 89 46 90 43 91
REMARK H PARENT 9 6 13 34 63 53 37 64
REMARK Flexibility Score: inf
ROOT
ATOM      1  C   UNL A   1      37.180  19.506  24.955  1.00  0.00     0.042 C 
ENDROOT
BRANCH   1   2
ATOM      2  C   UNL A   1      35.945  20.407  24.906  1.00  0.00     0.117 C 
BRANCH   2   3
ATOM      3  N   UNL A   1      35.696  21.153  26.132  1.00  0.00    -0.356 N 
ATOM      4  C   UNL A   1      34.590  21.430  26.865  1.00  0.00     0.226 C 
ATOM      5  O   UNL A   1      34.784  22.045  27.922  1.00  0.00    -0.275 OA
ATOM      6  H   UNL A   1      36.514  21.544  26.515  1.00  0.00     0.163 HD
BRANCH   4   7
ATOM      7  C   UNL A   1      33.150  21.108  26.464  1.00  0.00     0.113 C 
ATOM      8  C   UNL A   1      32.330  21.384  22.811  1.00  0.00     0.147 C 
ATOM      9  N   UNL A   1      32.665  21.048  24.181  1.00  0.00    -0.339 N 
ATOM     10  C   UNL A   1      32.758  19.712  24.565  1.00  0.00     0.223 C 
ATOM     11  C   UNL A   1      32.536  21.963  25.329  1.00  0.00     0.058 C 
ATOM     12  O   UNL A   1      32.708  18.742  23.832  1.00  0.00    -0.275 OA
ATOM     13  C   UNL A   1      32.961  19.651  26.054  1.00  0.00     0.116 C 
ATOM     14  C   UNL A   1      33.255  23.319  25.143  1.00  0.00     0.051 C 
ATOM     15  C   UNL A   1      31.020  22.245  25.564  1.00  0.00     0.051 C 
ATOM     16  C   UNL A   1      32.980  24.301  26.283  1.00  0.00     0.122 C 
ATOM     17  C   UNL A   1      30.745  23.360  26.576  1.00  0.00     0.122 C 
ATOM     18  N   UNL A   1      31.556  24.547  26.302  1.00  0.00    -0.338 N 
ATOM     19  C   UNL A   1      30.938  25.749  25.976  1.00  0.00     0.254 C 
ATOM     20  O   UNL A   1      29.724  25.827  25.780  1.00  0.00    -0.269 OA
BRANCH  19  21
ATOM     21  C   UNL A   1      31.682  27.041  25.983  1.00  0.00     0.047 A 
ATOM     22  C   UNL A   1      31.395  27.842  27.103  1.00  0.00     0.014 A 
ATOM     23  C   UNL A   1      32.418  27.573  24.885  1.00  0.00    -0.006 A 
ATOM     24  C   UNL A   1      31.762  29.182  27.126  1.00  0.00     0.001 A 
ATOM     25  C   UNL A   1      32.744  28.954  24.912  1.00  0.00    -0.018 A 
ATOM     26  C   UNL A   1      32.863  26.841  23.758  1.00  0.00     0.009 A 
ATOM     27  C   UNL A   1      32.395  29.741  26.020  1.00  0.00     0.009 A 
ATOM     28  C   UNL A   1      33.416  29.551  23.831  1.00  0.00     0.009 A 
ATOM     29  C   UNL A   1      33.629  27.424  22.742  1.00  0.00     0.001 A 
ATOM     30  C   UNL A   1      33.879  28.787  22.763  1.00  0.00     0.001 A 
ENDBRANCH  19  21
ENDBRANCH   4   7
ENDBRANCH   2   3
ENDBRANCH   1   2
BRANCH   1  31
ATOM     31  C   UNL A   1      38.440  20.230  25.410  1.00  0.00     0.118 C 
BRANCH  31  32
ATOM     32  N   UNL A   1      39.522  19.289  25.659  1.00  0.00    -0.352 N 
ATOM     33  C   UNL A   1      40.832  19.538  25.985  1.00  0.00     0.251 C 
ATOM     34  H   UNL A   1      39.279  18.338  25.583  1.00  0.00     0.163 HD
ATOM     35  O   UNL A   1      41.677  18.665  25.820  1.00  0.00    -0.269 OA
BRANCH  33  36
ATOM     36  C   UNL A   1      41.224  20.852  26.537  1.00  0.00     0.039 A 
ATOM     37  C   UNL A   1      41.127  21.070  27.913  1.00  0.00     0.014 A 
ATOM     38  C   UNL A   1      41.639  21.886  25.693  1.00  0.00     0.014 A 
ATOM     39  C   UNL A   1      41.487  22.311  28.446  1.00  0.00     0.010 A 
ATOM     40  C   UNL A   1      42.083  23.089  26.232  1.00  0.00     0.010 A 
ATOM     41  C   UNL A   1      41.993  23.322  27.612  1.00  0.00    -0.014 A 
BRANCH  41  42
ATOM     42  C   UNL A   1      42.409  24.639  28.157  1.00  0.00     0.031 A 
ATOM     43  C   UNL A   1      41.390  25.730  28.354  1.00  0.00     0.074 A 
ATOM     44  C   UNL A   1      43.709  24.874  28.420  1.00  0.00     0.049 A 
ATOM     45  N   UNL A   1      41.566  26.965  28.748  1.00  0.00    -0.248 NA
ATOM     46  C   UNL A   1      39.992  25.396  28.035  1.00  0.00     0.031 C 
ATOM     47  C   UNL A   1      44.799  23.915  28.230  1.00  0.00     0.029 A 
ATOM     48  N   UNL A   1      44.337  25.998  28.895  1.00  0.00    -0.354 N 
ATOM     49  C   UNL A   1      40.308  27.557  28.709  1.00  0.00     0.074 A 
ATOM     50  C   UNL A   1      39.390  26.566  28.193  1.00  0.00     0.031 C 
ATOM     51  C   UNL A   1      45.955  24.480  28.612  1.00  0.00     0.029 A 
ATOM     52  C   UNL A   1      45.696  25.853  29.032  1.00  0.00     0.049 A 
ATOM     53  H   UNL A   1      43.859  26.829  29.119  1.00  0.00     0.167 HD
ATOM     54  C   UNL A   1      39.945  28.804  29.093  1.00  0.00     0.037 A 
ATOM     55  C   UNL A   1      46.631  26.733  29.440  1.00  0.00     0.037 A 
ATOM     56  C   UNL A   1      40.858  29.779  29.630  1.00  0.00     0.049 A 
ATOM     57  C   UNL A   1      46.204  28.116  29.850  1.00  0.00     0.074 A 
ATOM     58  C   UNL A   1      40.582  31.049  30.102  1.00  0.00     0.029 A 
ATOM     59  N   UNL A   1      42.226  29.590  29.764  1.00  0.00    -0.354 N 
ATOM     60  N   UNL A   1      45.003  28.640  29.869  1.00  0.00    -0.248 NA
ATOM     61  C   UNL A   1      47.265  29.029  30.299  1.00  0.00     0.031 C 
ATOM     62  C   UNL A   1      41.790  31.650  30.472  1.00  0.00     0.029 A 
ATOM     63  C   UNL A   1      42.811  30.731  30.287  1.00  0.00     0.049 A 
ATOM     64  H   UNL A   1      42.709  28.766  29.523  1.00  0.00     0.167 HD
ATOM     65  C   UNL A   1      45.157  29.930  30.363  1.00  0.00     0.074 A 
ATOM     66  C   UNL A   1      46.567  30.103  30.644  1.00  0.00     0.031 C 
ATOM     67  C   UNL A   1      44.216  30.884  30.568  1.00  0.00     0.037 A 
BRANCH  54  68
ATOM     68  C   UNL A   1      38.498  29.183  28.948  1.00  0.00     0.057 A 
ATOM     69  C   UNL A   1      37.603  29.121  30.025  1.00  0.00     0.134 A 
ATOM     70  C   UNL A   1      38.000  29.648  27.724  1.00  0.00     0.134 A 
ATOM     71  F   UNL A   1      38.011  28.674  31.223  1.00  0.00    -0.206 F 
ATOM     72  C   UNL A   1      36.260  29.477  29.882  1.00  0.00     0.040 A 
ATOM     73  C   UNL A   1      36.667  30.036  27.577  1.00  0.00     0.040 A 
ATOM     74  F   UNL A   1      38.802  29.739  26.652  1.00  0.00    -0.206 F 
ATOM     75  C   UNL A   1      35.791  29.944  28.657  1.00  0.00     0.006 A 
ENDBRANCH  54  68
BRANCH  55  76
ATOM     76  C   UNL A   1      48.059  26.329  29.503  1.00  0.00     0.057 A 
ATOM     77  C   UNL A   1      48.905  26.488  28.400  1.00  0.00     0.134 A 
ATOM     78  C   UNL A   1      48.610  25.766  30.662  1.00  0.00     0.134 A 
ATOM     79  F   UNL A   1      48.432  27.006  27.257  1.00  0.00    -0.206 F 
ATOM     80  C   UNL A   1      50.239  26.079  28.435  1.00  0.00     0.040 A 
ATOM     81  C   UNL A   1      49.950  25.379  30.721  1.00  0.00     0.040 A 
ATOM     82  F   UNL A   1      47.856  25.597  31.758  1.00  0.00    -0.206 F 
ATOM     83  C   UNL A   1      50.766  25.527  29.601  1.00  0.00     0.006 A 
ENDBRANCH  55  76
BRANCH  67  84
ATOM     84  C   UNL A   1      44.674  32.186  31.160  1.00  0.00     0.057 A 
ATOM     85  C   UNL A   1      44.758  32.385  32.543  1.00  0.00     0.134 A 
ATOM     86  C   UNL A   1      45.072  33.243  30.329  1.00  0.00     0.134 A 
ATOM     87  F   UNL A   1      44.380  31.418  33.394  1.00  0.00    -0.206 F 
ATOM     88  C   UNL A   1      45.198  33.596  33.080  1.00  0.00     0.040 A 
ATOM     89  C   UNL A   1      45.543  34.446  30.853  1.00  0.00     0.040 A 
ATOM     90  F   UNL A   1      45.025  33.115  28.994  1.00  0.00    -0.206 F 
ATOM     91  C   UNL A   1      45.599  34.628  32.233  1.00  0.00     0.006 A 
ENDBRANCH  67  84
ENDBRANCH  41  42
ENDBRANCH  33  36
ENDBRANCH  31  32
ENDBRANCH   1  31
TORSDOF 11
ENDMDL
MODEL 3
REMARK VINA RESULT:     -13.8      0.266      1.280
REMARK SMILES CN1C(=O)C[C@@H](C(=O)NCCCNC(=O)c2ccc(-c3c4nc(c(-c5c(F)cccc5F)c5ccc([nH]5)c(-c5c(F)cccc5F)c5nc(c(-c6c(F)cccc6F)c6ccc3[nH]6)C=C5)C=C4)cc2)C12CCN(C(=O)c1cccc3ccccc13)CC2
REMARK SMILES IDX 11 1 10 2 9 3 7 4 8 5 6 7 1 8 2 9 3 10 70 11 4 12 5 13 71 14
REMARK SMILES IDX 87 15 72 16 86 17 73 18 74 19 75 20 76 21 77 22 85 23 78 24
REMARK SMILES IDX 80 25 84 26 79 27 81 28 83 29 82 30 12 31 13 32 14 33 15 35
REMARK SMILES IDX 16 36 17 37 69 38 18 39 68 40 19 41 20 42 21 43 62 44 22 45
REMARK SMILES IDX 67 46 61 47 63 48 23 49 66 50 60 51 59 52 24 54 50 55 33 56
REMARK SMILES IDX 49 57 34 58 37 59 48 60 64 61 35 62 36 63 47 65 65 66 38 67
REMARK SMILES IDX 25 68 26 69 31 70 27 71 28 72 30 73 32 74 29 75 51 76 52 77
REMARK SMILES IDX 57 78 53 79 54 80 56 81 58 82 55 83 39 84 40 85 45 86 41 87
REMARK SMILES IDX 42 88 44 89 46 90 43 91
REMARK H PARENT 9 6 13 34 63 53 37 64
REMARK Flexibility Score: inf
ROOT
ATOM      1  C   UNL A   1      31.052  31.572  25.995  1.00  0.00     0.042 C 
ENDROOT
BRANCH   1   2
ATOM      2  C   UNL A   1      31.198  30.178  25.381  1.00  0.00     0.117 C 
BRANCH   2   3
ATOM      3  N   UNL A   1      32.516  29.901  24.825  1.00  0.00    -0.356 N 
ATOM      4  C   UNL A   1      32.960  29.327  23.680  1.00  0.00     0.226 C 
ATOM      5  O   UNL A   1      34.186  29.339  23.512  1.00  0.00    -0.275 OA
ATOM      6  H   UNL A   1      33.249  30.199  25.411  1.00  0.00     0.163 HD
BRANCH   4   7
ATOM      7  C   UNL A   1      32.088  28.624  22.639  1.00  0.00     0.113 C 
ATOM      8  C   UNL A   1      29.156  26.679  23.949  1.00  0.00     0.147 C 
ATOM      9  N   UNL A   1      30.133  27.599  23.398  1.00  0.00    -0.339 N 
ATOM     10  C   UNL A   1      29.711  28.790  22.811  1.00  0.00     0.223 C 
ATOM     11  C   UNL A   1      31.515  27.240  23.031  1.00  0.00     0.058 C 
ATOM     12  O   UNL A   1      28.578  29.233  22.807  1.00  0.00    -0.275 OA
ATOM     13  C   UNL A   1      30.901  29.470  22.191  1.00  0.00     0.116 C 
ATOM     14  C   UNL A   1      32.316  26.558  24.164  1.00  0.00     0.051 C 
ATOM     15  C   UNL A   1      31.462  26.264  21.816  1.00  0.00     0.051 C 
ATOM     16  C   UNL A   1      33.690  26.065  23.708  1.00  0.00     0.122 C 
ATOM     17  C   UNL A   1      32.811  25.626  21.472  1.00  0.00     0.122 C 
ATOM     18  N   UNL A   1      33.472  25.091  22.663  1.00  0.00    -0.338 N 
ATOM     19  C   UNL A   1      33.727  23.728  22.762  1.00  0.00     0.254 C 
ATOM     20  O   UNL A   1      33.301  22.923  21.933  1.00  0.00    -0.269 OA
BRANCH  19  21
ATOM     21  C   UNL A   1      34.651  23.175  23.793  1.00  0.00     0.047 A 
ATOM     22  C   UNL A   1      35.913  22.828  23.281  1.00  0.00     0.014 A 
ATOM     23  C   UNL A   1      34.273  22.782  25.110  1.00  0.00    -0.006 A 
ATOM     24  C   UNL A   1      36.783  22.037  24.022  1.00  0.00     0.001 A 
ATOM     25  C   UNL A   1      35.159  21.938  25.830  1.00  0.00    -0.018 A 
ATOM     26  C   UNL A   1      33.083  23.162  25.775  1.00  0.00     0.009 A 
ATOM     27  C   UNL A   1      36.389  21.563  25.270  1.00  0.00     0.009 A 
ATOM     28  C   UNL A   1      34.815  21.468  27.109  1.00  0.00     0.009 A 
ATOM     29  C   UNL A   1      32.806  22.778  27.092  1.00  0.00     0.001 A 
ATOM     30  C   UNL A   1      33.658  21.904  27.748  1.00  0.00     0.001 A 
ENDBRANCH  19  21
ENDBRANCH   4   7
ENDBRANCH   2   3
ENDBRANCH   1   2
BRANCH   1  31
ATOM     31  C   UNL A   1      32.218  31.964  26.892  1.00  0.00     0.118 C 
BRANCH  31  32
ATOM     32  N   UNL A   1      32.163  33.378  27.232  1.00  0.00    -0.352 N 
ATOM     33  C   UNL A   1      32.928  34.087  28.125  1.00  0.00     0.251 C 
ATOM     34  H   UNL A   1      31.479  33.900  26.753  1.00  0.00     0.163 HD
ATOM     35  O   UNL A   1      32.530  35.171  28.541  1.00  0.00    -0.269 OA
BRANCH  33  36
ATOM     36  C   UNL A   1      34.227  33.551  28.581  1.00  0.00     0.039 A 
ATOM     37  C   UNL A   1      35.389  33.894  27.885  1.00  0.00     0.014 A 
ATOM     38  C   UNL A   1      34.295  32.669  29.663  1.00  0.00     0.014 A 
ATOM     39  C   UNL A   1      36.623  33.387  28.302  1.00  0.00     0.010 A 
ATOM     40  C   UNL A   1      35.532  32.237  30.132  1.00  0.00     0.010 A 
ATOM     41  C   UNL A   1      36.707  32.575  29.446  1.00  0.00    -0.014 A 
BRANCH  41  42
ATOM     42  C   UNL A   1      38.009  32.047  29.925  1.00  0.00     0.031 A 
ATOM     43  C   UNL A   1      38.521  30.726  29.416  1.00  0.00     0.074 A 
ATOM     44  C   UNL A   1      38.702  32.724  30.860  1.00  0.00     0.049 A 
ATOM     45  N   UNL A   1      39.594  30.064  29.765  1.00  0.00    -0.248 NA
ATOM     46  C   UNL A   1      37.700  30.044  28.402  1.00  0.00     0.031 C 
ATOM     47  C   UNL A   1      38.292  33.993  31.466  1.00  0.00     0.029 A 
ATOM     48  N   UNL A   1      39.896  32.436  31.473  1.00  0.00    -0.354 N 
ATOM     49  C   UNL A   1      39.568  28.885  29.028  1.00  0.00     0.074 A 
ATOM     50  C   UNL A   1      38.343  28.893  28.260  1.00  0.00     0.031 C 
ATOM     51  C   UNL A   1      39.231  34.388  32.341  1.00  0.00     0.029 A 
ATOM     52  C   UNL A   1      40.286  33.381  32.391  1.00  0.00     0.049 A 
ATOM     53  H   UNL A   1      40.423  31.629  31.274  1.00  0.00     0.167 HD
ATOM     54  C   UNL A   1      40.494  27.898  28.974  1.00  0.00     0.037 A 
ATOM     55  C   UNL A   1      41.369  33.426  33.191  1.00  0.00     0.037 A 
ATOM     56  C   UNL A   1      41.725  27.906  29.720  1.00  0.00     0.049 A 
ATOM     57  C   UNL A   1      42.376  32.311  33.121  1.00  0.00     0.074 A 
ATOM     58  C   UNL A   1      42.755  26.984  29.693  1.00  0.00     0.029 A 
ATOM     59  N   UNL A   1      42.089  28.888  30.630  1.00  0.00    -0.354 N 
ATOM     60  N   UNL A   1      42.370  31.236  32.372  1.00  0.00    -0.248 NA
ATOM     61  C   UNL A   1      43.545  32.419  34.007  1.00  0.00     0.031 C 
ATOM     62  C   UNL A   1      43.718  27.378  30.627  1.00  0.00     0.029 A 
ATOM     63  C   UNL A   1      43.317  28.578  31.191  1.00  0.00     0.049 A 
ATOM     64  H   UNL A   1      41.554  29.686  30.846  1.00  0.00     0.167 HD
ATOM     65  C   UNL A   1      43.546  30.557  32.669  1.00  0.00     0.074 A 
ATOM     66  C   UNL A   1      44.247  31.350  33.657  1.00  0.00     0.031 C 
ATOM     67  C   UNL A   1      44.005  29.384  32.168  1.00  0.00     0.037 A 
BRANCH  54  68
ATOM     68  C   UNL A   1      40.210  26.727  28.075  1.00  0.00     0.057 A 
ATOM     69  C   UNL A   1      40.761  26.628  26.790  1.00  0.00     0.134 A 
ATOM     70  C   UNL A   1      39.402  25.670  28.512  1.00  0.00     0.134 A 
ATOM     71  F   UNL A   1      41.536  27.611  26.304  1.00  0.00    -0.206 F 
ATOM     72  C   UNL A   1      40.494  25.536  25.962  1.00  0.00     0.040 A 
ATOM     73  C   UNL A   1      39.153  24.558  27.704  1.00  0.00     0.040 A 
ATOM     74  F   UNL A   1      38.846  25.695  29.733  1.00  0.00    -0.206 F 
ATOM     75  C   UNL A   1      39.695  24.492  26.422  1.00  0.00     0.006 A 
ENDBRANCH  54  68
BRANCH  55  76
ATOM     76  C   UNL A   1      41.570  34.575  34.110  1.00  0.00     0.057 A 
ATOM     77  C   UNL A   1      42.244  35.728  33.691  1.00  0.00     0.134 A 
ATOM     78  C   UNL A   1      41.102  34.547  35.430  1.00  0.00     0.134 A 
ATOM     79  F   UNL A   1      42.730  35.808  32.444  1.00  0.00    -0.206 F 
ATOM     80  C   UNL A   1      42.471  36.800  34.556  1.00  0.00     0.040 A 
ATOM     81  C   UNL A   1      41.296  35.623  36.298  1.00  0.00     0.040 A 
ATOM     82  F   UNL A   1      40.438  33.477  35.891  1.00  0.00    -0.206 F 
ATOM     83  C   UNL A   1      41.990  36.750  35.863  1.00  0.00     0.006 A 
ENDBRANCH  55  76
BRANCH  67  84
ATOM     84  C   UNL A   1      45.345  28.907  32.649  1.00  0.00     0.057 A 
ATOM     85  C   UNL A   1      46.539  29.291  32.026  1.00  0.00     0.134 A 
ATOM     86  C   UNL A   1      45.442  28.082  33.778  1.00  0.00     0.134 A 
ATOM     87  F   UNL A   1      46.515  30.070  30.932  1.00  0.00    -0.206 F 
ATOM     88  C   UNL A   1      47.778  28.851  32.492  1.00  0.00     0.040 A 
ATOM     89  C   UNL A   1      46.677  27.662  34.272  1.00  0.00     0.040 A 
ATOM     90  F   UNL A   1      44.337  27.685  34.429  1.00  0.00    -0.206 F 
ATOM     91  C   UNL A   1      47.850  28.040  33.623  1.00  0.00     0.006 A 
ENDBRANCH  67  84
ENDBRANCH  41  42
ENDBRANCH  33  36
ENDBRANCH  31  32
ENDBRANCH   1  31
TORSDOF 11
ENDMDL
