MODEL 1
REMARK VINA RESULT:     -11.5      0.000      0.000
REMARK SMILES COc1ccc(/C=C2/SC(=S)N(c3ccc(C(=O)NCCCNC(=O)c4ccc(-c5c6nc(c(-c7c(F)cccc7F)c7ccc([nH]7)c(-c7c(F)cccc7F)c7nc(c(-c8c(F)cccc8F)c8ccc5[nH]8)C=C7)C=C6)cc4)c(O)c3)C2=O)cc1OC
REMARK SMILES IDX 20 1 19 2 17 3 18 4 16 6 13 7 14 8 82 9 15 10 80 11 12 12
REMARK SMILES IDX 7 13 8 14 9 15 83 16 10 17 84 18 11 19 6 20 3 21 4 22 86 23
REMARK SMILES IDX 5 24 85 25 2 26 1 27 87 28 88 29 81 30 21 32 22 33 23 34
REMARK SMILES IDX 24 35 25 37 26 38 27 39 79 40 28 41 78 42 29 43 30 44 31 45
REMARK SMILES IDX 72 46 32 47 77 48 71 49 73 50 33 51 76 52 70 53 69 54 34 56
REMARK SMILES IDX 60 57 43 58 59 59 44 60 47 61 58 62 74 63 45 64 46 65 57 67
REMARK SMILES IDX 75 68 48 69 35 70 36 71 41 72 37 73 38 74 40 75 42 76 39 77
REMARK SMILES IDX 61 78 62 79 67 80 63 81 64 82 66 83 68 84 65 85 49 86 50 87
REMARK SMILES IDX 55 88 51 89 52 90 54 91 56 92 53 93
REMARK H PARENT 19 5 81 31 23 36 73 55 47 66
REMARK Flexibility Score: inf
ROOT
ATOM      1  C   UNL A   1      40.316  26.778  27.945  1.00  0.00     0.118 C 
ENDROOT
BRANCH   1   2
ATOM      2  N   UNL A   1      40.584  27.167  29.317  1.00  0.00    -0.352 N 
ATOM      3  C   UNL A   1      40.006  28.096  30.142  1.00  0.00     0.255 C 
ATOM      4  O   UNL A   1      40.489  28.205  31.273  1.00  0.00    -0.269 OA
ATOM      5  H   UNL A   1      41.324  26.669  29.734  1.00  0.00     0.163 HD
BRANCH   3   6
ATOM      6  C   UNL A   1      38.794  28.898  29.808  1.00  0.00     0.081 A 
ATOM      7  C   UNL A   1      36.622  30.460  28.876  1.00  0.00     0.054 A 
ATOM      8  C   UNL A   1      37.754  30.295  28.081  1.00  0.00     0.028 A 
ATOM      9  C   UNL A   1      36.554  29.809  30.113  1.00  0.00     0.073 A 
ATOM     10  C   UNL A   1      38.836  29.546  28.556  1.00  0.00     0.020 A 
ATOM     11  C   UNL A   1      37.612  29.000  30.551  1.00  0.00     0.130 A 
BRANCH   7  12
ATOM     12  N   UNL A   1      35.492  31.173  28.398  1.00  0.00    -0.261 N 
ATOM     13  C   UNL A   1      32.198  30.924  26.912  1.00  0.00     0.029 C 
ATOM     14  C   UNL A   1      33.386  31.355  27.361  1.00  0.00     0.081 C 
ATOM     15  S   UNL A   1      33.622  32.917  28.048  1.00  0.00    -0.054 SA
ATOM     16  C   UNL A   1      34.640  30.550  27.491  1.00  0.00     0.270 C 
ATOM     17  C   UNL A   1      35.138  32.444  28.818  1.00  0.00     0.152 C 
ATOM     18  O   UNL A   1      34.847  29.510  26.894  1.00  0.00    -0.268 OA
ATOM     19  S   UNL A   1      35.961  33.482  29.838  1.00  0.00    -0.051 S 
BRANCH  13  20
ATOM     20  C   UNL A   1      31.920  29.525  26.574  1.00  0.00    -0.020 A 
ATOM     21  C   UNL A   1      31.219  26.908  25.854  1.00  0.00     0.160 A 
ATOM     22  C   UNL A   1      31.342  27.269  27.205  1.00  0.00     0.051 A 
ATOM     23  C   UNL A   1      31.456  27.853  24.850  1.00  0.00     0.161 A 
ATOM     24  C   UNL A   1      31.700  28.572  27.566  1.00  0.00     0.012 A 
ATOM     25  C   UNL A   1      31.821  29.151  25.227  1.00  0.00     0.058 A 
BRANCH  21  26
ATOM     26  O   UNL A   1      30.755  25.655  25.555  1.00  0.00    -0.493 OA
ATOM     27  C   UNL A   1      31.421  24.644  26.306  1.00  0.00     0.278 C 
ENDBRANCH  21  26
BRANCH  23  28
ATOM     28  O   UNL A   1      31.371  27.706  23.492  1.00  0.00    -0.493 OA
ATOM     29  C   UNL A   1      31.421  28.865  22.677  1.00  0.00     0.278 C 
ENDBRANCH  23  28
ENDBRANCH  13  20
ENDBRANCH   7  12
BRANCH  11  30
ATOM     30  O   UNL A   1      37.405  28.262  31.679  1.00  0.00    -0.507 OA
ATOM     31  H   UNL A   1      37.538  27.335  31.663  1.00  0.00     0.293 HD
ENDBRANCH  11  30
ENDBRANCH   3   6
ENDBRANCH   1   2
BRANCH   1  32
ATOM     32  C   UNL A   1      39.834  25.328  27.877  1.00  0.00     0.042 C 
BRANCH  32  33
ATOM     33  C   UNL A   1      39.829  24.751  26.465  1.00  0.00     0.118 C 
BRANCH  33  34
ATOM     34  N   UNL A   1      40.642  23.547  26.364  1.00  0.00    -0.352 N 
ATOM     35  C   UNL A   1      41.995  23.410  26.167  1.00  0.00     0.251 C 
ATOM     36  H   UNL A   1      40.146  22.701  26.448  1.00  0.00     0.163 HD
ATOM     37  O   UNL A   1      42.457  22.310  25.879  1.00  0.00    -0.269 OA
BRANCH  35  38
ATOM     38  C   UNL A   1      42.900  24.576  26.281  1.00  0.00     0.039 A 
ATOM     39  C   UNL A   1      43.432  24.893  27.536  1.00  0.00     0.014 A 
ATOM     40  C   UNL A   1      43.196  25.379  25.176  1.00  0.00     0.014 A 
ATOM     41  C   UNL A   1      44.319  25.966  27.667  1.00  0.00     0.010 A 
ATOM     42  C   UNL A   1      44.124  26.413  25.296  1.00  0.00     0.010 A 
ATOM     43  C   UNL A   1      44.704  26.709  26.539  1.00  0.00    -0.014 A 
BRANCH  43  44
ATOM     44  C   UNL A   1      45.746  27.764  26.629  1.00  0.00     0.031 A 
ATOM     45  C   UNL A   1      45.360  29.210  26.759  1.00  0.00     0.074 A 
ATOM     46  C   UNL A   1      47.042  27.419  26.495  1.00  0.00     0.049 A 
ATOM     47  N   UNL A   1      46.124  30.272  26.734  1.00  0.00    -0.248 NA
ATOM     48  C   UNL A   1      43.927  29.504  26.918  1.00  0.00     0.031 C 
ATOM     49  C   UNL A   1      47.540  26.054  26.316  1.00  0.00     0.029 A 
ATOM     50  N   UNL A   1      48.175  28.192  26.462  1.00  0.00    -0.354 N 
ATOM     51  C   UNL A   1      45.268  31.359  26.854  1.00  0.00     0.074 A 
ATOM     52  C   UNL A   1      43.922  30.829  26.923  1.00  0.00     0.031 C 
ATOM     53  C   UNL A   1      48.876  26.086  26.189  1.00  0.00     0.029 A 
ATOM     54  C   UNL A   1      49.325  27.473  26.237  1.00  0.00     0.049 A 
ATOM     55  H   UNL A   1      48.166  29.169  26.588  1.00  0.00     0.167 HD
ATOM     56  C   UNL A   1      45.578  32.676  26.913  1.00  0.00     0.037 A 
ATOM     57  C   UNL A   1      50.595  27.885  26.062  1.00  0.00     0.037 A 
ATOM     58  C   UNL A   1      46.920  33.197  26.875  1.00  0.00     0.049 A 
ATOM     59  C   UNL A   1      50.907  29.353  26.119  1.00  0.00     0.074 A 
ATOM     60  C   UNL A   1      47.339  34.508  27.028  1.00  0.00     0.029 A 
ATOM     61  N   UNL A   1      48.058  32.436  26.660  1.00  0.00    -0.354 N 
ATOM     62  N   UNL A   1      50.096  30.363  26.318  1.00  0.00    -0.248 NA
ATOM     63  C   UNL A   1      52.311  29.741  25.923  1.00  0.00     0.031 C 
ATOM     64  C   UNL A   1      48.727  34.546  26.858  1.00  0.00     0.029 A 
ATOM     65  C   UNL A   1      49.175  33.254  26.639  1.00  0.00     0.049 A 
ATOM     66  H   UNL A   1      48.070  31.458  26.540  1.00  0.00     0.167 HD
ATOM     67  C   UNL A   1      50.890  31.501  26.283  1.00  0.00     0.074 A 
ATOM     68  C   UNL A   1      52.250  31.057  26.066  1.00  0.00     0.031 C 
ATOM     69  C   UNL A   1      50.523  32.799  26.414  1.00  0.00     0.037 A 
BRANCH  56  70
ATOM     70  C   UNL A   1      44.450  33.657  27.030  1.00  0.00     0.057 A 
ATOM     71  C   UNL A   1      43.952  34.064  28.273  1.00  0.00     0.134 A 
ATOM     72  C   UNL A   1      43.907  34.257  25.886  1.00  0.00     0.134 A 
ATOM     73  F   UNL A   1      44.424  33.522  29.405  1.00  0.00    -0.206 F 
ATOM     74  C   UNL A   1      42.944  35.024  28.376  1.00  0.00     0.040 A 
ATOM     75  C   UNL A   1      42.914  35.235  25.977  1.00  0.00     0.040 A 
ATOM     76  F   UNL A   1      44.347  33.919  24.664  1.00  0.00    -0.206 F 
ATOM     77  C   UNL A   1      42.428  35.618  27.224  1.00  0.00     0.006 A 
ENDBRANCH  56  70
BRANCH  57  78
ATOM     78  C   UNL A   1      51.667  26.895  25.796  1.00  0.00     0.057 A 
ATOM     79  C   UNL A   1      52.071  26.596  24.490  1.00  0.00     0.134 A 
ATOM     80  C   UNL A   1      52.301  26.210  26.840  1.00  0.00     0.134 A 
ATOM     81  F   UNL A   1      51.484  27.204  23.447  1.00  0.00    -0.206 F 
ATOM     82  C   UNL A   1      53.054  25.641  24.229  1.00  0.00     0.040 A 
ATOM     83  C   UNL A   1      53.303  25.270  26.595  1.00  0.00     0.040 A 
ATOM     84  F   UNL A   1      51.964  26.454  28.114  1.00  0.00    -0.206 F 
ATOM     85  C   UNL A   1      53.677  24.978  25.285  1.00  0.00     0.006 A 
ENDBRANCH  57  78
BRANCH  69  86
ATOM     86  C   UNL A   1      51.608  33.829  26.331  1.00  0.00     0.057 A 
ATOM     87  C   UNL A   1      51.988  34.392  25.106  1.00  0.00     0.134 A 
ATOM     88  C   UNL A   1      52.250  34.290  27.486  1.00  0.00     0.134 A 
ATOM     89  F   UNL A   1      51.422  33.980  23.963  1.00  0.00    -0.206 F 
ATOM     90  C   UNL A   1      52.983  35.370  25.033  1.00  0.00     0.040 A 
ATOM     91  C   UNL A   1      53.229  35.283  27.428  1.00  0.00     0.040 A 
ATOM     92  F   UNL A   1      51.926  33.794  28.689  1.00  0.00    -0.206 F 
ATOM     93  C   UNL A   1      53.600  35.822  26.198  1.00  0.00     0.006 A 
ENDBRANCH  69  86
ENDBRANCH  43  44
ENDBRANCH  35  38
ENDBRANCH  33  34
ENDBRANCH  32  33
ENDBRANCH   1  32
TORSDOF 15
ENDMDL
MODEL 2
REMARK VINA RESULT:     -11.3      4.458      9.082
REMARK SMILES COc1ccc(/C=C2/SC(=S)N(c3ccc(C(=O)NCCCNC(=O)c4ccc(-c5c6nc(c(-c7c(F)cccc7F)c7ccc([nH]7)c(-c7c(F)cccc7F)c7nc(c(-c8c(F)cccc8F)c8ccc5[nH]8)C=C7)C=C6)cc4)c(O)c3)C2=O)cc1OC
REMARK SMILES IDX 20 1 19 2 17 3 18 4 16 6 13 7 14 8 82 9 15 10 80 11 12 12
REMARK SMILES IDX 7 13 8 14 9 15 83 16 10 17 84 18 11 19 6 20 3 21 4 22 86 23
REMARK SMILES IDX 5 24 85 25 2 26 1 27 87 28 88 29 81 30 21 32 22 33 23 34
REMARK SMILES IDX 24 35 25 37 26 38 27 39 79 40 28 41 78 42 29 43 30 44 31 45
REMARK SMILES IDX 72 46 32 47 77 48 71 49 73 50 33 51 76 52 70 53 69 54 34 56
REMARK SMILES IDX 60 57 43 58 59 59 44 60 47 61 58 62 74 63 45 64 46 65 57 67
REMARK SMILES IDX 75 68 48 69 35 70 36 71 41 72 37 73 38 74 40 75 42 76 39 77
REMARK SMILES IDX 61 78 62 79 67 80 63 81 64 82 66 83 68 84 65 85 49 86 50 87
REMARK SMILES IDX 55 88 51 89 52 90 54 91 56 92 53 93
REMARK H PARENT 19 5 81 31 23 36 73 55 47 66
REMARK Flexibility Score: inf
ROOT
ATOM      1  C   UNL A   1      35.896  33.759  30.493  1.00  0.00     0.118 C 
ENDROOT
BRANCH   1   2
ATOM      2  N   UNL A   1      35.340  34.853  31.266  1.00  0.00    -0.352 N 
ATOM      3  C   UNL A   1      35.502  35.236  32.572  1.00  0.00     0.255 C 
ATOM      4  O   UNL A   1      34.857  36.222  32.941  1.00  0.00    -0.269 OA
ATOM      5  H   UNL A   1      34.729  35.431  30.754  1.00  0.00     0.163 HD
BRANCH   3   6
ATOM      6  C   UNL A   1      36.460  34.614  33.532  1.00  0.00     0.081 A 
ATOM      7  C   UNL A   1      38.517  33.567  35.174  1.00  0.00     0.054 A 
ATOM      8  C   UNL A   1      38.838  34.221  33.986  1.00  0.00     0.028 A 
ATOM      9  C   UNL A   1      37.176  33.478  35.565  1.00  0.00     0.073 A 
ATOM     10  C   UNL A   1      37.817  34.712  33.164  1.00  0.00     0.020 A 
ATOM     11  C   UNL A   1      36.165  34.038  34.772  1.00  0.00     0.130 A 
BRANCH   7  12
ATOM     12  N   UNL A   1      39.533  33.104  36.049  1.00  0.00    -0.261 N 
ATOM     13  C   UNL A   1      42.217  30.718  36.529  1.00  0.00     0.029 C 
ATOM     14  C   UNL A   1      41.261  31.644  36.701  1.00  0.00     0.081 C 
ATOM     15  S   UNL A   1      41.404  32.946  37.820  1.00  0.00    -0.054 SA
ATOM     16  C   UNL A   1      40.017  31.808  35.889  1.00  0.00     0.270 C 
ATOM     17  C   UNL A   1      40.129  33.877  37.030  1.00  0.00     0.152 C 
ATOM     18  O   UNL A   1      39.536  30.932  35.194  1.00  0.00    -0.268 OA
ATOM     19  S   UNL A   1      39.750  35.431  37.520  1.00  0.00    -0.051 S 
BRANCH  13  20
ATOM     20  C   UNL A   1      42.233  29.770  35.412  1.00  0.00    -0.020 A 
ATOM     21  C   UNL A   1      42.381  27.845  33.378  1.00  0.00     0.160 A 
ATOM     22  C   UNL A   1      42.914  29.130  33.187  1.00  0.00     0.051 A 
ATOM     23  C   UNL A   1      41.758  27.516  34.587  1.00  0.00     0.161 A 
ATOM     24  C   UNL A   1      42.835  30.094  34.197  1.00  0.00     0.012 A 
ATOM     25  C   UNL A   1      41.678  28.494  35.586  1.00  0.00     0.058 A 
BRANCH  21  26
ATOM     26  O   UNL A   1      42.587  26.903  32.406  1.00  0.00    -0.493 OA
ATOM     27  C   UNL A   1      43.960  26.806  32.039  1.00  0.00     0.278 C 
ENDBRANCH  21  26
BRANCH  23  28
ATOM     28  O   UNL A   1      41.199  26.328  34.972  1.00  0.00    -0.493 OA
ATOM     29  C   UNL A   1      42.051  25.293  35.433  1.00  0.00     0.278 C 
ENDBRANCH  23  28
ENDBRANCH  13  20
ENDBRANCH   7  12
BRANCH  11  30
ATOM     30  O   UNL A   1      34.906  34.066  35.298  1.00  0.00    -0.507 OA
ATOM     31  H   UNL A   1      34.510  34.885  35.520  1.00  0.00     0.293 HD
ENDBRANCH  11  30
ENDBRANCH   3   6
ENDBRANCH   1   2
BRANCH   1  32
ATOM     32  C   UNL A   1      34.805  32.760  30.103  1.00  0.00     0.042 C 
BRANCH  32  33
ATOM     33  C   UNL A   1      34.774  32.439  28.612  1.00  0.00     0.118 C 
BRANCH  33  34
ATOM     34  N   UNL A   1      34.158  31.147  28.344  1.00  0.00    -0.352 N 
ATOM     35  C   UNL A   1      34.739  29.925  28.103  1.00  0.00     0.251 C 
ATOM     36  H   UNL A   1      33.174  31.149  28.333  1.00  0.00     0.163 HD
ATOM     37  O   UNL A   1      34.055  29.003  27.669  1.00  0.00    -0.269 OA
BRANCH  35  38
ATOM     38  C   UNL A   1      36.185  29.713  28.341  1.00  0.00     0.039 A 
ATOM     39  C   UNL A   1      36.605  29.324  29.618  1.00  0.00     0.014 A 
ATOM     40  C   UNL A   1      37.129  29.930  27.333  1.00  0.00     0.014 A 
ATOM     41  C   UNL A   1      37.960  29.080  29.862  1.00  0.00     0.010 A 
ATOM     42  C   UNL A   1      38.472  29.632  27.562  1.00  0.00     0.010 A 
ATOM     43  C   UNL A   1      38.899  29.193  28.824  1.00  0.00    -0.014 A 
BRANCH  43  44
ATOM     44  C   UNL A   1      40.320  28.808  29.024  1.00  0.00     0.031 A 
ATOM     45  C   UNL A   1      41.326  29.818  29.500  1.00  0.00     0.074 A 
ATOM     46  C   UNL A   1      40.719  27.567  28.682  1.00  0.00     0.049 A 
ATOM     47  N   UNL A   1      42.623  29.696  29.619  1.00  0.00    -0.248 NA
ATOM     48  C   UNL A   1      40.810  31.145  29.870  1.00  0.00     0.031 C 
ATOM     49  C   UNL A   1      39.846  26.511  28.164  1.00  0.00     0.029 A 
ATOM     50  N   UNL A   1      41.964  26.991  28.693  1.00  0.00    -0.354 N 
ATOM     51  C   UNL A   1      43.082  30.931  30.059  1.00  0.00     0.074 A 
ATOM     52  C   UNL A   1      41.927  31.799  30.158  1.00  0.00     0.031 C 
ATOM     53  C   UNL A   1      40.582  25.419  27.904  1.00  0.00     0.029 A 
ATOM     54  C   UNL A   1      41.981  25.709  28.197  1.00  0.00     0.049 A 
ATOM     55  H   UNL A   1      42.769  27.453  29.024  1.00  0.00     0.167 HD
ATOM     56  C   UNL A   1      44.348  31.301  30.363  1.00  0.00     0.037 A 
ATOM     57  C   UNL A   1      43.011  24.870  27.978  1.00  0.00     0.037 A 
ATOM     58  C   UNL A   1      45.490  30.426  30.293  1.00  0.00     0.049 A 
ATOM     59  C   UNL A   1      44.407  25.313  28.313  1.00  0.00     0.074 A 
ATOM     60  C   UNL A   1      46.796  30.683  30.675  1.00  0.00     0.029 A 
ATOM     61  N   UNL A   1      45.464  29.132  29.800  1.00  0.00    -0.354 N 
ATOM     62  N   UNL A   1      44.813  26.456  28.808  1.00  0.00    -0.248 NA
ATOM     63  C   UNL A   1      45.488  24.352  28.054  1.00  0.00     0.031 C 
ATOM     64  C   UNL A   1      47.570  29.559  30.369  1.00  0.00     0.029 A 
ATOM     65  C   UNL A   1      46.738  28.589  29.834  1.00  0.00     0.049 A 
ATOM     66  H   UNL A   1      44.660  28.666  29.474  1.00  0.00     0.167 HD
ATOM     67  C   UNL A   1      46.192  26.348  28.931  1.00  0.00     0.074 A 
ATOM     68  C   UNL A   1      46.551  25.020  28.480  1.00  0.00     0.031 C 
ATOM     69  C   UNL A   1      47.082  27.269  29.374  1.00  0.00     0.037 A 
BRANCH  56  70
ATOM     70  C   UNL A   1      44.577  32.716  30.806  1.00  0.00     0.057 A 
ATOM     71  C   UNL A   1      44.729  33.050  32.157  1.00  0.00     0.134 A 
ATOM     72  C   UNL A   1      44.722  33.742  29.864  1.00  0.00     0.134 A 
ATOM     73  F   UNL A   1      44.594  32.114  33.108  1.00  0.00    -0.206 F 
ATOM     74  C   UNL A   1      45.003  34.358  32.558  1.00  0.00     0.040 A 
ATOM     75  C   UNL A   1      45.019  35.051  30.251  1.00  0.00     0.040 A 
ATOM     76  F   UNL A   1      44.598  33.487  28.553  1.00  0.00    -0.206 F 
ATOM     77  C   UNL A   1      45.157  35.362  31.602  1.00  0.00     0.006 A 
ENDBRANCH  56  70
BRANCH  57  78
ATOM     78  C   UNL A   1      42.764  23.528  27.395  1.00  0.00     0.057 A 
ATOM     79  C   UNL A   1      42.840  23.313  26.014  1.00  0.00     0.134 A 
ATOM     80  C   UNL A   1      42.430  22.433  28.201  1.00  0.00     0.134 A 
ATOM     81  F   UNL A   1      43.134  24.330  25.189  1.00  0.00    -0.206 F 
ATOM     82  C   UNL A   1      42.575  22.063  25.453  1.00  0.00     0.040 A 
ATOM     83  C   UNL A   1      42.187  21.171  27.655  1.00  0.00     0.040 A 
ATOM     84  F   UNL A   1      42.347  22.572  29.532  1.00  0.00    -0.206 F 
ATOM     85  C   UNL A   1      42.252  20.986  26.277  1.00  0.00     0.006 A 
ENDBRANCH  57  78
BRANCH  69  86
ATOM     86  C   UNL A   1      48.526  26.870  29.396  1.00  0.00     0.057 A 
ATOM     87  C   UNL A   1      49.392  27.201  28.345  1.00  0.00     0.134 A 
ATOM     88  C   UNL A   1      49.065  26.186  30.491  1.00  0.00     0.134 A 
ATOM     89  F   UNL A   1      48.931  27.841  27.260  1.00  0.00    -0.206 F 
ATOM     90  C   UNL A   1      50.743  26.850  28.378  1.00  0.00     0.040 A 
ATOM     91  C   UNL A   1      50.419  25.850  30.546  1.00  0.00     0.040 A 
ATOM     92  F   UNL A   1      48.289  25.846  31.531  1.00  0.00    -0.206 F 
ATOM     93  C   UNL A   1      51.260  26.179  29.485  1.00  0.00     0.006 A 
ENDBRANCH  69  86
ENDBRANCH  43  44
ENDBRANCH  35  38
ENDBRANCH  33  34
ENDBRANCH  32  33
ENDBRANCH   1  32
TORSDOF 15
ENDMDL
MODEL 3
REMARK VINA RESULT:     -11.0      0.598      5.890
REMARK SMILES COc1ccc(/C=C2/SC(=S)N(c3ccc(C(=O)NCCCNC(=O)c4ccc(-c5c6nc(c(-c7c(F)cccc7F)c7ccc([nH]7)c(-c7c(F)cccc7F)c7nc(c(-c8c(F)cccc8F)c8ccc5[nH]8)C=C7)C=C6)cc4)c(O)c3)C2=O)cc1OC
REMARK SMILES IDX 20 1 19 2 17 3 18 4 16 6 13 7 14 8 82 9 15 10 80 11 12 12
REMARK SMILES IDX 7 13 8 14 9 15 83 16 10 17 84 18 11 19 6 20 3 21 4 22 86 23
REMARK SMILES IDX 5 24 85 25 2 26 1 27 87 28 88 29 81 30 21 32 22 33 23 34
REMARK SMILES IDX 24 35 25 37 26 38 27 39 79 40 28 41 78 42 29 43 30 44 31 45
REMARK SMILES IDX 72 46 32 47 77 48 71 49 73 50 33 51 76 52 70 53 69 54 34 56
REMARK SMILES IDX 60 57 43 58 59 59 44 60 47 61 58 62 74 63 45 64 46 65 57 67
REMARK SMILES IDX 75 68 48 69 35 70 36 71 41 72 37 73 38 74 40 75 42 76 39 77
REMARK SMILES IDX 61 78 62 79 67 80 63 81 64 82 66 83 68 84 65 85 49 86 50 87
REMARK SMILES IDX 55 88 51 89 52 90 54 91 56 92 53 93
REMARK H PARENT 19 5 81 31 23 36 73 55 47 66
REMARK Flexibility Score: inf
ROOT
ATOM      1  C   UNL A   1      40.718  27.300  28.476  1.00  0.00     0.118 C 
ENDROOT
BRANCH   1   2
ATOM      2  N   UNL A   1      40.841  27.621  29.885  1.00  0.00    -0.352 N 
ATOM      3  C   UNL A   1      40.140  28.469  30.703  1.00  0.00     0.255 C 
ATOM      4  O   UNL A   1      40.514  28.535  31.878  1.00  0.00    -0.269 OA
ATOM      5  H   UNL A   1      41.567  27.137  30.341  1.00  0.00     0.163 HD
BRANCH   3   6
ATOM      6  C   UNL A   1      38.920  29.226  30.303  1.00  0.00     0.081 A 
ATOM      7  C   UNL A   1      36.762  30.744  29.270  1.00  0.00     0.054 A 
ATOM      8  C   UNL A   1      37.989  30.737  28.610  1.00  0.00     0.028 A 
ATOM      9  C   UNL A   1      36.598  29.958  30.416  1.00  0.00     0.073 A 
ATOM     10  C   UNL A   1      39.061  30.009  29.139  1.00  0.00     0.020 A 
ATOM     11  C   UNL A   1      37.654  29.172  30.898  1.00  0.00     0.130 A 
BRANCH   7  12
ATOM     12  N   UNL A   1      35.646  31.434  28.729  1.00  0.00    -0.261 N 
ATOM     13  C   UNL A   1      32.482  31.123  26.993  1.00  0.00     0.029 C 
ATOM     14  C   UNL A   1      33.618  31.579  27.543  1.00  0.00     0.081 C 
ATOM     15  S   UNL A   1      33.747  33.125  28.290  1.00  0.00    -0.054 SA
ATOM     16  C   UNL A   1      34.886  30.812  27.743  1.00  0.00     0.270 C 
ATOM     17  C   UNL A   1      35.218  32.678  29.158  1.00  0.00     0.152 C 
ATOM     18  O   UNL A   1      35.173  29.798  27.133  1.00  0.00    -0.268 OA
ATOM     19  S   UNL A   1      35.926  33.711  30.267  1.00  0.00    -0.051 S 
BRANCH  13  20
ATOM     20  C   UNL A   1      32.279  29.727  26.595  1.00  0.00    -0.020 A 
ATOM     21  C   UNL A   1      31.749  27.118  25.718  1.00  0.00     0.160 A 
ATOM     22  C   UNL A   1      31.512  27.485  27.052  1.00  0.00     0.051 A 
ATOM     23  C   UNL A   1      32.264  28.052  24.813  1.00  0.00     0.161 A 
ATOM     24  C   UNL A   1      31.783  28.784  27.494  1.00  0.00     0.012 A 
ATOM     25  C   UNL A   1      32.538  29.346  25.271  1.00  0.00     0.058 A 
BRANCH  21  26
ATOM     26  O   UNL A   1      31.359  25.871  25.307  1.00  0.00    -0.493 OA
ATOM     27  C   UNL A   1      29.943  25.766  25.187  1.00  0.00     0.278 C 
ENDBRANCH  21  26
BRANCH  23  28
ATOM     28  O   UNL A   1      32.543  27.898  23.482  1.00  0.00    -0.493 OA
ATOM     29  C   UNL A   1      33.339  28.877  22.835  1.00  0.00     0.278 C 
ENDBRANCH  23  28
ENDBRANCH  13  20
ENDBRANCH   7  12
BRANCH  11  30
ATOM     30  O   UNL A   1      37.371  28.303  31.911  1.00  0.00    -0.507 OA
ATOM     31  H   UNL A   1      37.625  27.404  31.840  1.00  0.00     0.293 HD
ENDBRANCH  11  30
ENDBRANCH   3   6
ENDBRANCH   1   2
BRANCH   1  32
ATOM     32  C   UNL A   1      39.717  26.163  28.263  1.00  0.00     0.042 C 
BRANCH  32  33
ATOM     33  C   UNL A   1      39.924  25.403  26.956  1.00  0.00     0.118 C 
BRANCH  33  34
ATOM     34  N   UNL A   1      40.532  24.098  27.173  1.00  0.00    -0.352 N 
ATOM     35  C   UNL A   1      41.843  23.704  27.052  1.00  0.00     0.251 C 
ATOM     36  H   UNL A   1      39.908  23.388  27.448  1.00  0.00     0.163 HD
ATOM     37  O   UNL A   1      42.119  22.508  27.053  1.00  0.00    -0.269 OA
BRANCH  35  38
ATOM     38  C   UNL A   1      42.924  24.704  26.902  1.00  0.00     0.039 A 
ATOM     39  C   UNL A   1      43.269  25.131  25.615  1.00  0.00     0.014 A 
ATOM     40  C   UNL A   1      43.625  25.192  28.009  1.00  0.00     0.014 A 
ATOM     41  C   UNL A   1      44.261  26.102  25.445  1.00  0.00     0.010 A 
ATOM     42  C   UNL A   1      44.573  26.200  27.843  1.00  0.00     0.010 A 
ATOM     43  C   UNL A   1      44.892  26.673  26.562  1.00  0.00    -0.014 A 
BRANCH  43  44
ATOM     44  C   UNL A   1      45.849  27.800  26.415  1.00  0.00     0.031 A 
ATOM     45  C   UNL A   1      47.324  27.540  26.294  1.00  0.00     0.074 A 
ATOM     46  C   UNL A   1      45.390  29.065  26.487  1.00  0.00     0.049 A 
ATOM     47  N   UNL A   1      48.314  28.396  26.276  1.00  0.00    -0.248 NA
ATOM     48  C   UNL A   1      47.745  26.132  26.204  1.00  0.00     0.031 C 
ATOM     49  C   UNL A   1      43.986  29.447  26.650  1.00  0.00     0.029 A 
ATOM     50  N   UNL A   1      46.058  30.263  26.459  1.00  0.00    -0.354 N 
ATOM     51  C   UNL A   1      49.473  27.636  26.191  1.00  0.00     0.074 A 
ATOM     52  C   UNL A   1      49.066  26.246  26.190  1.00  0.00     0.031 C 
ATOM     53  C   UNL A   1      43.898  30.785  26.711  1.00  0.00     0.029 A 
ATOM     54  C   UNL A   1      45.239  31.353  26.633  1.00  0.00     0.049 A 
ATOM     55  H   UNL A   1      47.032  30.336  26.328  1.00  0.00     0.167 HD
ATOM     56  C   UNL A   1      50.756  28.059  26.108  1.00  0.00     0.037 A 
ATOM     57  C   UNL A   1      45.536  32.662  26.743  1.00  0.00     0.037 A 
ATOM     58  C   UNL A   1      51.155  29.443  26.077  1.00  0.00     0.049 A 
ATOM     59  C   UNL A   1      46.970  33.102  26.661  1.00  0.00     0.074 A 
ATOM     60  C   UNL A   1      52.422  29.969  25.896  1.00  0.00     0.029 A 
ATOM     61  N   UNL A   1      50.295  30.517  26.241  1.00  0.00    -0.354 N 
ATOM     62  N   UNL A   1      48.048  32.375  26.496  1.00  0.00    -0.248 NA
ATOM     63  C   UNL A   1      47.231  34.543  26.786  1.00  0.00     0.031 C 
ATOM     64  C   UNL A   1      52.336  31.362  25.998  1.00  0.00     0.029 A 
ATOM     65  C   UNL A   1      51.010  31.703  26.202  1.00  0.00     0.049 A 
ATOM     66  H   UNL A   1      49.320  30.447  26.367  1.00  0.00     0.167 HD
ATOM     67  C   UNL A   1      49.111  33.269  26.485  1.00  0.00     0.074 A 
ATOM     68  C   UNL A   1      48.547  34.593  26.638  1.00  0.00     0.031 C 
ATOM     69  C   UNL A   1      50.436  33.013  26.364  1.00  0.00     0.037 A 
BRANCH  56  70
ATOM     70  C   UNL A   1      51.835  27.019  26.041  1.00  0.00     0.057 A 
ATOM     71  C   UNL A   1      52.467  26.538  27.193  1.00  0.00     0.134 A 
ATOM     72  C   UNL A   1      52.191  26.441  24.816  1.00  0.00     0.134 A 
ATOM     73  F   UNL A   1      52.176  27.055  28.395  1.00  0.00    -0.206 F 
ATOM     74  C   UNL A   1      53.426  25.526  27.129  1.00  0.00     0.040 A 
ATOM     75  C   UNL A   1      53.133  25.413  24.741  1.00  0.00     0.040 A 
ATOM     76  F   UNL A   1      51.616  26.851  23.675  1.00  0.00    -0.206 F 
ATOM     77  C   UNL A   1      53.756  24.955  25.900  1.00  0.00     0.006 A 
ENDBRANCH  56  70
BRANCH  57  78
ATOM     78  C   UNL A   1      44.454  33.653  26.962  1.00  0.00     0.057 A 
ATOM     79  C   UNL A   1      43.856  34.323  25.888  1.00  0.00     0.134 A 
ATOM     80  C   UNL A   1      44.002  33.967  28.249  1.00  0.00     0.134 A 
ATOM     81  F   UNL A   1      44.263  34.081  24.632  1.00  0.00    -0.206 F 
ATOM     82  C   UNL A   1      42.862  35.282  26.086  1.00  0.00     0.040 A 
ATOM     83  C   UNL A   1      42.991  34.906  28.461  1.00  0.00     0.040 A 
ATOM     84  F   UNL A   1      44.529  33.357  29.320  1.00  0.00    -0.206 F 
ATOM     85  C   UNL A   1      42.424  35.572  27.377  1.00  0.00     0.006 A 
ENDBRANCH  57  78
BRANCH  69  86
ATOM     86  C   UNL A   1      51.364  34.189  26.388  1.00  0.00     0.057 A 
ATOM     87  C   UNL A   1      51.751  34.840  25.209  1.00  0.00     0.134 A 
ATOM     88  C   UNL A   1      51.844  34.700  27.600  1.00  0.00     0.134 A 
ATOM     89  F   UNL A   1      51.338  34.388  24.016  1.00  0.00    -0.206 F 
ATOM     90  C   UNL A   1      52.597  35.950  25.235  1.00  0.00     0.040 A 
ATOM     91  C   UNL A   1      52.672  35.823  27.640  1.00  0.00     0.040 A 
ATOM     92  F   UNL A   1      51.506  34.125  28.763  1.00  0.00    -0.206 F 
ATOM     93  C   UNL A   1      53.053  36.448  26.455  1.00  0.00     0.006 A 
ENDBRANCH  69  86
ENDBRANCH  43  44
ENDBRANCH  35  38
ENDBRANCH  33  34
ENDBRANCH  32  33
ENDBRANCH   1  32
TORSDOF 15
ENDMDL
