MODEL 1
REMARK VINA RESULT:     -10.5      0.000      0.000
REMARK SMILES O=C(NCCCNC(=O)c1cncc(OCCCc2ccccc2)n1)c1ccc(-c2c3nc(c(-c4c(F)cccc4F)c4ccc([nH]4)c(-c4c(F)cccc4F)c4nc(c(-c5c(F)cccc5F)c5ccc2[nH]5)C=C4)C=C3)cc1
REMARK SMILES IDX 7 1 8 2 9 3 6 5 5 6 4 7 3 8 1 9 2 10 26 12 27 13 79 14 28 15
REMARK SMILES IDX 78 16 29 17 30 18 31 19 72 20 32 21 77 22 71 23 73 24 33 25
REMARK SMILES IDX 76 26 70 27 69 28 34 30 60 31 43 32 59 33 44 34 47 35 58 36
REMARK SMILES IDX 74 37 45 38 46 39 57 41 75 42 48 43 35 44 36 45 41 46 37 47
REMARK SMILES IDX 38 48 40 49 42 50 39 51 61 52 62 53 67 54 63 55 64 56 66 57
REMARK SMILES IDX 68 58 65 59 49 60 50 61 55 62 51 63 52 64 54 65 56 66 53 67
REMARK SMILES IDX 10 68 11 69 25 70 12 71 14 72 13 73 15 74 16 75 17 76 18 77
REMARK SMILES IDX 19 78 20 79 24 80 21 81 23 82 22 83
REMARK H PARENT 7 4 3 11 73 29 47 40
REMARK Flexibility Score: inf
ROOT
ATOM      1  N   UNL A   1      33.751  35.437  28.218  1.00  0.00    -0.351 N 
ATOM      2  C   UNL A   1      32.951  36.085  29.131  1.00  0.00     0.271 C 
ATOM      3  O   UNL A   1      31.936  36.657  28.742  1.00  0.00    -0.267 OA
ATOM      4  H   UNL A   1      33.414  35.432  27.293  1.00  0.00     0.163 HD
ENDROOT
BRANCH   1   5
ATOM      5  C   UNL A   1      35.020  34.759  28.417  1.00  0.00     0.118 C 
BRANCH   5   6
ATOM      6  C   UNL A   1      35.015  33.306  27.965  1.00  0.00     0.042 C 
BRANCH   6   7
ATOM      7  C   UNL A   1      34.598  32.307  29.037  1.00  0.00     0.118 C 
BRANCH   7   8
ATOM      8  N   UNL A   1      34.089  31.055  28.491  1.00  0.00    -0.352 N 
ATOM      9  O   UNL A   1      34.096  29.037  27.502  1.00  0.00    -0.269 OA
ATOM     10  C   UNL A   1      34.731  29.904  28.092  1.00  0.00     0.251 C 
ATOM     11  H   UNL A   1      33.110  31.028  28.390  1.00  0.00     0.163 HD
BRANCH  10  12
ATOM     12  C   UNL A   1      36.180  29.713  28.332  1.00  0.00     0.039 A 
ATOM     13  C   UNL A   1      37.126  30.058  27.370  1.00  0.00     0.014 A 
ATOM     14  C   UNL A   1      36.605  29.205  29.565  1.00  0.00     0.014 A 
ATOM     15  C   UNL A   1      38.459  29.707  27.551  1.00  0.00     0.010 A 
ATOM     16  C   UNL A   1      37.965  28.960  29.791  1.00  0.00     0.010 A 
ATOM     17  C   UNL A   1      38.900  29.156  28.765  1.00  0.00    -0.014 A 
BRANCH  17  18
ATOM     18  C   UNL A   1      40.341  28.820  28.929  1.00  0.00     0.031 A 
ATOM     19  C   UNL A   1      41.282  29.752  29.646  1.00  0.00     0.074 A 
ATOM     20  C   UNL A   1      40.793  27.634  28.471  1.00  0.00     0.049 A 
ATOM     21  N   UNL A   1      42.550  29.584  29.935  1.00  0.00    -0.248 NA
ATOM     22  C   UNL A   1      40.737  31.044  30.090  1.00  0.00     0.031 C 
ATOM     23  C   UNL A   1      39.988  26.647  27.749  1.00  0.00     0.029 A 
ATOM     24  N   UNL A   1      42.028  27.045  28.570  1.00  0.00    -0.354 N 
ATOM     25  C   UNL A   1      42.957  30.749  30.572  1.00  0.00     0.074 A 
ATOM     26  C   UNL A   1      41.810  31.633  30.598  1.00  0.00     0.031 C 
ATOM     27  C   UNL A   1      40.730  25.554  27.523  1.00  0.00     0.029 A 
ATOM     28  C   UNL A   1      42.080  25.785  28.024  1.00  0.00     0.049 A 
ATOM     29  H   UNL A   1      42.803  27.483  28.990  1.00  0.00     0.167 HD
ATOM     30  C   UNL A   1      44.169  31.053  31.097  1.00  0.00     0.037 A 
ATOM     31  C   UNL A   1      43.100  24.913  27.926  1.00  0.00     0.037 A 
ATOM     32  C   UNL A   1      45.306  30.166  31.083  1.00  0.00     0.049 A 
ATOM     33  C   UNL A   1      44.440  25.287  28.494  1.00  0.00     0.074 A 
ATOM     34  C   UNL A   1      46.563  30.368  31.626  1.00  0.00     0.029 A 
ATOM     35  N   UNL A   1      45.326  28.913  30.488  1.00  0.00    -0.354 N 
ATOM     36  N   UNL A   1      44.792  26.374  29.137  1.00  0.00    -0.248 NA
ATOM     37  C   UNL A   1      45.522  24.308  28.325  1.00  0.00     0.031 C 
ATOM     38  C   UNL A   1      47.361  29.263  31.310  1.00  0.00     0.029 A 
ATOM     39  C   UNL A   1      46.583  28.343  30.628  1.00  0.00     0.049 A 
ATOM     40  H   UNL A   1      44.561  28.491  30.034  1.00  0.00     0.167 HD
ATOM     41  C   UNL A   1      46.127  26.196  29.477  1.00  0.00     0.074 A 
ATOM     42  C   UNL A   1      46.513  24.890  28.983  1.00  0.00     0.031 C 
ATOM     43  C   UNL A   1      46.956  27.038  30.142  1.00  0.00     0.037 A 
BRANCH  30  44
ATOM     44  C   UNL A   1      44.342  32.415  31.712  1.00  0.00     0.057 A 
ATOM     45  C   UNL A   1      44.107  32.655  33.072  1.00  0.00     0.134 A 
ATOM     46  C   UNL A   1      44.793  33.493  30.939  1.00  0.00     0.134 A 
ATOM     47  F   UNL A   1      43.666  31.671  33.871  1.00  0.00    -0.206 F 
ATOM     48  C   UNL A   1      44.287  33.922  33.634  1.00  0.00     0.040 A 
ATOM     49  C   UNL A   1      45.005  34.756  31.493  1.00  0.00     0.040 A 
ATOM     50  F   UNL A   1      45.048  33.333  29.630  1.00  0.00    -0.206 F 
ATOM     51  C   UNL A   1      44.745  34.975  32.844  1.00  0.00     0.006 A 
ENDBRANCH  30  44
BRANCH  31  52
ATOM     52  C   UNL A   1      42.894  23.597  27.270  1.00  0.00     0.057 A 
ATOM     53  C   UNL A   1      42.454  22.485  27.997  1.00  0.00     0.134 A 
ATOM     54  C   UNL A   1      43.139  23.417  25.903  1.00  0.00     0.134 A 
ATOM     55  F   UNL A   1      42.217  22.589  29.312  1.00  0.00    -0.206 F 
ATOM     56  C   UNL A   1      42.288  21.237  27.395  1.00  0.00     0.040 A 
ATOM     57  C   UNL A   1      42.948  22.183  25.281  1.00  0.00     0.040 A 
ATOM     58  F   UNL A   1      43.553  24.446  25.149  1.00  0.00    -0.206 F 
ATOM     59  C   UNL A   1      42.530  21.085  26.031  1.00  0.00     0.006 A 
ENDBRANCH  31  52
BRANCH  43  60
ATOM     60  C   UNL A   1      48.348  26.549  30.422  1.00  0.00     0.057 A 
ATOM     61  C   UNL A   1      48.669  25.824  31.577  1.00  0.00     0.134 A 
ATOM     62  C   UNL A   1      49.383  26.797  29.510  1.00  0.00     0.134 A 
ATOM     63  F   UNL A   1      47.729  25.563  32.499  1.00  0.00    -0.206 F 
ATOM     64  C   UNL A   1      49.973  25.397  31.832  1.00  0.00     0.040 A 
ATOM     65  C   UNL A   1      50.684  26.346  29.738  1.00  0.00     0.040 A 
ATOM     66  F   UNL A   1      49.145  27.477  28.378  1.00  0.00    -0.206 F 
ATOM     67  C   UNL A   1      50.983  25.653  30.909  1.00  0.00     0.006 A 
ENDBRANCH  43  60
ENDBRANCH  17  18
ENDBRANCH  10  12
ENDBRANCH   7   8
ENDBRANCH   6   7
ENDBRANCH   5   6
ENDBRANCH   1   5
BRANCH   2  68
ATOM     68  C   UNL A   1      33.287  36.060  30.573  1.00  0.00     0.150 A 
ATOM     69  C   UNL A   1      33.459  37.223  31.300  1.00  0.00     0.145 A 
ATOM     70  N   UNL A   1      33.417  34.830  31.128  1.00  0.00    -0.205 NA
ATOM     71  N   UNL A   1      33.809  37.201  32.610  1.00  0.00    -0.257 NA
ATOM     72  C   UNL A   1      33.725  34.795  32.431  1.00  0.00     0.233 A 
ATOM     73  C   UNL A   1      33.924  35.960  33.159  1.00  0.00     0.179 A 
BRANCH  72  74
ATOM     74  O   UNL A   1      33.756  33.585  33.078  1.00  0.00    -0.477 OA
BRANCH  74  75
ATOM     75  C   UNL A   1      34.844  32.723  32.707  1.00  0.00     0.232 C 
BRANCH  75  76
ATOM     76  C   UNL A   1      36.075  32.833  33.617  1.00  0.00     0.046 C 
BRANCH  76  77
ATOM     77  C   UNL A   1      37.407  32.268  33.100  1.00  0.00     0.039 C 
BRANCH  77  78
ATOM     78  C   UNL A   1      38.019  32.931  31.882  1.00  0.00    -0.048 A 
ATOM     79  C   UNL A   1      38.863  34.044  31.995  1.00  0.00     0.004 A 
ATOM     80  C   UNL A   1      37.677  32.498  30.595  1.00  0.00     0.004 A 
ATOM     81  C   UNL A   1      39.335  34.721  30.871  1.00  0.00     0.000 A 
ATOM     82  C   UNL A   1      38.144  33.177  29.464  1.00  0.00     0.000 A 
ATOM     83  C   UNL A   1      38.967  34.293  29.602  1.00  0.00     0.000 A 
ENDBRANCH  77  78
ENDBRANCH  76  77
ENDBRANCH  75  76
ENDBRANCH  74  75
ENDBRANCH  72  74
ENDBRANCH   2  68
TORSDOF 15
ENDMDL
MODEL 2
REMARK VINA RESULT:     -10.3      4.654     12.209
REMARK SMILES O=C(NCCCNC(=O)c1cncc(OCCCc2ccccc2)n1)c1ccc(-c2c3nc(c(-c4c(F)cccc4F)c4ccc([nH]4)c(-c4c(F)cccc4F)c4nc(c(-c5c(F)cccc5F)c5ccc2[nH]5)C=C4)C=C3)cc1
REMARK SMILES IDX 7 1 8 2 9 3 6 5 5 6 4 7 3 8 1 9 2 10 26 12 27 13 79 14 28 15
REMARK SMILES IDX 78 16 29 17 30 18 31 19 72 20 32 21 77 22 71 23 73 24 33 25
REMARK SMILES IDX 76 26 70 27 69 28 34 30 60 31 43 32 59 33 44 34 47 35 58 36
REMARK SMILES IDX 74 37 45 38 46 39 57 41 75 42 48 43 35 44 36 45 41 46 37 47
REMARK SMILES IDX 38 48 40 49 42 50 39 51 61 52 62 53 67 54 63 55 64 56 66 57
REMARK SMILES IDX 68 58 65 59 49 60 50 61 55 62 51 63 52 64 54 65 56 66 53 67
REMARK SMILES IDX 10 68 11 69 25 70 12 71 14 72 13 73 15 74 16 75 17 76 18 77
REMARK SMILES IDX 19 78 20 79 24 80 21 81 23 82 22 83
REMARK H PARENT 7 4 3 11 73 29 47 40
REMARK Flexibility Score: inf
ROOT
ATOM      1  N   UNL A   1      41.706  19.580  26.067  1.00  0.00    -0.351 N 
ATOM      2  C   UNL A   1      42.740  18.734  25.740  1.00  0.00     0.271 C 
ATOM      3  O   UNL A   1      42.552  17.520  25.752  1.00  0.00    -0.267 OA
ATOM      4  H   UNL A   1      40.843  19.140  26.242  1.00  0.00     0.163 HD
ENDROOT
BRANCH   1   5
ATOM      5  C   UNL A   1      41.698  21.027  26.192  1.00  0.00     0.118 C 
BRANCH   5   6
ATOM      6  C   UNL A   1      40.846  21.538  27.345  1.00  0.00     0.042 C 
BRANCH   6   7
ATOM      7  C   UNL A   1      40.201  22.897  27.108  1.00  0.00     0.118 C 
BRANCH   7   8
ATOM      8  N   UNL A   1      40.907  23.705  26.120  1.00  0.00    -0.352 N 
ATOM      9  O   UNL A   1      41.738  25.527  25.102  1.00  0.00    -0.269 OA
ATOM     10  C   UNL A   1      41.302  25.023  26.131  1.00  0.00     0.251 C 
ATOM     11  H   UNL A   1      41.144  23.218  25.297  1.00  0.00     0.163 HD
BRANCH  10  12
ATOM     12  C   UNL A   1      41.175  25.850  27.353  1.00  0.00     0.039 A 
ATOM     13  C   UNL A   1      40.164  25.621  28.283  1.00  0.00     0.014 A 
ATOM     14  C   UNL A   1      42.114  26.861  27.592  1.00  0.00     0.014 A 
ATOM     15  C   UNL A   1      39.963  26.518  29.326  1.00  0.00     0.010 A 
ATOM     16  C   UNL A   1      41.978  27.694  28.710  1.00  0.00     0.010 A 
ATOM     17  C   UNL A   1      40.869  27.566  29.558  1.00  0.00    -0.014 A 
BRANCH  17  18
ATOM     18  C   UNL A   1      40.635  28.488  30.702  1.00  0.00     0.031 A 
ATOM     19  C   UNL A   1      41.498  28.436  31.935  1.00  0.00     0.074 A 
ATOM     20  C   UNL A   1      39.664  29.420  30.605  1.00  0.00     0.049 A 
ATOM     21  N   UNL A   1      41.474  29.209  32.994  1.00  0.00    -0.248 NA
ATOM     22  C   UNL A   1      42.516  27.376  31.997  1.00  0.00     0.031 C 
ATOM     23  C   UNL A   1      38.750  29.569  29.470  1.00  0.00     0.029 A 
ATOM     24  N   UNL A   1      39.302  30.433  31.456  1.00  0.00    -0.354 N 
ATOM     25  C   UNL A   1      42.452  28.719  33.851  1.00  0.00     0.074 A 
ATOM     26  C   UNL A   1      43.030  27.560  33.204  1.00  0.00     0.031 C 
ATOM     27  C   UNL A   1      37.975  30.645  29.667  1.00  0.00     0.029 A 
ATOM     28  C   UNL A   1      38.290  31.224  30.968  1.00  0.00     0.049 A 
ATOM     29  H   UNL A   1      39.727  30.580  32.332  1.00  0.00     0.167 HD
ATOM     30  C   UNL A   1      42.841  29.195  35.059  1.00  0.00     0.037 A 
ATOM     31  C   UNL A   1      37.674  32.292  31.508  1.00  0.00     0.037 A 
ATOM     32  C   UNL A   1      42.273  30.358  35.695  1.00  0.00     0.049 A 
ATOM     33  C   UNL A   1      38.108  32.782  32.860  1.00  0.00     0.074 A 
ATOM     34  C   UNL A   1      42.630  30.942  36.899  1.00  0.00     0.029 A 
ATOM     35  N   UNL A   1      41.225  31.109  35.183  1.00  0.00    -0.354 N 
ATOM     36  N   UNL A   1      39.068  32.335  33.632  1.00  0.00    -0.248 NA
ATOM     37  C   UNL A   1      37.374  33.928  33.410  1.00  0.00     0.031 C 
ATOM     38  C   UNL A   1      41.760  32.010  37.143  1.00  0.00     0.029 A 
ATOM     39  C   UNL A   1      40.905  32.134  36.060  1.00  0.00     0.049 A 
ATOM     40  H   UNL A   1      40.776  30.939  34.324  1.00  0.00     0.167 HD
ATOM     41  C   UNL A   1      39.074  33.166  34.746  1.00  0.00     0.074 A 
ATOM     42  C   UNL A   1      38.033  34.151  34.538  1.00  0.00     0.031 C 
ATOM     43  C   UNL A   1      39.873  33.117  35.840  1.00  0.00     0.037 A 
BRANCH  30  44
ATOM     44  C   UNL A   1      43.918  28.444  35.791  1.00  0.00     0.057 A 
ATOM     45  C   UNL A   1      43.629  27.406  36.687  1.00  0.00     0.134 A 
ATOM     46  C   UNL A   1      45.270  28.737  35.565  1.00  0.00     0.134 A 
ATOM     47  F   UNL A   1      42.357  27.076  36.959  1.00  0.00    -0.206 F 
ATOM     48  C   UNL A   1      44.641  26.706  37.349  1.00  0.00     0.040 A 
ATOM     49  C   UNL A   1      46.291  28.026  36.196  1.00  0.00     0.040 A 
ATOM     50  F   UNL A   1      45.621  29.713  34.712  1.00  0.00    -0.206 F 
ATOM     51  C   UNL A   1      45.978  27.012  37.098  1.00  0.00     0.006 A 
ENDBRANCH  30  44
BRANCH  31  52
ATOM     52  C   UNL A   1      36.583  32.975  30.766  1.00  0.00     0.057 A 
ATOM     53  C   UNL A   1      36.862  33.841  29.703  1.00  0.00     0.134 A 
ATOM     54  C   UNL A   1      35.238  32.785  31.109  1.00  0.00     0.134 A 
ATOM     55  F   UNL A   1      38.130  34.076  29.337  1.00  0.00    -0.206 F 
ATOM     56  C   UNL A   1      35.845  34.512  29.022  1.00  0.00     0.040 A 
ATOM     57  C   UNL A   1      34.211  33.425  30.416  1.00  0.00     0.040 A 
ATOM     58  F   UNL A   1      34.905  31.961  32.112  1.00  0.00    -0.206 F 
ATOM     59  C   UNL A   1      34.514  34.300  29.375  1.00  0.00     0.006 A 
ENDBRANCH  31  52
BRANCH  43  60
ATOM     60  C   UNL A   1      39.689  34.194  36.871  1.00  0.00     0.057 A 
ATOM     61  C   UNL A   1      38.908  34.006  38.019  1.00  0.00     0.134 A 
ATOM     62  C   UNL A   1      40.317  35.437  36.716  1.00  0.00     0.134 A 
ATOM     63  F   UNL A   1      38.267  32.844  38.223  1.00  0.00    -0.206 F 
ATOM     64  C   UNL A   1      38.728  35.026  38.955  1.00  0.00     0.040 A 
ATOM     65  C   UNL A   1      40.172  36.453  37.662  1.00  0.00     0.040 A 
ATOM     66  F   UNL A   1      41.087  35.683  35.646  1.00  0.00    -0.206 F 
ATOM     67  C   UNL A   1      39.366  36.252  38.780  1.00  0.00     0.006 A 
ENDBRANCH  43  60
ENDBRANCH  17  18
ENDBRANCH  10  12
ENDBRANCH   7   8
ENDBRANCH   6   7
ENDBRANCH   5   6
ENDBRANCH   1   5
BRANCH   2  68
ATOM     68  C   UNL A   1      44.056  19.280  25.337  1.00  0.00     0.150 A 
ATOM     69  C   UNL A   1      45.224  18.557  25.493  1.00  0.00     0.145 A 
ATOM     70  N   UNL A   1      44.042  20.530  24.812  1.00  0.00    -0.205 NA
ATOM     71  N   UNL A   1      46.434  19.072  25.165  1.00  0.00    -0.257 NA
ATOM     72  C   UNL A   1      45.227  21.036  24.448  1.00  0.00     0.233 A 
ATOM     73  C   UNL A   1      46.404  20.323  24.627  1.00  0.00     0.179 A 
BRANCH  72  74
ATOM     74  O   UNL A   1      45.268  22.248  23.804  1.00  0.00    -0.477 OA
BRANCH  74  75
ATOM     75  C   UNL A   1      44.316  23.219  24.271  1.00  0.00     0.232 C 
BRANCH  75  76
ATOM     76  C   UNL A   1      44.941  24.409  25.011  1.00  0.00     0.046 C 
BRANCH  76  77
ATOM     77  C   UNL A   1      45.732  24.122  26.298  1.00  0.00     0.039 C 
BRANCH  77  78
ATOM     78  C   UNL A   1      44.999  24.278  27.616  1.00  0.00    -0.048 A 
ATOM     79  C   UNL A   1      45.359  25.261  28.547  1.00  0.00     0.004 A 
ATOM     80  C   UNL A   1      43.994  23.371  27.977  1.00  0.00     0.004 A 
ATOM     81  C   UNL A   1      44.759  25.331  29.805  1.00  0.00     0.000 A 
ATOM     82  C   UNL A   1      43.393  23.435  29.239  1.00  0.00     0.000 A 
ATOM     83  C   UNL A   1      43.781  24.410  30.155  1.00  0.00     0.000 A 
ENDBRANCH  77  78
ENDBRANCH  76  77
ENDBRANCH  75  76
ENDBRANCH  74  75
ENDBRANCH  72  74
ENDBRANCH   2  68
TORSDOF 15
ENDMDL
MODEL 3
REMARK VINA RESULT:     -10.3      0.666      6.397
REMARK SMILES O=C(NCCCNC(=O)c1cncc(OCCCc2ccccc2)n1)c1ccc(-c2c3nc(c(-c4c(F)cccc4F)c4ccc([nH]4)c(-c4c(F)cccc4F)c4nc(c(-c5c(F)cccc5F)c5ccc2[nH]5)C=C4)C=C3)cc1
REMARK SMILES IDX 7 1 8 2 9 3 6 5 5 6 4 7 3 8 1 9 2 10 26 12 27 13 79 14 28 15
REMARK SMILES IDX 78 16 29 17 30 18 31 19 72 20 32 21 77 22 71 23 73 24 33 25
REMARK SMILES IDX 76 26 70 27 69 28 34 30 60 31 43 32 59 33 44 34 47 35 58 36
REMARK SMILES IDX 74 37 45 38 46 39 57 41 75 42 48 43 35 44 36 45 41 46 37 47
REMARK SMILES IDX 38 48 40 49 42 50 39 51 61 52 62 53 67 54 63 55 64 56 66 57
REMARK SMILES IDX 68 58 65 59 49 60 50 61 55 62 51 63 52 64 54 65 56 66 53 67
REMARK SMILES IDX 10 68 11 69 25 70 12 71 14 72 13 73 15 74 16 75 17 76 18 77
REMARK SMILES IDX 19 78 20 79 24 80 21 81 23 82 22 83
REMARK H PARENT 7 4 3 11 73 29 47 40
REMARK Flexibility Score: inf
ROOT
ATOM      1  N   UNL A   1      33.750  35.311  28.233  1.00  0.00    -0.351 N 
ATOM      2  C   UNL A   1      32.923  35.949  29.129  1.00  0.00     0.271 C 
ATOM      3  O   UNL A   1      31.873  36.445  28.730  1.00  0.00    -0.267 OA
ATOM      4  H   UNL A   1      33.404  35.248  27.314  1.00  0.00     0.163 HD
ENDROOT
BRANCH   1   5
ATOM      5  C   UNL A   1      35.058  34.716  28.443  1.00  0.00     0.118 C 
BRANCH   5   6
ATOM      6  C   UNL A   1      35.141  33.255  28.023  1.00  0.00     0.042 C 
BRANCH   6   7
ATOM      7  C   UNL A   1      34.364  32.292  28.912  1.00  0.00     0.118 C 
BRANCH   7   8
ATOM      8  N   UNL A   1      33.937  31.084  28.217  1.00  0.00    -0.352 N 
ATOM      9  O   UNL A   1      34.083  29.152  27.078  1.00  0.00    -0.269 OA
ATOM     10  C   UNL A   1      34.637  29.974  27.800  1.00  0.00     0.251 C 
ATOM     11  H   UNL A   1      32.975  31.057  28.009  1.00  0.00     0.163 HD
BRANCH  10  12
ATOM     12  C   UNL A   1      36.055  29.775  28.179  1.00  0.00     0.039 A 
ATOM     13  C   UNL A   1      37.090  30.054  27.290  1.00  0.00     0.014 A 
ATOM     14  C   UNL A   1      36.359  29.330  29.471  1.00  0.00     0.014 A 
ATOM     15  C   UNL A   1      38.395  29.695  27.608  1.00  0.00     0.010 A 
ATOM     16  C   UNL A   1      37.688  29.078  29.831  1.00  0.00     0.010 A 
ATOM     17  C   UNL A   1      38.714  29.204  28.885  1.00  0.00    -0.014 A 
BRANCH  17  18
ATOM     18  C   UNL A   1      40.128  28.857  29.195  1.00  0.00     0.031 A 
ATOM     19  C   UNL A   1      40.735  27.562  28.723  1.00  0.00     0.074 A 
ATOM     20  C   UNL A   1      40.889  29.746  29.867  1.00  0.00     0.049 A 
ATOM     21  N   UNL A   1      41.967  27.134  28.848  1.00  0.00    -0.248 NA
ATOM     22  C   UNL A   1      39.846  26.619  28.027  1.00  0.00     0.031 C 
ATOM     23  C   UNL A   1      40.419  31.030  30.391  1.00  0.00     0.029 A 
ATOM     24  N   UNL A   1      42.220  29.720  30.199  1.00  0.00    -0.354 N 
ATOM     25  C   UNL A   1      41.996  25.871  28.269  1.00  0.00     0.074 A 
ATOM     26  C   UNL A   1      40.650  25.586  27.821  1.00  0.00     0.031 C 
ATOM     27  C   UNL A   1      41.455  31.695  30.923  1.00  0.00     0.029 A 
ATOM     28  C   UNL A   1      42.647  30.859  30.839  1.00  0.00     0.049 A 
ATOM     29  H   UNL A   1      42.811  28.960  29.998  1.00  0.00     0.167 HD
ATOM     30  C   UNL A   1      43.048  25.029  28.114  1.00  0.00     0.037 A 
ATOM     31  C   UNL A   1      43.861  31.193  31.315  1.00  0.00     0.037 A 
ATOM     32  C   UNL A   1      44.392  25.321  28.548  1.00  0.00     0.049 A 
ATOM     33  C   UNL A   1      45.002  30.231  31.152  1.00  0.00     0.074 A 
ATOM     34  C   UNL A   1      45.532  24.550  28.398  1.00  0.00     0.029 A 
ATOM     35  N   UNL A   1      44.775  26.470  29.224  1.00  0.00    -0.354 N 
ATOM     36  N   UNL A   1      45.021  29.063  30.557  1.00  0.00    -0.248 NA
ATOM     37  C   UNL A   1      46.292  30.638  31.723  1.00  0.00     0.031 C 
ATOM     38  C   UNL A   1      46.592  25.205  29.034  1.00  0.00     0.029 A 
ATOM     39  C   UNL A   1      46.129  26.416  29.522  1.00  0.00     0.049 A 
ATOM     40  H   UNL A   1      44.175  27.215  29.458  1.00  0.00     0.167 HD
ATOM     41  C   UNL A   1      46.331  28.610  30.655  1.00  0.00     0.074 A 
ATOM     42  C   UNL A   1      47.077  29.638  31.352  1.00  0.00     0.031 C 
ATOM     43  C   UNL A   1      46.866  27.448  30.206  1.00  0.00     0.037 A 
BRANCH  30  44
ATOM     44  C   UNL A   1      42.787  23.696  27.469  1.00  0.00     0.057 A 
ATOM     45  C   UNL A   1      42.915  23.497  26.088  1.00  0.00     0.134 A 
ATOM     46  C   UNL A   1      42.443  22.584  28.248  1.00  0.00     0.134 A 
ATOM     47  F   UNL A   1      43.234  24.520  25.279  1.00  0.00    -0.206 F 
ATOM     48  C   UNL A   1      42.685  22.250  25.503  1.00  0.00     0.040 A 
ATOM     49  C   UNL A   1      42.239  21.325  27.680  1.00  0.00     0.040 A 
ATOM     50  F   UNL A   1      42.312  22.699  29.579  1.00  0.00    -0.206 F 
ATOM     51  C   UNL A   1      42.352  21.157  26.302  1.00  0.00     0.006 A 
ENDBRANCH  30  44
BRANCH  31  52
ATOM     52  C   UNL A   1      44.061  32.503  31.985  1.00  0.00     0.057 A 
ATOM     53  C   UNL A   1      43.848  32.654  33.361  1.00  0.00     0.134 A 
ATOM     54  C   UNL A   1      44.461  33.637  31.267  1.00  0.00     0.134 A 
ATOM     55  F   UNL A   1      43.448  31.610  34.100  1.00  0.00    -0.206 F 
ATOM     56  C   UNL A   1      44.002  33.889  33.993  1.00  0.00     0.040 A 
ATOM     57  C   UNL A   1      44.650  34.870  31.892  1.00  0.00     0.040 A 
ATOM     58  F   UNL A   1      44.691  33.556  29.948  1.00  0.00    -0.206 F 
ATOM     59  C   UNL A   1      44.410  35.000  33.258  1.00  0.00     0.006 A 
ENDBRANCH  31  52
BRANCH  43  60
ATOM     60  C   UNL A   1      48.342  27.252  30.405  1.00  0.00     0.057 A 
ATOM     61  C   UNL A   1      49.292  27.760  29.509  1.00  0.00     0.134 A 
ATOM     62  C   UNL A   1      48.819  26.554  31.522  1.00  0.00     0.134 A 
ATOM     63  F   UNL A   1      48.903  28.426  28.411  1.00  0.00    -0.206 F 
ATOM     64  C   UNL A   1      50.659  27.549  29.697  1.00  0.00     0.040 A 
ATOM     65  C   UNL A   1      50.185  26.365  31.739  1.00  0.00     0.040 A 
ATOM     66  F   UNL A   1      47.966  26.049  32.426  1.00  0.00    -0.206 F 
ATOM     67  C   UNL A   1      51.109  26.854  30.818  1.00  0.00     0.006 A 
ENDBRANCH  43  60
ENDBRANCH  17  18
ENDBRANCH  10  12
ENDBRANCH   7   8
ENDBRANCH   6   7
ENDBRANCH   5   6
ENDBRANCH   1   5
BRANCH   2  68
ATOM     68  C   UNL A   1      33.276  36.004  30.566  1.00  0.00     0.150 A 
ATOM     69  C   UNL A   1      33.477  37.205  31.221  1.00  0.00     0.145 A 
ATOM     70  N   UNL A   1      33.390  34.807  31.192  1.00  0.00    -0.205 NA
ATOM     71  N   UNL A   1      33.842  37.255  32.526  1.00  0.00    -0.257 NA
ATOM     72  C   UNL A   1      33.712  34.844  32.492  1.00  0.00     0.233 A 
ATOM     73  C   UNL A   1      33.940  36.046  33.147  1.00  0.00     0.179 A 
BRANCH  72  74
ATOM     74  O   UNL A   1      33.730  33.675  33.210  1.00  0.00    -0.477 OA
BRANCH  74  75
ATOM     75  C   UNL A   1      35.037  33.132  33.461  1.00  0.00     0.232 C 
BRANCH  75  76
ATOM     76  C   UNL A   1      35.559  32.207  32.353  1.00  0.00     0.046 C 
BRANCH  76  77
ATOM     77  C   UNL A   1      36.815  32.644  31.583  1.00  0.00     0.039 C 
BRANCH  77  78
ATOM     78  C   UNL A   1      38.071  32.906  32.389  1.00  0.00    -0.048 A 
ATOM     79  C   UNL A   1      38.521  32.008  33.366  1.00  0.00     0.004 A 
ATOM     80  C   UNL A   1      38.767  34.112  32.240  1.00  0.00     0.004 A 
ATOM     81  C   UNL A   1      39.612  32.303  34.184  1.00  0.00     0.000 A 
ATOM     82  C   UNL A   1      39.859  34.414  33.062  1.00  0.00     0.000 A 
ATOM     83  C   UNL A   1      40.276  33.514  34.039  1.00  0.00     0.000 A 
ENDBRANCH  77  78
ENDBRANCH  76  77
ENDBRANCH  75  76
ENDBRANCH  74  75
ENDBRANCH  72  74
ENDBRANCH   2  68
TORSDOF 15
ENDMDL
