MODEL 1
REMARK VINA RESULT:     -11.6      0.000      0.000
REMARK SMILES Cc1cc(F)c(C(=O)NCCCNC(=O)c2ccc(-c3c4nc(c(-c5c(F)cccc5F)c5ccc([nH]5)c(-c5c(F)cccc5F)c5nc(c(-c6c(F)cccc6F)c6ccc3[nH]6)C=C5)C=C4)cc2)cc1F
REMARK SMILES IDX 12 1 11 2 10 3 9 4 7 5 8 6 6 8 1 9 2 10 3 11 71 12 4 13
REMARK SMILES IDX 70 14 72 15 5 16 13 17 14 18 15 20 16 21 17 22 69 23 18 24
REMARK SMILES IDX 68 25 19 26 20 27 21 28 62 29 22 30 67 31 61 32 63 33 23 34
REMARK SMILES IDX 66 35 60 36 59 37 24 39 50 40 33 41 49 42 34 43 37 44 48 45
REMARK SMILES IDX 64 46 35 47 36 48 47 50 65 51 38 52 25 53 26 54 31 55 27 56
REMARK SMILES IDX 28 57 30 58 32 59 29 60 51 61 52 62 57 63 53 64 54 65 56 66
REMARK SMILES IDX 58 67 55 68 39 69 40 70 45 71 41 72 42 73 44 74 46 75 43 76
REMARK H PARENT 9 7 13 19 63 38 37 49
REMARK Flexibility Score: inf
ROOT
ATOM      1  C   UNL A   1      31.984  31.518  26.693  1.00  0.00     0.118 C 
ENDROOT
BRANCH   1   2
ATOM      2  C   UNL A   1      30.928  31.278  25.624  1.00  0.00     0.042 C 
BRANCH   2   3
ATOM      3  C   UNL A   1      31.052  29.949  24.893  1.00  0.00     0.118 C 
BRANCH   3   4
ATOM      4  N   UNL A   1      30.446  29.953  23.569  1.00  0.00    -0.352 N 
ATOM      5  C   UNL A   1      30.233  28.980  22.623  1.00  0.00     0.254 C 
ATOM      6  O   UNL A   1      29.682  29.320  21.578  1.00  0.00    -0.269 OA
ATOM      7  H   UNL A   1      30.119  30.840  23.294  1.00  0.00     0.163 HD
BRANCH   5   8
ATOM      8  C   UNL A   1      30.640  27.569  22.811  1.00  0.00     0.078 A 
ATOM      9  C   UNL A   1      31.606  23.380  23.216  1.00  0.00     0.047 C 
ATOM     10  C   UNL A   1      31.289  24.842  23.146  1.00  0.00    -0.012 A 
ATOM     11  C   UNL A   1      30.091  25.350  23.656  1.00  0.00     0.046 A 
ATOM     12  C   UNL A   1      32.169  25.724  22.519  1.00  0.00     0.127 A 
ATOM     13  C   UNL A   1      29.772  26.699  23.483  1.00  0.00     0.136 A 
ATOM     14  C   UNL A   1      31.878  27.080  22.390  1.00  0.00     0.056 A 
ATOM     15  F   UNL A   1      33.324  25.268  22.013  1.00  0.00    -0.207 F 
ATOM     16  F   UNL A   1      28.593  27.122  23.961  1.00  0.00    -0.206 F 
ENDBRANCH   5   8
ENDBRANCH   3   4
ENDBRANCH   2   3
ENDBRANCH   1   2
BRANCH   1  17
ATOM     17  N   UNL A   1      32.065  32.907  27.132  1.00  0.00    -0.352 N 
ATOM     18  C   UNL A   1      33.003  33.583  27.880  1.00  0.00     0.251 C 
ATOM     19  H   UNL A   1      31.307  33.465  26.840  1.00  0.00     0.163 HD
ATOM     20  O   UNL A   1      32.768  34.728  28.246  1.00  0.00    -0.269 OA
BRANCH  18  21
ATOM     21  C   UNL A   1      34.271  32.932  28.287  1.00  0.00     0.039 A 
ATOM     22  C   UNL A   1      34.317  31.586  28.636  1.00  0.00     0.014 A 
ATOM     23  C   UNL A   1      35.449  33.687  28.308  1.00  0.00     0.014 A 
ATOM     24  C   UNL A   1      35.460  31.062  29.229  1.00  0.00     0.010 A 
ATOM     25  C   UNL A   1      36.636  33.122  28.789  1.00  0.00     0.010 A 
ATOM     26  C   UNL A   1      36.635  31.825  29.322  1.00  0.00    -0.014 A 
BRANCH  26  27
ATOM     27  C   UNL A   1      37.827  31.246  30.001  1.00  0.00     0.031 A 
ATOM     28  C   UNL A   1      38.097  31.528  31.458  1.00  0.00     0.074 A 
ATOM     29  C   UNL A   1      38.627  30.396  29.327  1.00  0.00     0.049 A 
ATOM     30  N   UNL A   1      39.058  31.073  32.224  1.00  0.00    -0.248 NA
ATOM     31  C   UNL A   1      37.174  32.446  32.144  1.00  0.00     0.031 C 
ATOM     32  C   UNL A   1      38.466  30.022  27.921  1.00  0.00     0.029 A 
ATOM     33  N   UNL A   1      39.708  29.661  29.744  1.00  0.00    -0.354 N 
ATOM     34  C   UNL A   1      38.874  31.672  33.467  1.00  0.00     0.074 A 
ATOM     35  C   UNL A   1      37.726  32.544  33.344  1.00  0.00     0.031 C 
ATOM     36  C   UNL A   1      39.358  29.069  27.614  1.00  0.00     0.029 A 
ATOM     37  C   UNL A   1      40.203  28.820  28.777  1.00  0.00     0.049 A 
ATOM     38  H   UNL A   1      40.092  29.730  30.647  1.00  0.00     0.167 HD
ATOM     39  C   UNL A   1      39.586  31.504  34.607  1.00  0.00     0.037 A 
ATOM     40  C   UNL A   1      41.230  27.951  28.816  1.00  0.00     0.037 A 
ATOM     41  C   UNL A   1      40.710  30.613  34.740  1.00  0.00     0.049 A 
ATOM     42  C   UNL A   1      42.037  27.831  30.074  1.00  0.00     0.074 A 
ATOM     43  C   UNL A   1      41.470  30.342  35.865  1.00  0.00     0.029 A 
ATOM     44  N   UNL A   1      41.238  29.850  33.710  1.00  0.00    -0.354 N 
ATOM     45  N   UNL A   1      41.842  28.394  31.241  1.00  0.00    -0.248 NA
ATOM     46  C   UNL A   1      43.224  26.968  30.011  1.00  0.00     0.031 C 
ATOM     47  C   UNL A   1      42.488  29.450  35.502  1.00  0.00     0.029 A 
ATOM     48  C   UNL A   1      42.333  29.132  34.164  1.00  0.00     0.049 A 
ATOM     49  H   UNL A   1      40.886  29.822  32.790  1.00  0.00     0.167 HD
ATOM     50  C   UNL A   1      42.871  27.941  32.057  1.00  0.00     0.074 A 
ATOM     51  C   UNL A   1      43.674  27.041  31.254  1.00  0.00     0.031 C 
ATOM     52  C   UNL A   1      43.128  28.245  33.352  1.00  0.00     0.037 A 
BRANCH  39  53
ATOM     53  C   UNL A   1      39.187  32.333  35.795  1.00  0.00     0.057 A 
ATOM     54  C   UNL A   1      38.274  31.834  36.734  1.00  0.00     0.134 A 
ATOM     55  C   UNL A   1      39.696  33.620  36.015  1.00  0.00     0.134 A 
ATOM     56  F   UNL A   1      37.740  30.613  36.583  1.00  0.00    -0.206 F 
ATOM     57  C   UNL A   1      37.890  32.580  37.851  1.00  0.00     0.040 A 
ATOM     58  C   UNL A   1      39.340  34.365  37.142  1.00  0.00     0.040 A 
ATOM     59  F   UNL A   1      40.585  34.153  35.163  1.00  0.00    -0.206 F 
ATOM     60  C   UNL A   1      38.432  33.846  38.062  1.00  0.00     0.006 A 
ENDBRANCH  39  53
BRANCH  40  61
ATOM     61  C   UNL A   1      41.556  27.127  27.625  1.00  0.00     0.057 A 
ATOM     62  C   UNL A   1      42.362  27.617  26.592  1.00  0.00     0.134 A 
ATOM     63  C   UNL A   1      41.071  25.820  27.503  1.00  0.00     0.134 A 
ATOM     64  F   UNL A   1      42.856  28.863  26.649  1.00  0.00    -0.206 F 
ATOM     65  C   UNL A   1      42.663  26.843  25.470  1.00  0.00     0.040 A 
ATOM     66  C   UNL A   1      41.385  25.026  26.400  1.00  0.00     0.040 A 
ATOM     67  F   UNL A   1      40.312  25.289  28.472  1.00  0.00    -0.206 F 
ATOM     68  C   UNL A   1      42.179  25.541  25.376  1.00  0.00     0.006 A 
ENDBRANCH  40  61
BRANCH  52  69
ATOM     69  C   UNL A   1      44.315  27.576  33.979  1.00  0.00     0.057 A 
ATOM     70  C   UNL A   1      44.190  26.318  34.581  1.00  0.00     0.134 A 
ATOM     71  C   UNL A   1      45.581  28.176  33.986  1.00  0.00     0.134 A 
ATOM     72  F   UNL A   1      43.004  25.693  34.613  1.00  0.00    -0.206 F 
ATOM     73  C   UNL A   1      45.284  25.677  35.164  1.00  0.00     0.040 A 
ATOM     74  C   UNL A   1      46.688  27.533  34.543  1.00  0.00     0.040 A 
ATOM     75  F   UNL A   1      45.770  29.372  33.408  1.00  0.00    -0.206 F 
ATOM     76  C   UNL A   1      46.539  26.282  35.139  1.00  0.00     0.006 A 
ENDBRANCH  52  69
ENDBRANCH  26  27
ENDBRANCH  18  21
ENDBRANCH   1  17
TORSDOF 10
ENDMDL
MODEL 2
REMARK VINA RESULT:     -11.6      1.783      2.463
REMARK SMILES Cc1cc(F)c(C(=O)NCCCNC(=O)c2ccc(-c3c4nc(c(-c5c(F)cccc5F)c5ccc([nH]5)c(-c5c(F)cccc5F)c5nc(c(-c6c(F)cccc6F)c6ccc3[nH]6)C=C5)C=C4)cc2)cc1F
REMARK SMILES IDX 12 1 11 2 10 3 9 4 7 5 8 6 6 8 1 9 2 10 3 11 71 12 4 13
REMARK SMILES IDX 70 14 72 15 5 16 13 17 14 18 15 20 16 21 17 22 69 23 18 24
REMARK SMILES IDX 68 25 19 26 20 27 21 28 62 29 22 30 67 31 61 32 63 33 23 34
REMARK SMILES IDX 66 35 60 36 59 37 24 39 50 40 33 41 49 42 34 43 37 44 48 45
REMARK SMILES IDX 64 46 35 47 36 48 47 50 65 51 38 52 25 53 26 54 31 55 27 56
REMARK SMILES IDX 28 57 30 58 32 59 29 60 51 61 52 62 57 63 53 64 54 65 56 66
REMARK SMILES IDX 58 67 55 68 39 69 40 70 45 71 41 72 42 73 44 74 46 75 43 76
REMARK H PARENT 9 7 13 19 63 38 37 49
REMARK Flexibility Score: inf
ROOT
ATOM      1  C   UNL A   1      32.585  32.748  27.278  1.00  0.00     0.118 C 
ENDROOT
BRANCH   1   2
ATOM      2  C   UNL A   1      31.427  32.102  26.532  1.00  0.00     0.042 C 
BRANCH   2   3
ATOM      3  C   UNL A   1      31.636  30.638  26.175  1.00  0.00     0.118 C 
BRANCH   3   4
ATOM      4  N   UNL A   1      31.135  30.282  24.854  1.00  0.00    -0.352 N 
ATOM      5  C   UNL A   1      31.136  29.119  24.124  1.00  0.00     0.254 C 
ATOM      6  O   UNL A   1      30.620  29.154  23.009  1.00  0.00    -0.269 OA
ATOM      7  H   UNL A   1      30.704  31.034  24.388  1.00  0.00     0.163 HD
BRANCH   5   8
ATOM      8  C   UNL A   1      31.729  27.856  24.619  1.00  0.00     0.078 A 
ATOM      9  C   UNL A   1      33.617  24.321  26.227  1.00  0.00     0.047 C 
ATOM     10  C   UNL A   1      32.966  25.517  25.603  1.00  0.00    -0.012 A 
ATOM     11  C   UNL A   1      33.718  26.484  24.931  1.00  0.00     0.046 A 
ATOM     12  C   UNL A   1      31.591  25.716  25.726  1.00  0.00     0.127 A 
ATOM     13  C   UNL A   1      33.103  27.643  24.450  1.00  0.00     0.136 A 
ATOM     14  C   UNL A   1      30.965  26.844  25.203  1.00  0.00     0.056 A 
ATOM     15  F   UNL A   1      30.841  24.810  26.371  1.00  0.00    -0.207 F 
ATOM     16  F   UNL A   1      33.881  28.552  23.846  1.00  0.00    -0.206 F 
ENDBRANCH   5   8
ENDBRANCH   3   4
ENDBRANCH   2   3
ENDBRANCH   1   2
BRANCH   1  17
ATOM     17  N   UNL A   1      32.331  34.132  27.665  1.00  0.00    -0.352 N 
ATOM     18  C   UNL A   1      32.947  34.961  28.576  1.00  0.00     0.251 C 
ATOM     19  H   UNL A   1      31.580  34.551  27.186  1.00  0.00     0.163 HD
ATOM     20  O   UNL A   1      32.449  36.049  28.832  1.00  0.00    -0.269 OA
BRANCH  18  21
ATOM     21  C   UNL A   1      34.178  34.537  29.286  1.00  0.00     0.039 A 
ATOM     22  C   UNL A   1      35.438  34.710  28.723  1.00  0.00     0.014 A 
ATOM     23  C   UNL A   1      34.067  33.960  30.557  1.00  0.00     0.014 A 
ATOM     24  C   UNL A   1      36.546  34.101  29.302  1.00  0.00     0.010 A 
ATOM     25  C   UNL A   1      35.204  33.457  31.201  1.00  0.00     0.010 A 
ATOM     26  C   UNL A   1      36.444  33.458  30.546  1.00  0.00    -0.014 A 
BRANCH  26  27
ATOM     27  C   UNL A   1      37.642  32.781  31.116  1.00  0.00     0.031 A 
ATOM     28  C   UNL A   1      38.193  33.190  32.459  1.00  0.00     0.074 A 
ATOM     29  C   UNL A   1      38.188  31.738  30.461  1.00  0.00     0.049 A 
ATOM     30  N   UNL A   1      39.197  32.683  33.130  1.00  0.00    -0.248 NA
ATOM     31  C   UNL A   1      37.538  34.323  33.134  1.00  0.00     0.031 C 
ATOM     32  C   UNL A   1      37.738  31.226  29.164  1.00  0.00     0.029 A 
ATOM     33  N   UNL A   1      39.211  30.893  30.813  1.00  0.00    -0.354 N 
ATOM     34  C   UNL A   1      39.313  33.450  34.285  1.00  0.00     0.074 A 
ATOM     35  C   UNL A   1      38.295  34.474  34.210  1.00  0.00     0.031 C 
ATOM     36  C   UNL A   1      38.423  30.112  28.869  1.00  0.00     0.029 A 
ATOM     37  C   UNL A   1      39.411  29.873  29.916  1.00  0.00     0.049 A 
ATOM     38  H   UNL A   1      39.748  31.008  31.629  1.00  0.00     0.167 HD
ATOM     39  C   UNL A   1      40.179  33.308  35.318  1.00  0.00     0.037 A 
ATOM     40  C   UNL A   1      40.297  28.860  29.927  1.00  0.00     0.037 A 
ATOM     41  C   UNL A   1      41.173  32.270  35.410  1.00  0.00     0.049 A 
ATOM     42  C   UNL A   1      41.282  28.764  31.054  1.00  0.00     0.074 A 
ATOM     43  C   UNL A   1      42.068  32.018  36.435  1.00  0.00     0.029 A 
ATOM     44  N   UNL A   1      41.405  31.312  34.434  1.00  0.00    -0.354 N 
ATOM     45  N   UNL A   1      41.370  29.489  32.142  1.00  0.00    -0.248 NA
ATOM     46  C   UNL A   1      42.308  27.719  30.940  1.00  0.00     0.031 C 
ATOM     47  C   UNL A   1      42.874  30.936  36.058  1.00  0.00     0.029 A 
ATOM     48  C   UNL A   1      42.450  30.486  34.819  1.00  0.00     0.049 A 
ATOM     49  H   UNL A   1      40.901  31.230  33.592  1.00  0.00     0.167 HD
ATOM     50  C   UNL A   1      42.449  28.978  32.852  1.00  0.00     0.074 A 
ATOM     51  C   UNL A   1      42.969  27.868  32.078  1.00  0.00     0.031 C 
ATOM     52  C   UNL A   1      42.963  29.391  34.035  1.00  0.00     0.037 A 
BRANCH  39  53
ATOM     53  C   UNL A   1      40.108  34.329  36.419  1.00  0.00     0.057 A 
ATOM     54  C   UNL A   1      40.839  35.521  36.330  1.00  0.00     0.134 A 
ATOM     55  C   UNL A   1      39.326  34.139  37.566  1.00  0.00     0.134 A 
ATOM     56  F   UNL A   1      41.616  35.766  35.263  1.00  0.00    -0.206 F 
ATOM     57  C   UNL A   1      40.787  36.490  37.334  1.00  0.00     0.040 A 
ATOM     58  C   UNL A   1      39.245  35.111  38.565  1.00  0.00     0.040 A 
ATOM     59  F   UNL A   1      38.590  33.026  37.710  1.00  0.00    -0.206 F 
ATOM     60  C   UNL A   1      39.979  36.290  38.452  1.00  0.00     0.006 A 
ENDBRANCH  39  53
BRANCH  40  61
ATOM     61  C   UNL A   1      40.297  27.855  28.834  1.00  0.00     0.057 A 
ATOM     62  C   UNL A   1      41.033  28.048  27.660  1.00  0.00     0.134 A 
ATOM     63  C   UNL A   1      39.561  26.671  28.949  1.00  0.00     0.134 A 
ATOM     64  F   UNL A   1      41.757  29.165  27.488  1.00  0.00    -0.206 F 
ATOM     65  C   UNL A   1      41.027  27.106  26.631  1.00  0.00     0.040 A 
ATOM     66  C   UNL A   1      39.567  25.707  27.940  1.00  0.00     0.040 A 
ATOM     67  F   UNL A   1      38.854  26.420  30.061  1.00  0.00    -0.206 F 
ATOM     68  C   UNL A   1      40.297  25.928  26.773  1.00  0.00     0.006 A 
ENDBRANCH  40  61
BRANCH  52  69
ATOM     69  C   UNL A   1      44.134  28.620  34.568  1.00  0.00     0.057 A 
ATOM     70  C   UNL A   1      43.939  27.483  35.361  1.00  0.00     0.134 A 
ATOM     71  C   UNL A   1      45.454  29.001  34.295  1.00  0.00     0.134 A 
ATOM     72  F   UNL A   1      42.699  27.068  35.663  1.00  0.00    -0.206 F 
ATOM     73  C   UNL A   1      45.015  26.749  35.861  1.00  0.00     0.040 A 
ATOM     74  C   UNL A   1      46.539  28.261  34.768  1.00  0.00     0.040 A 
ATOM     75  F   UNL A   1      45.707  30.071  33.525  1.00  0.00    -0.206 F 
ATOM     76  C   UNL A   1      46.319  27.133  35.557  1.00  0.00     0.006 A 
ENDBRANCH  52  69
ENDBRANCH  26  27
ENDBRANCH  18  21
ENDBRANCH   1  17
TORSDOF 10
ENDMDL
MODEL 3
REMARK VINA RESULT:     -11.6      1.902      6.923
REMARK SMILES Cc1cc(F)c(C(=O)NCCCNC(=O)c2ccc(-c3c4nc(c(-c5c(F)cccc5F)c5ccc([nH]5)c(-c5c(F)cccc5F)c5nc(c(-c6c(F)cccc6F)c6ccc3[nH]6)C=C5)C=C4)cc2)cc1F
REMARK SMILES IDX 12 1 11 2 10 3 9 4 7 5 8 6 6 8 1 9 2 10 3 11 71 12 4 13
REMARK SMILES IDX 70 14 72 15 5 16 13 17 14 18 15 20 16 21 17 22 69 23 18 24
REMARK SMILES IDX 68 25 19 26 20 27 21 28 62 29 22 30 67 31 61 32 63 33 23 34
REMARK SMILES IDX 66 35 60 36 59 37 24 39 50 40 33 41 49 42 34 43 37 44 48 45
REMARK SMILES IDX 64 46 35 47 36 48 47 50 65 51 38 52 25 53 26 54 31 55 27 56
REMARK SMILES IDX 28 57 30 58 32 59 29 60 51 61 52 62 57 63 53 64 54 65 56 66
REMARK SMILES IDX 58 67 55 68 39 69 40 70 45 71 41 72 42 73 44 74 46 75 43 76
REMARK H PARENT 9 7 13 19 63 38 37 49
REMARK Flexibility Score: inf
ROOT
ATOM      1  C   UNL A   1      32.720  32.815  27.252  1.00  0.00     0.118 C 
ENDROOT
BRANCH   1   2
ATOM      2  C   UNL A   1      31.490  32.079  26.739  1.00  0.00     0.042 C 
BRANCH   2   3
ATOM      3  C   UNL A   1      31.735  30.633  26.333  1.00  0.00     0.118 C 
BRANCH   3   4
ATOM      4  N   UNL A   1      31.250  30.312  24.998  1.00  0.00    -0.352 N 
ATOM      5  C   UNL A   1      31.241  29.163  24.246  1.00  0.00     0.254 C 
ATOM      6  O   UNL A   1      30.746  29.229  23.122  1.00  0.00    -0.269 OA
ATOM      7  H   UNL A   1      30.843  31.082  24.538  1.00  0.00     0.163 HD
BRANCH   5   8
ATOM      8  C   UNL A   1      31.798  27.879  24.727  1.00  0.00     0.078 A 
ATOM      9  C   UNL A   1      33.592  24.277  26.293  1.00  0.00     0.047 C 
ATOM     10  C   UNL A   1      32.972  25.496  25.683  1.00  0.00    -0.012 A 
ATOM     11  C   UNL A   1      33.743  26.437  24.996  1.00  0.00     0.046 A 
ATOM     12  C   UNL A   1      31.607  25.744  25.836  1.00  0.00     0.127 A 
ATOM     13  C   UNL A   1      33.160  27.617  24.530  1.00  0.00     0.136 A 
ATOM     14  C   UNL A   1      31.011  26.894  25.327  1.00  0.00     0.056 A 
ATOM     15  F   UNL A   1      30.839  24.864  26.495  1.00  0.00    -0.207 F 
ATOM     16  F   UNL A   1      33.957  28.499  23.910  1.00  0.00    -0.206 F 
ENDBRANCH   5   8
ENDBRANCH   3   4
ENDBRANCH   2   3
ENDBRANCH   1   2
BRANCH   1  17
ATOM     17  N   UNL A   1      32.459  34.201  27.623  1.00  0.00    -0.352 N 
ATOM     18  C   UNL A   1      32.996  35.009  28.600  1.00  0.00     0.251 C 
ATOM     19  H   UNL A   1      31.770  34.640  27.073  1.00  0.00     0.163 HD
ATOM     20  O   UNL A   1      32.498  36.107  28.813  1.00  0.00    -0.269 OA
BRANCH  18  21
ATOM     21  C   UNL A   1      34.137  34.552  29.429  1.00  0.00     0.039 A 
ATOM     22  C   UNL A   1      35.440  34.559  28.941  1.00  0.00     0.014 A 
ATOM     23  C   UNL A   1      33.897  34.114  30.737  1.00  0.00     0.014 A 
ATOM     24  C   UNL A   1      36.449  33.917  29.648  1.00  0.00     0.010 A 
ATOM     25  C   UNL A   1      34.941  33.580  31.501  1.00  0.00     0.010 A 
ATOM     26  C   UNL A   1      36.213  33.410  30.936  1.00  0.00    -0.014 A 
BRANCH  26  27
ATOM     27  C   UNL A   1      37.306  32.690  31.647  1.00  0.00     0.031 A 
ATOM     28  C   UNL A   1      38.036  31.548  30.985  1.00  0.00     0.074 A 
ATOM     29  C   UNL A   1      37.700  33.117  32.863  1.00  0.00     0.049 A 
ATOM     30  N   UNL A   1      39.042  30.838  31.433  1.00  0.00    -0.248 NA
ATOM     31  C   UNL A   1      37.572  31.144  29.647  1.00  0.00     0.031 C 
ATOM     32  C   UNL A   1      37.093  34.223  33.607  1.00  0.00     0.029 A 
ATOM     33  N   UNL A   1      38.729  32.702  33.670  1.00  0.00    -0.354 N 
ATOM     34  C   UNL A   1      39.308  29.889  30.452  1.00  0.00     0.074 A 
ATOM     35  C   UNL A   1      38.341  30.095  29.397  1.00  0.00     0.031 C 
ATOM     36  C   UNL A   1      37.809  34.452  34.717  1.00  0.00     0.029 A 
ATOM     37  C   UNL A   1      38.877  33.463  34.803  1.00  0.00     0.049 A 
ATOM     38  H   UNL A   1      39.306  31.933  33.456  1.00  0.00     0.167 HD
ATOM     39  C   UNL A   1      40.276  28.940  30.425  1.00  0.00     0.037 A 
ATOM     40  C   UNL A   1      39.768  33.371  35.808  1.00  0.00     0.037 A 
ATOM     41  C   UNL A   1      41.259  28.752  31.461  1.00  0.00     0.049 A 
ATOM     42  C   UNL A   1      40.789  32.273  35.781  1.00  0.00     0.074 A 
ATOM     43  C   UNL A   1      42.305  27.846  31.506  1.00  0.00     0.029 A 
ATOM     44  N   UNL A   1      41.315  29.484  32.637  1.00  0.00    -0.354 N 
ATOM     45  N   UNL A   1      41.035  31.393  34.841  1.00  0.00    -0.248 NA
ATOM     46  C   UNL A   1      41.644  32.143  36.969  1.00  0.00     0.031 C 
ATOM     47  C   UNL A   1      42.965  27.999  32.733  1.00  0.00     0.029 A 
ATOM     48  C   UNL A   1      42.358  29.030  33.430  1.00  0.00     0.049 A 
ATOM     49  H   UNL A   1      40.704  30.219  32.875  1.00  0.00     0.167 HD
ATOM     50  C   UNL A   1      42.083  30.615  35.315  1.00  0.00     0.074 A 
ATOM     51  C   UNL A   1      42.438  31.143  36.618  1.00  0.00     0.031 C 
ATOM     52  C   UNL A   1      42.694  29.559  34.727  1.00  0.00     0.037 A 
BRANCH  39  53
ATOM     53  C   UNL A   1      40.291  28.007  29.248  1.00  0.00     0.057 A 
ATOM     54  C   UNL A   1      39.517  26.839  29.257  1.00  0.00     0.134 A 
ATOM     55  C   UNL A   1      41.068  28.253  28.108  1.00  0.00     0.134 A 
ATOM     56  F   UNL A   1      38.755  26.535  30.319  1.00  0.00    -0.206 F 
ATOM     57  C   UNL A   1      39.506  25.957  28.174  1.00  0.00     0.040 A 
ATOM     58  C   UNL A   1      41.047  27.393  27.008  1.00  0.00     0.040 A 
ATOM     59  F   UNL A   1      41.823  29.360  28.027  1.00  0.00    -0.206 F 
ATOM     60  C   UNL A   1      40.266  26.239  27.040  1.00  0.00     0.006 A 
ENDBRANCH  39  53
BRANCH  40  61
ATOM     61  C   UNL A   1      39.733  34.345  36.928  1.00  0.00     0.057 A 
ATOM     62  C   UNL A   1      40.383  35.581  36.847  1.00  0.00     0.134 A 
ATOM     63  C   UNL A   1      39.035  34.057  38.106  1.00  0.00     0.134 A 
ATOM     64  F   UNL A   1      41.072  35.914  35.745  1.00  0.00    -0.206 F 
ATOM     65  C   UNL A   1      40.355  36.492  37.903  1.00  0.00     0.040 A 
ATOM     66  C   UNL A   1      38.975  34.969  39.160  1.00  0.00     0.040 A 
ATOM     67  F   UNL A   1      38.373  32.898  38.233  1.00  0.00    -0.206 F 
ATOM     68  C   UNL A   1      39.643  36.189  39.062  1.00  0.00     0.006 A 
ENDBRANCH  40  61
BRANCH  52  69
ATOM     69  C   UNL A   1      43.824  28.925  35.485  1.00  0.00     0.057 A 
ATOM     70  C   UNL A   1      45.144  29.344  35.281  1.00  0.00     0.134 A 
ATOM     71  C   UNL A   1      43.604  27.903  36.416  1.00  0.00     0.134 A 
ATOM     72  F   UNL A   1      45.422  30.316  34.399  1.00  0.00    -0.206 F 
ATOM     73  C   UNL A   1      46.207  28.771  35.981  1.00  0.00     0.040 A 
ATOM     74  C   UNL A   1      44.656  27.339  37.141  1.00  0.00     0.040 A 
ATOM     75  F   UNL A   1      42.360  27.470  36.671  1.00  0.00    -0.206 F 
ATOM     76  C   UNL A   1      45.963  27.772  36.920  1.00  0.00     0.006 A 
ENDBRANCH  52  69
ENDBRANCH  26  27
ENDBRANCH  18  21
ENDBRANCH   1  17
TORSDOF 10
ENDMDL
