MODEL 1
REMARK VINA RESULT:     -12.4      0.000      0.000
REMARK SMILES Cc1n[nH]c2c1[C@@]1(C(=O)N([C@@H](C)C(=O)NCCCNC(=O)c3ccc(-c4c5nc(c(-c6c(F)cccc6F)c6ccc([nH]6)c(-c6c(F)cccc6F)c6nc(c(-c7c(F)cccc7F)c7ccc4[nH]7)C=C6)C=C5)cc3)c3ccccc31)C(C#N)=C(N)O2
REMARK SMILES IDX 17 1 16 2 15 3 13 4 14 5 11 7 12 8 10 9 1 10 2 11 3 12 6 13
REMARK SMILES IDX 4 14 5 15 7 16 87 18 8 19 81 20 82 21 85 22 9 23 76 24 80 25
REMARK SMILES IDX 77 26 79 27 78 28 83 29 84 30 86 31 18 34 19 35 20 36 21 38
REMARK SMILES IDX 22 39 23 40 75 41 24 42 74 43 25 44 26 45 27 46 68 47 28 48
REMARK SMILES IDX 73 49 67 50 69 51 29 52 72 53 66 54 65 55 30 57 56 58 39 59
REMARK SMILES IDX 55 60 40 61 43 62 54 63 70 64 41 65 42 66 53 68 71 69 44 70
REMARK SMILES IDX 31 71 32 72 37 73 33 74 34 75 36 76 38 77 35 78 57 79 58 80
REMARK SMILES IDX 63 81 59 82 60 83 62 84 64 85 61 86 45 87 46 88 51 89 47 90
REMARK SMILES IDX 48 91 50 92 52 93 49 94
REMARK H PARENT 15 6 4 17 86 32 86 33 19 37 69 56 43 67
REMARK Flexibility Score: inf
ROOT
ATOM      1  C   UNL A   1      33.406  30.770  26.680  1.00  0.00     0.042 C 
ENDROOT
BRANCH   1   2
ATOM      2  C   UNL A   1      32.090  30.005  26.491  1.00  0.00     0.117 C 
BRANCH   2   3
ATOM      3  N   UNL A   1      31.764  29.767  25.093  1.00  0.00    -0.354 N 
ATOM      4  C   UNL A   1      32.276  28.959  24.126  1.00  0.00     0.242 C 
ATOM      5  O   UNL A   1      31.680  28.990  23.039  1.00  0.00    -0.273 OA
ATOM      6  H   UNL A   1      31.005  30.309  24.777  1.00  0.00     0.163 HD
BRANCH   4   7
ATOM      7  C   UNL A   1      33.545  28.076  24.250  1.00  0.00     0.176 C 
ATOM      8  C   UNL A   1      34.646  28.328  23.228  1.00  0.00     0.042 C 
BRANCH   7   9
ATOM      9  N   UNL A   1      33.220  26.668  24.454  1.00  0.00    -0.298 N 
ATOM     10  C   UNL A   1      29.616  25.783  25.383  1.00  0.00     0.069 C 
ATOM     11  C   UNL A   1      30.181  24.597  26.076  1.00  0.00     0.068 A 
ATOM     12  N   UNL A   1      29.399  23.867  26.888  1.00  0.00    -0.177 NA
ATOM     13  C   UNL A   1      31.519  24.127  26.087  1.00  0.00     0.063 A 
ATOM     14  N   UNL A   1      30.246  22.996  27.473  1.00  0.00    -0.246 N 
ATOM     15  C   UNL A   1      31.521  23.130  27.027  1.00  0.00     0.222 A 
ATOM     16  C   UNL A   1      32.811  24.587  25.503  1.00  0.00     0.149 C 
ATOM     17  H   UNL A   1      29.970  22.335  28.148  1.00  0.00     0.193 HD
ATOM     18  O   UNL A   1      32.562  22.466  27.510  1.00  0.00    -0.422 OA
ATOM     19  C   UNL A   1      32.931  26.102  25.692  1.00  0.00     0.248 C 
ATOM     20  C   UNL A   1      32.733  24.464  24.007  1.00  0.00     0.002 A 
ATOM     21  C   UNL A   1      34.000  23.848  26.122  1.00  0.00     0.114 C 
ATOM     22  C   UNL A   1      33.831  22.862  27.052  1.00  0.00     0.208 C 
ATOM     23  O   UNL A   1      32.727  26.703  26.745  1.00  0.00    -0.273 OA
ATOM     24  C   UNL A   1      33.040  25.709  23.433  1.00  0.00     0.050 A 
ATOM     25  C   UNL A   1      32.443  23.355  23.222  1.00  0.00     0.008 A 
ATOM     26  C   UNL A   1      33.066  25.866  22.060  1.00  0.00     0.027 A 
ATOM     27  C   UNL A   1      32.444  23.514  21.837  1.00  0.00     0.001 A 
ATOM     28  C   UNL A   1      32.756  24.756  21.262  1.00  0.00     0.002 A 
BRANCH  21  29
ATOM     29  C   UNL A   1      35.428  24.159  25.705  1.00  0.00     0.102 C 
ATOM     30  N   UNL A   1      36.613  24.418  25.359  1.00  0.00    -0.193 NA
ENDBRANCH  21  29
BRANCH  22  31
ATOM     31  N   UNL A   1      34.833  22.144  27.636  1.00  0.00    -0.369 N 
ATOM     32  H   UNL A   1      34.702  21.755  28.531  1.00  0.00     0.159 HD
ATOM     33  H   UNL A   1      35.685  22.012  27.163  1.00  0.00     0.159 HD
ENDBRANCH  22  31
ENDBRANCH   7   9
ENDBRANCH   4   7
ENDBRANCH   2   3
ENDBRANCH   1   2
BRANCH   1  34
ATOM     34  C   UNL A   1      34.527  29.993  27.351  1.00  0.00     0.118 C 
BRANCH  34  35
ATOM     35  N   UNL A   1      34.805  30.441  28.697  1.00  0.00    -0.352 N 
ATOM     36  C   UNL A   1      35.903  30.441  29.511  1.00  0.00     0.251 C 
ATOM     37  H   UNL A   1      34.017  30.842  29.130  1.00  0.00     0.163 HD
ATOM     38  O   UNL A   1      35.737  30.959  30.620  1.00  0.00    -0.269 OA
BRANCH  36  39
ATOM     39  C   UNL A   1      37.246  29.868  29.191  1.00  0.00     0.039 A 
ATOM     40  C   UNL A   1      38.000  30.099  28.040  1.00  0.00     0.014 A 
ATOM     41  C   UNL A   1      37.797  29.025  30.179  1.00  0.00     0.014 A 
ATOM     42  C   UNL A   1      39.251  29.491  27.872  1.00  0.00     0.010 A 
ATOM     43  C   UNL A   1      39.051  28.432  30.026  1.00  0.00     0.010 A 
ATOM     44  C   UNL A   1      39.781  28.652  28.862  1.00  0.00    -0.014 A 
BRANCH  44  45
ATOM     45  C   UNL A   1      41.163  28.168  28.712  1.00  0.00     0.031 A 
ATOM     46  C   UNL A   1      41.306  26.874  27.984  1.00  0.00     0.074 A 
ATOM     47  C   UNL A   1      42.279  28.870  29.009  1.00  0.00     0.049 A 
ATOM     48  N   UNL A   1      41.853  25.778  28.403  1.00  0.00    -0.248 NA
ATOM     49  C   UNL A   1      40.728  26.777  26.634  1.00  0.00     0.031 C 
ATOM     50  C   UNL A   1      42.342  30.275  29.415  1.00  0.00     0.029 A 
ATOM     51  N   UNL A   1      43.603  28.512  28.907  1.00  0.00    -0.354 N 
ATOM     52  C   UNL A   1      41.870  24.919  27.304  1.00  0.00     0.074 A 
ATOM     53  C   UNL A   1      41.055  25.531  26.289  1.00  0.00     0.031 C 
ATOM     54  C   UNL A   1      43.619  30.707  29.323  1.00  0.00     0.029 A 
ATOM     55  C   UNL A   1      44.482  29.586  28.980  1.00  0.00     0.049 A 
ATOM     56  H   UNL A   1      43.901  27.581  28.791  1.00  0.00     0.167 HD
ATOM     57  C   UNL A   1      42.773  23.904  27.223  1.00  0.00     0.037 A 
ATOM     58  C   UNL A   1      45.819  29.596  28.759  1.00  0.00     0.037 A 
ATOM     59  C   UNL A   1      43.380  23.623  28.495  1.00  0.00     0.049 A 
ATOM     60  C   UNL A   1      46.357  28.229  28.930  1.00  0.00     0.074 A 
ATOM     61  C   UNL A   1      43.064  22.967  29.663  1.00  0.00     0.029 A 
ATOM     62  N   UNL A   1      44.510  24.349  28.730  1.00  0.00    -0.354 N 
ATOM     63  N   UNL A   1      46.459  27.621  30.078  1.00  0.00    -0.248 NA
ATOM     64  C   UNL A   1      46.616  27.394  27.760  1.00  0.00     0.031 C 
ATOM     65  C   UNL A   1      43.978  23.446  30.653  1.00  0.00     0.029 A 
ATOM     66  C   UNL A   1      44.820  24.382  30.060  1.00  0.00     0.049 A 
ATOM     67  H   UNL A   1      45.039  24.794  28.028  1.00  0.00     0.167 HD
ATOM     68  C   UNL A   1      46.357  26.284  29.763  1.00  0.00     0.074 A 
ATOM     69  C   UNL A   1      46.669  26.195  28.345  1.00  0.00     0.031 C 
ATOM     70  C   UNL A   1      45.666  25.434  30.574  1.00  0.00     0.037 A 
BRANCH  57  71
ATOM     71  C   UNL A   1      43.505  23.508  25.950  1.00  0.00     0.057 A 
ATOM     72  C   UNL A   1      44.472  24.313  25.314  1.00  0.00     0.134 A 
ATOM     73  C   UNL A   1      43.525  22.148  25.577  1.00  0.00     0.134 A 
ATOM     74  F   UNL A   1      44.632  25.608  25.610  1.00  0.00    -0.206 F 
ATOM     75  C   UNL A   1      45.412  23.799  24.413  1.00  0.00     0.040 A 
ATOM     76  C   UNL A   1      44.493  21.616  24.715  1.00  0.00     0.040 A 
ATOM     77  F   UNL A   1      42.659  21.275  26.114  1.00  0.00    -0.206 F 
ATOM     78  C   UNL A   1      45.450  22.442  24.140  1.00  0.00     0.006 A 
ENDBRANCH  57  71
BRANCH  58  79
ATOM     79  C   UNL A   1      46.695  30.712  28.328  1.00  0.00     0.057 A 
ATOM     80  C   UNL A   1      47.355  31.532  29.258  1.00  0.00     0.134 A 
ATOM     81  C   UNL A   1      46.716  31.155  26.996  1.00  0.00     0.134 A 
ATOM     82  F   UNL A   1      47.331  31.251  30.570  1.00  0.00    -0.206 F 
ATOM     83  C   UNL A   1      47.994  32.721  28.890  1.00  0.00     0.040 A 
ATOM     84  C   UNL A   1      47.338  32.351  26.616  1.00  0.00     0.040 A 
ATOM     85  F   UNL A   1      46.081  30.469  26.035  1.00  0.00    -0.206 F 
ATOM     86  C   UNL A   1      47.973  33.142  27.567  1.00  0.00     0.006 A 
ENDBRANCH  58  79
BRANCH  70  87
ATOM     87  C   UNL A   1      45.619  25.765  32.030  1.00  0.00     0.057 A 
ATOM     88  C   UNL A   1      44.470  26.389  32.531  1.00  0.00     0.134 A 
ATOM     89  C   UNL A   1      46.655  25.506  32.935  1.00  0.00     0.134 A 
ATOM     90  F   UNL A   1      43.459  26.710  31.708  1.00  0.00    -0.206 F 
ATOM     91  C   UNL A   1      44.340  26.713  33.881  1.00  0.00     0.040 A 
ATOM     92  C   UNL A   1      46.521  25.791  34.297  1.00  0.00     0.040 A 
ATOM     93  F   UNL A   1      47.825  24.996  32.526  1.00  0.00    -0.206 F 
ATOM     94  C   UNL A   1      45.360  26.396  34.773  1.00  0.00     0.006 A 
ENDBRANCH  70  87
ENDBRANCH  44  45
ENDBRANCH  36  39
ENDBRANCH  34  35
ENDBRANCH   1  34
TORSDOF 13
ENDMDL
MODEL 2
REMARK VINA RESULT:     -12.3      1.721      5.712
REMARK SMILES Cc1n[nH]c2c1[C@@]1(C(=O)N([C@@H](C)C(=O)NCCCNC(=O)c3ccc(-c4c5nc(c(-c6c(F)cccc6F)c6ccc([nH]6)c(-c6c(F)cccc6F)c6nc(c(-c7c(F)cccc7F)c7ccc4[nH]7)C=C6)C=C5)cc3)c3ccccc31)C(C#N)=C(N)O2
REMARK SMILES IDX 17 1 16 2 15 3 13 4 14 5 11 7 12 8 10 9 1 10 2 11 3 12 6 13
REMARK SMILES IDX 4 14 5 15 7 16 87 18 8 19 81 20 82 21 85 22 9 23 76 24 80 25
REMARK SMILES IDX 77 26 79 27 78 28 83 29 84 30 86 31 18 34 19 35 20 36 21 38
REMARK SMILES IDX 22 39 23 40 75 41 24 42 74 43 25 44 26 45 27 46 68 47 28 48
REMARK SMILES IDX 73 49 67 50 69 51 29 52 72 53 66 54 65 55 30 57 56 58 39 59
REMARK SMILES IDX 55 60 40 61 43 62 54 63 70 64 41 65 42 66 53 68 71 69 44 70
REMARK SMILES IDX 31 71 32 72 37 73 33 74 34 75 36 76 38 77 35 78 57 79 58 80
REMARK SMILES IDX 63 81 59 82 60 83 62 84 64 85 61 86 45 87 46 88 51 89 47 90
REMARK SMILES IDX 48 91 50 92 52 93 49 94
REMARK H PARENT 15 6 4 17 86 32 86 33 19 37 69 56 43 67
REMARK Flexibility Score: inf
ROOT
ATOM      1  C   UNL A   1      33.453  31.364  27.648  1.00  0.00     0.042 C 
ENDROOT
BRANCH   1   2
ATOM      2  C   UNL A   1      33.711  30.076  26.856  1.00  0.00     0.117 C 
BRANCH   2   3
ATOM      3  N   UNL A   1      32.771  29.881  25.762  1.00  0.00    -0.354 N 
ATOM      4  C   UNL A   1      32.729  29.046  24.689  1.00  0.00     0.242 C 
ATOM      5  O   UNL A   1      31.710  29.136  23.987  1.00  0.00    -0.273 OA
ATOM      6  H   UNL A   1      31.995  30.485  25.808  1.00  0.00     0.163 HD
BRANCH   4   7
ATOM      7  C   UNL A   1      33.846  28.063  24.250  1.00  0.00     0.176 C 
ATOM      8  C   UNL A   1      34.518  28.357  22.915  1.00  0.00     0.042 C 
BRANCH   7   9
ATOM      9  N   UNL A   1      33.460  26.668  24.438  1.00  0.00    -0.298 N 
ATOM     10  C   UNL A   1      29.819  25.930  25.354  1.00  0.00     0.069 C 
ATOM     11  C   UNL A   1      30.331  24.714  26.034  1.00  0.00     0.068 A 
ATOM     12  N   UNL A   1      29.517  24.009  26.838  1.00  0.00    -0.177 NA
ATOM     13  C   UNL A   1      31.648  24.186  26.042  1.00  0.00     0.063 A 
ATOM     14  N   UNL A   1      30.326  23.096  27.414  1.00  0.00    -0.246 N 
ATOM     15  C   UNL A   1      31.605  23.180  26.971  1.00  0.00     0.222 A 
ATOM     16  C   UNL A   1      32.960  24.596  25.464  1.00  0.00     0.149 C 
ATOM     17  H   UNL A   1      30.019  22.441  28.082  1.00  0.00     0.193 HD
ATOM     18  O   UNL A   1      32.616  22.467  27.448  1.00  0.00    -0.422 OA
ATOM     19  C   UNL A   1      33.145  26.103  25.670  1.00  0.00     0.248 C 
ATOM     20  C   UNL A   1      32.879  24.493  23.967  1.00  0.00     0.002 A 
ATOM     21  C   UNL A   1      34.115  23.799  26.077  1.00  0.00     0.114 C 
ATOM     22  C   UNL A   1      33.901  22.812  26.996  1.00  0.00     0.208 C 
ATOM     23  O   UNL A   1      32.965  26.701  26.729  1.00  0.00    -0.273 OA
ATOM     24  C   UNL A   1      33.241  25.729  23.407  1.00  0.00     0.050 A 
ATOM     25  C   UNL A   1      32.543  23.405  23.170  1.00  0.00     0.008 A 
ATOM     26  C   UNL A   1      33.275  25.899  22.036  1.00  0.00     0.027 A 
ATOM     27  C   UNL A   1      32.553  23.579  21.787  1.00  0.00     0.001 A 
ATOM     28  C   UNL A   1      32.919  24.812  21.226  1.00  0.00     0.002 A 
BRANCH  21  29
ATOM     29  C   UNL A   1      35.556  24.053  25.664  1.00  0.00     0.102 C 
ATOM     30  N   UNL A   1      36.751  24.262  25.322  1.00  0.00    -0.193 NA
ENDBRANCH  21  29
BRANCH  22  31
ATOM     31  N   UNL A   1      34.870  22.045  27.573  1.00  0.00    -0.369 N 
ATOM     32  H   UNL A   1      34.646  21.454  28.328  1.00  0.00     0.159 HD
ATOM     33  H   UNL A   1      35.794  22.079  27.234  1.00  0.00     0.159 HD
ENDBRANCH  22  31
ENDBRANCH   7   9
ENDBRANCH   4   7
ENDBRANCH   2   3
ENDBRANCH   1   2
BRANCH   1  34
ATOM     34  C   UNL A   1      34.687  32.033  28.232  1.00  0.00     0.118 C 
BRANCH  34  35
ATOM     35  N   UNL A   1      34.644  32.149  29.673  1.00  0.00    -0.352 N 
ATOM     36  C   UNL A   1      35.477  31.800  30.699  1.00  0.00     0.251 C 
ATOM     37  H   UNL A   1      33.820  32.584  29.990  1.00  0.00     0.163 HD
ATOM     38  O   UNL A   1      35.081  32.107  31.827  1.00  0.00    -0.269 OA
BRANCH  36  39
ATOM     39  C   UNL A   1      36.783  31.082  30.577  1.00  0.00     0.039 A 
ATOM     40  C   UNL A   1      38.052  31.659  30.522  1.00  0.00     0.014 A 
ATOM     41  C   UNL A   1      36.699  29.674  30.536  1.00  0.00     0.014 A 
ATOM     42  C   UNL A   1      39.196  30.858  30.407  1.00  0.00     0.010 A 
ATOM     43  C   UNL A   1      37.836  28.871  30.440  1.00  0.00     0.010 A 
ATOM     44  C   UNL A   1      39.094  29.462  30.362  1.00  0.00    -0.014 A 
BRANCH  44  45
ATOM     45  C   UNL A   1      40.328  28.661  30.403  1.00  0.00     0.031 A 
ATOM     46  C   UNL A   1      40.985  28.575  31.739  1.00  0.00     0.074 A 
ATOM     47  C   UNL A   1      40.790  27.876  29.403  1.00  0.00     0.049 A 
ATOM     48  N   UNL A   1      42.191  28.920  32.060  1.00  0.00    -0.248 NA
ATOM     49  C   UNL A   1      40.182  28.082  32.870  1.00  0.00     0.031 C 
ATOM     50  C   UNL A   1      40.104  27.571  28.147  1.00  0.00     0.029 A 
ATOM     51  N   UNL A   1      41.920  27.095  29.342  1.00  0.00    -0.354 N 
ATOM     52  C   UNL A   1      42.366  28.503  33.379  1.00  0.00     0.074 A 
ATOM     53  C   UNL A   1      41.068  28.117  33.866  1.00  0.00     0.031 C 
ATOM     54  C   UNL A   1      40.717  26.528  27.547  1.00  0.00     0.029 A 
ATOM     55  C   UNL A   1      41.910  26.172  28.303  1.00  0.00     0.049 A 
ATOM     56  H   UNL A   1      42.668  27.181  29.976  1.00  0.00     0.167 HD
ATOM     57  C   UNL A   1      43.608  28.256  33.877  1.00  0.00     0.037 A 
ATOM     58  C   UNL A   1      42.783  25.164  28.063  1.00  0.00     0.037 A 
ATOM     59  C   UNL A   1      44.639  28.823  33.050  1.00  0.00     0.049 A 
ATOM     60  C   UNL A   1      44.066  25.453  28.739  1.00  0.00     0.074 A 
ATOM     61  C   UNL A   1      45.208  30.053  32.813  1.00  0.00     0.029 A 
ATOM     62  N   UNL A   1      45.075  27.978  32.072  1.00  0.00    -0.354 N 
ATOM     63  N   UNL A   1      44.897  26.384  28.364  1.00  0.00    -0.248 NA
ATOM     64  C   UNL A   1      44.375  24.824  30.020  1.00  0.00     0.031 C 
ATOM     65  C   UNL A   1      45.894  29.946  31.564  1.00  0.00     0.029 A 
ATOM     66  C   UNL A   1      45.720  28.654  31.075  1.00  0.00     0.049 A 
ATOM     67  H   UNL A   1      44.944  27.003  32.083  1.00  0.00     0.167 HD
ATOM     68  C   UNL A   1      45.544  26.748  29.525  1.00  0.00     0.074 A 
ATOM     69  C   UNL A   1      45.348  25.636  30.442  1.00  0.00     0.031 C 
ATOM     70  C   UNL A   1      45.846  28.055  29.767  1.00  0.00     0.037 A 
BRANCH  57  71
ATOM     71  C   UNL A   1      43.950  27.090  34.790  1.00  0.00     0.057 A 
ATOM     72  C   UNL A   1      43.989  25.745  34.368  1.00  0.00     0.134 A 
ATOM     73  C   UNL A   1      44.622  27.352  36.001  1.00  0.00     0.134 A 
ATOM     74  F   UNL A   1      43.462  25.343  33.206  1.00  0.00    -0.206 F 
ATOM     75  C   UNL A   1      44.679  24.750  35.071  1.00  0.00     0.040 A 
ATOM     76  C   UNL A   1      45.356  26.375  36.685  1.00  0.00     0.040 A 
ATOM     77  F   UNL A   1      44.663  28.594  36.508  1.00  0.00    -0.206 F 
ATOM     78  C   UNL A   1      45.397  25.070  36.212  1.00  0.00     0.006 A 
ENDBRANCH  57  71
BRANCH  58  79
ATOM     79  C   UNL A   1      42.575  23.891  27.333  1.00  0.00     0.057 A 
ATOM     80  C   UNL A   1      42.289  22.693  28.007  1.00  0.00     0.134 A 
ATOM     81  C   UNL A   1      42.892  23.767  25.970  1.00  0.00     0.134 A 
ATOM     82  F   UNL A   1      42.053  22.680  29.328  1.00  0.00    -0.206 F 
ATOM     83  C   UNL A   1      42.319  21.447  27.371  1.00  0.00     0.040 A 
ATOM     84  C   UNL A   1      42.941  22.525  25.325  1.00  0.00     0.040 A 
ATOM     85  F   UNL A   1      43.223  24.844  25.243  1.00  0.00    -0.206 F 
ATOM     86  C   UNL A   1      42.661  21.359  26.028  1.00  0.00     0.006 A 
ENDBRANCH  58  79
BRANCH  70  87
ATOM     87  C   UNL A   1      46.094  28.930  28.582  1.00  0.00     0.057 A 
ATOM     88  C   UNL A   1      45.022  29.669  28.068  1.00  0.00     0.134 A 
ATOM     89  C   UNL A   1      47.329  29.055  27.934  1.00  0.00     0.134 A 
ATOM     90  F   UNL A   1      43.799  29.558  28.611  1.00  0.00    -0.206 F 
ATOM     91  C   UNL A   1      45.176  30.523  26.976  1.00  0.00     0.040 A 
ATOM     92  C   UNL A   1      47.505  29.936  26.864  1.00  0.00     0.040 A 
ATOM     93  F   UNL A   1      48.385  28.316  28.301  1.00  0.00    -0.206 F 
ATOM     94  C   UNL A   1      46.426  30.674  26.383  1.00  0.00     0.006 A 
ENDBRANCH  70  87
ENDBRANCH  44  45
ENDBRANCH  36  39
ENDBRANCH  34  35
ENDBRANCH   1  34
TORSDOF 13
ENDMDL
MODEL 3
REMARK VINA RESULT:     -12.2      1.887      3.206
REMARK SMILES Cc1n[nH]c2c1[C@@]1(C(=O)N([C@@H](C)C(=O)NCCCNC(=O)c3ccc(-c4c5nc(c(-c6c(F)cccc6F)c6ccc([nH]6)c(-c6c(F)cccc6F)c6nc(c(-c7c(F)cccc7F)c7ccc4[nH]7)C=C6)C=C5)cc3)c3ccccc31)C(C#N)=C(N)O2
REMARK SMILES IDX 17 1 16 2 15 3 13 4 14 5 11 7 12 8 10 9 1 10 2 11 3 12 6 13
REMARK SMILES IDX 4 14 5 15 7 16 87 18 8 19 81 20 82 21 85 22 9 23 76 24 80 25
REMARK SMILES IDX 77 26 79 27 78 28 83 29 84 30 86 31 18 34 19 35 20 36 21 38
REMARK SMILES IDX 22 39 23 40 75 41 24 42 74 43 25 44 26 45 27 46 68 47 28 48
REMARK SMILES IDX 73 49 67 50 69 51 29 52 72 53 66 54 65 55 30 57 56 58 39 59
REMARK SMILES IDX 55 60 40 61 43 62 54 63 70 64 41 65 42 66 53 68 71 69 44 70
REMARK SMILES IDX 31 71 32 72 37 73 33 74 34 75 36 76 38 77 35 78 57 79 58 80
REMARK SMILES IDX 63 81 59 82 60 83 62 84 64 85 61 86 45 87 46 88 51 89 47 90
REMARK SMILES IDX 48 91 50 92 52 93 49 94
REMARK H PARENT 15 6 4 17 86 32 86 33 19 37 69 56 43 67
REMARK Flexibility Score: inf
ROOT
ATOM      1  C   UNL A   1      33.031  28.044  26.213  1.00  0.00     0.042 C 
ENDROOT
BRANCH   1   2
ATOM      2  C   UNL A   1      32.805  26.660  25.590  1.00  0.00     0.117 C 
BRANCH   2   3
ATOM      3  N   UNL A   1      33.418  26.518  24.278  1.00  0.00    -0.354 N 
ATOM      4  C   UNL A   1      33.363  25.568  23.306  1.00  0.00     0.242 C 
ATOM      5  O   UNL A   1      33.996  25.830  22.272  1.00  0.00    -0.273 OA
ATOM      6  H   UNL A   1      34.001  27.275  24.041  1.00  0.00     0.163 HD
BRANCH   4   7
ATOM      7  C   UNL A   1      32.646  24.196  23.408  1.00  0.00     0.176 C 
ATOM      8  C   UNL A   1      31.140  24.237  23.632  1.00  0.00     0.042 C 
BRANCH   7   9
ATOM      9  N   UNL A   1      33.361  23.261  24.270  1.00  0.00    -0.298 N 
ATOM     10  C   UNL A   1      36.834  24.277  25.514  1.00  0.00     0.069 C 
ATOM     11  C   UNL A   1      37.138  22.825  25.574  1.00  0.00     0.068 A 
ATOM     12  N   UNL A   1      38.404  22.419  25.763  1.00  0.00    -0.177 NA
ATOM     13  C   UNL A   1      36.267  21.724  25.369  1.00  0.00     0.063 A 
ATOM     14  N   UNL A   1      38.354  21.082  25.596  1.00  0.00    -0.246 N 
ATOM     15  C   UNL A   1      37.097  20.634  25.348  1.00  0.00     0.222 A 
ATOM     16  C   UNL A   1      34.831  21.559  25.006  1.00  0.00     0.149 C 
ATOM     17  H   UNL A   1      39.143  20.495  25.648  1.00  0.00     0.193 HD
ATOM     18  O   UNL A   1      36.789  19.379  25.050  1.00  0.00    -0.422 OA
ATOM     19  C   UNL A   1      34.486  22.541  23.881  1.00  0.00     0.248 C 
ATOM     20  C   UNL A   1      33.987  22.073  26.139  1.00  0.00     0.002 A 
ATOM     21  C   UNL A   1      34.516  20.115  24.607  1.00  0.00     0.114 C 
ATOM     22  C   UNL A   1      35.464  19.134  24.649  1.00  0.00     0.208 C 
ATOM     23  O   UNL A   1      35.146  22.705  22.857  1.00  0.00    -0.273 OA
ATOM     24  C   UNL A   1      33.095  23.036  25.639  1.00  0.00     0.050 A 
ATOM     25  C   UNL A   1      33.986  21.710  27.480  1.00  0.00     0.008 A 
ATOM     26  C   UNL A   1      32.182  23.652  26.473  1.00  0.00     0.027 A 
ATOM     27  C   UNL A   1      33.083  22.346  28.330  1.00  0.00     0.001 A 
ATOM     28  C   UNL A   1      32.188  23.305  27.831  1.00  0.00     0.002 A 
BRANCH  21  29
ATOM     29  C   UNL A   1      33.119  19.702  24.173  1.00  0.00     0.102 C 
ATOM     30  N   UNL A   1      31.961  19.358  23.813  1.00  0.00    -0.193 NA
ENDBRANCH  21  29
BRANCH  22  31
ATOM     31  N   UNL A   1      35.261  17.823  24.331  1.00  0.00    -0.369 N 
ATOM     32  H   UNL A   1      35.106  17.161  25.043  1.00  0.00     0.159 HD
ATOM     33  H   UNL A   1      35.269  17.537  23.389  1.00  0.00     0.159 HD
ENDBRANCH  22  31
ENDBRANCH   7   9
ENDBRANCH   4   7
ENDBRANCH   2   3
ENDBRANCH   1   2
BRANCH   1  34
ATOM     34  C   UNL A   1      34.484  28.460  26.379  1.00  0.00     0.118 C 
BRANCH  34  35
ATOM     35  N   UNL A   1      34.683  29.426  27.435  1.00  0.00    -0.352 N 
ATOM     36  C   UNL A   1      35.760  29.877  28.146  1.00  0.00     0.251 C 
ATOM     37  H   UNL A   1      33.844  29.864  27.707  1.00  0.00     0.163 HD
ATOM     38  O   UNL A   1      35.513  30.761  28.973  1.00  0.00    -0.269 OA
BRANCH  36  39
ATOM     39  C   UNL A   1      37.170  29.394  28.024  1.00  0.00     0.039 A 
ATOM     40  C   UNL A   1      38.081  29.719  27.019  1.00  0.00     0.014 A 
ATOM     41  C   UNL A   1      37.608  28.538  29.057  1.00  0.00     0.014 A 
ATOM     42  C   UNL A   1      39.377  29.188  27.032  1.00  0.00     0.010 A 
ATOM     43  C   UNL A   1      38.904  28.022  29.085  1.00  0.00     0.010 A 
ATOM     44  C   UNL A   1      39.795  28.335  28.062  1.00  0.00    -0.014 A 
BRANCH  44  45
ATOM     45  C   UNL A   1      41.209  27.934  28.119  1.00  0.00     0.031 A 
ATOM     46  C   UNL A   1      41.528  26.636  27.457  1.00  0.00     0.074 A 
ATOM     47  C   UNL A   1      42.231  28.712  28.544  1.00  0.00     0.049 A 
ATOM     48  N   UNL A   1      42.075  25.586  27.981  1.00  0.00    -0.248 NA
ATOM     49  C   UNL A   1      41.150  26.473  26.045  1.00  0.00     0.031 C 
ATOM     50  C   UNL A   1      42.155  30.127  28.910  1.00  0.00     0.029 A 
ATOM     51  N   UNL A   1      43.575  28.435  28.635  1.00  0.00    -0.354 N 
ATOM     52  C   UNL A   1      42.295  24.705  26.922  1.00  0.00     0.074 A 
ATOM     53  C   UNL A   1      41.593  25.242  25.787  1.00  0.00     0.031 C 
ATOM     54  C   UNL A   1      43.404  30.635  28.981  1.00  0.00     0.029 A 
ATOM     55  C   UNL A   1      44.371  29.563  28.795  1.00  0.00     0.049 A 
ATOM     56  H   UNL A   1      43.940  27.522  28.590  1.00  0.00     0.167 HD
ATOM     57  C   UNL A   1      43.258  23.747  26.997  1.00  0.00     0.037 A 
ATOM     58  C   UNL A   1      45.723  29.651  28.759  1.00  0.00     0.037 A 
ATOM     59  C   UNL A   1      43.698  23.533  28.349  1.00  0.00     0.049 A 
ATOM     60  C   UNL A   1      46.311  28.324  29.044  1.00  0.00     0.074 A 
ATOM     61  C   UNL A   1      43.262  22.886  29.482  1.00  0.00     0.029 A 
ATOM     62  N   UNL A   1      44.740  24.333  28.714  1.00  0.00    -0.354 N 
ATOM     63  N   UNL A   1      46.288  27.750  30.214  1.00  0.00    -0.248 NA
ATOM     64  C   UNL A   1      46.778  27.481  27.948  1.00  0.00     0.031 C 
ATOM     65  C   UNL A   1      44.000  23.443  30.573  1.00  0.00     0.029 A 
ATOM     66  C   UNL A   1      44.860  24.415  30.072  1.00  0.00     0.049 A 
ATOM     67  H   UNL A   1      45.334  24.794  28.077  1.00  0.00     0.167 HD
ATOM     68  C   UNL A   1      46.309  26.402  29.929  1.00  0.00     0.074 A 
ATOM     69  C   UNL A   1      46.820  26.301  28.571  1.00  0.00     0.031 C 
ATOM     70  C   UNL A   1      45.563  25.529  30.664  1.00  0.00     0.037 A 
BRANCH  57  71
ATOM     71  C   UNL A   1      44.181  23.368  25.850  1.00  0.00     0.057 A 
ATOM     72  C   UNL A   1      45.185  24.214  25.335  1.00  0.00     0.134 A 
ATOM     73  C   UNL A   1      44.324  22.005  25.517  1.00  0.00     0.134 A 
ATOM     74  F   UNL A   1      45.235  25.520  25.617  1.00  0.00    -0.206 F 
ATOM     75  C   UNL A   1      46.269  23.736  24.587  1.00  0.00     0.040 A 
ATOM     76  C   UNL A   1      45.429  21.511  24.813  1.00  0.00     0.040 A 
ATOM     77  F   UNL A   1      43.437  21.096  25.951  1.00  0.00    -0.206 F 
ATOM     78  C   UNL A   1      46.414  22.377  24.356  1.00  0.00     0.006 A 
ENDBRANCH  57  71
BRANCH  58  79
ATOM     79  C   UNL A   1      46.583  30.809  28.418  1.00  0.00     0.057 A 
ATOM     80  C   UNL A   1      47.066  31.684  29.404  1.00  0.00     0.134 A 
ATOM     81  C   UNL A   1      46.755  31.229  27.089  1.00  0.00     0.134 A 
ATOM     82  F   UNL A   1      46.886  31.426  30.708  1.00  0.00    -0.206 F 
ATOM     83  C   UNL A   1      47.680  32.902  29.093  1.00  0.00     0.040 A 
ATOM     84  C   UNL A   1      47.352  32.453  26.763  1.00  0.00     0.040 A 
ATOM     85  F   UNL A   1      46.292  30.488  26.071  1.00  0.00    -0.206 F 
ATOM     86  C   UNL A   1      47.810  33.298  27.768  1.00  0.00     0.006 A 
ENDBRANCH  58  79
BRANCH  70  87
ATOM     87  C   UNL A   1      45.296  25.890  32.089  1.00  0.00     0.057 A 
ATOM     88  C   UNL A   1      44.110  26.573  32.388  1.00  0.00     0.134 A 
ATOM     89  C   UNL A   1      46.157  25.604  33.154  1.00  0.00     0.134 A 
ATOM     90  F   UNL A   1      43.262  26.922  31.407  1.00  0.00    -0.206 F 
ATOM     91  C   UNL A   1      43.778  26.928  33.695  1.00  0.00     0.040 A 
ATOM     92  C   UNL A   1      45.817  25.920  34.472  1.00  0.00     0.040 A 
ATOM     93  F   UNL A   1      47.354  25.036  32.947  1.00  0.00    -0.206 F 
ATOM     94  C   UNL A   1      44.623  26.583  34.745  1.00  0.00     0.006 A 
ENDBRANCH  70  87
ENDBRANCH  44  45
ENDBRANCH  36  39
ENDBRANCH  34  35
ENDBRANCH   1  34
TORSDOF 13
ENDMDL
