MODEL 1
REMARK VINA RESULT:      -8.6      0.000      0.000
REMARK SMILES CCCC1(CCC)SC[C@@H]2C(=O)N(Cc3ccc(C(=O)NCCCNC(=O)c4ccc(-c5c6nc(c(-c7c(F)cccc7F)c7ccc([nH]7)c(-c7c(F)cccc7F)c7nc(c(-c8c(F)cccc8F)c8ccc5[nH]8)C=C7)C=C6)cc4)cc3)CC(=O)N21
REMARK SMILES IDX 22 1 21 2 19 3 20 4 18 6 15 7 16 8 83 9 17 10 82 11 14 12
REMARK SMILES IDX 13 13 4 14 8 15 87 16 9 17 10 18 85 19 11 20 84 21 86 22
REMARK SMILES IDX 12 23 3 24 2 25 1 26 5 27 6 28 7 29 23 30 24 31 25 32 26 33
REMARK SMILES IDX 27 35 28 36 29 37 81 38 30 39 80 40 31 41 32 42 33 43 74 44
REMARK SMILES IDX 34 45 79 46 73 47 75 48 35 49 78 50 72 51 71 52 36 54 62 55
REMARK SMILES IDX 45 56 61 57 46 58 49 59 60 60 76 61 47 62 48 63 59 65 77 66
REMARK SMILES IDX 50 67 37 68 38 69 43 70 39 71 40 72 42 73 44 74 41 75 63 76
REMARK SMILES IDX 64 77 69 78 65 79 66 80 68 81 70 82 67 83 51 84 52 85 57 86
REMARK SMILES IDX 53 87 54 88 56 89 58 90 55 91
REMARK H PARENT 21 5 25 34 75 53 49 64
REMARK Flexibility Score: inf
ROOT
ATOM      1  C   UNL A   1      42.843  20.877  25.905  1.00  0.00     0.118 C 
ENDROOT
BRANCH   1   2
ATOM      2  N   UNL A   1      42.829  22.228  25.365  1.00  0.00    -0.352 N 
ATOM      3  C   UNL A   1      43.192  23.422  25.942  1.00  0.00     0.251 C 
ATOM      4  O   UNL A   1      43.253  24.430  25.244  1.00  0.00    -0.269 OA
ATOM      5  H   UNL A   1      42.507  22.299  24.437  1.00  0.00     0.163 HD
BRANCH   3   6
ATOM      6  C   UNL A   1      43.555  23.504  27.376  1.00  0.00     0.039 A 
ATOM      7  C   UNL A   1      44.335  23.628  30.075  1.00  0.00    -0.029 A 
ATOM      8  C   UNL A   1      45.278  23.827  29.058  1.00  0.00     0.006 A 
ATOM      9  C   UNL A   1      42.995  23.417  29.723  1.00  0.00     0.006 A 
ATOM     10  C   UNL A   1      44.888  23.772  27.715  1.00  0.00     0.014 A 
ATOM     11  C   UNL A   1      42.605  23.375  28.386  1.00  0.00     0.014 A 
BRANCH   7  12
ATOM     12  C   UNL A   1      44.722  23.655  31.533  1.00  0.00     0.155 C 
BRANCH  12  13
ATOM     13  N   UNL A   1      44.385  24.895  32.223  1.00  0.00    -0.327 N 
ATOM     14  C   UNL A   1      42.636  28.351  34.187  1.00  0.00     0.090 C 
ATOM     15  S   UNL A   1      43.008  27.812  36.017  1.00  0.00    -0.131 SA
ATOM     16  N   UNL A   1      43.359  27.297  33.426  1.00  0.00    -0.314 N 
ATOM     17  C   UNL A   1      44.148  26.500  35.558  1.00  0.00     0.107 C 
ATOM     18  C   UNL A   1      43.617  26.084  34.205  1.00  0.00     0.186 C 
ATOM     19  C   UNL A   1      43.346  27.197  32.042  1.00  0.00     0.244 C 
ATOM     20  C   UNL A   1      44.497  24.984  33.603  1.00  0.00     0.247 C 
ATOM     21  C   UNL A   1      44.267  26.119  31.451  1.00  0.00     0.220 C 
ATOM     22  O   UNL A   1      42.824  28.013  31.303  1.00  0.00    -0.273 OA
ATOM     23  O   UNL A   1      44.988  24.102  34.304  1.00  0.00    -0.272 OA
BRANCH  14  24
ATOM     24  C   UNL A   1      41.084  28.193  34.115  1.00  0.00     0.040 C 
BRANCH  24  25
ATOM     25  C   UNL A   1      40.222  29.049  33.187  1.00  0.00    -0.000 C 
ATOM     26  C   UNL A   1      39.254  28.296  32.294  1.00  0.00     0.004 C 
ENDBRANCH  24  25
ENDBRANCH  14  24
BRANCH  14  27
ATOM     27  C   UNL A   1      43.269  29.775  34.204  1.00  0.00     0.040 C 
BRANCH  27  28
ATOM     28  C   UNL A   1      43.785  30.475  32.940  1.00  0.00    -0.000 C 
ATOM     29  C   UNL A   1      45.298  30.605  32.852  1.00  0.00     0.004 C 
ENDBRANCH  27  28
ENDBRANCH  14  27
ENDBRANCH  12  13
ENDBRANCH   7  12
ENDBRANCH   3   6
ENDBRANCH   1   2
BRANCH   1  30
ATOM     30  C   UNL A   1      41.434  20.332  26.131  1.00  0.00     0.042 C 
BRANCH  30  31
ATOM     31  C   UNL A   1      40.522  21.275  26.908  1.00  0.00     0.118 C 
BRANCH  31  32
ATOM     32  N   UNL A   1      39.294  21.576  26.190  1.00  0.00    -0.352 N 
ATOM     33  C   UNL A   1      38.579  22.746  26.120  1.00  0.00     0.251 C 
ATOM     34  H   UNL A   1      38.919  20.826  25.674  1.00  0.00     0.163 HD
ATOM     35  O   UNL A   1      37.465  22.741  25.602  1.00  0.00    -0.269 OA
BRANCH  33  36
ATOM     36  C   UNL A   1      39.122  24.008  26.674  1.00  0.00     0.039 A 
ATOM     37  C   UNL A   1      39.860  24.845  25.831  1.00  0.00     0.014 A 
ATOM     38  C   UNL A   1      38.961  24.348  28.020  1.00  0.00     0.014 A 
ATOM     39  C   UNL A   1      40.394  26.040  26.322  1.00  0.00     0.010 A 
ATOM     40  C   UNL A   1      39.441  25.568  28.495  1.00  0.00     0.010 A 
ATOM     41  C   UNL A   1      40.169  26.423  27.653  1.00  0.00    -0.014 A 
BRANCH  41  42
ATOM     42  C   UNL A   1      40.706  27.700  28.188  1.00  0.00     0.031 A 
ATOM     43  C   UNL A   1      39.766  28.766  28.682  1.00  0.00     0.074 A 
ATOM     44  C   UNL A   1      42.034  27.925  28.182  1.00  0.00     0.049 A 
ATOM     45  N   UNL A   1      40.034  29.978  29.099  1.00  0.00    -0.248 NA
ATOM     46  C   UNL A   1      38.332  28.433  28.688  1.00  0.00     0.031 C 
ATOM     47  C   UNL A   1      43.049  26.987  27.699  1.00  0.00     0.029 A 
ATOM     48  N   UNL A   1      42.757  29.022  28.581  1.00  0.00    -0.354 N 
ATOM     49  C   UNL A   1      38.807  30.555  29.399  1.00  0.00     0.074 A 
ATOM     50  C   UNL A   1      37.789  29.577  29.079  1.00  0.00     0.031 C 
ATOM     51  C   UNL A   1      44.263  27.544  27.842  1.00  0.00     0.029 A 
ATOM     52  C   UNL A   1      44.111  28.887  28.393  1.00  0.00     0.049 A 
ATOM     53  H   UNL A   1      42.344  29.829  28.965  1.00  0.00     0.167 HD
ATOM     54  C   UNL A   1      38.550  31.782  29.913  1.00  0.00     0.037 A 
ATOM     55  C   UNL A   1      45.115  29.752  28.630  1.00  0.00     0.037 A 
ATOM     56  C   UNL A   1      39.562  32.745  30.261  1.00  0.00     0.049 A 
ATOM     57  C   UNL A   1      44.803  31.105  29.205  1.00  0.00     0.074 A 
ATOM     58  C   UNL A   1      39.401  34.000  30.825  1.00  0.00     0.029 A 
ATOM     59  N   UNL A   1      40.923  32.557  30.085  1.00  0.00    -0.354 N 
ATOM     60  N   UNL A   1      43.640  31.621  29.522  1.00  0.00    -0.248 NA
ATOM     61  C   UNL A   1      45.944  31.995  29.463  1.00  0.00     0.031 C 
ATOM     62  C   UNL A   1      40.666  34.580  30.966  1.00  0.00     0.029 A 
ATOM     63  C   UNL A   1      41.614  33.674  30.524  1.00  0.00     0.049 A 
ATOM     64  H   UNL A   1      41.338  31.748  29.706  1.00  0.00     0.167 HD
ATOM     65  C   UNL A   1      43.912  32.880  30.039  1.00  0.00     0.074 A 
ATOM     66  C   UNL A   1      45.349  33.047  30.006  1.00  0.00     0.031 C 
ATOM     67  C   UNL A   1      43.046  33.816  30.499  1.00  0.00     0.037 A 
BRANCH  54  68
ATOM     68  C   UNL A   1      37.115  32.150  30.143  1.00  0.00     0.057 A 
ATOM     69  C   UNL A   1      36.476  31.888  31.362  1.00  0.00     0.134 A 
ATOM     70  C   UNL A   1      36.378  32.816  29.155  1.00  0.00     0.134 A 
ATOM     71  F   UNL A   1      37.124  31.242  32.343  1.00  0.00    -0.206 F 
ATOM     72  C   UNL A   1      35.148  32.258  31.584  1.00  0.00     0.040 A 
ATOM     73  C   UNL A   1      35.057  33.211  29.374  1.00  0.00     0.040 A 
ATOM     74  F   UNL A   1      36.933  33.102  27.968  1.00  0.00    -0.206 F 
ATOM     75  C   UNL A   1      34.438  32.928  30.590  1.00  0.00     0.006 A 
ENDBRANCH  54  68
BRANCH  55  76
ATOM     76  C   UNL A   1      46.517  29.365  28.337  1.00  0.00     0.057 A 
ATOM     77  C   UNL A   1      47.312  28.746  29.309  1.00  0.00     0.134 A 
ATOM     78  C   UNL A   1      47.102  29.622  27.092  1.00  0.00     0.134 A 
ATOM     79  F   UNL A   1      46.812  28.493  30.528  1.00  0.00    -0.206 F 
ATOM     80  C   UNL A   1      48.645  28.416  29.062  1.00  0.00     0.040 A 
ATOM     81  C   UNL A   1      48.427  29.277  26.824  1.00  0.00     0.040 A 
ATOM     82  F   UNL A   1      46.392  30.207  26.117  1.00  0.00    -0.206 F 
ATOM     83  C   UNL A   1      49.205  28.680  27.814  1.00  0.00     0.006 A 
ENDBRANCH  55  76
BRANCH  67  84
ATOM     84  C   UNL A   1      43.634  35.084  31.041  1.00  0.00     0.057 A 
ATOM     85  C   UNL A   1      44.053  35.190  32.372  1.00  0.00     0.134 A 
ATOM     86  C   UNL A   1      43.816  36.196  30.210  1.00  0.00     0.134 A 
ATOM     87  F   UNL A   1      43.892  34.164  33.220  1.00  0.00    -0.206 F 
ATOM     88  C   UNL A   1      44.616  36.370  32.864  1.00  0.00     0.040 A 
ATOM     89  C   UNL A   1      44.398  37.371  30.685  1.00  0.00     0.040 A 
ATOM     90  F   UNL A   1      43.441  36.154  28.922  1.00  0.00    -0.206 F 
ATOM     91  C   UNL A   1      44.795  37.462  32.018  1.00  0.00     0.006 A 
ENDBRANCH  67  84
ENDBRANCH  41  42
ENDBRANCH  33  36
ENDBRANCH  31  32
ENDBRANCH  30  31
ENDBRANCH   1  30
TORSDOF 16
ENDMDL
MODEL 2
REMARK VINA RESULT:      -8.5      2.912      8.569
REMARK SMILES CCCC1(CCC)SC[C@@H]2C(=O)N(Cc3ccc(C(=O)NCCCNC(=O)c4ccc(-c5c6nc(c(-c7c(F)cccc7F)c7ccc([nH]7)c(-c7c(F)cccc7F)c7nc(c(-c8c(F)cccc8F)c8ccc5[nH]8)C=C7)C=C6)cc4)cc3)CC(=O)N21
REMARK SMILES IDX 22 1 21 2 19 3 20 4 18 6 15 7 16 8 83 9 17 10 82 11 14 12
REMARK SMILES IDX 13 13 4 14 8 15 87 16 9 17 10 18 85 19 11 20 84 21 86 22
REMARK SMILES IDX 12 23 3 24 2 25 1 26 5 27 6 28 7 29 23 30 24 31 25 32 26 33
REMARK SMILES IDX 27 35 28 36 29 37 81 38 30 39 80 40 31 41 32 42 33 43 74 44
REMARK SMILES IDX 34 45 79 46 73 47 75 48 35 49 78 50 72 51 71 52 36 54 62 55
REMARK SMILES IDX 45 56 61 57 46 58 49 59 60 60 76 61 47 62 48 63 59 65 77 66
REMARK SMILES IDX 50 67 37 68 38 69 43 70 39 71 40 72 42 73 44 74 41 75 63 76
REMARK SMILES IDX 64 77 69 78 65 79 66 80 68 81 70 82 67 83 51 84 52 85 57 86
REMARK SMILES IDX 53 87 54 88 56 89 58 90 55 91
REMARK H PARENT 21 5 25 34 75 53 49 64
REMARK Flexibility Score: inf
ROOT
ATOM      1  C   UNL A   1      34.462  34.706  30.661  1.00  0.00     0.118 C 
ENDROOT
BRANCH   1   2
ATOM      2  N   UNL A   1      33.847  34.025  31.791  1.00  0.00    -0.352 N 
ATOM      3  C   UNL A   1      34.419  33.391  32.868  1.00  0.00     0.251 C 
ATOM      4  O   UNL A   1      33.704  33.022  33.795  1.00  0.00    -0.269 OA
ATOM      5  H   UNL A   1      32.862  34.018  31.782  1.00  0.00     0.163 HD
BRANCH   3   6
ATOM      6  C   UNL A   1      35.884  33.187  32.951  1.00  0.00     0.039 A 
ATOM      7  C   UNL A   1      38.676  32.898  33.121  1.00  0.00    -0.029 A 
ATOM      8  C   UNL A   1      38.031  33.936  33.804  1.00  0.00     0.006 A 
ATOM      9  C   UNL A   1      37.901  31.982  32.396  1.00  0.00     0.006 A 
ATOM     10  C   UNL A   1      36.641  34.076  33.725  1.00  0.00     0.014 A 
ATOM     11  C   UNL A   1      36.516  32.113  32.328  1.00  0.00     0.014 A 
BRANCH   7  12
ATOM     12  C   UNL A   1      40.175  32.730  33.162  1.00  0.00     0.155 C 
BRANCH  12  13
ATOM     13  N   UNL A   1      40.622  31.431  33.650  1.00  0.00    -0.327 N 
ATOM     14  C   UNL A   1      42.544  27.651  34.593  1.00  0.00     0.090 C 
ATOM     15  S   UNL A   1      43.375  28.203  36.261  1.00  0.00    -0.131 SA
ATOM     16  N   UNL A   1      41.713  28.845  34.279  1.00  0.00    -0.314 N 
ATOM     17  C   UNL A   1      42.425  29.722  36.406  1.00  0.00     0.107 C 
ATOM     18  C   UNL A   1      42.157  30.064  34.958  1.00  0.00     0.186 C 
ATOM     19  C   UNL A   1      40.957  28.976  33.122  1.00  0.00     0.244 C 
ATOM     20  C   UNL A   1      41.299  31.328  34.858  1.00  0.00     0.247 C 
ATOM     21  C   UNL A   1      40.067  30.228  33.056  1.00  0.00     0.220 C 
ATOM     22  O   UNL A   1      40.817  28.095  32.293  1.00  0.00    -0.273 OA
ATOM     23  O   UNL A   1      41.453  32.269  35.632  1.00  0.00    -0.272 OA
BRANCH  14  24
ATOM     24  C   UNL A   1      43.780  27.509  33.650  1.00  0.00     0.040 C 
BRANCH  24  25
ATOM     25  C   UNL A   1      43.754  26.626  32.402  1.00  0.00    -0.000 C 
ATOM     26  C   UNL A   1      44.668  25.416  32.422  1.00  0.00     0.004 C 
ENDBRANCH  24  25
ENDBRANCH  14  24
BRANCH  14  27
ATOM     27  C   UNL A   1      41.797  26.377  35.087  1.00  0.00     0.040 C 
BRANCH  27  28
ATOM     28  C   UNL A   1      42.497  25.234  35.834  1.00  0.00    -0.000 C 
ATOM     29  C   UNL A   1      42.482  23.894  35.116  1.00  0.00     0.004 C 
ENDBRANCH  27  28
ENDBRANCH  14  27
ENDBRANCH  12  13
ENDBRANCH   7  12
ENDBRANCH   3   6
ENDBRANCH   1   2
BRANCH   1  30
ATOM     30  C   UNL A   1      34.203  33.982  29.341  1.00  0.00     0.042 C 
BRANCH  30  31
ATOM     31  C   UNL A   1      35.070  32.746  29.131  1.00  0.00     0.118 C 
BRANCH  31  32
ATOM     32  N   UNL A   1      34.315  31.623  28.597  1.00  0.00    -0.352 N 
ATOM     33  C   UNL A   1      34.752  30.399  28.157  1.00  0.00     0.251 C 
ATOM     34  H   UNL A   1      33.342  31.763  28.543  1.00  0.00     0.163 HD
ATOM     35  O   UNL A   1      33.969  29.654  27.571  1.00  0.00    -0.269 OA
BRANCH  33  36
ATOM     36  C   UNL A   1      36.155  29.968  28.362  1.00  0.00     0.039 A 
ATOM     37  C   UNL A   1      37.056  30.098  27.300  1.00  0.00     0.014 A 
ATOM     38  C   UNL A   1      36.577  29.389  29.563  1.00  0.00     0.014 A 
ATOM     39  C   UNL A   1      38.385  29.694  27.457  1.00  0.00     0.010 A 
ATOM     40  C   UNL A   1      37.915  29.043  29.739  1.00  0.00     0.010 A 
ATOM     41  C   UNL A   1      38.832  29.185  28.686  1.00  0.00    -0.014 A 
BRANCH  41  42
ATOM     42  C   UNL A   1      40.246  28.774  28.880  1.00  0.00     0.031 A 
ATOM     43  C   UNL A   1      41.249  29.756  29.423  1.00  0.00     0.074 A 
ATOM     44  C   UNL A   1      40.641  27.537  28.521  1.00  0.00     0.049 A 
ATOM     45  N   UNL A   1      42.542  29.617  29.579  1.00  0.00    -0.248 NA
ATOM     46  C   UNL A   1      40.734  31.075  29.822  1.00  0.00     0.031 C 
ATOM     47  C   UNL A   1      39.774  26.503  27.953  1.00  0.00     0.029 A 
ATOM     48  N   UNL A   1      41.879  26.946  28.568  1.00  0.00    -0.354 N 
ATOM     49  C   UNL A   1      42.996  30.831  30.076  1.00  0.00     0.074 A 
ATOM     50  C   UNL A   1      41.848  31.710  30.159  1.00  0.00     0.031 C 
ATOM     51  C   UNL A   1      40.505  25.401  27.716  1.00  0.00     0.029 A 
ATOM     52  C   UNL A   1      41.894  25.661  28.082  1.00  0.00     0.049 A 
ATOM     53  H   UNL A   1      42.680  27.399  28.917  1.00  0.00     0.167 HD
ATOM     54  C   UNL A   1      44.250  31.179  30.449  1.00  0.00     0.037 A 
ATOM     55  C   UNL A   1      42.914  24.794  27.939  1.00  0.00     0.037 A 
ATOM     56  C   UNL A   1      45.388  30.298  30.398  1.00  0.00     0.049 A 
ATOM     57  C   UNL A   1      44.296  25.203  28.366  1.00  0.00     0.074 A 
ATOM     58  C   UNL A   1      46.691  30.547  30.791  1.00  0.00     0.029 A 
ATOM     59  N   UNL A   1      45.353  28.994  29.929  1.00  0.00    -0.354 N 
ATOM     60  N   UNL A   1      44.700  26.342  28.873  1.00  0.00    -0.248 NA
ATOM     61  C   UNL A   1      45.362  24.204  28.207  1.00  0.00     0.031 C 
ATOM     62  C   UNL A   1      47.451  29.401  30.537  1.00  0.00     0.029 A 
ATOM     63  C   UNL A   1      46.614  28.428  30.018  1.00  0.00     0.049 A 
ATOM     64  H   UNL A   1      44.551  28.538  29.585  1.00  0.00     0.167 HD
ATOM     65  C   UNL A   1      46.058  26.187  29.118  1.00  0.00     0.074 A 
ATOM     66  C   UNL A   1      46.407  24.840  28.716  1.00  0.00     0.031 C 
ATOM     67  C   UNL A   1      46.939  27.081  29.629  1.00  0.00     0.037 A 
BRANCH  54  68
ATOM     68  C   UNL A   1      44.460  32.573  30.961  1.00  0.00     0.057 A 
ATOM     69  C   UNL A   1      44.705  33.645  30.093  1.00  0.00     0.134 A 
ATOM     70  C   UNL A   1      44.369  32.856  32.330  1.00  0.00     0.134 A 
ATOM     71  F   UNL A   1      44.816  33.438  28.773  1.00  0.00    -0.206 F 
ATOM     72  C   UNL A   1      44.872  34.947  30.570  1.00  0.00     0.040 A 
ATOM     73  C   UNL A   1      44.511  34.157  32.816  1.00  0.00     0.040 A 
ATOM     74  F   UNL A   1      44.130  31.875  33.214  1.00  0.00    -0.206 F 
ATOM     75  C   UNL A   1      44.767  35.205  31.935  1.00  0.00     0.006 A 
ENDBRANCH  54  68
BRANCH  55  76
ATOM     76  C   UNL A   1      42.670  23.442  27.379  1.00  0.00     0.057 A 
ATOM     77  C   UNL A   1      42.308  22.373  28.206  1.00  0.00     0.134 A 
ATOM     78  C   UNL A   1      42.813  23.181  26.011  1.00  0.00     0.134 A 
ATOM     79  F   UNL A   1      42.175  22.558  29.528  1.00  0.00    -0.206 F 
ATOM     80  C   UNL A   1      42.118  21.086  27.698  1.00  0.00     0.040 A 
ATOM     81  C   UNL A   1      42.605  21.904  25.487  1.00  0.00     0.040 A 
ATOM     82  F   UNL A   1      43.153  24.164  25.165  1.00  0.00    -0.206 F 
ATOM     83  C   UNL A   1      42.265  20.851  26.333  1.00  0.00     0.006 A 
ENDBRANCH  55  76
BRANCH  67  84
ATOM     84  C   UNL A   1      48.351  26.618  29.819  1.00  0.00     0.057 A 
ATOM     85  C   UNL A   1      48.758  25.955  30.984  1.00  0.00     0.134 A 
ATOM     86  C   UNL A   1      49.304  26.805  28.811  1.00  0.00     0.134 A 
ATOM     87  F   UNL A   1      47.894  25.759  31.991  1.00  0.00    -0.206 F 
ATOM     88  C   UNL A   1      50.072  25.511  31.146  1.00  0.00     0.040 A 
ATOM     89  C   UNL A   1      50.614  26.346  28.953  1.00  0.00     0.040 A 
ATOM     90  F   UNL A   1      48.974  27.427  27.668  1.00  0.00    -0.206 F 
ATOM     91  C   UNL A   1      51.002  25.701  30.126  1.00  0.00     0.006 A 
ENDBRANCH  67  84
ENDBRANCH  41  42
ENDBRANCH  33  36
ENDBRANCH  31  32
ENDBRANCH  30  31
ENDBRANCH   1  30
TORSDOF 16
ENDMDL
MODEL 3
REMARK VINA RESULT:      -8.5      4.403     10.035
REMARK SMILES CCCC1(CCC)SC[C@@H]2C(=O)N(Cc3ccc(C(=O)NCCCNC(=O)c4ccc(-c5c6nc(c(-c7c(F)cccc7F)c7ccc([nH]7)c(-c7c(F)cccc7F)c7nc(c(-c8c(F)cccc8F)c8ccc5[nH]8)C=C7)C=C6)cc4)cc3)CC(=O)N21
REMARK SMILES IDX 22 1 21 2 19 3 20 4 18 6 15 7 16 8 83 9 17 10 82 11 14 12
REMARK SMILES IDX 13 13 4 14 8 15 87 16 9 17 10 18 85 19 11 20 84 21 86 22
REMARK SMILES IDX 12 23 3 24 2 25 1 26 5 27 6 28 7 29 23 30 24 31 25 32 26 33
REMARK SMILES IDX 27 35 28 36 29 37 81 38 30 39 80 40 31 41 32 42 33 43 74 44
REMARK SMILES IDX 34 45 79 46 73 47 75 48 35 49 78 50 72 51 71 52 36 54 62 55
REMARK SMILES IDX 45 56 61 57 46 58 49 59 60 60 76 61 47 62 48 63 59 65 77 66
REMARK SMILES IDX 50 67 37 68 38 69 43 70 39 71 40 72 42 73 44 74 41 75 63 76
REMARK SMILES IDX 64 77 69 78 65 79 66 80 68 81 70 82 67 83 51 84 52 85 57 86
REMARK SMILES IDX 53 87 54 88 56 89 58 90 55 91
REMARK H PARENT 21 5 25 34 75 53 49 64
REMARK Flexibility Score: inf
ROOT
ATOM      1  C   UNL A   1      38.481  20.396  25.368  1.00  0.00     0.118 C 
ENDROOT
BRANCH   1   2
ATOM      2  N   UNL A   1      38.842  21.733  25.814  1.00  0.00    -0.352 N 
ATOM      3  C   UNL A   1      38.130  22.907  25.774  1.00  0.00     0.251 C 
ATOM      4  O   UNL A   1      38.569  23.895  26.357  1.00  0.00    -0.269 OA
ATOM      5  H   UNL A   1      39.741  21.808  26.207  1.00  0.00     0.163 HD
BRANCH   3   6
ATOM      6  C   UNL A   1      36.823  22.992  25.079  1.00  0.00     0.039 A 
ATOM      7  C   UNL A   1      34.301  23.113  23.843  1.00  0.00    -0.029 A 
ATOM      8  C   UNL A   1      34.412  23.237  25.233  1.00  0.00     0.006 A 
ATOM      9  C   UNL A   1      35.470  22.979  23.081  1.00  0.00     0.006 A 
ATOM     10  C   UNL A   1      35.668  23.183  25.848  1.00  0.00     0.014 A 
ATOM     11  C   UNL A   1      36.721  22.939  23.691  1.00  0.00     0.014 A 
BRANCH   7  12
ATOM     12  C   UNL A   1      32.962  23.142  23.147  1.00  0.00     0.155 C 
BRANCH  12  13
ATOM     13  N   UNL A   1      32.294  24.437  23.179  1.00  0.00    -0.327 N 
ATOM     14  C   UNL A   1      30.682  28.395  23.956  1.00  0.00     0.090 C 
ATOM     15  S   UNL A   1      31.817  29.373  22.718  1.00  0.00    -0.131 SA
ATOM     16  N   UNL A   1      31.050  26.991  23.631  1.00  0.00    -0.314 N 
ATOM     17  C   UNL A   1      32.413  27.905  21.869  1.00  0.00     0.107 C 
ATOM     18  C   UNL A   1      32.346  26.863  22.961  1.00  0.00     0.186 C 
ATOM     19  C   UNL A   1      30.548  25.886  24.305  1.00  0.00     0.244 C 
ATOM     20  C   UNL A   1      32.774  25.495  22.421  1.00  0.00     0.247 C 
ATOM     21  C   UNL A   1      30.950  24.521  23.724  1.00  0.00     0.220 C 
ATOM     22  O   UNL A   1      29.686  25.943  25.164  1.00  0.00    -0.273 OA
ATOM     23  O   UNL A   1      33.685  25.387  21.603  1.00  0.00    -0.272 OA
BRANCH  14  24
ATOM     24  C   UNL A   1      31.239  28.862  25.338  1.00  0.00     0.040 C 
BRANCH  24  25
ATOM     25  C   UNL A   1      32.729  28.801  25.677  1.00  0.00    -0.000 C 
ATOM     26  C   UNL A   1      33.080  28.247  27.045  1.00  0.00     0.004 C 
ENDBRANCH  24  25
ENDBRANCH  14  24
BRANCH  14  27
ATOM     27  C   UNL A   1      29.287  28.894  23.475  1.00  0.00     0.040 C 
BRANCH  27  28
ATOM     28  C   UNL A   1      29.021  30.340  23.038  1.00  0.00    -0.000 C 
ATOM     29  C   UNL A   1      27.683  30.909  23.484  1.00  0.00     0.004 C 
ENDBRANCH  27  28
ENDBRANCH  14  27
ENDBRANCH  12  13
ENDBRANCH   7  12
ENDBRANCH   3   6
ENDBRANCH   1   2
BRANCH   1  30
ATOM     30  C   UNL A   1      39.568  19.369  25.687  1.00  0.00     0.042 C 
BRANCH  30  31
ATOM     31  C   UNL A   1      40.770  19.948  26.423  1.00  0.00     0.118 C 
BRANCH  31  32
ATOM     32  N   UNL A   1      42.027  19.646  25.756  1.00  0.00    -0.352 N 
ATOM     33  C   UNL A   1      43.080  20.471  25.448  1.00  0.00     0.251 C 
ATOM     34  H   UNL A   1      42.139  18.707  25.483  1.00  0.00     0.163 HD
ATOM     35  O   UNL A   1      43.976  20.057  24.717  1.00  0.00    -0.269 OA
BRANCH  33  36
ATOM     36  C   UNL A   1      43.144  21.856  25.971  1.00  0.00     0.039 A 
ATOM     37  C   UNL A   1      43.197  22.047  27.356  1.00  0.00     0.014 A 
ATOM     38  C   UNL A   1      43.097  22.965  25.120  1.00  0.00     0.014 A 
ATOM     39  C   UNL A   1      43.250  23.340  27.883  1.00  0.00     0.010 A 
ATOM     40  C   UNL A   1      43.211  24.252  25.642  1.00  0.00     0.010 A 
ATOM     41  C   UNL A   1      43.281  24.454  27.030  1.00  0.00    -0.014 A 
BRANCH  41  42
ATOM     42  C   UNL A   1      43.363  25.835  27.569  1.00  0.00     0.031 A 
ATOM     43  C   UNL A   1      44.704  26.449  27.871  1.00  0.00     0.074 A 
ATOM     44  C   UNL A   1      42.234  26.519  27.838  1.00  0.00     0.049 A 
ATOM     45  N   UNL A   1      44.979  27.602  28.428  1.00  0.00    -0.248 NA
ATOM     46  C   UNL A   1      45.890  25.653  27.520  1.00  0.00     0.031 C 
ATOM     47  C   UNL A   1      40.873  26.024  27.621  1.00  0.00     0.029 A 
ATOM     48  N   UNL A   1      42.053  27.773  28.365  1.00  0.00    -0.354 N 
ATOM     49  C   UNL A   1      46.364  27.661  28.510  1.00  0.00     0.074 A 
ATOM     50  C   UNL A   1      46.873  26.412  27.983  1.00  0.00     0.031 C 
ATOM     51  C   UNL A   1      39.998  26.970  28.001  1.00  0.00     0.029 A 
ATOM     52  C   UNL A   1      40.732  28.121  28.518  1.00  0.00     0.049 A 
ATOM     53  H   UNL A   1      42.798  28.367  28.611  1.00  0.00     0.167 HD
ATOM     54  C   UNL A   1      47.144  28.670  28.964  1.00  0.00     0.037 A 
ATOM     55  C   UNL A   1      40.178  29.237  29.026  1.00  0.00     0.037 A 
ATOM     56  C   UNL A   1      46.643  29.925  29.460  1.00  0.00     0.049 A 
ATOM     57  C   UNL A   1      41.066  30.345  29.519  1.00  0.00     0.074 A 
ATOM     58  C   UNL A   1      47.357  31.024  29.906  1.00  0.00     0.029 A 
ATOM     59  N   UNL A   1      45.300  30.249  29.568  1.00  0.00    -0.354 N 
ATOM     60  N   UNL A   1      42.375  30.402  29.551  1.00  0.00    -0.248 NA
ATOM     61  C   UNL A   1      40.400  31.547  30.040  1.00  0.00     0.031 C 
ATOM     62  C   UNL A   1      46.443  32.005  30.307  1.00  0.00     0.029 A 
ATOM     63  C   UNL A   1      45.163  31.529  30.079  1.00  0.00     0.049 A 
ATOM     64  H   UNL A   1      44.553  29.657  29.318  1.00  0.00     0.167 HD
ATOM     65  C   UNL A   1      42.688  31.651  30.069  1.00  0.00     0.074 A 
ATOM     66  C   UNL A   1      41.433  32.326  30.326  1.00  0.00     0.031 C 
ATOM     67  C   UNL A   1      43.907  32.191  30.312  1.00  0.00     0.037 A 
BRANCH  54  68
ATOM     68  C   UNL A   1      48.630  28.465  28.935  1.00  0.00     0.057 A 
ATOM     69  C   UNL A   1      49.395  28.802  27.811  1.00  0.00     0.134 A 
ATOM     70  C   UNL A   1      49.308  27.971  30.057  1.00  0.00     0.134 A 
ATOM     71  F   UNL A   1      48.804  29.269  26.702  1.00  0.00    -0.206 F 
ATOM     72  C   UNL A   1      50.782  28.638  27.797  1.00  0.00     0.040 A 
ATOM     73  C   UNL A   1      50.696  27.823  30.062  1.00  0.00     0.040 A 
ATOM     74  F   UNL A   1      48.634  27.635  31.167  1.00  0.00    -0.206 F 
ATOM     75  C   UNL A   1      51.436  28.154  28.928  1.00  0.00     0.006 A 
ENDBRANCH  54  68
BRANCH  55  76
ATOM     76  C   UNL A   1      38.702  29.375  29.084  1.00  0.00     0.057 A 
ATOM     77  C   UNL A   1      37.961  29.689  27.939  1.00  0.00     0.134 A 
ATOM     78  C   UNL A   1      38.000  29.220  30.285  1.00  0.00     0.134 A 
ATOM     79  F   UNL A   1      38.581  29.869  26.763  1.00  0.00    -0.206 F 
ATOM     80  C   UNL A   1      36.577  29.865  27.988  1.00  0.00     0.040 A 
ATOM     81  C   UNL A   1      36.613  29.371  30.345  1.00  0.00     0.040 A 
ATOM     82  F   UNL A   1      38.651  28.914  31.417  1.00  0.00    -0.206 F 
ATOM     83  C   UNL A   1      35.900  29.703  29.195  1.00  0.00     0.006 A 
ENDBRANCH  55  76
BRANCH  67  84
ATOM     84  C   UNL A   1      43.941  33.592  30.844  1.00  0.00     0.057 A 
ATOM     85  C   UNL A   1      43.943  34.703  29.992  1.00  0.00     0.134 A 
ATOM     86  C   UNL A   1      43.934  33.830  32.224  1.00  0.00     0.134 A 
ATOM     87  F   UNL A   1      43.964  34.539  28.661  1.00  0.00    -0.206 F 
ATOM     88  C   UNL A   1      43.957  36.005  30.496  1.00  0.00     0.040 A 
ATOM     89  C   UNL A   1      43.925  35.126  32.738  1.00  0.00     0.040 A 
ATOM     90  F   UNL A   1      43.925  32.807  33.092  1.00  0.00    -0.206 F 
ATOM     91  C   UNL A   1      43.942  36.219  31.873  1.00  0.00     0.006 A 
ENDBRANCH  67  84
ENDBRANCH  41  42
ENDBRANCH  33  36
ENDBRANCH  31  32
ENDBRANCH  30  31
ENDBRANCH   1  30
TORSDOF 16
ENDMDL
