MODEL 1
REMARK VINA RESULT:     -10.9      0.000      0.000
REMARK SMILES O=C(NCCCNC(=O)c1ccc(O)c(Br)n1)c1ccc(-c2c3nc(c(-c4c(F)cccc4F)c4ccc([nH]4)c(-c4c(F)cccc4F)c4nc(c(-c5c(F)cccc5F)c5ccc2[nH]5)C=C4)C=C3)cc1
REMARK SMILES IDX 4 1 3 2 1 3 2 4 18 6 19 7 71 8 20 9 70 10 21 11 22 12 23 13
REMARK SMILES IDX 64 14 24 15 69 16 63 17 65 18 25 19 68 20 62 21 61 22 26 24
REMARK SMILES IDX 52 25 35 26 51 27 36 28 39 29 50 30 66 31 37 32 38 33 49 35
REMARK SMILES IDX 67 36 40 37 27 38 28 39 33 40 29 41 30 42 32 43 34 44 31 45
REMARK SMILES IDX 53 46 54 47 59 48 55 49 56 50 58 51 60 52 57 53 41 54 42 55
REMARK SMILES IDX 47 56 43 57 44 58 46 59 48 60 45 61 5 62 6 63 7 64 8 65 9 67
REMARK SMILES IDX 10 68 11 69 17 70 12 71 15 72 13 73 16 74 14 75
REMARK H PARENT 3 5 65 23 39 34 7 66 14 76
REMARK Flexibility Score: inf
ROOT
ATOM      1  C   UNL A   1      38.593  20.072  25.910  1.00  0.00     0.118 C 
ENDROOT
BRANCH   1   2
ATOM      2  N   UNL A   1      39.804  19.267  25.857  1.00  0.00    -0.352 N 
ATOM      3  O   UNL A   1      42.007  18.834  25.739  1.00  0.00    -0.269 OA
ATOM      4  C   UNL A   1      41.116  19.623  26.044  1.00  0.00     0.251 C 
ATOM      5  H   UNL A   1      39.659  18.313  25.656  1.00  0.00     0.163 HD
BRANCH   4   6
ATOM      6  C   UNL A   1      41.473  20.945  26.600  1.00  0.00     0.039 A 
ATOM      7  C   UNL A   1      41.486  21.171  27.979  1.00  0.00     0.014 A 
ATOM      8  C   UNL A   1      41.880  21.956  25.723  1.00  0.00     0.014 A 
ATOM      9  C   UNL A   1      41.809  22.434  28.473  1.00  0.00     0.010 A 
ATOM     10  C   UNL A   1      42.249  23.209  26.221  1.00  0.00     0.010 A 
ATOM     11  C   UNL A   1      42.192  23.463  27.600  1.00  0.00    -0.014 A 
BRANCH  11  12
ATOM     12  C   UNL A   1      42.553  24.793  28.148  1.00  0.00     0.031 A 
ATOM     13  C   UNL A   1      43.990  25.150  28.401  1.00  0.00     0.074 A 
ATOM     14  C   UNL A   1      41.582  25.695  28.380  1.00  0.00     0.049 A 
ATOM     15  N   UNL A   1      44.498  26.290  28.798  1.00  0.00    -0.248 NA
ATOM     16  C   UNL A   1      44.986  24.092  28.176  1.00  0.00     0.031 C 
ATOM     17  C   UNL A   1      40.150  25.464  28.180  1.00  0.00     0.029 A 
ATOM     18  N   UNL A   1      41.654  26.992  28.820  1.00  0.00    -0.354 N 
ATOM     19  C   UNL A   1      45.872  26.095  28.848  1.00  0.00     0.074 A 
ATOM     20  C   UNL A   1      46.114  24.713  28.492  1.00  0.00     0.031 C 
ATOM     21  C   UNL A   1      39.480  26.591  28.471  1.00  0.00     0.029 A 
ATOM     22  C   UNL A   1      40.432  27.612  28.900  1.00  0.00     0.049 A 
ATOM     23  H   UNL A   1      42.501  27.434  29.055  1.00  0.00     0.167 HD
ATOM     24  C   UNL A   1      46.845  26.991  29.142  1.00  0.00     0.037 A 
ATOM     25  C   UNL A   1      40.117  28.864  29.277  1.00  0.00     0.037 A 
ATOM     26  C   UNL A   1      46.606  28.360  29.520  1.00  0.00     0.049 A 
ATOM     27  C   UNL A   1      41.212  29.815  29.669  1.00  0.00     0.074 A 
ATOM     28  C   UNL A   1      47.528  29.342  29.839  1.00  0.00     0.029 A 
ATOM     29  N   UNL A   1      45.352  28.938  29.637  1.00  0.00    -0.354 N 
ATOM     30  N   UNL A   1      42.509  29.629  29.669  1.00  0.00    -0.248 NA
ATOM     31  C   UNL A   1      40.794  31.153  30.111  1.00  0.00     0.031 C 
ATOM     32  C   UNL A   1      46.829  30.507  30.180  1.00  0.00     0.029 A 
ATOM     33  C   UNL A   1      45.474  30.258  30.039  1.00  0.00     0.049 A 
ATOM     34  H   UNL A   1      44.499  28.478  29.461  1.00  0.00     0.167 HD
ATOM     35  C   UNL A   1      43.064  30.832  30.085  1.00  0.00     0.074 A 
ATOM     36  C   UNL A   1      41.963  31.744  30.314  1.00  0.00     0.031 C 
ATOM     37  C   UNL A   1      44.368  31.153  30.260  1.00  0.00     0.037 A 
BRANCH  24  38
ATOM     38  C   UNL A   1      48.263  26.514  29.056  1.00  0.00     0.057 A 
ATOM     39  C   UNL A   1      48.905  25.947  30.163  1.00  0.00     0.134 A 
ATOM     40  C   UNL A   1      49.005  26.647  27.875  1.00  0.00     0.134 A 
ATOM     41  F   UNL A   1      48.250  25.794  31.325  1.00  0.00    -0.206 F 
ATOM     42  C   UNL A   1      50.235  25.531  30.099  1.00  0.00     0.040 A 
ATOM     43  C   UNL A   1      50.331  26.217  27.793  1.00  0.00     0.040 A 
ATOM     44  F   UNL A   1      48.443  27.170  26.774  1.00  0.00    -0.206 F 
ATOM     45  C   UNL A   1      50.951  25.662  28.910  1.00  0.00     0.006 A 
ENDBRANCH  24  38
BRANCH  25  46
ATOM     46  C   UNL A   1      38.702  29.307  29.289  1.00  0.00     0.057 A 
ATOM     47  C   UNL A   1      38.070  29.759  28.125  1.00  0.00     0.134 A 
ATOM     48  C   UNL A   1      37.939  29.252  30.461  1.00  0.00     0.134 A 
ATOM     49  F   UNL A   1      38.751  29.834  26.972  1.00  0.00    -0.206 F 
ATOM     50  C   UNL A   1      36.728  30.138  28.124  1.00  0.00     0.040 A 
ATOM     51  C   UNL A   1      36.591  29.608  30.471  1.00  0.00     0.040 A 
ATOM     52  F   UNL A   1      38.486  28.807  31.602  1.00  0.00    -0.206 F 
ATOM     53  C   UNL A   1      35.982  30.055  29.299  1.00  0.00     0.006 A 
ENDBRANCH  25  46
BRANCH  37  54
ATOM     54  C   UNL A   1      44.665  32.557  30.693  1.00  0.00     0.057 A 
ATOM     55  C   UNL A   1      44.768  32.878  32.052  1.00  0.00     0.134 A 
ATOM     56  C   UNL A   1      44.851  33.590  29.765  1.00  0.00     0.134 A 
ATOM     57  F   UNL A   1      44.597  31.935  32.990  1.00  0.00    -0.206 F 
ATOM     58  C   UNL A   1      45.053  34.178  32.473  1.00  0.00     0.040 A 
ATOM     59  C   UNL A   1      45.158  34.888  30.175  1.00  0.00     0.040 A 
ATOM     60  F   UNL A   1      44.782  33.342  28.448  1.00  0.00    -0.206 F 
ATOM     61  C   UNL A   1      45.255  35.185  31.532  1.00  0.00     0.006 A 
ENDBRANCH  37  54
ENDBRANCH  11  12
ENDBRANCH   4   6
ENDBRANCH   1   2
BRANCH   1  62
ATOM     62  C   UNL A   1      37.768  19.959  24.632  1.00  0.00     0.042 C 
BRANCH  62  63
ATOM     63  C   UNL A   1      36.806  21.122  24.399  1.00  0.00     0.118 C 
BRANCH  63  64
ATOM     64  N   UNL A   1      35.972  21.375  25.564  1.00  0.00    -0.351 N 
ATOM     65  C   UNL A   1      34.638  21.098  25.758  1.00  0.00     0.269 C 
ATOM     66  H   UNL A   1      36.429  21.806  26.324  1.00  0.00     0.163 HD
ATOM     67  O   UNL A   1      34.057  21.587  26.726  1.00  0.00    -0.268 OA
BRANCH  65  68
ATOM     68  C   UNL A   1      33.886  20.240  24.797  1.00  0.00     0.129 A 
ATOM     69  C   UNL A   1      32.899  20.824  24.009  1.00  0.00     0.038 A 
ATOM     70  N   UNL A   1      34.194  18.918  24.767  1.00  0.00    -0.232 NA
ATOM     71  C   UNL A   1      32.213  20.018  23.106  1.00  0.00     0.051 A 
ATOM     72  C   UNL A   1      33.504  18.161  23.890  1.00  0.00     0.148 A 
ATOM     73  C   UNL A   1      32.522  18.666  23.040  1.00  0.00     0.148 A 
ATOM     74  Br  UNL A   1      33.945  16.312  23.826  1.00  0.00    -0.025 Br
BRANCH  73  75
ATOM     75  O   UNL A   1      31.839  17.909  22.131  1.00  0.00    -0.505 OA
ATOM     76  H   UNL A   1      32.097  17.911  21.231  1.00  0.00     0.293 HD
ENDBRANCH  73  75
ENDBRANCH  65  68
ENDBRANCH  63  64
ENDBRANCH  62  63
ENDBRANCH   1  62
TORSDOF 11
ENDMDL
MODEL 2
REMARK VINA RESULT:     -10.9      6.030     10.262
REMARK SMILES O=C(NCCCNC(=O)c1ccc(O)c(Br)n1)c1ccc(-c2c3nc(c(-c4c(F)cccc4F)c4ccc([nH]4)c(-c4c(F)cccc4F)c4nc(c(-c5c(F)cccc5F)c5ccc2[nH]5)C=C4)C=C3)cc1
REMARK SMILES IDX 4 1 3 2 1 3 2 4 18 6 19 7 71 8 20 9 70 10 21 11 22 12 23 13
REMARK SMILES IDX 64 14 24 15 69 16 63 17 65 18 25 19 68 20 62 21 61 22 26 24
REMARK SMILES IDX 52 25 35 26 51 27 36 28 39 29 50 30 66 31 37 32 38 33 49 35
REMARK SMILES IDX 67 36 40 37 27 38 28 39 33 40 29 41 30 42 32 43 34 44 31 45
REMARK SMILES IDX 53 46 54 47 59 48 55 49 56 50 58 51 60 52 57 53 41 54 42 55
REMARK SMILES IDX 47 56 43 57 44 58 46 59 48 60 45 61 5 62 6 63 7 64 8 65 9 67
REMARK SMILES IDX 10 68 11 69 17 70 12 71 15 72 13 73 16 74 14 75
REMARK H PARENT 3 5 65 23 39 34 7 66 14 76
REMARK Flexibility Score: inf
ROOT
ATOM      1  C   UNL A   1      32.743  32.629  26.875  1.00  0.00     0.118 C 
ENDROOT
BRANCH   1   2
ATOM      2  N   UNL A   1      32.591  33.910  27.549  1.00  0.00    -0.352 N 
ATOM      3  O   UNL A   1      32.812  35.433  29.188  1.00  0.00    -0.269 OA
ATOM      4  C   UNL A   1      33.242  34.419  28.644  1.00  0.00     0.251 C 
ATOM      5  H   UNL A   1      31.913  34.507  27.157  1.00  0.00     0.163 HD
BRANCH   4   6
ATOM      6  C   UNL A   1      34.452  33.762  29.184  1.00  0.00     0.039 A 
ATOM      7  C   UNL A   1      35.731  34.224  28.863  1.00  0.00     0.014 A 
ATOM      8  C   UNL A   1      34.296  32.710  30.093  1.00  0.00     0.014 A 
ATOM      9  C   UNL A   1      36.853  33.572  29.373  1.00  0.00     0.010 A 
ATOM     10  C   UNL A   1      35.421  32.085  30.640  1.00  0.00     0.010 A 
ATOM     11  C   UNL A   1      36.708  32.498  30.264  1.00  0.00    -0.014 A 
BRANCH  11  12
ATOM     12  C   UNL A   1      37.915  31.832  30.811  1.00  0.00     0.031 A 
ATOM     13  C   UNL A   1      38.404  32.155  32.194  1.00  0.00     0.074 A 
ATOM     14  C   UNL A   1      38.547  30.903  30.071  1.00  0.00     0.049 A 
ATOM     15  N   UNL A   1      39.390  31.615  32.867  1.00  0.00    -0.248 NA
ATOM     16  C   UNL A   1      37.694  33.220  32.917  1.00  0.00     0.031 C 
ATOM     17  C   UNL A   1      38.171  30.507  28.712  1.00  0.00     0.029 A 
ATOM     18  N   UNL A   1      39.629  30.113  30.363  1.00  0.00    -0.354 N 
ATOM     19  C   UNL A   1      39.403  32.256  34.098  1.00  0.00     0.074 A 
ATOM     20  C   UNL A   1      38.362  33.261  34.061  1.00  0.00     0.031 C 
ATOM     21  C   UNL A   1      38.994  29.529  28.298  1.00  0.00     0.029 A 
ATOM     22  C   UNL A   1      39.966  29.248  29.351  1.00  0.00     0.049 A 
ATOM     23  H   UNL A   1      40.116  30.161  31.217  1.00  0.00     0.167 HD
ATOM     24  C   UNL A   1      40.195  32.014  35.171  1.00  0.00     0.037 A 
ATOM     25  C   UNL A   1      40.948  28.332  29.283  1.00  0.00     0.037 A 
ATOM     26  C   UNL A   1      41.247  31.031  35.203  1.00  0.00     0.049 A 
ATOM     27  C   UNL A   1      41.859  28.137  30.461  1.00  0.00     0.074 A 
ATOM     28  C   UNL A   1      42.105  30.716  36.243  1.00  0.00     0.029 A 
ATOM     29  N   UNL A   1      41.590  30.208  34.141  1.00  0.00    -0.354 N 
ATOM     30  N   UNL A   1      41.831  28.720  31.634  1.00  0.00    -0.248 NA
ATOM     31  C   UNL A   1      42.938  27.150  30.302  1.00  0.00     0.031 C 
ATOM     32  C   UNL A   1      42.987  29.723  35.800  1.00  0.00     0.029 A 
ATOM     33  C   UNL A   1      42.656  29.397  34.496  1.00  0.00     0.049 A 
ATOM     34  H   UNL A   1      41.142  30.201  33.265  1.00  0.00     0.167 HD
ATOM     35  C   UNL A   1      42.870  28.154  32.362  1.00  0.00     0.074 A 
ATOM     36  C   UNL A   1      43.498  27.172  31.504  1.00  0.00     0.031 C 
ATOM     37  C   UNL A   1      43.267  28.422  33.630  1.00  0.00     0.037 A 
BRANCH  24  38
ATOM     38  C   UNL A   1      39.943  32.826  36.404  1.00  0.00     0.057 A 
ATOM     39  C   UNL A   1      38.927  32.481  37.303  1.00  0.00     0.134 A 
ATOM     40  C   UNL A   1      40.694  33.976  36.685  1.00  0.00     0.134 A 
ATOM     41  F   UNL A   1      38.170  31.394  37.091  1.00  0.00    -0.206 F 
ATOM     42  C   UNL A   1      38.666  33.252  38.438  1.00  0.00     0.040 A 
ATOM     43  C   UNL A   1      40.454  34.744  37.825  1.00  0.00     0.040 A 
ATOM     44  F   UNL A   1      41.691  34.352  35.870  1.00  0.00    -0.206 F 
ATOM     45  C   UNL A   1      39.434  34.385  38.703  1.00  0.00     0.006 A 
ENDBRANCH  24  38
BRANCH  25  46
ATOM     46  C   UNL A   1      41.119  27.511  28.061  1.00  0.00     0.057 A 
ATOM     47  C   UNL A   1      40.481  26.273  27.919  1.00  0.00     0.134 A 
ATOM     48  C   UNL A   1      41.898  27.965  26.989  1.00  0.00     0.134 A 
ATOM     49  F   UNL A   1      39.723  25.786  28.912  1.00  0.00    -0.206 F 
ATOM     50  C   UNL A   1      40.609  25.517  26.754  1.00  0.00     0.040 A 
ATOM     51  C   UNL A   1      42.017  27.229  25.811  1.00  0.00     0.040 A 
ATOM     52  F   UNL A   1      42.515  29.154  27.061  1.00  0.00    -0.206 F 
ATOM     53  C   UNL A   1      41.372  25.999  25.692  1.00  0.00     0.006 A 
ENDBRANCH  25  46
BRANCH  37  54
ATOM     54  C   UNL A   1      44.415  27.619  34.162  1.00  0.00     0.057 A 
ATOM     55  C   UNL A   1      44.195  26.381  34.777  1.00  0.00     0.134 A 
ATOM     56  C   UNL A   1      45.737  28.069  34.062  1.00  0.00     0.134 A 
ATOM     57  F   UNL A   1      42.952  25.895  34.907  1.00  0.00    -0.206 F 
ATOM     58  C   UNL A   1      45.253  25.614  35.270  1.00  0.00     0.040 A 
ATOM     59  C   UNL A   1      46.804  27.302  34.531  1.00  0.00     0.040 A 
ATOM     60  F   UNL A   1      46.014  29.240  33.467  1.00  0.00    -0.206 F 
ATOM     61  C   UNL A   1      46.562  26.073  35.141  1.00  0.00     0.006 A 
ENDBRANCH  37  54
ENDBRANCH  11  12
ENDBRANCH   4   6
ENDBRANCH   1   2
BRANCH   1  62
ATOM     62  C   UNL A   1      31.403  31.941  26.633  1.00  0.00     0.042 C 
BRANCH  62  63
ATOM     63  C   UNL A   1      31.490  30.422  26.506  1.00  0.00     0.118 C 
BRANCH  63  64
ATOM     64  N   UNL A   1      32.358  30.020  25.410  1.00  0.00    -0.351 N 
ATOM     65  C   UNL A   1      32.041  29.370  24.239  1.00  0.00     0.269 C 
ATOM     66  H   UNL A   1      33.310  30.248  25.522  1.00  0.00     0.163 HD
ATOM     67  O   UNL A   1      32.945  28.920  23.537  1.00  0.00    -0.268 OA
BRANCH  65  68
ATOM     68  C   UNL A   1      30.619  29.179  23.830  1.00  0.00     0.129 A 
ATOM     69  C   UNL A   1      30.100  27.889  23.794  1.00  0.00     0.038 A 
ATOM     70  N   UNL A   1      29.915  30.288  23.485  1.00  0.00    -0.232 NA
ATOM     71  C   UNL A   1      28.769  27.724  23.424  1.00  0.00     0.051 A 
ATOM     72  C   UNL A   1      28.631  30.094  23.120  1.00  0.00     0.148 A 
ATOM     73  C   UNL A   1      28.019  28.842  23.087  1.00  0.00     0.148 A 
ATOM     74  Br  UNL A   1      27.631  31.643  22.657  1.00  0.00    -0.025 Br
BRANCH  73  75
ATOM     75  O   UNL A   1      26.713  28.642  22.743  1.00  0.00    -0.505 OA
ATOM     76  H   UNL A   1      26.205  29.351  22.399  1.00  0.00     0.293 HD
ENDBRANCH  73  75
ENDBRANCH  65  68
ENDBRANCH  63  64
ENDBRANCH  62  63
ENDBRANCH   1  62
TORSDOF 11
ENDMDL
MODEL 3
REMARK VINA RESULT:     -10.8      6.030     10.296
REMARK SMILES O=C(NCCCNC(=O)c1ccc(O)c(Br)n1)c1ccc(-c2c3nc(c(-c4c(F)cccc4F)c4ccc([nH]4)c(-c4c(F)cccc4F)c4nc(c(-c5c(F)cccc5F)c5ccc2[nH]5)C=C4)C=C3)cc1
REMARK SMILES IDX 4 1 3 2 1 3 2 4 18 6 19 7 71 8 20 9 70 10 21 11 22 12 23 13
REMARK SMILES IDX 64 14 24 15 69 16 63 17 65 18 25 19 68 20 62 21 61 22 26 24
REMARK SMILES IDX 52 25 35 26 51 27 36 28 39 29 50 30 66 31 37 32 38 33 49 35
REMARK SMILES IDX 67 36 40 37 27 38 28 39 33 40 29 41 30 42 32 43 34 44 31 45
REMARK SMILES IDX 53 46 54 47 59 48 55 49 56 50 58 51 60 52 57 53 41 54 42 55
REMARK SMILES IDX 47 56 43 57 44 58 46 59 48 60 45 61 5 62 6 63 7 64 8 65 9 67
REMARK SMILES IDX 10 68 11 69 17 70 12 71 15 72 13 73 16 74 14 75
REMARK H PARENT 3 5 65 23 39 34 7 66 14 76
REMARK Flexibility Score: inf
ROOT
ATOM      1  C   UNL A   1      32.747  32.698  26.878  1.00  0.00     0.118 C 
ENDROOT
BRANCH   1   2
ATOM      2  N   UNL A   1      32.596  33.971  27.566  1.00  0.00    -0.352 N 
ATOM      3  O   UNL A   1      32.801  35.470  29.229  1.00  0.00    -0.269 OA
ATOM      4  C   UNL A   1      33.231  34.458  28.680  1.00  0.00     0.251 C 
ATOM      5  H   UNL A   1      31.933  34.581  27.169  1.00  0.00     0.163 HD
BRANCH   4   6
ATOM      6  C   UNL A   1      34.422  33.780  29.235  1.00  0.00     0.039 A 
ATOM      7  C   UNL A   1      34.299  32.656  30.055  1.00  0.00     0.014 A 
ATOM      8  C   UNL A   1      35.691  34.235  28.859  1.00  0.00     0.014 A 
ATOM      9  C   UNL A   1      35.440  32.049  30.578  1.00  0.00     0.010 A 
ATOM     10  C   UNL A   1      36.836  33.599  29.346  1.00  0.00     0.010 A 
ATOM     11  C   UNL A   1      36.717  32.515  30.230  1.00  0.00    -0.014 A 
BRANCH  11  12
ATOM     12  C   UNL A   1      37.918  31.842  30.780  1.00  0.00     0.031 A 
ATOM     13  C   UNL A   1      38.408  32.165  32.163  1.00  0.00     0.074 A 
ATOM     14  C   UNL A   1      38.544  30.907  30.043  1.00  0.00     0.049 A 
ATOM     15  N   UNL A   1      39.389  31.619  32.838  1.00  0.00    -0.248 NA
ATOM     16  C   UNL A   1      37.705  33.237  32.883  1.00  0.00     0.031 C 
ATOM     17  C   UNL A   1      38.168  30.511  28.685  1.00  0.00     0.029 A 
ATOM     18  N   UNL A   1      39.621  30.110  30.338  1.00  0.00    -0.354 N 
ATOM     19  C   UNL A   1      39.406  32.263  34.068  1.00  0.00     0.074 A 
ATOM     20  C   UNL A   1      38.373  33.276  34.027  1.00  0.00     0.031 C 
ATOM     21  C   UNL A   1      38.984  29.526  28.274  1.00  0.00     0.029 A 
ATOM     22  C   UNL A   1      39.953  29.241  29.328  1.00  0.00     0.049 A 
ATOM     23  H   UNL A   1      40.108  30.156  31.192  1.00  0.00     0.167 HD
ATOM     24  C   UNL A   1      40.195  32.018  35.142  1.00  0.00     0.037 A 
ATOM     25  C   UNL A   1      40.929  28.317  29.263  1.00  0.00     0.037 A 
ATOM     26  C   UNL A   1      41.240  31.027  35.178  1.00  0.00     0.049 A 
ATOM     27  C   UNL A   1      41.837  28.118  30.443  1.00  0.00     0.074 A 
ATOM     28  C   UNL A   1      42.095  30.709  36.219  1.00  0.00     0.029 A 
ATOM     29  N   UNL A   1      41.578  30.200  34.118  1.00  0.00    -0.354 N 
ATOM     30  N   UNL A   1      41.812  28.704  31.614  1.00  0.00    -0.248 NA
ATOM     31  C   UNL A   1      42.908  27.124  30.287  1.00  0.00     0.031 C 
ATOM     32  C   UNL A   1      42.970  29.709  35.779  1.00  0.00     0.029 A 
ATOM     33  C   UNL A   1      42.638  29.382  34.475  1.00  0.00     0.049 A 
ATOM     34  H   UNL A   1      41.131  30.194  33.241  1.00  0.00     0.167 HD
ATOM     35  C   UNL A   1      42.845  28.133  32.345  1.00  0.00     0.074 A 
ATOM     36  C   UNL A   1      43.467  27.144  31.489  1.00  0.00     0.031 C 
ATOM     37  C   UNL A   1      43.243  28.401  33.612  1.00  0.00     0.037 A 
BRANCH  24  38
ATOM     38  C   UNL A   1      39.948  32.835  36.373  1.00  0.00     0.057 A 
ATOM     39  C   UNL A   1      40.721  33.967  36.658  1.00  0.00     0.134 A 
ATOM     40  C   UNL A   1      38.957  32.478  37.298  1.00  0.00     0.134 A 
ATOM     41  F   UNL A   1      41.688  34.361  35.815  1.00  0.00    -0.206 F 
ATOM     42  C   UNL A   1      40.517  34.714  37.820  1.00  0.00     0.040 A 
ATOM     43  C   UNL A   1      38.732  33.227  38.453  1.00  0.00     0.040 A 
ATOM     44  F   UNL A   1      38.174  31.411  37.075  1.00  0.00    -0.206 F 
ATOM     45  C   UNL A   1      39.517  34.347  38.719  1.00  0.00     0.006 A 
ENDBRANCH  24  38
BRANCH  25  46
ATOM     46  C   UNL A   1      41.095  27.492  28.043  1.00  0.00     0.057 A 
ATOM     47  C   UNL A   1      40.415  26.279  27.885  1.00  0.00     0.134 A 
ATOM     48  C   UNL A   1      41.912  27.919  26.989  1.00  0.00     0.134 A 
ATOM     49  F   UNL A   1      39.618  25.819  28.861  1.00  0.00    -0.206 F 
ATOM     50  C   UNL A   1      40.539  25.520  26.722  1.00  0.00     0.040 A 
ATOM     51  C   UNL A   1      42.029  27.181  25.812  1.00  0.00     0.040 A 
ATOM     52  F   UNL A   1      42.572  29.084  27.076  1.00  0.00    -0.206 F 
ATOM     53  C   UNL A   1      41.342  25.976  25.676  1.00  0.00     0.006 A 
ENDBRANCH  25  46
BRANCH  37  54
ATOM     54  C   UNL A   1      44.385  27.591  34.147  1.00  0.00     0.057 A 
ATOM     55  C   UNL A   1      45.702  28.053  34.037  1.00  0.00     0.134 A 
ATOM     56  C   UNL A   1      44.180  26.355  34.774  1.00  0.00     0.134 A 
ATOM     57  F   UNL A   1      45.965  29.227  33.444  1.00  0.00    -0.206 F 
ATOM     58  C   UNL A   1      46.776  27.315  34.537  1.00  0.00     0.040 A 
ATOM     59  C   UNL A   1      45.244  25.620  35.297  1.00  0.00     0.040 A 
ATOM     60  F   UNL A   1      42.939  25.867  34.925  1.00  0.00    -0.206 F 
ATOM     61  C   UNL A   1      46.547  26.098  35.176  1.00  0.00     0.006 A 
ENDBRANCH  37  54
ENDBRANCH  11  12
ENDBRANCH   4   6
ENDBRANCH   1   2
BRANCH   1  62
ATOM     62  C   UNL A   1      31.403  32.047  26.565  1.00  0.00     0.042 C 
BRANCH  62  63
ATOM     63  C   UNL A   1      31.445  30.522  26.487  1.00  0.00     0.118 C 
BRANCH  63  64
ATOM     64  N   UNL A   1      32.325  30.060  25.426  1.00  0.00    -0.351 N 
ATOM     65  C   UNL A   1      32.018  29.362  24.280  1.00  0.00     0.269 C 
ATOM     66  H   UNL A   1      33.279  30.278  25.544  1.00  0.00     0.163 HD
ATOM     67  O   UNL A   1      32.927  28.868  23.615  1.00  0.00    -0.268 OA
BRANCH  65  68
ATOM     68  C   UNL A   1      30.601  29.174  23.855  1.00  0.00     0.129 A 
ATOM     69  C   UNL A   1      30.077  27.885  23.821  1.00  0.00     0.038 A 
ATOM     70  N   UNL A   1      29.905  30.283  23.493  1.00  0.00    -0.232 NA
ATOM     71  C   UNL A   1      28.750  27.722  23.436  1.00  0.00     0.051 A 
ATOM     72  C   UNL A   1      28.625  30.091  23.114  1.00  0.00     0.148 A 
ATOM     73  C   UNL A   1      28.009  28.841  23.082  1.00  0.00     0.148 A 
ATOM     74  Br  UNL A   1      27.637  31.641  22.628  1.00  0.00    -0.025 Br
BRANCH  73  75
ATOM     75  O   UNL A   1      26.706  28.644  22.723  1.00  0.00    -0.505 OA
ATOM     76  H   UNL A   1      26.487  28.465  21.830  1.00  0.00     0.293 HD
ENDBRANCH  73  75
ENDBRANCH  65  68
ENDBRANCH  63  64
ENDBRANCH  62  63
ENDBRANCH   1  62
TORSDOF 11
ENDMDL
