MODEL 1
REMARK VINA RESULT:     -10.5      0.000      0.000
REMARK SMILES O=C(NCCCNC(=O)c1ccc([C@H]2CCC[N@@H+](CCN3CCCC3=O)C2)cc1)c1ccc(-c2c3nc(c(-c4c(F)cccc4F)c4ccc([nH]4)c(-c4c(F)cccc4F)c4nc(c(-c5c(F)cccc5F)c5ccc2[nH]5)C=C4)C=C3)cc1
REMARK SMILES IDX 6 1 5 2 4 3 3 4 1 5 2 6 30 8 31 9 83 10 32 11 82 12 33 13
REMARK SMILES IDX 34 14 35 15 76 16 36 17 81 18 75 19 77 20 37 21 80 22 74 23
REMARK SMILES IDX 73 24 38 26 64 27 47 28 63 29 48 30 51 31 62 32 78 33 49 34
REMARK SMILES IDX 50 35 61 37 79 38 52 39 39 40 40 41 45 42 41 43 42 44 44 45
REMARK SMILES IDX 46 46 43 47 65 48 66 49 71 50 67 51 68 52 70 53 72 54 69 55
REMARK SMILES IDX 53 56 54 57 59 58 55 59 56 60 58 61 60 62 57 63 7 64 8 65
REMARK SMILES IDX 9 67 10 68 11 69 29 70 12 71 28 72 13 73 14 74 15 75 27 76
REMARK SMILES IDX 16 77 18 78 17 79 19 81 20 82 21 83 22 84 25 85 23 86 24 87
REMARK SMILES IDX 26 88
REMARK H PARENT 3 7 77 25 51 36 7 66 18 80
REMARK Flexibility Score: inf
ROOT
ATOM      1  C   UNL A   1      33.850  35.306  31.568  1.00  0.00     0.118 C 
ENDROOT
BRANCH   1   2
ATOM      2  C   UNL A   1      33.134  36.431  30.833  1.00  0.00     0.042 C 
BRANCH   2   3
ATOM      3  C   UNL A   1      33.402  36.483  29.337  1.00  0.00     0.118 C 
BRANCH   3   4
ATOM      4  N   UNL A   1      32.654  35.482  28.588  1.00  0.00    -0.352 N 
ATOM      5  O   UNL A   1      32.310  33.626  27.358  1.00  0.00    -0.269 OA
ATOM      6  C   UNL A   1      33.043  34.249  28.120  1.00  0.00     0.251 C 
ATOM      7  H   UNL A   1      31.723  35.727  28.384  1.00  0.00     0.163 HD
BRANCH   6   8
ATOM      8  C   UNL A   1      34.349  33.681  28.515  1.00  0.00     0.039 A 
ATOM      9  C   UNL A   1      35.524  34.418  28.359  1.00  0.00     0.014 A 
ATOM     10  C   UNL A   1      34.397  32.401  29.075  1.00  0.00     0.014 A 
ATOM     11  C   UNL A   1      36.754  33.823  28.607  1.00  0.00     0.010 A 
ATOM     12  C   UNL A   1      35.629  31.843  29.427  1.00  0.00     0.010 A 
ATOM     13  C   UNL A   1      36.819  32.540  29.172  1.00  0.00    -0.014 A 
BRANCH  13  14
ATOM     14  C   UNL A   1      38.139  31.995  29.577  1.00  0.00     0.031 A 
ATOM     15  C   UNL A   1      38.609  30.649  29.105  1.00  0.00     0.074 A 
ATOM     16  C   UNL A   1      38.921  32.744  30.380  1.00  0.00     0.049 A 
ATOM     17  N   UNL A   1      39.725  30.024  29.384  1.00  0.00    -0.248 NA
ATOM     18  C   UNL A   1      37.711  29.902  28.211  1.00  0.00     0.031 C 
ATOM     19  C   UNL A   1      38.563  34.063  30.909  1.00  0.00     0.029 A 
ATOM     20  N   UNL A   1      40.172  32.513  30.889  1.00  0.00    -0.354 N 
ATOM     21  C   UNL A   1      39.658  28.806  28.718  1.00  0.00     0.074 A 
ATOM     22  C   UNL A   1      38.379  28.768  28.041  1.00  0.00     0.031 C 
ATOM     23  C   UNL A   1      39.584  34.539  31.634  1.00  0.00     0.029 A 
ATOM     24  C   UNL A   1      40.633  33.530  31.688  1.00  0.00     0.049 A 
ATOM     25  H   UNL A   1      40.691  31.697  30.699  1.00  0.00     0.167 HD
ATOM     26  C   UNL A   1      40.582  27.816  28.678  1.00  0.00     0.037 A 
ATOM     27  C   UNL A   1      41.761  33.630  32.414  1.00  0.00     0.037 A 
ATOM     28  C   UNL A   1      41.856  27.869  29.353  1.00  0.00     0.049 A 
ATOM     29  C   UNL A   1      42.742  32.495  32.388  1.00  0.00     0.074 A 
ATOM     30  C   UNL A   1      42.880  26.938  29.334  1.00  0.00     0.029 A 
ATOM     31  N   UNL A   1      42.273  28.904  30.179  1.00  0.00    -0.354 N 
ATOM     32  N   UNL A   1      42.688  31.372  31.716  1.00  0.00    -0.248 NA
ATOM     33  C   UNL A   1      43.938  32.638  33.228  1.00  0.00     0.031 C 
ATOM     34  C   UNL A   1      43.887  27.377  30.198  1.00  0.00     0.029 A 
ATOM     35  C   UNL A   1      43.522  28.614  30.705  1.00  0.00     0.049 A 
ATOM     36  H   UNL A   1      41.758  29.722  30.364  1.00  0.00     0.167 HD
ATOM     37  C   UNL A   1      43.850  30.684  32.032  1.00  0.00     0.074 A 
ATOM     38  C   UNL A   1      44.599  31.526  32.942  1.00  0.00     0.031 C 
ATOM     39  C   UNL A   1      44.257  29.462  31.610  1.00  0.00     0.037 A 
BRANCH  26  40
ATOM     40  C   UNL A   1      40.248  26.574  27.902  1.00  0.00     0.057 A 
ATOM     41  C   UNL A   1      40.760  26.335  26.620  1.00  0.00     0.134 A 
ATOM     42  C   UNL A   1      39.450  25.573  28.471  1.00  0.00     0.134 A 
ATOM     43  F   UNL A   1      41.525  27.254  26.010  1.00  0.00    -0.206 F 
ATOM     44  C   UNL A   1      40.475  25.157  25.925  1.00  0.00     0.040 A 
ATOM     45  C   UNL A   1      39.180  24.379  27.799  1.00  0.00     0.040 A 
ATOM     46  F   UNL A   1      38.934  25.730  29.699  1.00  0.00    -0.206 F 
ATOM     47  C   UNL A   1      39.689  24.171  26.519  1.00  0.00     0.006 A 
ENDBRANCH  26  40
BRANCH  27  48
ATOM     48  C   UNL A   1      42.000  34.836  33.248  1.00  0.00     0.057 A 
ATOM     49  C   UNL A   1      41.384  34.992  34.493  1.00  0.00     0.134 A 
ATOM     50  C   UNL A   1      42.852  35.861  32.815  1.00  0.00     0.134 A 
ATOM     51  F   UNL A   1      40.547  34.052  34.955  1.00  0.00    -0.206 F 
ATOM     52  C   UNL A   1      41.590  36.133  35.271  1.00  0.00     0.040 A 
ATOM     53  C   UNL A   1      43.093  36.991  33.595  1.00  0.00     0.040 A 
ATOM     54  F   UNL A   1      43.482  35.766  31.635  1.00  0.00    -0.206 F 
ATOM     55  C   UNL A   1      42.451  37.134  34.824  1.00  0.00     0.006 A 
ENDBRANCH  27  48
BRANCH  39  56
ATOM     56  C   UNL A   1      45.590  28.977  32.102  1.00  0.00     0.057 A 
ATOM     57  C   UNL A   1      45.710  28.175  33.243  1.00  0.00     0.134 A 
ATOM     58  C   UNL A   1      46.764  29.289  31.404  1.00  0.00     0.134 A 
ATOM     59  F   UNL A   1      44.627  27.855  33.968  1.00  0.00    -0.206 F 
ATOM     60  C   UNL A   1      46.952  27.717  33.686  1.00  0.00     0.040 A 
ATOM     61  C   UNL A   1      48.007  28.812  31.818  1.00  0.00     0.040 A 
ATOM     62  F   UNL A   1      46.719  30.049  30.300  1.00  0.00    -0.206 F 
ATOM     63  C   UNL A   1      48.105  28.029  32.966  1.00  0.00     0.006 A 
ENDBRANCH  39  56
ENDBRANCH  13  14
ENDBRANCH   6   8
ENDBRANCH   3   4
ENDBRANCH   2   3
ENDBRANCH   1   2
BRANCH   1  64
ATOM     64  N   UNL A   1      34.124  35.622  32.960  1.00  0.00    -0.352 N 
ATOM     65  C   UNL A   1      34.872  34.968  33.904  1.00  0.00     0.251 C 
ATOM     66  H   UNL A   1      33.696  36.449  33.282  1.00  0.00     0.163 HD
ATOM     67  O   UNL A   1      34.824  35.357  35.069  1.00  0.00    -0.269 OA
BRANCH  65  68
ATOM     68  C   UNL A   1      35.671  33.770  33.562  1.00  0.00     0.039 A 
ATOM     69  C   UNL A   1      36.954  33.693  34.099  1.00  0.00     0.014 A 
ATOM     70  C   UNL A   1      35.204  32.735  32.741  1.00  0.00     0.014 A 
ATOM     71  C   UNL A   1      37.704  32.537  33.920  1.00  0.00     0.005 A 
ATOM     72  C   UNL A   1      35.944  31.551  32.600  1.00  0.00     0.005 A 
ATOM     73  C   UNL A   1      37.180  31.420  33.237  1.00  0.00    -0.039 A 
BRANCH  73  74
ATOM     74  C   UNL A   1      37.951  30.116  33.394  1.00  0.00     0.074 C 
ATOM     75  C   UNL A   1      37.677  29.282  32.125  1.00  0.00     0.020 C 
ATOM     76  C   UNL A   1      39.479  30.139  33.637  1.00  0.00     0.270 C 
ATOM     77  C   UNL A   1      38.198  27.871  32.323  1.00  0.00     0.062 C 
ATOM     78  N   UNL A   1      40.011  28.765  33.750  1.00  0.00    -0.333 N 
ATOM     79  C   UNL A   1      39.692  27.900  32.613  1.00  0.00     0.262 C 
ATOM     80  H   UNL A   1      39.492  28.390  34.545  1.00  0.00     0.348 HD
BRANCH  78  81
ATOM     81  C   UNL A   1      41.432  28.677  34.137  1.00  0.00     0.284 C 
BRANCH  81  82
ATOM     82  C   UNL A   1      41.806  28.444  35.625  1.00  0.00     0.180 C 
BRANCH  82  83
ATOM     83  N   UNL A   1      42.115  27.065  35.953  1.00  0.00    -0.337 N 
ATOM     84  C   UNL A   1      41.596  25.942  35.213  1.00  0.00     0.120 C 
ATOM     85  C   UNL A   1      43.015  26.699  36.938  1.00  0.00     0.222 C 
ATOM     86  C   UNL A   1      42.059  24.738  36.013  1.00  0.00     0.031 C 
ATOM     87  C   UNL A   1      43.277  25.228  36.783  1.00  0.00     0.102 C 
ATOM     88  O   UNL A   1      43.577  27.442  37.729  1.00  0.00    -0.275 OA
ENDBRANCH  82  83
ENDBRANCH  81  82
ENDBRANCH  78  81
ENDBRANCH  73  74
ENDBRANCH  65  68
ENDBRANCH   1  64
TORSDOF 14
ENDMDL
MODEL 2
REMARK VINA RESULT:     -10.3      0.710      6.092
REMARK SMILES O=C(NCCCNC(=O)c1ccc([C@H]2CCC[N@@H+](CCN3CCCC3=O)C2)cc1)c1ccc(-c2c3nc(c(-c4c(F)cccc4F)c4ccc([nH]4)c(-c4c(F)cccc4F)c4nc(c(-c5c(F)cccc5F)c5ccc2[nH]5)C=C4)C=C3)cc1
REMARK SMILES IDX 6 1 5 2 4 3 3 4 1 5 2 6 30 8 31 9 83 10 32 11 82 12 33 13
REMARK SMILES IDX 34 14 35 15 76 16 36 17 81 18 75 19 77 20 37 21 80 22 74 23
REMARK SMILES IDX 73 24 38 26 64 27 47 28 63 29 48 30 51 31 62 32 78 33 49 34
REMARK SMILES IDX 50 35 61 37 79 38 52 39 39 40 40 41 45 42 41 43 42 44 44 45
REMARK SMILES IDX 46 46 43 47 65 48 66 49 71 50 67 51 68 52 70 53 72 54 69 55
REMARK SMILES IDX 53 56 54 57 59 58 55 59 56 60 58 61 60 62 57 63 7 64 8 65
REMARK SMILES IDX 9 67 10 68 11 69 29 70 12 71 28 72 13 73 14 74 15 75 27 76
REMARK SMILES IDX 16 77 18 78 17 79 19 81 20 82 21 83 22 84 25 85 23 86 24 87
REMARK SMILES IDX 26 88
REMARK H PARENT 3 7 77 25 51 36 7 66 18 80
REMARK Flexibility Score: inf
ROOT
ATOM      1  C   UNL A   1      34.621  35.267  31.979  1.00  0.00     0.118 C 
ENDROOT
BRANCH   1   2
ATOM      2  C   UNL A   1      33.238  35.538  31.404  1.00  0.00     0.042 C 
BRANCH   2   3
ATOM      3  C   UNL A   1      33.237  36.097  29.989  1.00  0.00     0.118 C 
BRANCH   3   4
ATOM      4  N   UNL A   1      32.604  35.208  29.024  1.00  0.00    -0.352 N 
ATOM      5  O   UNL A   1      32.460  33.600  27.453  1.00  0.00    -0.269 OA
ATOM      6  C   UNL A   1      33.107  34.116  28.359  1.00  0.00     0.251 C 
ATOM      7  H   UNL A   1      31.666  35.423  28.816  1.00  0.00     0.163 HD
BRANCH   6   8
ATOM      8  C   UNL A   1      34.435  33.573  28.717  1.00  0.00     0.039 A 
ATOM      9  C   UNL A   1      34.552  32.476  29.570  1.00  0.00     0.014 A 
ATOM     10  C   UNL A   1      35.582  34.156  28.167  1.00  0.00     0.014 A 
ATOM     11  C   UNL A   1      35.805  32.064  30.003  1.00  0.00     0.010 A 
ATOM     12  C   UNL A   1      36.844  33.669  28.518  1.00  0.00     0.010 A 
ATOM     13  C   UNL A   1      36.966  32.635  29.459  1.00  0.00    -0.014 A 
BRANCH  13  14
ATOM     14  C   UNL A   1      38.289  32.065  29.817  1.00  0.00     0.031 A 
ATOM     15  C   UNL A   1      39.256  32.816  30.686  1.00  0.00     0.074 A 
ATOM     16  C   UNL A   1      38.605  30.841  29.349  1.00  0.00     0.049 A 
ATOM     17  N   UNL A   1      40.456  32.465  31.073  1.00  0.00    -0.248 NA
ATOM     18  C   UNL A   1      38.830  34.134  31.178  1.00  0.00     0.031 C 
ATOM     19  C   UNL A   1      37.747  30.022  28.489  1.00  0.00     0.029 A 
ATOM     20  N   UNL A   1      39.723  30.070  29.529  1.00  0.00    -0.354 N 
ATOM     21  C   UNL A   1      40.937  33.522  31.837  1.00  0.00     0.074 A 
ATOM     22  C   UNL A   1      39.907  34.540  31.839  1.00  0.00     0.031 C 
ATOM     23  C   UNL A   1      38.351  28.852  28.248  1.00  0.00     0.029 A 
ATOM     24  C   UNL A   1      39.670  28.867  28.868  1.00  0.00     0.049 A 
ATOM     25  H   UNL A   1      40.490  30.349  30.081  1.00  0.00     0.167 HD
ATOM     26  C   UNL A   1      42.126  33.626  32.478  1.00  0.00     0.037 A 
ATOM     27  C   UNL A   1      40.591  27.895  28.742  1.00  0.00     0.037 A 
ATOM     28  C   UNL A   1      43.141  32.601  32.473  1.00  0.00     0.049 A 
ATOM     29  C   UNL A   1      41.917  28.063  29.423  1.00  0.00     0.074 A 
ATOM     30  C   UNL A   1      44.358  32.593  33.131  1.00  0.00     0.029 A 
ATOM     31  N   UNL A   1      43.062  31.410  31.765  1.00  0.00    -0.354 N 
ATOM     32  N   UNL A   1      42.338  29.044  30.182  1.00  0.00    -0.248 NA
ATOM     33  C   UNL A   1      42.901  26.991  29.223  1.00  0.00     0.031 C 
ATOM     34  C   UNL A   1      45.044  31.429  32.770  1.00  0.00     0.029 A 
ATOM     35  C   UNL A   1      44.226  30.679  31.940  1.00  0.00     0.049 A 
ATOM     36  H   UNL A   1      42.293  31.127  31.219  1.00  0.00     0.167 HD
ATOM     37  C   UNL A   1      43.624  28.700  30.570  1.00  0.00     0.074 A 
ATOM     38  C   UNL A   1      43.908  27.409  29.978  1.00  0.00     0.031 C 
ATOM     39  C   UNL A   1      44.495  29.393  31.344  1.00  0.00     0.037 A 
BRANCH  26  40
ATOM     40  C   UNL A   1      42.416  34.901  33.219  1.00  0.00     0.057 A 
ATOM     41  C   UNL A   1      43.136  35.954  32.639  1.00  0.00     0.134 A 
ATOM     42  C   UNL A   1      41.914  35.101  34.512  1.00  0.00     0.134 A 
ATOM     43  F   UNL A   1      43.653  35.828  31.407  1.00  0.00    -0.206 F 
ATOM     44  C   UNL A   1      43.363  37.149  33.325  1.00  0.00     0.040 A 
ATOM     45  C   UNL A   1      42.110  36.302  35.197  1.00  0.00     0.040 A 
ATOM     46  F   UNL A   1      41.208  34.139  35.124  1.00  0.00    -0.206 F 
ATOM     47  C   UNL A   1      42.842  37.328  34.605  1.00  0.00     0.006 A 
ENDBRANCH  26  40
BRANCH  27  48
ATOM     48  C   UNL A   1      40.296  26.698  27.915  1.00  0.00     0.057 A 
ATOM     49  C   UNL A   1      39.492  25.661  28.398  1.00  0.00     0.134 A 
ATOM     50  C   UNL A   1      40.815  26.563  26.620  1.00  0.00     0.134 A 
ATOM     51  F   UNL A   1      38.978  25.725  29.635  1.00  0.00    -0.206 F 
ATOM     52  C   UNL A   1      39.229  24.524  27.632  1.00  0.00     0.040 A 
ATOM     53  C   UNL A   1      40.534  25.448  25.832  1.00  0.00     0.040 A 
ATOM     54  F   UNL A   1      41.585  27.528  26.095  1.00  0.00    -0.206 F 
ATOM     55  C   UNL A   1      39.747  24.419  26.342  1.00  0.00     0.006 A 
ENDBRANCH  27  48
BRANCH  39  56
ATOM     56  C   UNL A   1      45.824  28.753  31.621  1.00  0.00     0.057 A 
ATOM     57  C   UNL A   1      45.997  27.826  32.655  1.00  0.00     0.134 A 
ATOM     58  C   UNL A   1      46.935  29.044  30.819  1.00  0.00     0.134 A 
ATOM     59  F   UNL A   1      44.979  27.517  33.471  1.00  0.00    -0.206 F 
ATOM     60  C   UNL A   1      47.235  27.226  32.896  1.00  0.00     0.040 A 
ATOM     61  C   UNL A   1      48.168  28.427  31.030  1.00  0.00     0.040 A 
ATOM     62  F   UNL A   1      46.836  29.919  29.807  1.00  0.00    -0.206 F 
ATOM     63  C   UNL A   1      48.322  27.520  32.075  1.00  0.00     0.006 A 
ENDBRANCH  39  56
ENDBRANCH  13  14
ENDBRANCH   6   8
ENDBRANCH   3   4
ENDBRANCH   2   3
ENDBRANCH   1   2
BRANCH   1  64
ATOM     64  N   UNL A   1      34.670  35.400  33.425  1.00  0.00    -0.352 N 
ATOM     65  C   UNL A   1      35.286  34.636  34.381  1.00  0.00     0.251 C 
ATOM     66  H   UNL A   1      34.174  36.173  33.780  1.00  0.00     0.163 HD
ATOM     67  O   UNL A   1      35.050  34.868  35.565  1.00  0.00    -0.269 OA
BRANCH  65  68
ATOM     68  C   UNL A   1      36.164  33.501  34.017  1.00  0.00     0.039 A 
ATOM     69  C   UNL A   1      37.457  33.512  34.535  1.00  0.00     0.014 A 
ATOM     70  C   UNL A   1      35.760  32.444  33.191  1.00  0.00     0.014 A 
ATOM     71  C   UNL A   1      38.284  32.413  34.335  1.00  0.00     0.005 A 
ATOM     72  C   UNL A   1      36.581  31.316  33.028  1.00  0.00     0.005 A 
ATOM     73  C   UNL A   1      37.832  31.268  33.647  1.00  0.00    -0.039 A 
BRANCH  73  74
ATOM     74  C   UNL A   1      38.696  30.022  33.781  1.00  0.00     0.074 C 
ATOM     75  C   UNL A   1      38.507  29.209  32.483  1.00  0.00     0.020 C 
ATOM     76  C   UNL A   1      40.214  30.152  34.054  1.00  0.00     0.270 C 
ATOM     77  C   UNL A   1      39.130  27.836  32.649  1.00  0.00     0.062 C 
ATOM     78  N   UNL A   1      40.846  28.818  34.136  1.00  0.00    -0.333 N 
ATOM     79  C   UNL A   1      40.613  27.967  32.969  1.00  0.00     0.262 C 
ATOM     80  H   UNL A   1      40.343  28.381  34.909  1.00  0.00     0.348 HD
BRANCH  78  81
ATOM     81  C   UNL A   1      42.263  28.825  34.547  1.00  0.00     0.284 C 
BRANCH  81  82
ATOM     82  C   UNL A   1      42.687  28.078  35.840  1.00  0.00     0.180 C 
BRANCH  82  83
ATOM     83  N   UNL A   1      42.287  26.684  35.881  1.00  0.00    -0.337 N 
ATOM     84  C   UNL A   1      42.922  25.657  35.094  1.00  0.00     0.120 C 
ATOM     85  C   UNL A   1      41.334  26.190  36.753  1.00  0.00     0.222 C 
ATOM     86  C   UNL A   1      42.074  24.426  35.353  1.00  0.00     0.031 C 
ATOM     87  C   UNL A   1      41.407  24.690  36.697  1.00  0.00     0.102 C 
ATOM     88  O   UNL A   1      40.626  26.838  37.509  1.00  0.00    -0.275 OA
ENDBRANCH  82  83
ENDBRANCH  81  82
ENDBRANCH  78  81
ENDBRANCH  73  74
ENDBRANCH  65  68
ENDBRANCH   1  64
TORSDOF 14
ENDMDL
MODEL 3
REMARK VINA RESULT:     -10.1      5.029      7.873
REMARK SMILES O=C(NCCCNC(=O)c1ccc([C@H]2CCC[N@@H+](CCN3CCCC3=O)C2)cc1)c1ccc(-c2c3nc(c(-c4c(F)cccc4F)c4ccc([nH]4)c(-c4c(F)cccc4F)c4nc(c(-c5c(F)cccc5F)c5ccc2[nH]5)C=C4)C=C3)cc1
REMARK SMILES IDX 6 1 5 2 4 3 3 4 1 5 2 6 30 8 31 9 83 10 32 11 82 12 33 13
REMARK SMILES IDX 34 14 35 15 76 16 36 17 81 18 75 19 77 20 37 21 80 22 74 23
REMARK SMILES IDX 73 24 38 26 64 27 47 28 63 29 48 30 51 31 62 32 78 33 49 34
REMARK SMILES IDX 50 35 61 37 79 38 52 39 39 40 40 41 45 42 41 43 42 44 44 45
REMARK SMILES IDX 46 46 43 47 65 48 66 49 71 50 67 51 68 52 70 53 72 54 69 55
REMARK SMILES IDX 53 56 54 57 59 58 55 59 56 60 58 61 60 62 57 63 7 64 8 65
REMARK SMILES IDX 9 67 10 68 11 69 29 70 12 71 28 72 13 73 14 74 15 75 27 76
REMARK SMILES IDX 16 77 18 78 17 79 19 81 20 82 21 83 22 84 25 85 23 86 24 87
REMARK SMILES IDX 26 88
REMARK H PARENT 3 7 77 25 51 36 7 66 18 80
REMARK Flexibility Score: inf
ROOT
ATOM      1  C   UNL A   1      31.333  30.637  25.874  1.00  0.00     0.118 C 
ENDROOT
BRANCH   1   2
ATOM      2  C   UNL A   1      31.320  32.092  26.321  1.00  0.00     0.042 C 
BRANCH   2   3
ATOM      3  C   UNL A   1      32.575  32.542  27.053  1.00  0.00     0.118 C 
BRANCH   3   4
ATOM      4  N   UNL A   1      32.468  33.891  27.595  1.00  0.00    -0.352 N 
ATOM      5  O   UNL A   1      32.827  35.600  29.017  1.00  0.00    -0.269 OA
ATOM      6  C   UNL A   1      33.189  34.508  28.588  1.00  0.00     0.251 C 
ATOM      7  H   UNL A   1      31.768  34.448  27.184  1.00  0.00     0.163 HD
BRANCH   6   8
ATOM      8  C   UNL A   1      34.385  33.853  29.157  1.00  0.00     0.039 A 
ATOM      9  C   UNL A   1      34.259  32.776  30.036  1.00  0.00     0.014 A 
ATOM     10  C   UNL A   1      35.655  34.305  28.784  1.00  0.00     0.014 A 
ATOM     11  C   UNL A   1      35.383  32.259  30.666  1.00  0.00     0.010 A 
ATOM     12  C   UNL A   1      36.793  33.710  29.336  1.00  0.00     0.010 A 
ATOM     13  C   UNL A   1      36.665  32.699  30.301  1.00  0.00    -0.014 A 
BRANCH  13  14
ATOM     14  C   UNL A   1      37.854  32.016  30.871  1.00  0.00     0.031 A 
ATOM     15  C   UNL A   1      38.556  30.916  30.129  1.00  0.00     0.074 A 
ATOM     16  C   UNL A   1      38.301  32.415  32.078  1.00  0.00     0.049 A 
ATOM     17  N   UNL A   1      39.593  30.208  30.498  1.00  0.00    -0.248 NA
ATOM     18  C   UNL A   1      38.023  30.554  28.807  1.00  0.00     0.031 C 
ATOM     19  C   UNL A   1      37.693  33.469  32.895  1.00  0.00     0.029 A 
ATOM     20  N   UNL A   1      39.367  31.991  32.828  1.00  0.00    -0.354 N 
ATOM     21  C   UNL A   1      39.828  29.306  29.467  1.00  0.00     0.074 A 
ATOM     22  C   UNL A   1      38.808  29.539  28.466  1.00  0.00     0.031 C 
ATOM     23  C   UNL A   1      38.414  33.634  34.011  1.00  0.00     0.029 A 
ATOM     24  C   UNL A   1      39.487  32.648  34.028  1.00  0.00     0.049 A 
ATOM     25  H   UNL A   1      39.987  31.284  32.535  1.00  0.00     0.167 HD
ATOM     26  C   UNL A   1      40.806  28.375  29.369  1.00  0.00     0.037 A 
ATOM     27  C   UNL A   1      40.342  32.459  35.048  1.00  0.00     0.037 A 
ATOM     28  C   UNL A   1      41.820  28.157  30.371  1.00  0.00     0.049 A 
ATOM     29  C   UNL A   1      41.384  31.386  34.930  1.00  0.00     0.074 A 
ATOM     30  C   UNL A   1      42.883  27.270  30.342  1.00  0.00     0.029 A 
ATOM     31  N   UNL A   1      41.889  28.822  31.587  1.00  0.00    -0.354 N 
ATOM     32  N   UNL A   1      41.625  30.576  33.929  1.00  0.00    -0.248 NA
ATOM     33  C   UNL A   1      42.269  31.195  36.086  1.00  0.00     0.031 C 
ATOM     34  C   UNL A   1      43.555  27.352  31.565  1.00  0.00     0.029 A 
ATOM     35  C   UNL A   1      42.953  28.336  32.332  1.00  0.00     0.049 A 
ATOM     36  H   UNL A   1      41.273  29.533  31.878  1.00  0.00     0.167 HD
ATOM     37  C   UNL A   1      42.701  29.794  34.323  1.00  0.00     0.074 A 
ATOM     38  C   UNL A   1      43.079  30.242  35.648  1.00  0.00     0.031 C 
ATOM     39  C   UNL A   1      43.318  28.793  33.650  1.00  0.00     0.037 A 
BRANCH  26  40
ATOM     40  C   UNL A   1      40.821  27.496  28.150  1.00  0.00     0.057 A 
ATOM     41  C   UNL A   1      41.561  27.819  27.006  1.00  0.00     0.134 A 
ATOM     42  C   UNL A   1      40.131  26.276  28.145  1.00  0.00     0.134 A 
ATOM     43  F   UNL A   1      42.239  28.976  26.938  1.00  0.00    -0.206 F 
ATOM     44  C   UNL A   1      41.599  26.974  25.895  1.00  0.00     0.040 A 
ATOM     45  C   UNL A   1      40.183  25.409  27.052  1.00  0.00     0.040 A 
ATOM     46  F   UNL A   1      39.410  25.898  29.211  1.00  0.00    -0.206 F 
ATOM     47  C   UNL A   1      40.915  25.760  25.920  1.00  0.00     0.006 A 
ENDBRANCH  26  40
BRANCH  27  48
ATOM     48  C   UNL A   1      40.225  33.285  36.276  1.00  0.00     0.057 A 
ATOM     49  C   UNL A   1      39.338  32.942  37.301  1.00  0.00     0.134 A 
ATOM     50  C   UNL A   1      40.998  34.440  36.452  1.00  0.00     0.134 A 
ATOM     51  F   UNL A   1      38.560  31.855  37.185  1.00  0.00    -0.206 F 
ATOM     52  C   UNL A   1      39.208  33.727  38.448  1.00  0.00     0.040 A 
ATOM     53  C   UNL A   1      40.903  35.216  37.607  1.00  0.00     0.040 A 
ATOM     54  F   UNL A   1      41.876  34.819  35.511  1.00  0.00    -0.206 F 
ATOM     55  C   UNL A   1      39.997  34.865  38.605  1.00  0.00     0.006 A 
ENDBRANCH  27  48
BRANCH  39  56
ATOM     56  C   UNL A   1      44.487  28.135  34.323  1.00  0.00     0.057 A 
ATOM     57  C   UNL A   1      45.789  28.637  34.203  1.00  0.00     0.134 A 
ATOM     58  C   UNL A   1      44.302  27.005  35.130  1.00  0.00     0.134 A 
ATOM     59  F   UNL A   1      46.038  29.706  33.431  1.00  0.00    -0.206 F 
ATOM     60  C   UNL A   1      46.868  28.026  34.844  1.00  0.00     0.040 A 
ATOM     61  C   UNL A   1      45.367  26.405  35.801  1.00  0.00     0.040 A 
ATOM     62  F   UNL A   1      43.080  26.476  35.292  1.00  0.00    -0.206 F 
ATOM     63  C   UNL A   1      46.656  26.911  35.653  1.00  0.00     0.006 A 
ENDBRANCH  39  56
ENDBRANCH  13  14
ENDBRANCH   6   8
ENDBRANCH   3   4
ENDBRANCH   2   3
ENDBRANCH   1   2
BRANCH   1  64
ATOM     64  N   UNL A   1      30.683  30.432  24.591  1.00  0.00    -0.352 N 
ATOM     65  C   UNL A   1      30.786  29.414  23.679  1.00  0.00     0.251 C 
ATOM     66  H   UNL A   1      30.061  31.150  24.330  1.00  0.00     0.163 HD
ATOM     67  O   UNL A   1      30.243  29.546  22.583  1.00  0.00    -0.269 OA
BRANCH  65  68
ATOM     68  C   UNL A   1      31.591  28.204  23.959  1.00  0.00     0.039 A 
ATOM     69  C   UNL A   1      30.916  27.105  24.485  1.00  0.00     0.014 A 
ATOM     70  C   UNL A   1      32.970  28.120  23.725  1.00  0.00     0.014 A 
ATOM     71  C   UNL A   1      31.590  25.901  24.649  1.00  0.00     0.005 A 
ATOM     72  C   UNL A   1      33.638  26.892  23.849  1.00  0.00     0.005 A 
ATOM     73  C   UNL A   1      32.938  25.755  24.259  1.00  0.00    -0.039 A 
BRANCH  73  74
ATOM     74  C   UNL A   1      33.459  24.327  24.175  1.00  0.00     0.074 C 
ATOM     75  C   UNL A   1      34.745  24.272  25.027  1.00  0.00     0.020 C 
ATOM     76  C   UNL A   1      32.554  23.141  24.589  1.00  0.00     0.270 C 
ATOM     77  C   UNL A   1      35.459  22.957  24.783  1.00  0.00     0.062 C 
ATOM     78  N   UNL A   1      33.271  21.858  24.432  1.00  0.00    -0.333 N 
ATOM     79  C   UNL A   1      34.549  21.791  25.142  1.00  0.00     0.262 C 
ATOM     80  H   UNL A   1      33.499  21.850  23.438  1.00  0.00     0.348 HD
BRANCH  78  81
ATOM     81  C   UNL A   1      32.447  20.654  24.652  1.00  0.00     0.284 C 
BRANCH  81  82
ATOM     82  C   UNL A   1      32.528  19.478  23.643  1.00  0.00     0.180 C 
BRANCH  82  83
ATOM     83  N   UNL A   1      32.835  18.194  24.247  1.00  0.00    -0.337 N 
ATOM     84  C   UNL A   1      32.593  17.898  25.636  1.00  0.00     0.120 C 
ATOM     85  C   UNL A   1      33.290  17.104  23.528  1.00  0.00     0.222 C 
ATOM     86  C   UNL A   1      33.209  16.523  25.824  1.00  0.00     0.031 C 
ATOM     87  C   UNL A   1      33.215  15.907  24.432  1.00  0.00     0.102 C 
ATOM     88  O   UNL A   1      33.602  17.083  22.347  1.00  0.00    -0.275 OA
ENDBRANCH  82  83
ENDBRANCH  81  82
ENDBRANCH  78  81
ENDBRANCH  73  74
ENDBRANCH  65  68
ENDBRANCH   1  64
TORSDOF 14
ENDMDL
