MODEL 1
REMARK VINA RESULT:     -13.1      0.000      0.000
REMARK SMILES Cc1ccc(NC(=O)C[C@H]2SC[C@H](C(=O)NCCCNC(=O)c3ccc(-c4c5nc(c(-c6c(F)cccc6F)c6ccc([nH]6)c(-c6c(F)cccc6F)c6nc(c(-c7c(F)cccc7F)c7ccc4[nH]7)C=C6)C=C5)cc3)NC2=O)cc1
REMARK SMILES IDX 17 1 16 2 14 3 15 4 13 6 10 7 11 8 78 9 12 10 77 11 79 12
REMARK SMILES IDX 9 14 7 15 6 16 8 18 5 19 1 20 2 21 3 22 81 23 4 24 80 25
REMARK SMILES IDX 18 26 19 27 20 28 21 29 22 31 23 32 24 33 76 34 25 35 75 36
REMARK SMILES IDX 26 37 27 38 28 39 69 40 29 41 74 42 68 43 70 44 30 45 73 46
REMARK SMILES IDX 67 47 66 48 31 50 57 51 40 52 56 53 41 54 44 55 55 56 71 57
REMARK SMILES IDX 42 58 43 59 54 61 72 62 45 63 32 64 33 65 38 66 34 67 35 68
REMARK SMILES IDX 37 69 39 70 36 71 58 72 59 73 64 74 60 75 61 76 63 77 65 78
REMARK SMILES IDX 62 79 46 80 47 81 52 82 48 83 49 84 51 85 53 86 50 87
REMARK H PARENT 16 5 77 13 6 17 20 30 70 49 44 60
REMARK Flexibility Score: inf
ROOT
ATOM      1  C   UNL A   1      38.086  21.082  25.433  1.00  0.00     0.117 C 
ENDROOT
BRANCH   1   2
ATOM      2  N   UNL A   1      37.682  22.106  24.480  1.00  0.00    -0.354 N 
ATOM      3  C   UNL A   1      36.459  22.639  24.186  1.00  0.00     0.243 C 
ATOM      4  O   UNL A   1      36.406  23.424  23.236  1.00  0.00    -0.273 OA
ATOM      5  H   UNL A   1      38.424  22.483  23.953  1.00  0.00     0.163 HD
BRANCH   3   6
ATOM      6  C   UNL A   1      35.170  22.222  24.923  1.00  0.00     0.181 C 
ATOM      7  C   UNL A   1      32.201  22.801  25.116  1.00  0.00     0.145 C 
ATOM      8  S   UNL A   1      33.144  22.961  26.691  1.00  0.00    -0.145 SA
ATOM      9  C   UNL A   1      32.807  21.660  24.289  1.00  0.00     0.234 C 
ATOM     10  C   UNL A   1      34.761  23.289  25.934  1.00  0.00     0.105 C 
ATOM     11  N   UNL A   1      34.144  21.766  23.985  1.00  0.00    -0.343 N 
ATOM     12  O   UNL A   1      32.178  20.730  23.795  1.00  0.00    -0.274 OA
ATOM     13  H   UNL A   1      34.429  21.520  23.075  1.00  0.00     0.164 HD
BRANCH   7  14
ATOM     14  C   UNL A   1      30.699  22.810  25.406  1.00  0.00     0.124 C 
BRANCH  14  15
ATOM     15  C   UNL A   1      30.195  23.582  26.604  1.00  0.00     0.226 C 
ATOM     16  N   UNL A   1      29.959  24.920  26.591  1.00  0.00    -0.326 N 
ATOM     17  H   UNL A   1      29.530  25.244  27.416  1.00  0.00     0.169 HD
ATOM     18  O   UNL A   1      29.976  22.977  27.661  1.00  0.00    -0.275 OA
BRANCH  16  19
ATOM     19  C   UNL A   1      30.195  25.934  25.657  1.00  0.00     0.041 A 
ATOM     20  C   UNL A   1      30.671  28.939  22.596  1.00  0.00     0.044 C 
ATOM     21  C   UNL A   1      30.493  27.904  23.666  1.00  0.00    -0.051 A 
ATOM     22  C   UNL A   1      31.409  27.807  24.721  1.00  0.00     0.005 A 
ATOM     23  C   UNL A   1      29.416  27.017  23.625  1.00  0.00     0.005 A 
ATOM     24  C   UNL A   1      31.258  26.829  25.714  1.00  0.00     0.026 A 
ATOM     25  C   UNL A   1      29.259  26.054  24.624  1.00  0.00     0.026 A 
ENDBRANCH  16  19
ENDBRANCH  14  15
ENDBRANCH   7  14
ENDBRANCH   3   6
ENDBRANCH   1   2
BRANCH   1  26
ATOM     26  C   UNL A   1      39.426  21.402  26.100  1.00  0.00     0.042 C 
BRANCH  26  27
ATOM     27  C   UNL A   1      39.655  22.881  26.381  1.00  0.00     0.118 C 
BRANCH  27  28
ATOM     28  N   UNL A   1      41.059  23.271  26.447  1.00  0.00    -0.352 N 
ATOM     29  C   UNL A   1      41.597  24.516  26.737  1.00  0.00     0.251 C 
ATOM     30  H   UNL A   1      41.710  22.556  26.262  1.00  0.00     0.163 HD
ATOM     31  O   UNL A   1      42.805  24.668  26.807  1.00  0.00    -0.269 OA
BRANCH  29  32
ATOM     32  C   UNL A   1      40.677  25.624  27.091  1.00  0.00     0.039 A 
ATOM     33  C   UNL A   1      40.762  26.804  26.347  1.00  0.00     0.014 A 
ATOM     34  C   UNL A   1      39.935  25.584  28.270  1.00  0.00     0.014 A 
ATOM     35  C   UNL A   1      40.334  27.998  26.921  1.00  0.00     0.010 A 
ATOM     36  C   UNL A   1      39.601  26.776  28.882  1.00  0.00     0.010 A 
ATOM     37  C   UNL A   1      39.872  27.988  28.240  1.00  0.00    -0.014 A 
BRANCH  37  38
ATOM     38  C   UNL A   1      39.831  29.195  29.060  1.00  0.00     0.031 A 
ATOM     39  C   UNL A   1      38.756  30.195  28.907  1.00  0.00     0.074 A 
ATOM     40  C   UNL A   1      40.780  29.382  30.006  1.00  0.00     0.049 A 
ATOM     41  N   UNL A   1      38.907  31.454  29.156  1.00  0.00    -0.248 NA
ATOM     42  C   UNL A   1      37.421  29.856  28.428  1.00  0.00     0.031 C 
ATOM     43  C   UNL A   1      40.787  30.388  31.065  1.00  0.00     0.029 A 
ATOM     44  N   UNL A   1      42.056  28.801  30.068  1.00  0.00    -0.354 N 
ATOM     45  C   UNL A   1      37.663  32.035  29.125  1.00  0.00     0.074 A 
ATOM     46  C   UNL A   1      36.778  31.013  28.611  1.00  0.00     0.031 C 
ATOM     47  C   UNL A   1      42.051  30.572  31.478  1.00  0.00     0.029 A 
ATOM     48  C   UNL A   1      42.910  29.787  30.608  1.00  0.00     0.049 A 
ATOM     49  H   UNL A   1      42.305  27.890  29.791  1.00  0.00     0.167 HD
ATOM     50  C   UNL A   1      37.469  33.275  29.656  1.00  0.00     0.037 A 
ATOM     51  C   UNL A   1      43.976  30.274  29.911  1.00  0.00     0.037 A 
ATOM     52  C   UNL A   1      38.697  33.832  30.206  1.00  0.00     0.049 A 
ATOM     53  C   UNL A   1      43.928  31.765  29.677  1.00  0.00     0.074 A 
ATOM     54  C   UNL A   1      39.220  33.839  31.489  1.00  0.00     0.029 A 
ATOM     55  N   UNL A   1      39.733  34.204  29.356  1.00  0.00    -0.354 N 
ATOM     56  N   UNL A   1      42.846  32.483  29.798  1.00  0.00    -0.248 NA
ATOM     57  C   UNL A   1      45.078  32.555  29.246  1.00  0.00     0.031 C 
ATOM     58  C   UNL A   1      40.594  34.162  31.404  1.00  0.00     0.029 A 
ATOM     59  C   UNL A   1      40.903  34.373  30.072  1.00  0.00     0.049 A 
ATOM     60  H   UNL A   1      39.645  34.330  28.384  1.00  0.00     0.167 HD
ATOM     61  C   UNL A   1      43.116  33.776  29.436  1.00  0.00     0.074 A 
ATOM     62  C   UNL A   1      44.532  33.778  29.123  1.00  0.00     0.031 C 
ATOM     63  C   UNL A   1      42.144  34.733  29.408  1.00  0.00     0.037 A 
BRANCH  50  64
ATOM     64  C   UNL A   1      36.090  33.809  29.936  1.00  0.00     0.057 A 
ATOM     65  C   UNL A   1      35.250  34.260  28.901  1.00  0.00     0.134 A 
ATOM     66  C   UNL A   1      35.563  33.952  31.230  1.00  0.00     0.134 A 
ATOM     67  F   UNL A   1      35.579  34.113  27.612  1.00  0.00    -0.206 F 
ATOM     68  C   UNL A   1      34.033  34.907  29.141  1.00  0.00     0.040 A 
ATOM     69  C   UNL A   1      34.370  34.642  31.489  1.00  0.00     0.040 A 
ATOM     70  F   UNL A   1      36.186  33.420  32.292  1.00  0.00    -0.206 F 
ATOM     71  C   UNL A   1      33.606  35.136  30.440  1.00  0.00     0.006 A 
ENDBRANCH  50  64
BRANCH  51  72
ATOM     72  C   UNL A   1      44.584  29.290  28.983  1.00  0.00     0.057 A 
ATOM     73  C   UNL A   1      44.197  29.303  27.633  1.00  0.00     0.134 A 
ATOM     74  C   UNL A   1      45.758  28.602  29.303  1.00  0.00     0.134 A 
ATOM     75  F   UNL A   1      43.081  29.948  27.258  1.00  0.00    -0.206 F 
ATOM     76  C   UNL A   1      44.994  28.747  26.630  1.00  0.00     0.040 A 
ATOM     77  C   UNL A   1      46.562  28.035  28.307  1.00  0.00     0.040 A 
ATOM     78  F   UNL A   1      46.205  28.564  30.566  1.00  0.00    -0.206 F 
ATOM     79  C   UNL A   1      46.200  28.139  26.964  1.00  0.00     0.006 A 
ENDBRANCH  51  72
BRANCH  63  80
ATOM     80  C   UNL A   1      42.294  36.119  28.842  1.00  0.00     0.057 A 
ATOM     81  C   UNL A   1      42.968  37.162  29.493  1.00  0.00     0.134 A 
ATOM     82  C   UNL A   1      41.875  36.401  27.523  1.00  0.00     0.134 A 
ATOM     83  F   UNL A   1      43.507  36.994  30.708  1.00  0.00    -0.206 F 
ATOM     84  C   UNL A   1      43.166  38.414  28.894  1.00  0.00     0.040 A 
ATOM     85  C   UNL A   1      42.109  37.629  26.899  1.00  0.00     0.040 A 
ATOM     86  F   UNL A   1      41.240  35.484  26.778  1.00  0.00    -0.206 F 
ATOM     87  C   UNL A   1      42.746  38.647  27.590  1.00  0.00     0.006 A 
ENDBRANCH  63  80
ENDBRANCH  37  38
ENDBRANCH  29  32
ENDBRANCH  27  28
ENDBRANCH  26  27
ENDBRANCH   1  26
TORSDOF 13
ENDMDL
MODEL 2
REMARK VINA RESULT:     -12.7      3.930      9.313
REMARK SMILES Cc1ccc(NC(=O)C[C@H]2SC[C@H](C(=O)NCCCNC(=O)c3ccc(-c4c5nc(c(-c6c(F)cccc6F)c6ccc([nH]6)c(-c6c(F)cccc6F)c6nc(c(-c7c(F)cccc7F)c7ccc4[nH]7)C=C6)C=C5)cc3)NC2=O)cc1
REMARK SMILES IDX 17 1 16 2 14 3 15 4 13 6 10 7 11 8 78 9 12 10 77 11 79 12
REMARK SMILES IDX 9 14 7 15 6 16 8 18 5 19 1 20 2 21 3 22 81 23 4 24 80 25
REMARK SMILES IDX 18 26 19 27 20 28 21 29 22 31 23 32 24 33 76 34 25 35 75 36
REMARK SMILES IDX 26 37 27 38 28 39 69 40 29 41 74 42 68 43 70 44 30 45 73 46
REMARK SMILES IDX 67 47 66 48 31 50 57 51 40 52 56 53 41 54 44 55 55 56 71 57
REMARK SMILES IDX 42 58 43 59 54 61 72 62 45 63 32 64 33 65 38 66 34 67 35 68
REMARK SMILES IDX 37 69 39 70 36 71 58 72 59 73 64 74 60 75 61 76 63 77 65 78
REMARK SMILES IDX 62 79 46 80 47 81 52 82 48 83 49 84 51 85 53 86 50 87
REMARK H PARENT 16 5 77 13 6 17 20 30 70 49 44 60
REMARK Flexibility Score: inf
ROOT
ATOM      1  C   UNL A   1      32.087  30.211  26.235  1.00  0.00     0.117 C 
ENDROOT
BRANCH   1   2
ATOM      2  N   UNL A   1      31.841  29.985  24.817  1.00  0.00    -0.354 N 
ATOM      3  C   UNL A   1      31.821  28.841  24.072  1.00  0.00     0.243 C 
ATOM      4  O   UNL A   1      31.694  28.972  22.851  1.00  0.00    -0.273 OA
ATOM      5  H   UNL A   1      31.655  30.805  24.304  1.00  0.00     0.163 HD
BRANCH   3   6
ATOM      6  C   UNL A   1      32.045  27.444  24.684  1.00  0.00     0.181 C 
ATOM      7  C   UNL A   1      31.403  24.506  24.302  1.00  0.00     0.145 C 
ATOM      8  S   UNL A   1      30.900  25.223  25.922  1.00  0.00    -0.145 SA
ATOM      9  C   UNL A   1      32.710  25.171  23.850  1.00  0.00     0.234 C 
ATOM     10  C   UNL A   1      30.770  26.944  25.359  1.00  0.00     0.105 C 
ATOM     11  N   UNL A   1      32.691  26.541  23.731  1.00  0.00    -0.343 N 
ATOM     12  O   UNL A   1      33.722  24.578  23.490  1.00  0.00    -0.274 OA
ATOM     13  H   UNL A   1      33.141  26.941  22.952  1.00  0.00     0.164 HD
BRANCH   7  14
ATOM     14  C   UNL A   1      31.312  22.980  24.357  1.00  0.00     0.124 C 
BRANCH  14  15
ATOM     15  C   UNL A   1      31.251  22.305  25.708  1.00  0.00     0.226 C 
ATOM     16  N   UNL A   1      32.351  21.978  26.436  1.00  0.00    -0.326 N 
ATOM     17  H   UNL A   1      32.133  21.648  27.337  1.00  0.00     0.169 HD
ATOM     18  O   UNL A   1      30.147  22.031  26.195  1.00  0.00    -0.275 OA
BRANCH  16  19
ATOM     19  C   UNL A   1      33.725  22.012  26.178  1.00  0.00     0.041 A 
ATOM     20  C   UNL A   1      37.939  21.802  25.268  1.00  0.00     0.044 C 
ATOM     21  C   UNL A   1      36.472  21.878  25.568  1.00  0.00    -0.051 A 
ATOM     22  C   UNL A   1      35.942  22.982  26.248  1.00  0.00     0.005 A 
ATOM     23  C   UNL A   1      35.613  20.848  25.181  1.00  0.00     0.005 A 
ATOM     24  C   UNL A   1      34.574  23.050  26.548  1.00  0.00     0.026 A 
ATOM     25  C   UNL A   1      34.249  20.926  25.467  1.00  0.00     0.026 A 
ENDBRANCH  16  19
ENDBRANCH  14  15
ENDBRANCH   7  14
ENDBRANCH   3   6
ENDBRANCH   1   2
BRANCH   1  26
ATOM     26  C   UNL A   1      33.561  30.495  26.532  1.00  0.00     0.042 C 
BRANCH  26  27
ATOM     27  C   UNL A   1      34.031  30.027  27.903  1.00  0.00     0.118 C 
BRANCH  27  28
ATOM     28  N   UNL A   1      34.689  31.058  28.698  1.00  0.00    -0.352 N 
ATOM     29  C   UNL A   1      35.968  31.048  29.235  1.00  0.00     0.251 C 
ATOM     30  H   UNL A   1      34.156  31.865  28.877  1.00  0.00     0.163 HD
ATOM     31  O   UNL A   1      36.395  32.020  29.836  1.00  0.00    -0.269 OA
BRANCH  29  32
ATOM     32  C   UNL A   1      36.852  29.892  28.950  1.00  0.00     0.039 A 
ATOM     33  C   UNL A   1      37.140  29.018  30.001  1.00  0.00     0.014 A 
ATOM     34  C   UNL A   1      37.564  29.819  27.754  1.00  0.00     0.014 A 
ATOM     35  C   UNL A   1      38.309  28.262  29.952  1.00  0.00     0.010 A 
ATOM     36  C   UNL A   1      38.772  29.148  27.744  1.00  0.00     0.010 A 
ATOM     37  C   UNL A   1      39.181  28.433  28.874  1.00  0.00    -0.014 A 
BRANCH  37  38
ATOM     38  C   UNL A   1      40.588  28.052  28.942  1.00  0.00     0.031 A 
ATOM     39  C   UNL A   1      41.077  26.796  28.337  1.00  0.00     0.074 A 
ATOM     40  C   UNL A   1      41.469  28.885  29.542  1.00  0.00     0.049 A 
ATOM     41  N   UNL A   1      42.097  26.138  28.779  1.00  0.00    -0.248 NA
ATOM     42  C   UNL A   1      40.430  26.164  27.194  1.00  0.00     0.031 C 
ATOM     43  C   UNL A   1      42.927  28.800  29.515  1.00  0.00     0.029 A 
ATOM     44  N   UNL A   1      41.195  29.888  30.485  1.00  0.00    -0.354 N 
ATOM     45  C   UNL A   1      42.395  25.167  27.855  1.00  0.00     0.074 A 
ATOM     46  C   UNL A   1      41.296  25.185  26.915  1.00  0.00     0.031 C 
ATOM     47  C   UNL A   1      43.418  29.471  30.568  1.00  0.00     0.029 A 
ATOM     48  C   UNL A   1      42.289  29.896  31.377  1.00  0.00     0.049 A 
ATOM     49  H   UNL A   1      40.401  30.468  30.518  1.00  0.00     0.167 HD
ATOM     50  C   UNL A   1      43.599  24.530  27.890  1.00  0.00     0.037 A 
ATOM     51  C   UNL A   1      42.135  29.635  32.706  1.00  0.00     0.037 A 
ATOM     52  C   UNL A   1      44.438  25.005  28.981  1.00  0.00     0.049 A 
ATOM     53  C   UNL A   1      42.934  28.452  33.198  1.00  0.00     0.074 A 
ATOM     54  C   UNL A   1      45.434  25.967  29.035  1.00  0.00     0.029 A 
ATOM     55  N   UNL A   1      44.091  24.723  30.298  1.00  0.00    -0.354 N 
ATOM     56  N   UNL A   1      43.444  27.545  32.411  1.00  0.00    -0.248 NA
ATOM     57  C   UNL A   1      43.182  28.170  34.609  1.00  0.00     0.031 C 
ATOM     58  C   UNL A   1      45.648  26.305  30.392  1.00  0.00     0.029 A 
ATOM     59  C   UNL A   1      44.797  25.535  31.164  1.00  0.00     0.049 A 
ATOM     60  H   UNL A   1      43.436  24.041  30.573  1.00  0.00     0.167 HD
ATOM     61  C   UNL A   1      44.031  26.566  33.167  1.00  0.00     0.074 A 
ATOM     62  C   UNL A   1      43.865  27.014  34.536  1.00  0.00     0.031 C 
ATOM     63  C   UNL A   1      44.592  25.458  32.600  1.00  0.00     0.037 A 
BRANCH  50  64
ATOM     64  C   UNL A   1      44.095  23.709  26.730  1.00  0.00     0.057 A 
ATOM     65  C   UNL A   1      44.944  24.256  25.749  1.00  0.00     0.134 A 
ATOM     66  C   UNL A   1      43.715  22.376  26.506  1.00  0.00     0.134 A 
ATOM     67  F   UNL A   1      45.458  25.486  25.867  1.00  0.00    -0.206 F 
ATOM     68  C   UNL A   1      45.291  23.569  24.580  1.00  0.00     0.040 A 
ATOM     69  C   UNL A   1      44.013  21.693  25.318  1.00  0.00     0.040 A 
ATOM     70  F   UNL A   1      43.042  21.684  27.438  1.00  0.00    -0.206 F 
ATOM     71  C   UNL A   1      44.793  22.297  24.341  1.00  0.00     0.006 A 
ENDBRANCH  50  64
BRANCH  51  72
ATOM     72  C   UNL A   1      40.819  30.053  33.249  1.00  0.00     0.057 A 
ATOM     73  C   UNL A   1      40.588  31.418  33.488  1.00  0.00     0.134 A 
ATOM     74  C   UNL A   1      39.701  29.217  33.200  1.00  0.00     0.134 A 
ATOM     75  F   UNL A   1      41.619  32.277  33.544  1.00  0.00    -0.206 F 
ATOM     76  C   UNL A   1      39.298  31.946  33.569  1.00  0.00     0.040 A 
ATOM     77  C   UNL A   1      38.403  29.733  33.288  1.00  0.00     0.040 A 
ATOM     78  F   UNL A   1      39.839  27.906  32.954  1.00  0.00    -0.206 F 
ATOM     79  C   UNL A   1      38.198  31.105  33.436  1.00  0.00     0.006 A 
ENDBRANCH  51  72
BRANCH  63  80
ATOM     80  C   UNL A   1      45.081  24.245  33.344  1.00  0.00     0.057 A 
ATOM     81  C   UNL A   1      46.310  24.182  34.018  1.00  0.00     0.134 A 
ATOM     82  C   UNL A   1      44.234  23.130  33.526  1.00  0.00     0.134 A 
ATOM     83  F   UNL A   1      47.163  25.215  34.013  1.00  0.00    -0.206 F 
ATOM     84  C   UNL A   1      46.691  23.067  34.775  1.00  0.00     0.040 A 
ATOM     85  C   UNL A   1      44.585  22.033  34.318  1.00  0.00     0.040 A 
ATOM     86  F   UNL A   1      43.021  23.070  32.958  1.00  0.00    -0.206 F 
ATOM     87  C   UNL A   1      45.825  21.993  34.937  1.00  0.00     0.006 A 
ENDBRANCH  63  80
ENDBRANCH  37  38
ENDBRANCH  29  32
ENDBRANCH  27  28
ENDBRANCH  26  27
ENDBRANCH   1  26
TORSDOF 13
ENDMDL
MODEL 3
REMARK VINA RESULT:     -12.6      4.166      9.042
REMARK SMILES Cc1ccc(NC(=O)C[C@H]2SC[C@H](C(=O)NCCCNC(=O)c3ccc(-c4c5nc(c(-c6c(F)cccc6F)c6ccc([nH]6)c(-c6c(F)cccc6F)c6nc(c(-c7c(F)cccc7F)c7ccc4[nH]7)C=C6)C=C5)cc3)NC2=O)cc1
REMARK SMILES IDX 17 1 16 2 14 3 15 4 13 6 10 7 11 8 78 9 12 10 77 11 79 12
REMARK SMILES IDX 9 14 7 15 6 16 8 18 5 19 1 20 2 21 3 22 81 23 4 24 80 25
REMARK SMILES IDX 18 26 19 27 20 28 21 29 22 31 23 32 24 33 76 34 25 35 75 36
REMARK SMILES IDX 26 37 27 38 28 39 69 40 29 41 74 42 68 43 70 44 30 45 73 46
REMARK SMILES IDX 67 47 66 48 31 50 57 51 40 52 56 53 41 54 44 55 55 56 71 57
REMARK SMILES IDX 42 58 43 59 54 61 72 62 45 63 32 64 33 65 38 66 34 67 35 68
REMARK SMILES IDX 37 69 39 70 36 71 58 72 59 73 64 74 60 75 61 76 63 77 65 78
REMARK SMILES IDX 62 79 46 80 47 81 52 82 48 83 49 84 51 85 53 86 50 87
REMARK H PARENT 16 5 77 13 6 17 20 30 70 49 44 60
REMARK Flexibility Score: inf
ROOT
ATOM      1  C   UNL A   1      34.960  31.072  28.304  1.00  0.00     0.117 C 
ENDROOT
BRANCH   1   2
ATOM      2  N   UNL A   1      33.603  31.137  27.781  1.00  0.00    -0.354 N 
ATOM      3  C   UNL A   1      32.961  30.396  26.831  1.00  0.00     0.243 C 
ATOM      4  O   UNL A   1      31.826  30.760  26.510  1.00  0.00    -0.273 OA
ATOM      5  H   UNL A   1      33.047  31.842  28.187  1.00  0.00     0.163 HD
BRANCH   3   6
ATOM      6  C   UNL A   1      33.633  29.215  26.100  1.00  0.00     0.181 C 
ATOM      7  C   UNL A   1      33.129  27.036  24.055  1.00  0.00     0.145 C 
ATOM      8  S   UNL A   1      33.720  26.457  25.702  1.00  0.00    -0.145 SA
ATOM      9  C   UNL A   1      33.790  28.383  23.737  1.00  0.00     0.234 C 
ATOM     10  C   UNL A   1      33.126  27.885  26.651  1.00  0.00     0.105 C 
ATOM     11  N   UNL A   1      33.591  29.393  24.649  1.00  0.00    -0.343 N 
ATOM     12  O   UNL A   1      34.382  28.656  22.698  1.00  0.00    -0.274 OA
ATOM     13  H   UNL A   1      33.408  30.296  24.301  1.00  0.00     0.164 HD
BRANCH   7  14
ATOM     14  C   UNL A   1      33.215  25.894  23.041  1.00  0.00     0.124 C 
BRANCH  14  15
ATOM     15  C   UNL A   1      31.955  25.461  22.326  1.00  0.00     0.226 C 
ATOM     16  N   UNL A   1      31.334  24.273  22.550  1.00  0.00    -0.326 N 
ATOM     17  H   UNL A   1      30.469  24.196  22.086  1.00  0.00     0.169 HD
ATOM     18  O   UNL A   1      31.445  26.219  21.493  1.00  0.00    -0.275 OA
BRANCH  16  19
ATOM     19  C   UNL A   1      31.661  23.137  23.298  1.00  0.00     0.041 A 
ATOM     20  C   UNL A   1      32.690  19.464  25.317  1.00  0.00     0.044 C 
ATOM     21  C   UNL A   1      32.349  20.743  24.612  1.00  0.00    -0.051 A 
ATOM     22  C   UNL A   1      31.987  21.882  25.341  1.00  0.00     0.005 A 
ATOM     23  C   UNL A   1      32.380  20.816  23.218  1.00  0.00     0.005 A 
ATOM     24  C   UNL A   1      31.649  23.075  24.688  1.00  0.00     0.026 A 
ATOM     25  C   UNL A   1      32.058  22.010  22.570  1.00  0.00     0.026 A 
ENDBRANCH  16  19
ENDBRANCH  14  15
ENDBRANCH   7  14
ENDBRANCH   3   6
ENDBRANCH   1   2
BRANCH   1  26
ATOM     26  C   UNL A   1      35.117  31.842  29.617  1.00  0.00     0.042 C 
BRANCH  26  27
ATOM     27  C   UNL A   1      34.808  33.330  29.519  1.00  0.00     0.118 C 
BRANCH  27  28
ATOM     28  N   UNL A   1      33.911  33.828  30.556  1.00  0.00    -0.352 N 
ATOM     29  C   UNL A   1      34.177  34.028  31.903  1.00  0.00     0.251 C 
ATOM     30  H   UNL A   1      32.999  34.052  30.262  1.00  0.00     0.163 HD
ATOM     31  O   UNL A   1      33.329  34.507  32.637  1.00  0.00    -0.269 OA
BRANCH  29  32
ATOM     32  C   UNL A   1      35.550  33.775  32.404  1.00  0.00     0.039 A 
ATOM     33  C   UNL A   1      36.581  34.579  31.910  1.00  0.00     0.014 A 
ATOM     34  C   UNL A   1      35.839  32.627  33.139  1.00  0.00     0.014 A 
ATOM     35  C   UNL A   1      37.885  34.090  31.923  1.00  0.00     0.010 A 
ATOM     36  C   UNL A   1      37.112  32.096  33.065  1.00  0.00     0.010 A 
ATOM     37  C   UNL A   1      38.118  32.793  32.388  1.00  0.00    -0.014 A 
BRANCH  37  38
ATOM     38  C   UNL A   1      39.320  32.044  32.037  1.00  0.00     0.031 A 
ATOM     39  C   UNL A   1      39.266  30.885  31.123  1.00  0.00     0.074 A 
ATOM     40  C   UNL A   1      40.514  32.442  32.531  1.00  0.00     0.049 A 
ATOM     41  N   UNL A   1      40.090  29.891  31.176  1.00  0.00    -0.248 NA
ATOM     42  C   UNL A   1      38.250  30.740  30.086  1.00  0.00     0.031 C 
ATOM     43  C   UNL A   1      41.839  31.978  32.126  1.00  0.00     0.029 A 
ATOM     44  N   UNL A   1      40.753  33.227  33.670  1.00  0.00    -0.354 N 
ATOM     45  C   UNL A   1      39.889  29.125  30.054  1.00  0.00     0.074 A 
ATOM     46  C   UNL A   1      38.696  29.661  29.436  1.00  0.00     0.031 C 
ATOM     47  C   UNL A   1      42.705  32.222  33.122  1.00  0.00     0.029 A 
ATOM     48  C   UNL A   1      41.940  32.729  34.248  1.00  0.00     0.049 A 
ATOM     49  H   UNL A   1      40.203  33.974  33.999  1.00  0.00     0.167 HD
ATOM     50  C   UNL A   1      40.815  28.199  29.677  1.00  0.00     0.037 A 
ATOM     51  C   UNL A   1      41.963  32.209  35.508  1.00  0.00     0.037 A 
ATOM     52  C   UNL A   1      41.949  28.158  30.590  1.00  0.00     0.049 A 
ATOM     53  C   UNL A   1      42.425  30.774  35.574  1.00  0.00     0.074 A 
ATOM     54  C   UNL A   1      43.190  28.776  30.557  1.00  0.00     0.029 A 
ATOM     55  N   UNL A   1      41.784  27.674  31.883  1.00  0.00    -0.354 N 
ATOM     56  N   UNL A   1      42.467  29.978  34.542  1.00  0.00    -0.248 NA
ATOM     57  C   UNL A   1      42.831  30.109  36.809  1.00  0.00     0.031 C 
ATOM     58  C   UNL A   1      43.749  28.711  31.854  1.00  0.00     0.029 A 
ATOM     59  C   UNL A   1      42.859  28.037  32.671  1.00  0.00     0.049 A 
ATOM     60  H   UNL A   1      41.012  27.147  32.191  1.00  0.00     0.167 HD
ATOM     61  C   UNL A   1      42.847  28.727  34.948  1.00  0.00     0.074 A 
ATOM     62  C   UNL A   1      43.089  28.864  36.371  1.00  0.00     0.031 C 
ATOM     63  C   UNL A   1      42.913  27.677  34.078  1.00  0.00     0.037 A 
BRANCH  50  64
ATOM     64  C   UNL A   1      40.800  27.576  28.307  1.00  0.00     0.057 A 
ATOM     65  C   UNL A   1      40.141  26.358  28.059  1.00  0.00     0.134 A 
ATOM     66  C   UNL A   1      41.476  28.119  27.202  1.00  0.00     0.134 A 
ATOM     67  F   UNL A   1      39.386  25.762  28.989  1.00  0.00    -0.206 F 
ATOM     68  C   UNL A   1      40.244  25.676  26.840  1.00  0.00     0.040 A 
ATOM     69  C   UNL A   1      41.629  27.426  25.993  1.00  0.00     0.040 A 
ATOM     70  F   UNL A   1      42.009  29.349  27.255  1.00  0.00    -0.206 F 
ATOM     71  C   UNL A   1      41.022  26.190  25.814  1.00  0.00     0.006 A 
ENDBRANCH  50  64
BRANCH  51  72
ATOM     72  C   UNL A   1      40.972  32.824  36.426  1.00  0.00     0.057 A 
ATOM     73  C   UNL A   1      41.289  34.044  37.046  1.00  0.00     0.134 A 
ATOM     74  C   UNL A   1      39.629  32.438  36.427  1.00  0.00     0.134 A 
ATOM     75  F   UNL A   1      42.560  34.475  37.078  1.00  0.00    -0.206 F 
ATOM     76  C   UNL A   1      40.302  34.894  37.552  1.00  0.00     0.040 A 
ATOM     77  C   UNL A   1      38.633  33.278  36.938  1.00  0.00     0.040 A 
ATOM     78  F   UNL A   1      39.246  31.298  35.835  1.00  0.00    -0.206 F 
ATOM     79  C   UNL A   1      38.964  34.525  37.468  1.00  0.00     0.006 A 
ENDBRANCH  51  72
BRANCH  63  80
ATOM     80  C   UNL A   1      43.125  26.237  34.456  1.00  0.00     0.057 A 
ATOM     81  C   UNL A   1      42.156  25.441  35.083  1.00  0.00     0.134 A 
ATOM     82  C   UNL A   1      44.297  25.558  34.055  1.00  0.00     0.134 A 
ATOM     83  F   UNL A   1      40.958  25.936  35.422  1.00  0.00    -0.206 F 
ATOM     84  C   UNL A   1      42.357  24.078  35.338  1.00  0.00     0.040 A 
ATOM     85  C   UNL A   1      44.489  24.189  34.262  1.00  0.00     0.040 A 
ATOM     86  F   UNL A   1      45.295  26.194  33.424  1.00  0.00    -0.206 F 
ATOM     87  C   UNL A   1      43.521  23.445  34.918  1.00  0.00     0.006 A 
ENDBRANCH  63  80
ENDBRANCH  37  38
ENDBRANCH  29  32
ENDBRANCH  27  28
ENDBRANCH  26  27
ENDBRANCH   1  26
TORSDOF 13
ENDMDL
