MODEL 1
REMARK VINA RESULT:     -10.1      0.000      0.000
REMARK SMILES C=Cc1cccc(-c2ccc([C@@H](C)C(=O)NCCCNC(=O)c3ccc(-c4c5nc(c(-c6c(F)cccc6F)c6ccc([nH]6)c(-c6c(F)cccc6F)c6nc(c(-c7c(F)cccc7F)c7ccc4[nH]7)C=C6)C=C5)cc3)cc2)c1
REMARK SMILES IDX 17 1 16 2 14 3 15 4 12 6 13 7 11 8 8 9 9 10 78 11 10 12
REMARK SMILES IDX 77 13 7 14 3 15 4 16 79 17 5 18 6 19 2 20 1 21 18 22 19 23
REMARK SMILES IDX 20 24 21 25 22 27 23 28 24 29 76 30 25 31 75 32 26 33 27 34
REMARK SMILES IDX 28 35 69 36 29 37 74 38 68 39 70 40 30 41 73 42 67 43 66 44
REMARK SMILES IDX 31 46 57 47 40 48 56 49 41 50 44 51 55 52 71 53 42 54 43 55
REMARK SMILES IDX 54 57 72 58 45 59 32 60 33 61 38 62 34 63 35 64 37 65 39 66
REMARK SMILES IDX 36 67 58 68 59 69 64 70 60 71 61 72 63 73 65 74 62 75 46 76
REMARK SMILES IDX 47 77 52 78 48 79 49 80 51 81 53 82 50 83
REMARK H PARENT 16 5 20 26 70 45 44 56
REMARK Flexibility Score: inf
ROOT
ATOM      1  C   UNL A   1      33.801  35.031  29.844  1.00  0.00     0.117 C 
ENDROOT
BRANCH   1   2
ATOM      2  N   UNL A   1      32.629  35.117  30.692  1.00  0.00    -0.356 N 
ATOM      3  C   UNL A   1      32.470  35.520  31.983  1.00  0.00     0.227 C 
ATOM      4  O   UNL A   1      31.331  35.408  32.452  1.00  0.00    -0.274 OA
ATOM      5  H   UNL A   1      31.794  34.833  30.255  1.00  0.00     0.163 HD
BRANCH   3   6
ATOM      6  C   UNL A   1      33.604  36.086  32.853  1.00  0.00     0.105 C 
ATOM      7  C   UNL A   1      34.031  37.510  32.497  1.00  0.00     0.023 C 
BRANCH   6   8
ATOM      8  C   UNL A   1      34.725  35.088  33.091  1.00  0.00    -0.036 A 
ATOM      9  C   UNL A   1      36.727  33.066  33.391  1.00  0.00    -0.018 A 
ATOM     10  C   UNL A   1      37.026  34.325  32.846  1.00  0.00     0.009 A 
ATOM     11  C   UNL A   1      35.408  32.863  33.827  1.00  0.00     0.009 A 
ATOM     12  C   UNL A   1      36.052  35.327  32.725  1.00  0.00     0.005 A 
ATOM     13  C   UNL A   1      34.423  33.845  33.663  1.00  0.00     0.005 A 
BRANCH   9  14
ATOM     14  C   UNL A   1      37.751  31.998  33.480  1.00  0.00    -0.018 A 
ATOM     15  C   UNL A   1      38.428  29.653  33.151  1.00  0.00    -0.026 A 
ATOM     16  C   UNL A   1      39.703  29.956  33.634  1.00  0.00     0.008 A 
ATOM     17  C   UNL A   1      37.468  30.675  33.081  1.00  0.00     0.016 A 
ATOM     18  C   UNL A   1      40.015  31.256  34.027  1.00  0.00     0.001 A 
ATOM     19  C   UNL A   1      39.048  32.260  33.956  1.00  0.00     0.009 A 
BRANCH  15  20
ATOM     20  C   UNL A   1      38.118  28.263  32.791  1.00  0.00     0.000 C 
ATOM     21  C   UNL A   1      38.952  27.449  32.132  1.00  0.00     0.009 C 
ENDBRANCH  15  20
ENDBRANCH   9  14
ENDBRANCH   6   8
ENDBRANCH   3   6
ENDBRANCH   1   2
BRANCH   1  22
ATOM     22  C   UNL A   1      34.336  33.606  29.733  1.00  0.00     0.042 C 
BRANCH  22  23
ATOM     23  C   UNL A   1      34.551  33.131  28.301  1.00  0.00     0.118 C 
BRANCH  23  24
ATOM     24  N   UNL A   1      33.787  31.930  27.998  1.00  0.00    -0.352 N 
ATOM     25  C   UNL A   1      34.193  30.638  27.782  1.00  0.00     0.251 C 
ATOM     26  H   UNL A   1      32.814  32.068  27.937  1.00  0.00     0.163 HD
ATOM     27  O   UNL A   1      33.382  29.828  27.338  1.00  0.00    -0.269 OA
BRANCH  25  28
ATOM     28  C   UNL A   1      35.581  30.195  28.065  1.00  0.00     0.039 A 
ATOM     29  C   UNL A   1      35.890  29.756  29.360  1.00  0.00     0.014 A 
ATOM     30  C   UNL A   1      36.597  30.287  27.112  1.00  0.00     0.014 A 
ATOM     31  C   UNL A   1      37.198  29.384  29.684  1.00  0.00     0.010 A 
ATOM     32  C   UNL A   1      37.884  29.842  27.413  1.00  0.00     0.010 A 
ATOM     33  C   UNL A   1      38.205  29.409  28.707  1.00  0.00    -0.014 A 
BRANCH  33  34
ATOM     34  C   UNL A   1      39.609  29.049  29.035  1.00  0.00     0.031 A 
ATOM     35  C   UNL A   1      40.489  30.040  29.751  1.00  0.00     0.074 A 
ATOM     36  C   UNL A   1      40.111  27.862  28.645  1.00  0.00     0.049 A 
ATOM     37  N   UNL A   1      41.763  29.959  30.043  1.00  0.00    -0.248 NA
ATOM     38  C   UNL A   1      39.861  31.305  30.168  1.00  0.00     0.031 C 
ATOM     39  C   UNL A   1      39.378  26.830  27.911  1.00  0.00     0.029 A 
ATOM     40  N   UNL A   1      41.366  27.328  28.803  1.00  0.00    -0.354 N 
ATOM     41  C   UNL A   1      42.092  31.168  30.644  1.00  0.00     0.074 A 
ATOM     42  C   UNL A   1      40.897  31.981  30.644  1.00  0.00     0.031 C 
ATOM     43  C   UNL A   1      40.191  25.782  27.695  1.00  0.00     0.029 A 
ATOM     44  C   UNL A   1      41.509  26.080  28.247  1.00  0.00     0.049 A 
ATOM     45  H   UNL A   1      42.096  27.796  29.270  1.00  0.00     0.167 HD
ATOM     46  C   UNL A   1      43.278  31.559  31.167  1.00  0.00     0.037 A 
ATOM     47  C   UNL A   1      42.583  25.271  28.185  1.00  0.00     0.037 A 
ATOM     48  C   UNL A   1      44.453  30.730  31.219  1.00  0.00     0.049 A 
ATOM     49  C   UNL A   1      43.877  25.714  28.811  1.00  0.00     0.074 A 
ATOM     50  C   UNL A   1      45.683  31.012  31.788  1.00  0.00     0.029 A 
ATOM     51  N   UNL A   1      44.538  29.450  30.696  1.00  0.00    -0.354 N 
ATOM     52  N   UNL A   1      44.157  26.839  29.425  1.00  0.00    -0.248 NA
ATOM     53  C   UNL A   1      45.003  24.771  28.747  1.00  0.00     0.031 C 
ATOM     54  C   UNL A   1      46.522  29.912  31.587  1.00  0.00     0.029 A 
ATOM     55  C   UNL A   1      45.801  28.931  30.923  1.00  0.00     0.049 A 
ATOM     56  H   UNL A   1      43.809  28.981  30.230  1.00  0.00     0.167 HD
ATOM     57  C   UNL A   1      45.474  26.722  29.850  1.00  0.00     0.074 A 
ATOM     58  C   UNL A   1      45.936  25.415  29.432  1.00  0.00     0.031 C 
ATOM     59  C   UNL A   1      46.233  27.618  30.526  1.00  0.00     0.037 A 
BRANCH  46  60
ATOM     60  C   UNL A   1      43.366  32.943  31.738  1.00  0.00     0.057 A 
ATOM     61  C   UNL A   1      43.532  34.069  30.922  1.00  0.00     0.134 A 
ATOM     62  C   UNL A   1      43.232  33.157  33.117  1.00  0.00     0.134 A 
ATOM     63  F   UNL A   1      43.679  33.931  29.596  1.00  0.00    -0.206 F 
ATOM     64  C   UNL A   1      43.579  35.358  31.458  1.00  0.00     0.040 A 
ATOM     65  C   UNL A   1      43.253  34.442  33.661  1.00  0.00     0.040 A 
ATOM     66  F   UNL A   1      43.064  32.122  33.954  1.00  0.00    -0.206 F 
ATOM     67  C   UNL A   1      43.431  35.547  32.831  1.00  0.00     0.006 A 
ENDBRANCH  46  60
BRANCH  47  68
ATOM     68  C   UNL A   1      42.485  23.944  27.528  1.00  0.00     0.057 A 
ATOM     69  C   UNL A   1      42.625  23.814  26.141  1.00  0.00     0.134 A 
ATOM     70  C   UNL A   1      42.221  22.781  28.262  1.00  0.00     0.134 A 
ATOM     71  F   UNL A   1      42.859  24.895  25.383  1.00  0.00    -0.206 F 
ATOM     72  C   UNL A   1      42.479  22.581  25.503  1.00  0.00     0.040 A 
ATOM     73  C   UNL A   1      42.097  21.538  27.640  1.00  0.00     0.040 A 
ATOM     74  F   UNL A   1      42.083  22.839  29.594  1.00  0.00    -0.206 F 
ATOM     75  C   UNL A   1      42.217  21.438  26.254  1.00  0.00     0.006 A 
ENDBRANCH  47  68
BRANCH  59  76
ATOM     76  C   UNL A   1      47.619  27.193  30.908  1.00  0.00     0.057 A 
ATOM     77  C   UNL A   1      47.886  26.539  32.116  1.00  0.00     0.134 A 
ATOM     78  C   UNL A   1      48.692  27.408  30.033  1.00  0.00     0.134 A 
ATOM     79  F   UNL A   1      46.902  26.315  33.001  1.00  0.00    -0.206 F 
ATOM     80  C   UNL A   1      49.178  26.133  32.453  1.00  0.00     0.040 A 
ATOM     81  C   UNL A   1      49.984  26.986  30.349  1.00  0.00     0.040 A 
ATOM     82  F   UNL A   1      48.499  28.022  28.856  1.00  0.00    -0.206 F 
ATOM     83  C   UNL A   1      50.230  26.351  31.564  1.00  0.00     0.006 A 
ENDBRANCH  59  76
ENDBRANCH  33  34
ENDBRANCH  25  28
ENDBRANCH  23  24
ENDBRANCH  22  23
ENDBRANCH   1  22
TORSDOF 13
ENDMDL
MODEL 2
REMARK VINA RESULT:     -10.0      1.819      3.373
REMARK SMILES C=Cc1cccc(-c2ccc([C@@H](C)C(=O)NCCCNC(=O)c3ccc(-c4c5nc(c(-c6c(F)cccc6F)c6ccc([nH]6)c(-c6c(F)cccc6F)c6nc(c(-c7c(F)cccc7F)c7ccc4[nH]7)C=C6)C=C5)cc3)cc2)c1
REMARK SMILES IDX 17 1 16 2 14 3 15 4 12 6 13 7 11 8 8 9 9 10 78 11 10 12
REMARK SMILES IDX 77 13 7 14 3 15 4 16 79 17 5 18 6 19 2 20 1 21 18 22 19 23
REMARK SMILES IDX 20 24 21 25 22 27 23 28 24 29 76 30 25 31 75 32 26 33 27 34
REMARK SMILES IDX 28 35 69 36 29 37 74 38 68 39 70 40 30 41 73 42 67 43 66 44
REMARK SMILES IDX 31 46 57 47 40 48 56 49 41 50 44 51 55 52 71 53 42 54 43 55
REMARK SMILES IDX 54 57 72 58 45 59 32 60 33 61 38 62 34 63 35 64 37 65 39 66
REMARK SMILES IDX 36 67 58 68 59 69 64 70 60 71 61 72 63 73 65 74 62 75 46 76
REMARK SMILES IDX 47 77 52 78 48 79 49 80 51 81 53 82 50 83
REMARK H PARENT 16 5 20 26 70 45 44 56
REMARK Flexibility Score: inf
ROOT
ATOM      1  C   UNL A   1      33.629  34.688  29.879  1.00  0.00     0.117 C 
ENDROOT
BRANCH   1   2
ATOM      2  N   UNL A   1      34.041  35.504  31.004  1.00  0.00    -0.356 N 
ATOM      3  C   UNL A   1      34.814  35.229  32.090  1.00  0.00     0.227 C 
ATOM      4  O   UNL A   1      34.924  36.136  32.925  1.00  0.00    -0.274 OA
ATOM      5  H   UNL A   1      33.699  36.427  30.979  1.00  0.00     0.163 HD
BRANCH   3   6
ATOM      6  C   UNL A   1      35.531  33.888  32.318  1.00  0.00     0.105 C 
ATOM      7  C   UNL A   1      35.327  33.283  33.707  1.00  0.00     0.023 C 
BRANCH   6   8
ATOM      8  C   UNL A   1      36.953  33.876  31.783  1.00  0.00    -0.036 A 
ATOM      9  C   UNL A   1      39.557  33.995  30.603  1.00  0.00    -0.018 A 
ATOM     10  C   UNL A   1      39.310  34.481  31.898  1.00  0.00     0.009 A 
ATOM     11  C   UNL A   1      38.475  33.404  29.933  1.00  0.00     0.009 A 
ATOM     12  C   UNL A   1      38.040  34.397  32.488  1.00  0.00     0.005 A 
ATOM     13  C   UNL A   1      37.195  33.362  30.501  1.00  0.00     0.005 A 
BRANCH   9  14
ATOM     14  C   UNL A   1      40.891  34.123  29.970  1.00  0.00    -0.018 A 
ATOM     15  C   UNL A   1      43.181  33.285  29.620  1.00  0.00    -0.026 A 
ATOM     16  C   UNL A   1      43.436  34.352  28.755  1.00  0.00     0.008 A 
ATOM     17  C   UNL A   1      41.914  33.184  30.218  1.00  0.00     0.016 A 
ATOM     18  C   UNL A   1      42.442  35.289  28.483  1.00  0.00     0.001 A 
ATOM     19  C   UNL A   1      41.190  35.178  29.090  1.00  0.00     0.009 A 
BRANCH  15  20
ATOM     20  C   UNL A   1      44.265  32.342  29.923  1.00  0.00     0.000 C 
ATOM     21  C   UNL A   1      44.078  31.064  30.277  1.00  0.00     0.009 C 
ENDBRANCH  15  20
ENDBRANCH   9  14
ENDBRANCH   6   8
ENDBRANCH   3   6
ENDBRANCH   1   2
BRANCH   1  22
ATOM     22  C   UNL A   1      34.496  34.919  28.645  1.00  0.00     0.042 C 
BRANCH  22  23
ATOM     23  C   UNL A   1      35.157  33.658  28.104  1.00  0.00     0.118 C 
BRANCH  23  24
ATOM     24  N   UNL A   1      34.205  32.570  27.923  1.00  0.00    -0.352 N 
ATOM     25  C   UNL A   1      34.385  31.210  27.926  1.00  0.00     0.251 C 
ATOM     26  H   UNL A   1      33.276  32.860  27.774  1.00  0.00     0.163 HD
ATOM     27  O   UNL A   1      33.463  30.491  27.546  1.00  0.00    -0.269 OA
BRANCH  25  28
ATOM     28  C   UNL A   1      35.657  30.589  28.369  1.00  0.00     0.039 A 
ATOM     29  C   UNL A   1      35.672  29.894  29.585  1.00  0.00     0.014 A 
ATOM     30  C   UNL A   1      36.848  30.752  27.658  1.00  0.00     0.014 A 
ATOM     31  C   UNL A   1      36.863  29.342  30.067  1.00  0.00     0.010 A 
ATOM     32  C   UNL A   1      38.018  30.135  28.098  1.00  0.00     0.010 A 
ATOM     33  C   UNL A   1      38.045  29.444  29.318  1.00  0.00    -0.014 A 
BRANCH  33  34
ATOM     34  C   UNL A   1      39.330  28.894  29.823  1.00  0.00     0.031 A 
ATOM     35  C   UNL A   1      39.981  29.505  31.037  1.00  0.00     0.074 A 
ATOM     36  C   UNL A   1      39.939  27.887  29.167  1.00  0.00     0.049 A 
ATOM     37  N   UNL A   1      41.143  29.236  31.578  1.00  0.00    -0.248 NA
ATOM     38  C   UNL A   1      39.242  30.582  31.715  1.00  0.00     0.031 C 
ATOM     39  C   UNL A   1      39.435  27.235  27.958  1.00  0.00     0.029 A 
ATOM     40  N   UNL A   1      41.126  27.246  29.421  1.00  0.00    -0.354 N 
ATOM     41  C   UNL A   1      41.286  30.130  32.633  1.00  0.00     0.074 A 
ATOM     42  C   UNL A   1      40.111  30.972  32.636  1.00  0.00     0.031 C 
ATOM     43  C   UNL A   1      40.298  26.275  27.584  1.00  0.00     0.029 A 
ATOM     44  C   UNL A   1      41.430  26.266  28.507  1.00  0.00     0.049 A 
ATOM     45  H   UNL A   1      41.705  27.466  30.186  1.00  0.00     0.167 HD
ATOM     46  C   UNL A   1      42.294  30.227  33.531  1.00  0.00     0.037 A 
ATOM     47  C   UNL A   1      42.502  25.457  28.420  1.00  0.00     0.037 A 
ATOM     48  C   UNL A   1      43.436  29.352  33.564  1.00  0.00     0.049 A 
ATOM     49  C   UNL A   1      43.588  25.559  29.455  1.00  0.00     0.074 A 
ATOM     50  C   UNL A   1      44.478  29.328  34.475  1.00  0.00     0.029 A 
ATOM     51  N   UNL A   1      43.677  28.336  32.653  1.00  0.00    -0.354 N 
ATOM     52  N   UNL A   1      43.681  26.373  30.479  1.00  0.00    -0.248 NA
ATOM     53  C   UNL A   1      44.714  24.622  29.330  1.00  0.00     0.031 C 
ATOM     54  C   UNL A   1      45.364  28.313  34.100  1.00  0.00     0.029 A 
ATOM     55  C   UNL A   1      44.854  27.682  32.977  1.00  0.00     0.049 A 
ATOM     56  H   UNL A   1      43.098  28.113  31.889  1.00  0.00     0.167 HD
ATOM     57  C   UNL A   1      44.852  26.022  31.139  1.00  0.00     0.074 A 
ATOM     58  C   UNL A   1      45.433  24.917  30.404  1.00  0.00     0.031 C 
ATOM     59  C   UNL A   1      45.399  26.566  32.252  1.00  0.00     0.037 A 
BRANCH  46  60
ATOM     60  C   UNL A   1      42.207  31.311  34.563  1.00  0.00     0.057 A 
ATOM     61  C   UNL A   1      41.599  31.099  35.806  1.00  0.00     0.134 A 
ATOM     62  C   UNL A   1      42.782  32.568  34.330  1.00  0.00     0.134 A 
ATOM     63  F   UNL A   1      41.019  29.923  36.087  1.00  0.00    -0.206 F 
ATOM     64  C   UNL A   1      41.551  32.103  36.776  1.00  0.00     0.040 A 
ATOM     65  C   UNL A   1      42.762  33.571  35.300  1.00  0.00     0.040 A 
ATOM     66  F   UNL A   1      43.386  32.834  33.162  1.00  0.00    -0.206 F 
ATOM     67  C   UNL A   1      42.140  33.341  36.526  1.00  0.00     0.006 A 
ENDBRANCH  46  60
BRANCH  47  68
ATOM     68  C   UNL A   1      42.599  24.456  27.328  1.00  0.00     0.057 A 
ATOM     69  C   UNL A   1      42.146  23.145  27.511  1.00  0.00     0.134 A 
ATOM     70  C   UNL A   1      43.171  24.775  26.090  1.00  0.00     0.134 A 
ATOM     71  F   UNL A   1      41.606  22.775  28.681  1.00  0.00    -0.206 F 
ATOM     72  C   UNL A   1      42.281  22.178  26.513  1.00  0.00     0.040 A 
ATOM     73  C   UNL A   1      43.291  23.825  25.076  1.00  0.00     0.040 A 
ATOM     74  F   UNL A   1      43.619  26.016  25.852  1.00  0.00    -0.206 F 
ATOM     75  C   UNL A   1      42.854  22.519  25.290  1.00  0.00     0.006 A 
ENDBRANCH  47  68
BRANCH  59  76
ATOM     76  C   UNL A   1      46.654  25.937  32.778  1.00  0.00     0.057 A 
ATOM     77  C   UNL A   1      46.624  24.897  33.713  1.00  0.00     0.134 A 
ATOM     78  C   UNL A   1      47.906  26.356  32.310  1.00  0.00     0.134 A 
ATOM     79  F   UNL A   1      45.456  24.459  34.208  1.00  0.00    -0.206 F 
ATOM     80  C   UNL A   1      47.799  24.307  34.183  1.00  0.00     0.040 A 
ATOM     81  C   UNL A   1      49.086  25.759  32.755  1.00  0.00     0.040 A 
ATOM     82  F   UNL A   1      48.000  27.343  31.407  1.00  0.00    -0.206 F 
ATOM     83  C   UNL A   1      49.035  24.735  33.698  1.00  0.00     0.006 A 
ENDBRANCH  59  76
ENDBRANCH  33  34
ENDBRANCH  25  28
ENDBRANCH  23  24
ENDBRANCH  22  23
ENDBRANCH   1  22
TORSDOF 13
ENDMDL
MODEL 3
REMARK VINA RESULT:      -9.9      3.532     10.268
REMARK SMILES C=Cc1cccc(-c2ccc([C@@H](C)C(=O)NCCCNC(=O)c3ccc(-c4c5nc(c(-c6c(F)cccc6F)c6ccc([nH]6)c(-c6c(F)cccc6F)c6nc(c(-c7c(F)cccc7F)c7ccc4[nH]7)C=C6)C=C5)cc3)cc2)c1
REMARK SMILES IDX 17 1 16 2 14 3 15 4 12 6 13 7 11 8 8 9 9 10 78 11 10 12
REMARK SMILES IDX 77 13 7 14 3 15 4 16 79 17 5 18 6 19 2 20 1 21 18 22 19 23
REMARK SMILES IDX 20 24 21 25 22 27 23 28 24 29 76 30 25 31 75 32 26 33 27 34
REMARK SMILES IDX 28 35 69 36 29 37 74 38 68 39 70 40 30 41 73 42 67 43 66 44
REMARK SMILES IDX 31 46 57 47 40 48 56 49 41 50 44 51 55 52 71 53 42 54 43 55
REMARK SMILES IDX 54 57 72 58 45 59 32 60 33 61 38 62 34 63 35 64 37 65 39 66
REMARK SMILES IDX 36 67 58 68 59 69 64 70 60 71 61 72 63 73 65 74 62 75 46 76
REMARK SMILES IDX 47 77 52 78 48 79 49 80 51 81 53 82 50 83
REMARK H PARENT 16 5 20 26 70 45 44 56
REMARK Flexibility Score: inf
ROOT
ATOM      1  C   UNL A   1      42.504  20.248  25.786  1.00  0.00     0.117 C 
ENDROOT
BRANCH   1   2
ATOM      2  N   UNL A   1      43.949  20.350  25.742  1.00  0.00    -0.356 N 
ATOM      3  C   UNL A   1      44.782  21.426  25.690  1.00  0.00     0.227 C 
ATOM      4  O   UNL A   1      45.989  21.175  25.590  1.00  0.00    -0.274 OA
ATOM      5  H   UNL A   1      44.414  19.483  25.752  1.00  0.00     0.163 HD
BRANCH   3   6
ATOM      6  C   UNL A   1      44.305  22.886  25.747  1.00  0.00     0.105 C 
ATOM      7  C   UNL A   1      44.918  23.800  24.686  1.00  0.00     0.023 C 
BRANCH   6   8
ATOM      8  C   UNL A   1      44.253  23.439  27.161  1.00  0.00    -0.036 A 
ATOM      9  C   UNL A   1      44.239  24.682  29.738  1.00  0.00    -0.018 A 
ATOM     10  C   UNL A   1      43.055  24.238  29.126  1.00  0.00     0.009 A 
ATOM     11  C   UNL A   1      45.436  24.443  29.047  1.00  0.00     0.009 A 
ATOM     12  C   UNL A   1      43.064  23.603  27.876  1.00  0.00     0.005 A 
ATOM     13  C   UNL A   1      45.443  23.853  27.777  1.00  0.00     0.005 A 
BRANCH   9  14
ATOM     14  C   UNL A   1      44.218  25.388  31.042  1.00  0.00    -0.018 A 
ATOM     15  C   UNL A   1      43.761  27.411  32.371  1.00  0.00    -0.026 A 
ATOM     16  C   UNL A   1      44.164  26.739  33.527  1.00  0.00     0.008 A 
ATOM     17  C   UNL A   1      43.794  26.730  31.143  1.00  0.00     0.016 A 
ATOM     18  C   UNL A   1      44.578  25.411  33.460  1.00  0.00     0.001 A 
ATOM     19  C   UNL A   1      44.610  24.749  32.231  1.00  0.00     0.009 A 
BRANCH  15  20
ATOM     20  C   UNL A   1      43.375  28.825  32.469  1.00  0.00     0.000 C 
ATOM     21  C   UNL A   1      44.242  29.845  32.467  1.00  0.00     0.009 C 
ENDBRANCH  15  20
ENDBRANCH   9  14
ENDBRANCH   6   8
ENDBRANCH   3   6
ENDBRANCH   1   2
BRANCH   1  22
ATOM     22  C   UNL A   1      41.969  20.167  27.212  1.00  0.00     0.042 C 
BRANCH  22  23
ATOM     23  C   UNL A   1      41.011  21.292  27.583  1.00  0.00     0.118 C 
BRANCH  23  24
ATOM     24  N   UNL A   1      39.933  21.441  26.615  1.00  0.00    -0.352 N 
ATOM     25  C   UNL A   1      39.175  22.532  26.276  1.00  0.00     0.251 C 
ATOM     26  H   UNL A   1      39.713  20.619  26.119  1.00  0.00     0.163 HD
ATOM     27  O   UNL A   1      38.180  22.366  25.573  1.00  0.00    -0.269 OA
BRANCH  25  28
ATOM     28  C   UNL A   1      39.519  23.899  26.738  1.00  0.00     0.039 A 
ATOM     29  C   UNL A   1      40.179  24.757  25.848  1.00  0.00     0.014 A 
ATOM     30  C   UNL A   1      39.286  24.319  28.049  1.00  0.00     0.014 A 
ATOM     31  C   UNL A   1      40.572  26.034  26.261  1.00  0.00     0.010 A 
ATOM     32  C   UNL A   1      39.607  25.620  28.438  1.00  0.00     0.010 A 
ATOM     33  C   UNL A   1      40.275  26.483  27.557  1.00  0.00    -0.014 A 
BRANCH  33  34
ATOM     34  C   UNL A   1      40.709  27.823  28.030  1.00  0.00     0.031 A 
ATOM     35  C   UNL A   1      42.173  28.180  28.026  1.00  0.00     0.074 A 
ATOM     36  C   UNL A   1      39.804  28.696  28.513  1.00  0.00     0.049 A 
ATOM     37  N   UNL A   1      42.765  29.254  28.484  1.00  0.00    -0.248 NA
ATOM     38  C   UNL A   1      43.097  27.184  27.458  1.00  0.00     0.031 C 
ATOM     39  C   UNL A   1      38.364  28.459  28.609  1.00  0.00     0.029 A 
ATOM     40  N   UNL A   1      39.968  29.959  29.025  1.00  0.00    -0.354 N 
ATOM     41  C   UNL A   1      44.127  29.048  28.291  1.00  0.00     0.074 A 
ATOM     42  C   UNL A   1      44.277  27.734  27.708  1.00  0.00     0.031 C 
ATOM     43  C   UNL A   1      37.774  29.546  29.133  1.00  0.00     0.029 A 
ATOM     44  C   UNL A   1      38.795  30.543  29.439  1.00  0.00     0.049 A 
ATOM     45  H   UNL A   1      40.844  30.404  29.091  1.00  0.00     0.167 HD
ATOM     46  C   UNL A   1      45.157  29.885  28.556  1.00  0.00     0.037 A 
ATOM     47  C   UNL A   1      38.572  31.743  30.006  1.00  0.00     0.037 A 
ATOM     48  C   UNL A   1      45.004  31.216  29.083  1.00  0.00     0.049 A 
ATOM     49  C   UNL A   1      39.730  32.670  30.251  1.00  0.00     0.074 A 
ATOM     50  C   UNL A   1      45.982  32.166  29.324  1.00  0.00     0.029 A 
ATOM     51  N   UNL A   1      43.793  31.789  29.434  1.00  0.00    -0.354 N 
ATOM     52  N   UNL A   1      41.006  32.481  30.012  1.00  0.00    -0.248 NA
ATOM     53  C   UNL A   1      39.418  33.983  30.835  1.00  0.00     0.031 C 
ATOM     54  C   UNL A   1      45.365  33.306  29.846  1.00  0.00     0.029 A 
ATOM     55  C   UNL A   1      43.999  33.078  29.896  1.00  0.00     0.049 A 
ATOM     56  H   UNL A   1      42.917  31.346  29.367  1.00  0.00     0.167 HD
ATOM     57  C   UNL A   1      41.640  33.661  30.380  1.00  0.00     0.074 A 
ATOM     58  C   UNL A   1      40.610  34.562  30.852  1.00  0.00     0.031 C 
ATOM     59  C   UNL A   1      42.958  33.971  30.333  1.00  0.00     0.037 A 
BRANCH  46  60
ATOM     60  C   UNL A   1      46.545  29.395  28.271  1.00  0.00     0.057 A 
ATOM     61  C   UNL A   1      47.251  28.604  29.186  1.00  0.00     0.134 A 
ATOM     62  C   UNL A   1      47.164  29.676  27.046  1.00  0.00     0.134 A 
ATOM     63  F   UNL A   1      46.719  28.310  30.382  1.00  0.00    -0.206 F 
ATOM     64  C   UNL A   1      48.530  28.122  28.900  1.00  0.00     0.040 A 
ATOM     65  C   UNL A   1      48.432  29.180  26.739  1.00  0.00     0.040 A 
ATOM     66  F   UNL A   1      46.541  30.422  26.122  1.00  0.00    -0.206 F 
ATOM     67  C   UNL A   1      49.121  28.404  27.670  1.00  0.00     0.006 A 
ENDBRANCH  46  60
BRANCH  47  68
ATOM     68  C   UNL A   1      37.192  32.158  30.361  1.00  0.00     0.057 A 
ATOM     69  C   UNL A   1      36.644  31.845  31.611  1.00  0.00     0.134 A 
ATOM     70  C   UNL A   1      36.379  32.850  29.456  1.00  0.00     0.134 A 
ATOM     71  F   UNL A   1      37.368  31.166  32.513  1.00  0.00    -0.206 F 
ATOM     72  C   UNL A   1      35.329  32.179  31.939  1.00  0.00     0.040 A 
ATOM     73  C   UNL A   1      35.070  33.212  29.779  1.00  0.00     0.040 A 
ATOM     74  F   UNL A   1      36.848  33.185  28.245  1.00  0.00    -0.206 F 
ATOM     75  C   UNL A   1      34.539  32.868  31.021  1.00  0.00     0.006 A 
ENDBRANCH  47  68
BRANCH  59  76
ATOM     76  C   UNL A   1      43.353  35.356  30.745  1.00  0.00     0.057 A 
ATOM     77  C   UNL A   1      43.721  35.660  32.060  1.00  0.00     0.134 A 
ATOM     78  C   UNL A   1      43.403  36.389  29.800  1.00  0.00     0.134 A 
ATOM     79  F   UNL A   1      43.682  34.716  33.014  1.00  0.00    -0.206 F 
ATOM     80  C   UNL A   1      44.104  36.951  32.429  1.00  0.00     0.040 A 
ATOM     81  C   UNL A   1      43.807  37.678  30.151  1.00  0.00     0.040 A 
ATOM     82  F   UNL A   1      43.071  36.159  28.521  1.00  0.00    -0.206 F 
ATOM     83  C   UNL A   1      44.154  37.962  31.470  1.00  0.00     0.006 A 
ENDBRANCH  59  76
ENDBRANCH  33  34
ENDBRANCH  25  28
ENDBRANCH  23  24
ENDBRANCH  22  23
ENDBRANCH   1  22
TORSDOF 13
ENDMDL
