MODEL 1
REMARK VINA RESULT:     -11.5      0.000      0.000
REMARK SMILES C[C@H](c1ccncc1)N1C[C@H](C(=O)NCCCNC(=O)c2ccc(-c3c4nc(c(-c5c(F)cccc5F)c5ccc([nH]5)c(-c5c(F)cccc5F)c5nc(c(-c6c(F)cccc6F)c6ccc3[nH]6)C=C5)C=C4)cc2)CC1=O
REMARK SMILES IDX 16 1 15 2 14 3 12 4 13 5 11 7 9 8 10 9 76 10 75 11 77 12
REMARK SMILES IDX 2 13 1 14 3 15 4 16 8 17 5 18 7 19 6 20 17 21 18 22 19 23
REMARK SMILES IDX 20 25 21 26 22 27 74 28 23 29 73 30 24 31 25 32 26 33 67 34
REMARK SMILES IDX 27 35 72 36 66 37 68 38 28 39 71 40 65 41 64 42 29 44 55 45
REMARK SMILES IDX 38 46 54 47 39 48 42 49 53 50 69 51 40 52 41 53 52 55 70 56
REMARK SMILES IDX 43 57 30 58 31 59 36 60 32 61 33 62 35 63 37 64 34 65 56 66
REMARK SMILES IDX 57 67 62 68 58 69 59 70 61 71 63 72 60 73 44 74 45 75 50 76
REMARK SMILES IDX 46 77 47 78 49 79 51 80 48 81
REMARK H PARENT 14 6 18 24 68 43 42 54
REMARK Flexibility Score: inf
ROOT
ATOM      1  C   UNL A   1      37.605  19.760  25.027  1.00  0.00     0.042 C 
ENDROOT
BRANCH   1   2
ATOM      2  C   UNL A   1      36.525  20.790  24.720  1.00  0.00     0.117 C 
BRANCH   2   3
ATOM      3  N   UNL A   1      35.192  20.324  25.055  1.00  0.00    -0.356 N 
ATOM      4  C   UNL A   1      34.260  20.880  25.882  1.00  0.00     0.225 C 
ATOM      5  O   UNL A   1      33.153  20.351  25.955  1.00  0.00    -0.275 OA
ATOM      6  H   UNL A   1      34.919  19.483  24.622  1.00  0.00     0.163 HD
BRANCH   4   7
ATOM      7  C   UNL A   1      34.643  22.107  26.695  1.00  0.00     0.107 C 
ATOM      8  N   UNL A   1      33.278  23.979  26.236  1.00  0.00    -0.335 N 
ATOM      9  C   UNL A   1      34.556  23.397  25.895  1.00  0.00     0.134 C 
ATOM     10  C   UNL A   1      32.635  23.235  27.220  1.00  0.00     0.223 C 
ATOM     11  C   UNL A   1      33.644  22.296  27.825  1.00  0.00     0.115 C 
ATOM     12  O   UNL A   1      31.480  23.323  27.602  1.00  0.00    -0.275 OA
BRANCH   8  13
ATOM     13  C   UNL A   1      32.621  24.983  25.387  1.00  0.00     0.112 C 
ATOM     14  C   UNL A   1      33.219  25.068  23.973  1.00  0.00     0.036 C 
BRANCH  13  15
ATOM     15  C   UNL A   1      32.643  26.370  26.009  1.00  0.00    -0.023 A 
ATOM     16  C   UNL A   1      33.789  27.173  25.978  1.00  0.00     0.026 A 
ATOM     17  C   UNL A   1      31.515  26.856  26.678  1.00  0.00     0.026 A 
ATOM     18  C   UNL A   1      33.756  28.404  26.614  1.00  0.00     0.111 A 
ATOM     19  C   UNL A   1      31.583  28.101  27.283  1.00  0.00     0.111 A 
ATOM     20  N   UNL A   1      32.676  28.894  27.257  1.00  0.00    -0.265 NA
ENDBRANCH  13  15
ENDBRANCH   8  13
ENDBRANCH   4   7
ENDBRANCH   2   3
ENDBRANCH   1   2
BRANCH   1  21
ATOM     21  C   UNL A   1      38.806  20.305  25.794  1.00  0.00     0.118 C 
BRANCH  21  22
ATOM     22  N   UNL A   1      39.954  19.412  25.759  1.00  0.00    -0.352 N 
ATOM     23  C   UNL A   1      41.279  19.639  26.030  1.00  0.00     0.251 C 
ATOM     24  H   UNL A   1      39.744  18.487  25.494  1.00  0.00     0.163 HD
ATOM     25  O   UNL A   1      42.101  18.767  25.759  1.00  0.00    -0.269 OA
BRANCH  23  26
ATOM     26  C   UNL A   1      41.737  20.918  26.618  1.00  0.00     0.039 A 
ATOM     27  C   UNL A   1      42.140  21.937  25.751  1.00  0.00     0.014 A 
ATOM     28  C   UNL A   1      41.813  21.117  27.999  1.00  0.00     0.014 A 
ATOM     29  C   UNL A   1      42.551  23.168  26.265  1.00  0.00     0.010 A 
ATOM     30  C   UNL A   1      42.138  22.374  28.509  1.00  0.00     0.010 A 
ATOM     31  C   UNL A   1      42.510  23.415  27.648  1.00  0.00    -0.014 A 
BRANCH  31  32
ATOM     32  C   UNL A   1      42.821  24.767  28.180  1.00  0.00     0.031 A 
ATOM     33  C   UNL A   1      44.232  25.168  28.512  1.00  0.00     0.074 A 
ATOM     34  C   UNL A   1      41.811  25.634  28.390  1.00  0.00     0.049 A 
ATOM     35  N   UNL A   1      44.682  26.319  28.949  1.00  0.00    -0.248 NA
ATOM     36  C   UNL A   1      45.273  24.142  28.353  1.00  0.00     0.031 C 
ATOM     37  C   UNL A   1      40.392  25.347  28.170  1.00  0.00     0.029 A 
ATOM     38  N   UNL A   1      41.821  26.935  28.827  1.00  0.00    -0.354 N 
ATOM     39  C   UNL A   1      46.051  26.155  29.118  1.00  0.00     0.074 A 
ATOM     40  C   UNL A   1      46.350  24.775  28.794  1.00  0.00     0.031 C 
ATOM     41  C   UNL A   1      39.674  26.450  28.430  1.00  0.00     0.029 A 
ATOM     42  C   UNL A   1      40.573  27.509  28.872  1.00  0.00     0.049 A 
ATOM     43  H   UNL A   1      42.643  27.412  29.084  1.00  0.00     0.167 HD
ATOM     44  C   UNL A   1      46.978  27.072  29.486  1.00  0.00     0.037 A 
ATOM     45  C   UNL A   1      40.194  28.752  29.227  1.00  0.00     0.037 A 
ATOM     46  C   UNL A   1      46.677  28.446  29.804  1.00  0.00     0.049 A 
ATOM     47  C   UNL A   1      41.242  29.748  29.635  1.00  0.00     0.074 A 
ATOM     48  C   UNL A   1      47.554  29.466  30.135  1.00  0.00     0.029 A 
ATOM     49  N   UNL A   1      45.402  28.990  29.843  1.00  0.00    -0.354 N 
ATOM     50  N   UNL A   1      42.543  29.601  29.708  1.00  0.00    -0.248 NA
ATOM     51  C   UNL A   1      40.767  31.090  29.997  1.00  0.00     0.031 C 
ATOM     52  C   UNL A   1      46.804  30.610  30.429  1.00  0.00     0.029 A 
ATOM     53  C   UNL A   1      45.465  30.323  30.220  1.00  0.00     0.049 A 
ATOM     54  H   UNL A   1      44.573  28.501  29.634  1.00  0.00     0.167 HD
ATOM     55  C   UNL A   1      43.043  30.835  30.102  1.00  0.00     0.074 A 
ATOM     56  C   UNL A   1      41.907  31.726  30.221  1.00  0.00     0.031 C 
ATOM     57  C   UNL A   1      44.327  31.198  30.348  1.00  0.00     0.037 A 
BRANCH  44  58
ATOM     58  C   UNL A   1      48.409  26.620  29.563  1.00  0.00     0.057 A 
ATOM     59  C   UNL A   1      49.292  26.766  28.484  1.00  0.00     0.134 A 
ATOM     60  C   UNL A   1      48.924  26.070  30.743  1.00  0.00     0.134 A 
ATOM     61  F   UNL A   1      48.863  27.276  27.319  1.00  0.00    -0.206 F 
ATOM     62  C   UNL A   1      50.624  26.356  28.566  1.00  0.00     0.040 A 
ATOM     63  C   UNL A   1      50.262  25.684  30.848  1.00  0.00     0.040 A 
ATOM     64  F   UNL A   1      48.140  25.908  31.820  1.00  0.00    -0.206 F 
ATOM     65  C   UNL A   1      51.115  25.821  29.755  1.00  0.00     0.006 A 
ENDBRANCH  44  58
BRANCH  45  66
ATOM     66  C   UNL A   1      38.759  29.132  29.188  1.00  0.00     0.057 A 
ATOM     67  C   UNL A   1      38.158  29.574  28.003  1.00  0.00     0.134 A 
ATOM     68  C   UNL A   1      37.957  29.076  30.335  1.00  0.00     0.134 A 
ATOM     69  F   UNL A   1      38.876  29.665  26.875  1.00  0.00    -0.206 F 
ATOM     70  C   UNL A   1      36.821  29.971  27.965  1.00  0.00     0.040 A 
ATOM     71  C   UNL A   1      36.611  29.442  30.304  1.00  0.00     0.040 A 
ATOM     72  F   UNL A   1      38.470  28.653  31.500  1.00  0.00    -0.206 F 
ATOM     73  C   UNL A   1      36.041  29.901  29.118  1.00  0.00     0.006 A 
ENDBRANCH  45  66
BRANCH  57  74
ATOM     74  C   UNL A   1      44.563  32.629  30.745  1.00  0.00     0.057 A 
ATOM     75  C   UNL A   1      44.578  33.035  32.086  1.00  0.00     0.134 A 
ATOM     76  C   UNL A   1      44.767  33.616  29.772  1.00  0.00     0.134 A 
ATOM     77  F   UNL A   1      44.376  32.144  33.069  1.00  0.00    -0.206 F 
ATOM     78  C   UNL A   1      44.737  34.376  32.442  1.00  0.00     0.040 A 
ATOM     79  C   UNL A   1      44.963  34.953  30.117  1.00  0.00     0.040 A 
ATOM     80  F   UNL A   1      44.778  33.298  28.469  1.00  0.00    -0.206 F 
ATOM     81  C   UNL A   1      44.935  35.339  31.456  1.00  0.00     0.006 A 
ENDBRANCH  57  74
ENDBRANCH  31  32
ENDBRANCH  23  26
ENDBRANCH  21  22
ENDBRANCH   1  21
TORSDOF 12
ENDMDL
MODEL 2
REMARK VINA RESULT:     -11.5      4.540      9.554
REMARK SMILES C[C@H](c1ccncc1)N1C[C@H](C(=O)NCCCNC(=O)c2ccc(-c3c4nc(c(-c5c(F)cccc5F)c5ccc([nH]5)c(-c5c(F)cccc5F)c5nc(c(-c6c(F)cccc6F)c6ccc3[nH]6)C=C5)C=C4)cc2)CC1=O
REMARK SMILES IDX 16 1 15 2 14 3 12 4 13 5 11 7 9 8 10 9 76 10 75 11 77 12
REMARK SMILES IDX 2 13 1 14 3 15 4 16 8 17 5 18 7 19 6 20 17 21 18 22 19 23
REMARK SMILES IDX 20 25 21 26 22 27 74 28 23 29 73 30 24 31 25 32 26 33 67 34
REMARK SMILES IDX 27 35 72 36 66 37 68 38 28 39 71 40 65 41 64 42 29 44 55 45
REMARK SMILES IDX 38 46 54 47 39 48 42 49 53 50 69 51 40 52 41 53 52 55 70 56
REMARK SMILES IDX 43 57 30 58 31 59 36 60 32 61 33 62 35 63 37 64 34 65 56 66
REMARK SMILES IDX 57 67 62 68 58 69 59 70 61 71 63 72 60 73 44 74 45 75 50 76
REMARK SMILES IDX 46 77 47 78 49 79 51 80 48 81
REMARK H PARENT 14 6 18 24 68 43 42 54
REMARK Flexibility Score: inf
ROOT
ATOM      1  C   UNL A   1      31.400  31.770  26.483  1.00  0.00     0.042 C 
ENDROOT
BRANCH   1   2
ATOM      2  C   UNL A   1      31.578  30.291  26.167  1.00  0.00     0.117 C 
BRANCH   2   3
ATOM      3  N   UNL A   1      31.135  29.945  24.828  1.00  0.00    -0.356 N 
ATOM      4  C   UNL A   1      31.787  29.249  23.851  1.00  0.00     0.225 C 
ATOM      5  O   UNL A   1      31.183  28.999  22.810  1.00  0.00    -0.275 OA
ATOM      6  H   UNL A   1      30.234  30.259  24.588  1.00  0.00     0.163 HD
BRANCH   4   7
ATOM      7  C   UNL A   1      33.233  28.841  24.084  1.00  0.00     0.107 C 
ATOM      8  N   UNL A   1      33.567  26.507  23.937  1.00  0.00    -0.335 N 
ATOM      9  C   UNL A   1      33.363  27.565  24.900  1.00  0.00     0.134 C 
ATOM     10  C   UNL A   1      33.670  27.018  22.647  1.00  0.00     0.223 C 
ATOM     11  C   UNL A   1      33.883  28.504  22.752  1.00  0.00     0.115 C 
ATOM     12  O   UNL A   1      33.653  26.411  21.588  1.00  0.00    -0.275 OA
BRANCH   8  13
ATOM     13  C   UNL A   1      33.317  25.095  24.256  1.00  0.00     0.112 C 
ATOM     14  C   UNL A   1      32.473  24.899  25.526  1.00  0.00     0.036 C 
BRANCH  13  15
ATOM     15  C   UNL A   1      34.604  24.298  24.400  1.00  0.00    -0.023 A 
ATOM     16  C   UNL A   1      35.421  24.414  25.530  1.00  0.00     0.026 A 
ATOM     17  C   UNL A   1      35.027  23.457  23.364  1.00  0.00     0.026 A 
ATOM     18  C   UNL A   1      36.609  23.701  25.570  1.00  0.00     0.111 A 
ATOM     19  C   UNL A   1      36.233  22.787  23.500  1.00  0.00     0.111 A 
ATOM     20  N   UNL A   1      37.029  22.880  24.586  1.00  0.00    -0.265 NA
ENDBRANCH  13  15
ENDBRANCH   8  13
ENDBRANCH   4   7
ENDBRANCH   2   3
ENDBRANCH   1   2
BRANCH   1  21
ATOM     21  C   UNL A   1      32.682  32.497  26.876  1.00  0.00     0.118 C 
BRANCH  21  22
ATOM     22  N   UNL A   1      32.438  33.827  27.413  1.00  0.00    -0.352 N 
ATOM     23  C   UNL A   1      33.026  34.498  28.456  1.00  0.00     0.251 C 
ATOM     24  H   UNL A   1      31.730  34.331  26.951  1.00  0.00     0.163 HD
ATOM     25  O   UNL A   1      32.529  35.553  28.841  1.00  0.00    -0.269 OA
BRANCH  23  26
ATOM     26  C   UNL A   1      34.228  33.964  29.136  1.00  0.00     0.039 A 
ATOM     27  C   UNL A   1      34.052  32.977  30.110  1.00  0.00     0.014 A 
ATOM     28  C   UNL A   1      35.512  34.441  28.861  1.00  0.00     0.014 A 
ATOM     29  C   UNL A   1      35.162  32.427  30.753  1.00  0.00     0.010 A 
ATOM     30  C   UNL A   1      36.625  33.830  29.438  1.00  0.00     0.010 A 
ATOM     31  C   UNL A   1      36.463  32.815  30.391  1.00  0.00    -0.014 A 
BRANCH  31  32
ATOM     32  C   UNL A   1      37.643  32.134  30.984  1.00  0.00     0.031 A 
ATOM     33  C   UNL A   1      38.135  32.482  32.362  1.00  0.00     0.074 A 
ATOM     34  C   UNL A   1      38.295  31.205  30.255  1.00  0.00     0.049 A 
ATOM     35  N   UNL A   1      39.125  31.959  33.041  1.00  0.00    -0.248 NA
ATOM     36  C   UNL A   1      37.440  33.573  33.061  1.00  0.00     0.031 C 
ATOM     37  C   UNL A   1      37.959  30.821  28.882  1.00  0.00     0.029 A 
ATOM     38  N   UNL A   1      39.368  30.409  30.568  1.00  0.00    -0.354 N 
ATOM     39  C   UNL A   1      39.173  32.655  34.243  1.00  0.00     0.074 A 
ATOM     40  C   UNL A   1      38.151  33.678  34.175  1.00  0.00     0.031 C 
ATOM     41  C   UNL A   1      38.779  29.835  28.488  1.00  0.00     0.029 A 
ATOM     42  C   UNL A   1      39.723  29.544  29.561  1.00  0.00     0.049 A 
ATOM     43  H   UNL A   1      39.840  30.454  31.431  1.00  0.00     0.167 HD
ATOM     44  C   UNL A   1      39.977  32.446  35.314  1.00  0.00     0.037 A 
ATOM     45  C   UNL A   1      40.696  28.616  29.508  1.00  0.00     0.037 A 
ATOM     46  C   UNL A   1      40.991  31.424  35.380  1.00  0.00     0.049 A 
ATOM     47  C   UNL A   1      41.577  28.408  30.708  1.00  0.00     0.074 A 
ATOM     48  C   UNL A   1      41.820  31.099  36.441  1.00  0.00     0.029 A 
ATOM     49  N   UNL A   1      41.324  30.569  34.340  1.00  0.00    -0.354 N 
ATOM     50  N   UNL A   1      41.553  29.017  31.869  1.00  0.00    -0.248 NA
ATOM     51  C   UNL A   1      42.611  27.372  30.593  1.00  0.00     0.031 C 
ATOM     52  C   UNL A   1      42.692  30.087  36.023  1.00  0.00     0.029 A 
ATOM     53  C   UNL A   1      42.365  29.736  34.723  1.00  0.00     0.049 A 
ATOM     54  H   UNL A   1      40.886  30.556  33.457  1.00  0.00     0.167 HD
ATOM     55  C   UNL A   1      42.552  28.425  32.629  1.00  0.00     0.074 A 
ATOM     56  C   UNL A   1      43.141  27.387  31.807  1.00  0.00     0.031 C 
ATOM     57  C   UNL A   1      42.951  28.715  33.892  1.00  0.00     0.037 A 
BRANCH  44  58
ATOM     58  C   UNL A   1      39.791  33.343  36.506  1.00  0.00     0.057 A 
ATOM     59  C   UNL A   1      40.505  34.541  36.652  1.00  0.00     0.134 A 
ATOM     60  C   UNL A   1      38.857  33.028  37.501  1.00  0.00     0.134 A 
ATOM     61  F   UNL A   1      41.423  34.899  35.741  1.00  0.00    -0.206 F 
ATOM     62  C   UNL A   1      40.319  35.376  37.754  1.00  0.00     0.040 A 
ATOM     63  C   UNL A   1      38.639  33.870  38.593  1.00  0.00     0.040 A 
ATOM     64  F   UNL A   1      38.131  31.902  37.424  1.00  0.00    -0.206 F 
ATOM     65  C   UNL A   1      39.376  35.045  38.725  1.00  0.00     0.006 A 
ENDBRANCH  44  58
BRANCH  45  66
ATOM     66  C   UNL A   1      40.875  27.793  28.284  1.00  0.00     0.057 A 
ATOM     67  C   UNL A   1      41.674  28.237  27.223  1.00  0.00     0.134 A 
ATOM     68  C   UNL A   1      40.243  26.552  28.139  1.00  0.00     0.134 A 
ATOM     69  F   UNL A   1      42.293  29.424  27.294  1.00  0.00    -0.206 F 
ATOM     70  C   UNL A   1      41.816  27.491  26.052  1.00  0.00     0.040 A 
ATOM     71  C   UNL A   1      40.401  25.782  26.986  1.00  0.00     0.040 A 
ATOM     72  F   UNL A   1      39.472  26.066  29.122  1.00  0.00    -0.206 F 
ATOM     73  C   UNL A   1      41.182  26.255  25.934  1.00  0.00     0.006 A 
ENDBRANCH  45  66
BRANCH  57  74
ATOM     74  C   UNL A   1      44.061  27.876  34.463  1.00  0.00     0.057 A 
ATOM     75  C   UNL A   1      43.816  26.650  35.095  1.00  0.00     0.134 A 
ATOM     76  C   UNL A   1      45.392  28.306  34.389  1.00  0.00     0.134 A 
ATOM     77  F   UNL A   1      42.564  26.184  35.213  1.00  0.00    -0.206 F 
ATOM     78  C   UNL A   1      44.847  25.908  35.676  1.00  0.00     0.040 A 
ATOM     79  C   UNL A   1      46.435  27.557  34.933  1.00  0.00     0.040 A 
ATOM     80  F   UNL A   1      45.703  29.464  33.787  1.00  0.00    -0.206 F 
ATOM     81  C   UNL A   1      46.162  26.359  35.592  1.00  0.00     0.006 A 
ENDBRANCH  57  74
ENDBRANCH  31  32
ENDBRANCH  23  26
ENDBRANCH  21  22
ENDBRANCH   1  21
TORSDOF 12
ENDMDL
MODEL 3
REMARK VINA RESULT:     -11.5      0.098      1.438
REMARK SMILES C[C@H](c1ccncc1)N1C[C@H](C(=O)NCCCNC(=O)c2ccc(-c3c4nc(c(-c5c(F)cccc5F)c5ccc([nH]5)c(-c5c(F)cccc5F)c5nc(c(-c6c(F)cccc6F)c6ccc3[nH]6)C=C5)C=C4)cc2)CC1=O
REMARK SMILES IDX 16 1 15 2 14 3 12 4 13 5 11 7 9 8 10 9 76 10 75 11 77 12
REMARK SMILES IDX 2 13 1 14 3 15 4 16 8 17 5 18 7 19 6 20 17 21 18 22 19 23
REMARK SMILES IDX 20 25 21 26 22 27 74 28 23 29 73 30 24 31 25 32 26 33 67 34
REMARK SMILES IDX 27 35 72 36 66 37 68 38 28 39 71 40 65 41 64 42 29 44 55 45
REMARK SMILES IDX 38 46 54 47 39 48 42 49 53 50 69 51 40 52 41 53 52 55 70 56
REMARK SMILES IDX 43 57 30 58 31 59 36 60 32 61 33 62 35 63 37 64 34 65 56 66
REMARK SMILES IDX 57 67 62 68 58 69 59 70 61 71 63 72 60 73 44 74 45 75 50 76
REMARK SMILES IDX 46 77 47 78 49 79 51 80 48 81
REMARK H PARENT 14 6 18 24 68 43 42 54
REMARK Flexibility Score: inf
ROOT
ATOM      1  C   UNL A   1      37.562  19.822  24.986  1.00  0.00     0.042 C 
ENDROOT
BRANCH   1   2
ATOM      2  C   UNL A   1      36.466  20.846  24.718  1.00  0.00     0.117 C 
BRANCH   2   3
ATOM      3  N   UNL A   1      35.141  20.351  25.049  1.00  0.00    -0.356 N 
ATOM      4  C   UNL A   1      34.210  20.868  25.902  1.00  0.00     0.225 C 
ATOM      5  O   UNL A   1      33.110  20.322  25.966  1.00  0.00    -0.275 OA
ATOM      6  H   UNL A   1      34.875  19.521  24.590  1.00  0.00     0.163 HD
BRANCH   4   7
ATOM      7  C   UNL A   1      34.584  22.071  26.752  1.00  0.00     0.107 C 
ATOM      8  N   UNL A   1      33.276  23.979  26.274  1.00  0.00    -0.335 N 
ATOM      9  C   UNL A   1      34.555  23.377  25.973  1.00  0.00     0.134 C 
ATOM     10  C   UNL A   1      32.579  23.231  27.217  1.00  0.00     0.223 C 
ATOM     11  C   UNL A   1      33.544  22.261  27.844  1.00  0.00     0.115 C 
ATOM     12  O   UNL A   1      31.411  23.336  27.554  1.00  0.00    -0.275 OA
BRANCH   8  13
ATOM     13  C   UNL A   1      32.674  25.011  25.418  1.00  0.00     0.112 C 
ATOM     14  C   UNL A   1      33.340  25.121  24.037  1.00  0.00     0.036 C 
BRANCH  13  15
ATOM     15  C   UNL A   1      32.682  26.382  26.073  1.00  0.00    -0.023 A 
ATOM     16  C   UNL A   1      31.548  26.903  26.708  1.00  0.00     0.026 A 
ATOM     17  C   UNL A   1      33.827  27.184  26.008  1.00  0.00     0.026 A 
ATOM     18  C   UNL A   1      31.608  28.184  27.234  1.00  0.00     0.111 A 
ATOM     19  C   UNL A   1      33.786  28.452  26.566  1.00  0.00     0.111 A 
ATOM     20  N   UNL A   1      32.705  28.968  27.189  1.00  0.00    -0.265 NA
ENDBRANCH  13  15
ENDBRANCH   8  13
ENDBRANCH   4   7
ENDBRANCH   2   3
ENDBRANCH   1   2
BRANCH   1  21
ATOM     21  C   UNL A   1      38.770  20.365  25.742  1.00  0.00     0.118 C 
BRANCH  21  22
ATOM     22  N   UNL A   1      39.896  19.443  25.749  1.00  0.00    -0.352 N 
ATOM     23  C   UNL A   1      41.219  19.640  26.052  1.00  0.00     0.251 C 
ATOM     24  H   UNL A   1      39.669  18.520  25.491  1.00  0.00     0.163 HD
ATOM     25  O   UNL A   1      42.025  18.745  25.814  1.00  0.00    -0.269 OA
BRANCH  23  26
ATOM     26  C   UNL A   1      41.694  20.916  26.636  1.00  0.00     0.039 A 
ATOM     27  C   UNL A   1      42.103  21.929  25.764  1.00  0.00     0.014 A 
ATOM     28  C   UNL A   1      41.778  21.117  28.016  1.00  0.00     0.014 A 
ATOM     29  C   UNL A   1      42.529  23.157  26.273  1.00  0.00     0.010 A 
ATOM     30  C   UNL A   1      42.119  22.371  28.521  1.00  0.00     0.010 A 
ATOM     31  C   UNL A   1      42.498  23.406  27.656  1.00  0.00    -0.014 A 
BRANCH  31  32
ATOM     32  C   UNL A   1      42.827  24.756  28.184  1.00  0.00     0.031 A 
ATOM     33  C   UNL A   1      44.245  25.147  28.495  1.00  0.00     0.074 A 
ATOM     34  C   UNL A   1      41.826  25.630  28.409  1.00  0.00     0.049 A 
ATOM     35  N   UNL A   1      44.709  26.295  28.926  1.00  0.00    -0.248 NA
ATOM     36  C   UNL A   1      45.276  24.113  28.322  1.00  0.00     0.031 C 
ATOM     37  C   UNL A   1      40.402  25.353  28.209  1.00  0.00     0.029 A 
ATOM     38  N   UNL A   1      41.852  26.931  28.846  1.00  0.00    -0.354 N 
ATOM     39  C   UNL A   1      46.080  26.120  29.075  1.00  0.00     0.074 A 
ATOM     40  C   UNL A   1      46.364  24.739  28.747  1.00  0.00     0.031 C 
ATOM     41  C   UNL A   1      39.695  26.461  28.480  1.00  0.00     0.029 A 
ATOM     42  C   UNL A   1      40.609  27.514  28.909  1.00  0.00     0.049 A 
ATOM     43  H   UNL A   1      42.680  27.402  29.091  1.00  0.00     0.167 HD
ATOM     44  C   UNL A   1      47.018  27.031  29.430  1.00  0.00     0.037 A 
ATOM     45  C   UNL A   1      40.244  28.759  29.269  1.00  0.00     0.037 A 
ATOM     46  C   UNL A   1      46.732  28.407  29.752  1.00  0.00     0.049 A 
ATOM     47  C   UNL A   1      41.304  29.748  29.662  1.00  0.00     0.074 A 
ATOM     48  C   UNL A   1      47.620  29.420  30.071  1.00  0.00     0.029 A 
ATOM     49  N   UNL A   1      45.461  28.960  29.810  1.00  0.00    -0.354 N 
ATOM     50  N   UNL A   1      42.605  29.592  29.716  1.00  0.00    -0.248 NA
ATOM     51  C   UNL A   1      40.844  31.093  30.031  1.00  0.00     0.031 C 
ATOM     52  C   UNL A   1      46.883  30.570  30.376  1.00  0.00     0.029 A 
ATOM     53  C   UNL A   1      45.540  30.293  30.186  1.00  0.00     0.049 A 
ATOM     54  H   UNL A   1      44.626  28.477  29.613  1.00  0.00     0.167 HD
ATOM     55  C   UNL A   1      43.120  30.822  30.103  1.00  0.00     0.074 A 
ATOM     56  C   UNL A   1      41.992  31.721  30.239  1.00  0.00     0.031 C 
ATOM     57  C   UNL A   1      44.409  31.175  30.331  1.00  0.00     0.037 A 
BRANCH  44  58
ATOM     58  C   UNL A   1      48.447  26.569  29.486  1.00  0.00     0.057 A 
ATOM     59  C   UNL A   1      49.303  26.669  28.381  1.00  0.00     0.134 A 
ATOM     60  C   UNL A   1      48.988  26.055  30.672  1.00  0.00     0.134 A 
ATOM     61  F   UNL A   1      48.849  27.142  27.210  1.00  0.00    -0.206 F 
ATOM     62  C   UNL A   1      50.633  26.250  28.443  1.00  0.00     0.040 A 
ATOM     63  C   UNL A   1      50.325  25.661  30.756  1.00  0.00     0.040 A 
ATOM     64  F   UNL A   1      48.230  25.938  31.773  1.00  0.00    -0.206 F 
ATOM     65  C   UNL A   1      51.150  25.752  29.637  1.00  0.00     0.006 A 
ENDBRANCH  44  58
BRANCH  45  66
ATOM     66  C   UNL A   1      38.811  29.149  29.251  1.00  0.00     0.057 A 
ATOM     67  C   UNL A   1      38.020  29.061  30.403  1.00  0.00     0.134 A 
ATOM     68  C   UNL A   1      38.194  29.607  28.080  1.00  0.00     0.134 A 
ATOM     69  F   UNL A   1      38.549  28.615  31.552  1.00  0.00    -0.206 F 
ATOM     70  C   UNL A   1      36.664  29.387  30.387  1.00  0.00     0.040 A 
ATOM     71  C   UNL A   1      36.845  29.965  28.057  1.00  0.00     0.040 A 
ATOM     72  F   UNL A   1      38.897  29.723  26.944  1.00  0.00    -0.206 F 
ATOM     73  C   UNL A   1      36.073  29.846  29.211  1.00  0.00     0.006 A 
ENDBRANCH  45  66
BRANCH  57  74
ATOM     74  C   UNL A   1      44.661  32.605  30.725  1.00  0.00     0.057 A 
ATOM     75  C   UNL A   1      44.876  33.611  29.773  1.00  0.00     0.134 A 
ATOM     76  C   UNL A   1      44.700  32.977  32.074  1.00  0.00     0.134 A 
ATOM     77  F   UNL A   1      44.865  33.322  28.463  1.00  0.00    -0.206 F 
ATOM     78  C   UNL A   1      45.170  34.923  30.151  1.00  0.00     0.040 A 
ATOM     79  C   UNL A   1      44.957  34.292  32.463  1.00  0.00     0.040 A 
ATOM     80  F   UNL A   1      44.491  32.069  33.039  1.00  0.00    -0.206 F 
ATOM     81  C   UNL A   1      45.207  35.267  31.500  1.00  0.00     0.006 A 
ENDBRANCH  57  74
ENDBRANCH  31  32
ENDBRANCH  23  26
ENDBRANCH  21  22
ENDBRANCH   1  21
TORSDOF 12
ENDMDL
