MODEL 1
REMARK VINA RESULT:     -10.4      0.000      0.000
REMARK SMILES CC[C@H](C(=O)NCCCNC(=O)c1ccc(-c2c3nc(c(-c4c(F)cccc4F)c4ccc([nH]4)c(-c4c(F)cccc4F)c4nc(c(-c5c(F)cccc5F)c5ccc2[nH]5)C=C4)C=C3)cc1)[N@H+](C)Cc1cncn1C(C)C
REMARK SMILES IDX 7 1 6 2 4 3 5 4 3 6 2 7 1 8 67 9 68 10 69 12 70 13 71 14
REMARK SMILES IDX 74 15 72 16 73 17 75 18 76 19 77 20 8 21 9 22 10 23 11 24
REMARK SMILES IDX 12 26 13 27 14 28 66 29 15 30 65 31 16 32 17 33 18 34 59 35
REMARK SMILES IDX 19 36 64 37 58 38 60 39 20 40 63 41 57 42 56 43 21 45 47 46
REMARK SMILES IDX 30 47 46 48 31 49 34 50 45 51 61 52 32 53 33 54 44 56 62 57
REMARK SMILES IDX 35 58 22 59 23 60 28 61 24 62 25 63 27 64 29 65 26 66 48 67
REMARK SMILES IDX 49 68 54 69 50 70 51 71 53 72 55 73 52 74 36 75 37 76 42 77
REMARK SMILES IDX 38 78 39 79 41 80 43 81 40 82
REMARK H PARENT 6 5 67 11 10 25 60 44 34 55
REMARK Flexibility Score: inf
ROOT
ATOM      1  C   UNL A   1      36.747  21.402  24.949  1.00  0.00     0.118 C 
ENDROOT
BRANCH   1   2
ATOM      2  N   UNL A   1      35.962  21.524  26.166  1.00  0.00    -0.351 N 
ATOM      3  C   UNL A   1      34.589  21.523  26.257  1.00  0.00     0.278 C 
ATOM      4  O   UNL A   1      34.076  21.498  27.375  1.00  0.00    -0.268 OA
ATOM      5  H   UNL A   1      36.462  21.616  27.009  1.00  0.00     0.163 HD
BRANCH   3   6
ATOM      6  C   UNL A   1      33.795  21.549  24.933  1.00  0.00     0.273 C 
BRANCH   6   7
ATOM      7  C   UNL A   1      32.719  20.431  24.932  1.00  0.00     0.072 C 
ATOM      8  C   UNL A   1      33.215  19.010  24.709  1.00  0.00     0.011 C 
ENDBRANCH   6   7
BRANCH   6   9
ATOM      9  N   UNL A   1      33.404  22.901  24.482  1.00  0.00    -0.322 N 
ATOM     10  C   UNL A   1      33.663  23.205  23.080  1.00  0.00     0.333 C 
ATOM     11  H   UNL A   1      32.397  22.768  24.570  1.00  0.00     0.348 HD
BRANCH   9  12
ATOM     12  C   UNL A   1      33.605  24.036  25.360  1.00  0.00     0.319 C 
BRANCH  12  13
ATOM     13  C   UNL A   1      32.309  24.639  25.804  1.00  0.00     0.093 A 
ATOM     14  C   UNL A   1      31.222  23.996  26.369  1.00  0.00     0.140 A 
ATOM     15  N   UNL A   1      31.902  25.960  25.691  1.00  0.00    -0.327 N 
ATOM     16  N   UNL A   1      30.169  24.847  26.549  1.00  0.00    -0.245 NA
ATOM     17  C   UNL A   1      30.596  26.010  26.117  1.00  0.00     0.200 A 
BRANCH  15  18
ATOM     18  C   UNL A   1      32.625  27.116  25.160  1.00  0.00     0.082 C 
ATOM     19  C   UNL A   1      31.694  28.254  24.718  1.00  0.00     0.031 C 
ATOM     20  C   UNL A   1      33.677  27.626  26.141  1.00  0.00     0.031 C 
ENDBRANCH  15  18
ENDBRANCH  12  13
ENDBRANCH   9  12
ENDBRANCH   6   9
ENDBRANCH   3   6
ENDBRANCH   1   2
BRANCH   1  21
ATOM     21  C   UNL A   1      37.740  20.266  24.975  1.00  0.00     0.042 C 
BRANCH  21  22
ATOM     22  C   UNL A   1      38.975  20.595  25.790  1.00  0.00     0.118 C 
BRANCH  22  23
ATOM     23  N   UNL A   1      39.976  19.531  25.783  1.00  0.00    -0.352 N 
ATOM     24  C   UNL A   1      41.320  19.582  26.082  1.00  0.00     0.251 C 
ATOM     25  H   UNL A   1      39.639  18.642  25.526  1.00  0.00     0.163 HD
ATOM     26  O   UNL A   1      42.036  18.604  25.896  1.00  0.00    -0.269 OA
BRANCH  24  27
ATOM     27  C   UNL A   1      41.899  20.844  26.584  1.00  0.00     0.039 A 
ATOM     28  C   UNL A   1      42.369  21.792  25.674  1.00  0.00     0.014 A 
ATOM     29  C   UNL A   1      41.896  21.119  27.951  1.00  0.00     0.014 A 
ATOM     30  C   UNL A   1      42.727  23.062  26.132  1.00  0.00     0.010 A 
ATOM     31  C   UNL A   1      42.117  22.417  28.384  1.00  0.00     0.010 A 
ATOM     32  C   UNL A   1      42.542  23.403  27.481  1.00  0.00    -0.014 A 
BRANCH  32  33
ATOM     33  C   UNL A   1      42.797  24.775  27.990  1.00  0.00     0.031 A 
ATOM     34  C   UNL A   1      44.188  25.165  28.412  1.00  0.00     0.074 A 
ATOM     35  C   UNL A   1      41.772  25.632  28.163  1.00  0.00     0.049 A 
ATOM     36  N   UNL A   1      44.599  26.259  29.000  1.00  0.00    -0.248 NA
ATOM     37  C   UNL A   1      45.252  24.171  28.187  1.00  0.00     0.031 C 
ATOM     38  C   UNL A   1      40.366  25.354  27.857  1.00  0.00     0.029 A 
ATOM     39  N   UNL A   1      41.754  26.914  28.654  1.00  0.00    -0.354 N 
ATOM     40  C   UNL A   1      45.954  26.068  29.242  1.00  0.00     0.074 A 
ATOM     41  C   UNL A   1      46.282  24.732  28.801  1.00  0.00     0.031 C 
ATOM     42  C   UNL A   1      39.630  26.442  28.136  1.00  0.00     0.029 A 
ATOM     43  C   UNL A   1      40.501  27.478  28.680  1.00  0.00     0.049 A 
ATOM     44  H   UNL A   1      42.562  27.385  28.960  1.00  0.00     0.167 HD
ATOM     45  C   UNL A   1      46.853  26.939  29.754  1.00  0.00     0.037 A 
ATOM     46  C   UNL A   1      40.101  28.694  29.099  1.00  0.00     0.037 A 
ATOM     47  C   UNL A   1      46.536  28.287  30.140  1.00  0.00     0.049 A 
ATOM     48  C   UNL A   1      41.123  29.656  29.638  1.00  0.00     0.074 A 
ATOM     49  C   UNL A   1      47.389  29.277  30.594  1.00  0.00     0.029 A 
ATOM     50  N   UNL A   1      45.263  28.836  30.108  1.00  0.00    -0.354 N 
ATOM     51  N   UNL A   1      42.414  29.487  29.795  1.00  0.00    -0.248 NA
ATOM     52  C   UNL A   1      40.636  30.978  30.054  1.00  0.00     0.031 C 
ATOM     53  C   UNL A   1      46.626  30.414  30.872  1.00  0.00     0.029 A 
ATOM     54  C   UNL A   1      45.304  30.147  30.550  1.00  0.00     0.049 A 
ATOM     55  H   UNL A   1      44.451  28.363  29.814  1.00  0.00     0.167 HD
ATOM     56  C   UNL A   1      42.896  30.687  30.300  1.00  0.00     0.074 A 
ATOM     57  C   UNL A   1      41.761  31.580  30.411  1.00  0.00     0.031 C 
ATOM     58  C   UNL A   1      44.165  31.022  30.641  1.00  0.00     0.037 A 
BRANCH  45  59
ATOM     59  C   UNL A   1      48.268  26.462  29.906  1.00  0.00     0.057 A 
ATOM     60  C   UNL A   1      49.227  26.659  28.903  1.00  0.00     0.134 A 
ATOM     61  C   UNL A   1      48.682  25.813  31.076  1.00  0.00     0.134 A 
ATOM     62  F   UNL A   1      48.892  27.259  27.751  1.00  0.00    -0.206 F 
ATOM     63  C   UNL A   1      50.538  26.201  29.045  1.00  0.00     0.040 A 
ATOM     64  C   UNL A   1      49.998  25.378  31.242  1.00  0.00     0.040 A 
ATOM     65  F   UNL A   1      47.816  25.595  32.077  1.00  0.00    -0.206 F 
ATOM     66  C   UNL A   1      50.928  25.565  30.221  1.00  0.00     0.006 A 
ENDBRANCH  45  59
BRANCH  46  67
ATOM     67  C   UNL A   1      38.672  29.085  28.998  1.00  0.00     0.057 A 
ATOM     68  C   UNL A   1      38.135  29.539  27.787  1.00  0.00     0.134 A 
ATOM     69  C   UNL A   1      37.813  29.025  30.102  1.00  0.00     0.134 A 
ATOM     70  F   UNL A   1      38.912  29.634  26.699  1.00  0.00    -0.206 F 
ATOM     71  C   UNL A   1      36.801  29.938  27.682  1.00  0.00     0.040 A 
ATOM     72  C   UNL A   1      36.471  29.399  30.004  1.00  0.00     0.040 A 
ATOM     73  F   UNL A   1      38.264  28.592  31.288  1.00  0.00    -0.206 F 
ATOM     74  C   UNL A   1      35.964  29.864  28.793  1.00  0.00     0.006 A 
ENDBRANCH  46  67
BRANCH  58  75
ATOM     75  C   UNL A   1      44.399  32.420  31.130  1.00  0.00     0.057 A 
ATOM     76  C   UNL A   1      44.362  32.741  32.492  1.00  0.00     0.134 A 
ATOM     77  C   UNL A   1      44.716  33.445  30.229  1.00  0.00     0.134 A 
ATOM     78  F   UNL A   1      44.052  31.807  33.403  1.00  0.00    -0.206 F 
ATOM     79  C   UNL A   1      44.613  34.039  32.939  1.00  0.00     0.040 A 
ATOM     80  C   UNL A   1      44.994  34.739  30.666  1.00  0.00     0.040 A 
ATOM     81  F   UNL A   1      44.777  33.198  28.911  1.00  0.00    -0.206 F 
ATOM     82  C   UNL A   1      44.939  35.039  32.025  1.00  0.00     0.006 A 
ENDBRANCH  58  75
ENDBRANCH  32  33
ENDBRANCH  24  27
ENDBRANCH  22  23
ENDBRANCH  21  22
ENDBRANCH   1  21
TORSDOF 15
ENDMDL
MODEL 2
REMARK VINA RESULT:     -10.4      4.394      9.554
REMARK SMILES CC[C@H](C(=O)NCCCNC(=O)c1ccc(-c2c3nc(c(-c4c(F)cccc4F)c4ccc([nH]4)c(-c4c(F)cccc4F)c4nc(c(-c5c(F)cccc5F)c5ccc2[nH]5)C=C4)C=C3)cc1)[N@H+](C)Cc1cncn1C(C)C
REMARK SMILES IDX 7 1 6 2 4 3 5 4 3 6 2 7 1 8 67 9 68 10 69 12 70 13 71 14
REMARK SMILES IDX 74 15 72 16 73 17 75 18 76 19 77 20 8 21 9 22 10 23 11 24
REMARK SMILES IDX 12 26 13 27 14 28 66 29 15 30 65 31 16 32 17 33 18 34 59 35
REMARK SMILES IDX 19 36 64 37 58 38 60 39 20 40 63 41 57 42 56 43 21 45 47 46
REMARK SMILES IDX 30 47 46 48 31 49 34 50 45 51 61 52 32 53 33 54 44 56 62 57
REMARK SMILES IDX 35 58 22 59 23 60 28 61 24 62 25 63 27 64 29 65 26 66 48 67
REMARK SMILES IDX 49 68 54 69 50 70 51 71 53 72 55 73 52 74 36 75 37 76 42 77
REMARK SMILES IDX 38 78 39 79 41 80 43 81 40 82
REMARK H PARENT 6 5 67 11 10 25 60 44 34 55
REMARK Flexibility Score: inf
ROOT
ATOM      1  C   UNL A   1      31.802  30.477  26.558  1.00  0.00     0.118 C 
ENDROOT
BRANCH   1   2
ATOM      2  N   UNL A   1      32.702  30.085  25.487  1.00  0.00    -0.351 N 
ATOM      3  C   UNL A   1      32.405  29.256  24.431  1.00  0.00     0.278 C 
ATOM      4  O   UNL A   1      33.237  29.131  23.532  1.00  0.00    -0.268 OA
ATOM      5  H   UNL A   1      33.616  30.451  25.520  1.00  0.00     0.163 HD
BRANCH   3   6
ATOM      6  C   UNL A   1      31.035  28.545  24.457  1.00  0.00     0.273 C 
BRANCH   6   7
ATOM      7  C   UNL A   1      30.150  29.045  23.284  1.00  0.00     0.072 C 
ATOM      8  C   UNL A   1      29.415  30.359  23.500  1.00  0.00     0.011 C 
ENDBRANCH   6   7
BRANCH   6   9
ATOM      9  N   UNL A   1      31.107  27.091  24.713  1.00  0.00    -0.322 N 
ATOM     10  C   UNL A   1      29.943  26.314  24.305  1.00  0.00     0.333 C 
ATOM     11  H   UNL A   1      31.844  26.889  24.037  1.00  0.00     0.348 HD
BRANCH   9  12
ATOM     12  C   UNL A   1      31.719  26.606  25.933  1.00  0.00     0.319 C 
BRANCH  12  13
ATOM     13  C   UNL A   1      32.864  25.681  25.660  1.00  0.00     0.093 A 
ATOM     14  C   UNL A   1      33.994  25.930  24.902  1.00  0.00     0.140 A 
ATOM     15  N   UNL A   1      33.006  24.361  26.061  1.00  0.00    -0.327 N 
ATOM     16  N   UNL A   1      34.776  24.817  24.782  1.00  0.00    -0.245 NA
ATOM     17  C   UNL A   1      34.152  23.889  25.468  1.00  0.00     0.200 A 
BRANCH  15  18
ATOM     18  C   UNL A   1      32.120  23.537  26.882  1.00  0.00     0.082 C 
ATOM     19  C   UNL A   1      30.969  22.912  26.081  1.00  0.00     0.031 C 
ATOM     20  C   UNL A   1      32.891  22.465  27.648  1.00  0.00     0.031 C 
ENDBRANCH  15  18
ENDBRANCH  12  13
ENDBRANCH   9  12
ENDBRANCH   6   9
ENDBRANCH   3   6
ENDBRANCH   1   2
BRANCH   1  21
ATOM     21  C   UNL A   1      31.564  31.964  26.643  1.00  0.00     0.042 C 
BRANCH  21  22
ATOM     22  C   UNL A   1      32.708  32.695  27.317  1.00  0.00     0.118 C 
BRANCH  22  23
ATOM     23  N   UNL A   1      32.405  34.091  27.624  1.00  0.00    -0.352 N 
ATOM     24  C   UNL A   1      32.986  34.939  28.541  1.00  0.00     0.251 C 
ATOM     25  H   UNL A   1      31.675  34.486  27.094  1.00  0.00     0.163 HD
ATOM     26  O   UNL A   1      32.511  36.051  28.750  1.00  0.00    -0.269 OA
BRANCH  24  27
ATOM     27  C   UNL A   1      34.161  34.477  29.306  1.00  0.00     0.039 A 
ATOM     28  C   UNL A   1      33.973  33.863  30.546  1.00  0.00     0.014 A 
ATOM     29  C   UNL A   1      35.438  34.577  28.755  1.00  0.00     0.014 A 
ATOM     30  C   UNL A   1      35.057  33.246  31.175  1.00  0.00     0.010 A 
ATOM     31  C   UNL A   1      36.477  33.847  29.310  1.00  0.00     0.010 A 
ATOM     32  C   UNL A   1      36.302  33.179  30.530  1.00  0.00    -0.014 A 
BRANCH  32  33
ATOM     33  C   UNL A   1      37.449  32.432  31.107  1.00  0.00     0.031 A 
ATOM     34  C   UNL A   1      38.076  32.908  32.390  1.00  0.00     0.074 A 
ATOM     35  C   UNL A   1      37.986  31.395  30.435  1.00  0.00     0.049 A 
ATOM     36  N   UNL A   1      39.158  32.482  32.991  1.00  0.00    -0.248 NA
ATOM     37  C   UNL A   1      37.427  34.046  33.063  1.00  0.00     0.031 C 
ATOM     38  C   UNL A   1      37.515  30.876  29.148  1.00  0.00     0.029 A 
ATOM     39  N   UNL A   1      39.060  30.594  30.738  1.00  0.00    -0.354 N 
ATOM     40  C   UNL A   1      39.332  33.320  34.085  1.00  0.00     0.074 A 
ATOM     41  C   UNL A   1      38.289  34.317  34.030  1.00  0.00     0.031 C 
ATOM     42  C   UNL A   1      38.274  29.828  28.790  1.00  0.00     0.029 A 
ATOM     43  C   UNL A   1      39.309  29.625  29.798  1.00  0.00     0.049 A 
ATOM     44  H   UNL A   1      39.600  30.705  31.553  1.00  0.00     0.167 HD
ATOM     45  C   UNL A   1      40.258  33.245  35.069  1.00  0.00     0.037 A 
ATOM     46  C   UNL A   1      40.270  28.682  29.751  1.00  0.00     0.037 A 
ATOM     47  C   UNL A   1      41.260  32.218  35.152  1.00  0.00     0.049 A 
ATOM     48  C   UNL A   1      41.271  28.600  30.870  1.00  0.00     0.074 A 
ATOM     49  C   UNL A   1      42.195  32.004  36.150  1.00  0.00     0.029 A 
ATOM     50  N   UNL A   1      41.452  31.226  34.202  1.00  0.00    -0.354 N 
ATOM     51  N   UNL A   1      41.380  29.355  31.937  1.00  0.00    -0.248 NA
ATOM     52  C   UNL A   1      42.277  27.534  30.783  1.00  0.00     0.031 C 
ATOM     53  C   UNL A   1      42.977  30.905  35.785  1.00  0.00     0.029 A 
ATOM     54  C   UNL A   1      42.501  30.407  34.582  1.00  0.00     0.049 A 
ATOM     55  H   UNL A   1      40.921  31.122  33.380  1.00  0.00     0.167 HD
ATOM     56  C   UNL A   1      42.447  28.840  32.660  1.00  0.00     0.074 A 
ATOM     57  C   UNL A   1      42.944  27.699  31.917  1.00  0.00     0.031 C 
ATOM     58  C   UNL A   1      42.971  29.270  33.834  1.00  0.00     0.037 A 
BRANCH  45  59
ATOM     59  C   UNL A   1      40.213  34.294  36.142  1.00  0.00     0.057 A 
ATOM     60  C   UNL A   1      40.940  35.487  36.041  1.00  0.00     0.134 A 
ATOM     61  C   UNL A   1      39.418  34.116  37.282  1.00  0.00     0.134 A 
ATOM     62  F   UNL A   1      41.733  35.712  34.982  1.00  0.00    -0.206 F 
ATOM     63  C   UNL A   1      40.904  36.453  37.047  1.00  0.00     0.040 A 
ATOM     64  C   UNL A   1      39.350  35.088  38.281  1.00  0.00     0.040 A 
ATOM     65  F   UNL A   1      38.694  32.998  37.440  1.00  0.00    -0.206 F 
ATOM     66  C   UNL A   1      40.101  36.257  38.169  1.00  0.00     0.006 A 
ENDBRANCH  45  59
BRANCH  46  67
ATOM     67  C   UNL A   1      40.314  27.717  28.623  1.00  0.00     0.057 A 
ATOM     68  C   UNL A   1      39.619  26.503  28.687  1.00  0.00     0.134 A 
ATOM     69  C   UNL A   1      41.054  27.975  27.463  1.00  0.00     0.134 A 
ATOM     70  F   UNL A   1      38.906  26.191  29.779  1.00  0.00    -0.206 F 
ATOM     71  C   UNL A   1      39.673  25.572  27.648  1.00  0.00     0.040 A 
ATOM     72  C   UNL A   1      41.099  27.063  26.407  1.00  0.00     0.040 A 
ATOM     73  F   UNL A   1      41.736  29.123  27.336  1.00  0.00    -0.206 F 
ATOM     74  C   UNL A   1      40.412  25.854  26.501  1.00  0.00     0.006 A 
ENDBRANCH  46  67
BRANCH  58  75
ATOM     75  C   UNL A   1      44.114  28.486  34.406  1.00  0.00     0.057 A 
ATOM     76  C   UNL A   1      45.446  28.818  34.134  1.00  0.00     0.134 A 
ATOM     77  C   UNL A   1      43.875  27.417  35.279  1.00  0.00     0.134 A 
ATOM     78  F   UNL A   1      45.739  29.823  33.296  1.00  0.00    -0.206 F 
ATOM     79  C   UNL A   1      46.503  28.102  34.698  1.00  0.00     0.040 A 
ATOM     80  C   UNL A   1      44.923  26.710  35.868  1.00  0.00     0.040 A 
ATOM     81  F   UNL A   1      42.620  27.055  35.587  1.00  0.00    -0.206 F 
ATOM     82  C   UNL A   1      46.242  27.050  35.574  1.00  0.00     0.006 A 
ENDBRANCH  58  75
ENDBRANCH  32  33
ENDBRANCH  24  27
ENDBRANCH  22  23
ENDBRANCH  21  22
ENDBRANCH   1  21
TORSDOF 15
ENDMDL
MODEL 3
REMARK VINA RESULT:     -10.4      1.364      2.034
REMARK SMILES CC[C@H](C(=O)NCCCNC(=O)c1ccc(-c2c3nc(c(-c4c(F)cccc4F)c4ccc([nH]4)c(-c4c(F)cccc4F)c4nc(c(-c5c(F)cccc5F)c5ccc2[nH]5)C=C4)C=C3)cc1)[N@H+](C)Cc1cncn1C(C)C
REMARK SMILES IDX 7 1 6 2 4 3 5 4 3 6 2 7 1 8 67 9 68 10 69 12 70 13 71 14
REMARK SMILES IDX 74 15 72 16 73 17 75 18 76 19 77 20 8 21 9 22 10 23 11 24
REMARK SMILES IDX 12 26 13 27 14 28 66 29 15 30 65 31 16 32 17 33 18 34 59 35
REMARK SMILES IDX 19 36 64 37 58 38 60 39 20 40 63 41 57 42 56 43 21 45 47 46
REMARK SMILES IDX 30 47 46 48 31 49 34 50 45 51 61 52 32 53 33 54 44 56 62 57
REMARK SMILES IDX 35 58 22 59 23 60 28 61 24 62 25 63 27 64 29 65 26 66 48 67
REMARK SMILES IDX 49 68 54 69 50 70 51 71 53 72 55 73 52 74 36 75 37 76 42 77
REMARK SMILES IDX 38 78 39 79 41 80 43 81 40 82
REMARK H PARENT 6 5 67 11 10 25 60 44 34 55
REMARK Flexibility Score: inf
ROOT
ATOM      1  C   UNL A   1      36.836  21.110  24.905  1.00  0.00     0.118 C 
ENDROOT
BRANCH   1   2
ATOM      2  N   UNL A   1      35.942  21.232  26.044  1.00  0.00    -0.351 N 
ATOM      3  C   UNL A   1      34.569  21.154  26.019  1.00  0.00     0.278 C 
ATOM      4  O   UNL A   1      33.963  21.142  27.090  1.00  0.00    -0.268 OA
ATOM      5  H   UNL A   1      36.362  21.386  26.921  1.00  0.00     0.163 HD
BRANCH   3   6
ATOM      6  C   UNL A   1      33.893  21.082  24.633  1.00  0.00     0.273 C 
BRANCH   6   7
ATOM      7  C   UNL A   1      33.155  19.727  24.467  1.00  0.00     0.072 C 
ATOM      8  C   UNL A   1      34.000  18.471  24.615  1.00  0.00     0.011 C 
ENDBRANCH   6   7
BRANCH   6   9
ATOM      9  N   UNL A   1      33.189  22.318  24.232  1.00  0.00    -0.322 N 
ATOM     10  C   UNL A   1      32.586  22.306  22.905  1.00  0.00     0.333 C 
ATOM     11  H   UNL A   1      32.424  22.241  24.902  1.00  0.00     0.348 HD
BRANCH   9  12
ATOM     12  C   UNL A   1      33.739  23.608  24.599  1.00  0.00     0.319 C 
BRANCH  12  13
ATOM     13  C   UNL A   1      32.816  24.380  25.488  1.00  0.00     0.093 A 
ATOM     14  C   UNL A   1      31.762  23.897  26.242  1.00  0.00     0.140 A 
ATOM     15  N   UNL A   1      32.788  25.751  25.701  1.00  0.00    -0.327 N 
ATOM     16  N   UNL A   1      31.071  24.908  26.848  1.00  0.00    -0.245 NA
ATOM     17  C   UNL A   1      31.694  26.006  26.492  1.00  0.00     0.200 A 
BRANCH  15  18
ATOM     18  C   UNL A   1      33.659  26.795  25.163  1.00  0.00     0.082 C 
ATOM     19  C   UNL A   1      33.133  27.399  23.852  1.00  0.00     0.031 C 
ATOM     20  C   UNL A   1      33.935  27.889  26.191  1.00  0.00     0.031 C 
ENDBRANCH  15  18
ENDBRANCH  12  13
ENDBRANCH   9  12
ENDBRANCH   6   9
ENDBRANCH   3   6
ENDBRANCH   1   2
BRANCH   1  21
ATOM     21  C   UNL A   1      37.795  19.950  25.003  1.00  0.00     0.042 C 
BRANCH  21  22
ATOM     22  C   UNL A   1      39.061  20.308  25.756  1.00  0.00     0.118 C 
BRANCH  22  23
ATOM     23  N   UNL A   1      40.008  19.201  25.861  1.00  0.00    -0.352 N 
ATOM     24  C   UNL A   1      41.363  19.219  26.109  1.00  0.00     0.251 C 
ATOM     25  H   UNL A   1      39.619  18.304  25.735  1.00  0.00     0.163 HD
ATOM     26  O   UNL A   1      42.024  18.188  26.033  1.00  0.00    -0.269 OA
BRANCH  24  27
ATOM     27  C   UNL A   1      42.021  20.503  26.420  1.00  0.00     0.039 A 
ATOM     28  C   UNL A   1      42.464  21.317  25.377  1.00  0.00     0.014 A 
ATOM     29  C   UNL A   1      42.119  20.935  27.742  1.00  0.00     0.014 A 
ATOM     30  C   UNL A   1      42.900  22.614  25.658  1.00  0.00     0.010 A 
ATOM     31  C   UNL A   1      42.417  22.264  28.003  1.00  0.00     0.010 A 
ATOM     32  C   UNL A   1      42.818  23.118  26.966  1.00  0.00    -0.014 A 
BRANCH  32  33
ATOM     33  C   UNL A   1      43.157  24.526  27.291  1.00  0.00     0.031 A 
ATOM     34  C   UNL A   1      44.594  24.973  27.254  1.00  0.00     0.074 A 
ATOM     35  C   UNL A   1      42.197  25.373  27.711  1.00  0.00     0.049 A 
ATOM     36  N   UNL A   1      45.117  26.113  27.625  1.00  0.00    -0.248 NA
ATOM     37  C   UNL A   1      45.582  23.987  26.781  1.00  0.00     0.031 C 
ATOM     38  C   UNL A   1      40.775  25.046  27.857  1.00  0.00     0.029 A 
ATOM     39  N   UNL A   1      42.273  26.686  28.107  1.00  0.00    -0.354 N 
ATOM     40  C   UNL A   1      46.489  25.967  27.461  1.00  0.00     0.074 A 
ATOM     41  C   UNL A   1      46.724  24.611  27.023  1.00  0.00     0.031 C 
ATOM     42  C   UNL A   1      40.113  26.136  28.277  1.00  0.00     0.029 A 
ATOM     43  C   UNL A   1      41.063  27.224  28.472  1.00  0.00     0.049 A 
ATOM     44  H   UNL A   1      43.116  27.193  28.128  1.00  0.00     0.167 HD
ATOM     45  C   UNL A   1      47.464  26.890  27.627  1.00  0.00     0.037 A 
ATOM     46  C   UNL A   1      40.758  28.458  28.918  1.00  0.00     0.037 A 
ATOM     47  C   UNL A   1      47.222  28.255  28.008  1.00  0.00     0.049 A 
ATOM     48  C   UNL A   1      41.855  29.475  29.067  1.00  0.00     0.074 A 
ATOM     49  C   UNL A   1      48.131  29.291  28.125  1.00  0.00     0.029 A 
ATOM     50  N   UNL A   1      45.976  28.774  28.325  1.00  0.00    -0.354 N 
ATOM     51  N   UNL A   1      43.140  29.344  28.840  1.00  0.00    -0.248 NA
ATOM     52  C   UNL A   1      41.460  30.813  29.529  1.00  0.00     0.031 C 
ATOM     53  C   UNL A   1      47.440  30.429  28.550  1.00  0.00     0.029 A 
ATOM     54  C   UNL A   1      46.094  30.113  28.655  1.00  0.00     0.049 A 
ATOM     55  H   UNL A   1      45.133  28.265  28.317  1.00  0.00     0.167 HD
ATOM     56  C   UNL A   1      43.701  30.586  29.104  1.00  0.00     0.074 A 
ATOM     57  C   UNL A   1      42.616  31.462  29.496  1.00  0.00     0.031 C 
ATOM     58  C   UNL A   1      44.999  30.969  29.030  1.00  0.00     0.037 A 
BRANCH  45  59
ATOM     59  C   UNL A   1      48.878  26.453  27.377  1.00  0.00     0.057 A 
ATOM     60  C   UNL A   1      49.698  25.974  28.408  1.00  0.00     0.134 A 
ATOM     61  C   UNL A   1      49.422  26.496  26.087  1.00  0.00     0.134 A 
ATOM     62  F   UNL A   1      49.244  25.923  29.669  1.00  0.00    -0.206 F 
ATOM     63  C   UNL A   1      51.016  25.582  28.171  1.00  0.00     0.040 A 
ATOM     64  C   UNL A   1      50.729  26.078  25.832  1.00  0.00     0.040 A 
ATOM     65  F   UNL A   1      48.691  26.942  25.053  1.00  0.00    -0.206 F 
ATOM     66  C   UNL A   1      51.532  25.627  26.878  1.00  0.00     0.006 A 
ENDBRANCH  45  59
BRANCH  46  67
ATOM     67  C   UNL A   1      39.348  28.812  29.225  1.00  0.00     0.057 A 
ATOM     68  C   UNL A   1      38.516  29.367  28.246  1.00  0.00     0.134 A 
ATOM     69  C   UNL A   1      38.802  28.616  30.499  1.00  0.00     0.134 A 
ATOM     70  F   UNL A   1      38.987  29.594  27.011  1.00  0.00    -0.206 F 
ATOM     71  C   UNL A   1      37.198  29.732  28.525  1.00  0.00     0.040 A 
ATOM     72  C   UNL A   1      37.478  28.956  30.787  1.00  0.00     0.040 A 
ATOM     73  F   UNL A   1      39.544  28.082  31.480  1.00  0.00    -0.206 F 
ATOM     74  C   UNL A   1      36.675  29.522  29.799  1.00  0.00     0.006 A 
ENDBRANCH  46  67
BRANCH  58  75
ATOM     75  C   UNL A   1      45.312  32.402  29.341  1.00  0.00     0.057 A 
ATOM     76  C   UNL A   1      45.245  33.402  28.365  1.00  0.00     0.134 A 
ATOM     77  C   UNL A   1      45.635  32.791  30.648  1.00  0.00     0.134 A 
ATOM     78  F   UNL A   1      44.954  33.091  27.093  1.00  0.00    -0.206 F 
ATOM     79  C   UNL A   1      45.507  34.738  28.673  1.00  0.00     0.040 A 
ATOM     80  C   UNL A   1      45.874  34.126  30.973  1.00  0.00     0.040 A 
ATOM     81  F   UNL A   1      45.706  31.880  31.632  1.00  0.00    -0.206 F 
ATOM     82  C   UNL A   1      45.814  35.103  29.982  1.00  0.00     0.006 A 
ENDBRANCH  58  75
ENDBRANCH  32  33
ENDBRANCH  24  27
ENDBRANCH  22  23
ENDBRANCH  21  22
ENDBRANCH   1  21
TORSDOF 15
ENDMDL
