MODEL 1
REMARK VINA RESULT:     -10.3      0.000      0.000
REMARK SMILES Cc1csc(CSCC[C@H]([NH3+])C(=O)NCCCNC(=O)c2ccc(-c3c4nc(c(-c5c(F)cccc5F)c5ccc([nH]5)c(-c5c(F)cccc5F)c5nc(c(-c6c(F)cccc6F)c6ccc3[nH]6)C=C5)C=C4)cc2)n1
REMARK SMILES IDX 12 1 13 2 14 3 10 5 9 6 8 7 7 8 6 9 5 10 1 11 2 12 3 13
REMARK SMILES IDX 75 14 4 15 11 16 15 20 16 21 17 22 18 23 19 24 20 26 21 27
REMARK SMILES IDX 22 28 74 29 23 30 73 31 24 32 25 33 26 34 67 35 27 36 72 37
REMARK SMILES IDX 66 38 68 39 28 40 71 41 65 42 64 43 29 45 55 46 38 47 54 48
REMARK SMILES IDX 39 49 42 50 53 51 69 52 40 53 41 54 52 56 70 57 43 58 30 59
REMARK SMILES IDX 31 60 36 61 32 62 33 63 35 64 37 65 34 66 56 67 57 68 62 69
REMARK SMILES IDX 58 70 59 71 61 72 63 73 60 74 44 75 45 76 50 77 46 78 47 79
REMARK SMILES IDX 49 80 51 81 48 82
REMARK H PARENT 14 4 11 17 11 18 11 19 18 25 68 44 42 55
REMARK Flexibility Score: inf
ROOT
ATOM      1  C   UNL A   1      34.412  19.256  24.840  1.00  0.00     0.278 C 
ATOM      2  O   UNL A   1      34.376  18.195  24.207  1.00  0.00    -0.268 OA
ATOM      3  N   UNL A   1      35.634  19.837  24.988  1.00  0.00    -0.351 N 
ATOM      4  H   UNL A   1      36.392  19.261  24.736  1.00  0.00     0.163 HD
ENDROOT
BRANCH   1   5
ATOM      5  C   UNL A   1      33.115  19.848  25.427  1.00  0.00     0.271 C 
BRANCH   5   6
ATOM      6  C   UNL A   1      32.291  20.814  24.550  1.00  0.00     0.086 C 
BRANCH   6   7
ATOM      7  C   UNL A   1      32.953  22.012  23.868  1.00  0.00     0.076 C 
BRANCH   7   8
ATOM      8  S   UNL A   1      31.847  23.418  23.494  1.00  0.00    -0.154 SA
BRANCH   8   9
ATOM      9  C   UNL A   1      31.242  23.890  25.148  1.00  0.00     0.137 C 
BRANCH   9  10
ATOM     10  C   UNL A   1      31.851  25.124  25.760  1.00  0.00     0.103 A 
ATOM     11  C   UNL A   1      31.544  28.194  27.641  1.00  0.00     0.067 C 
ATOM     12  C   UNL A   1      32.067  27.078  26.810  1.00  0.00     0.049 A 
ATOM     13  C   UNL A   1      33.273  27.062  26.140  1.00  0.00     0.090 A 
ATOM     14  N   UNL A   1      31.291  25.940  26.634  1.00  0.00    -0.246 NA
ATOM     15  S   UNL A   1      33.404  25.643  25.199  1.00  0.00    -0.126 S 
ENDBRANCH   9  10
ENDBRANCH   8   9
ENDBRANCH   7   8
ENDBRANCH   6   7
ENDBRANCH   5   6
BRANCH   5  16
ATOM     16  N   UNL A   1      33.302  20.304  26.820  1.00  0.00    -0.347 N 
ATOM     17  H   UNL A   1      32.630  19.831  27.425  1.00  0.00     0.345 HD
ATOM     18  H   UNL A   1      33.154  21.312  26.871  1.00  0.00     0.345 HD
ATOM     19  H   UNL A   1      34.250  20.084  27.127  1.00  0.00     0.345 HD
ENDBRANCH   5  16
ENDBRANCH   1   5
BRANCH   3  20
ATOM     20  C   UNL A   1      36.014  21.158  25.451  1.00  0.00     0.118 C 
BRANCH  20  21
ATOM     21  C   UNL A   1      37.280  21.683  24.801  1.00  0.00     0.042 C 
BRANCH  21  22
ATOM     22  C   UNL A   1      38.486  21.610  25.727  1.00  0.00     0.118 C 
BRANCH  22  23
ATOM     23  N   UNL A   1      39.211  20.341  25.649  1.00  0.00    -0.352 N 
ATOM     24  C   UNL A   1      40.512  20.067  25.996  1.00  0.00     0.251 C 
ATOM     25  H   UNL A   1      38.695  19.579  25.302  1.00  0.00     0.163 HD
ATOM     26  O   UNL A   1      41.005  18.965  25.776  1.00  0.00    -0.269 OA
BRANCH  24  27
ATOM     27  C   UNL A   1      41.335  21.133  26.591  1.00  0.00     0.039 A 
ATOM     28  C   UNL A   1      42.058  21.965  25.735  1.00  0.00     0.014 A 
ATOM     29  C   UNL A   1      41.294  21.378  27.965  1.00  0.00     0.014 A 
ATOM     30  C   UNL A   1      42.615  23.137  26.237  1.00  0.00     0.010 A 
ATOM     31  C   UNL A   1      41.777  22.583  28.449  1.00  0.00     0.010 A 
ATOM     32  C   UNL A   1      42.399  23.489  27.579  1.00  0.00    -0.014 A 
BRANCH  32  33
ATOM     33  C   UNL A   1      42.709  24.850  28.069  1.00  0.00     0.031 A 
ATOM     34  C   UNL A   1      44.094  25.190  28.521  1.00  0.00     0.074 A 
ATOM     35  C   UNL A   1      41.696  25.727  28.216  1.00  0.00     0.049 A 
ATOM     36  N   UNL A   1      44.529  26.284  29.088  1.00  0.00    -0.248 NA
ATOM     37  C   UNL A   1      45.120  24.151  28.340  1.00  0.00     0.031 C 
ATOM     38  C   UNL A   1      40.294  25.468  27.873  1.00  0.00     0.029 A 
ATOM     39  N   UNL A   1      41.682  27.004  28.711  1.00  0.00    -0.354 N 
ATOM     40  C   UNL A   1      45.873  26.061  29.348  1.00  0.00     0.074 A 
ATOM     41  C   UNL A   1      46.173  24.713  28.916  1.00  0.00     0.031 C 
ATOM     42  C   UNL A   1      39.562  26.558  28.149  1.00  0.00     0.029 A 
ATOM     43  C   UNL A   1      40.434  27.577  28.721  1.00  0.00     0.049 A 
ATOM     44  H   UNL A   1      42.491  27.467  29.028  1.00  0.00     0.167 HD
ATOM     45  C   UNL A   1      46.775  26.916  29.884  1.00  0.00     0.037 A 
ATOM     46  C   UNL A   1      40.035  28.788  29.153  1.00  0.00     0.037 A 
ATOM     47  C   UNL A   1      46.464  28.260  30.289  1.00  0.00     0.049 A 
ATOM     48  C   UNL A   1      41.062  29.726  29.718  1.00  0.00     0.074 A 
ATOM     49  C   UNL A   1      47.313  29.226  30.797  1.00  0.00     0.029 A 
ATOM     50  N   UNL A   1      45.199  28.826  30.231  1.00  0.00    -0.354 N 
ATOM     51  N   UNL A   1      42.346  29.528  29.897  1.00  0.00    -0.248 NA
ATOM     52  C   UNL A   1      40.592  31.053  30.138  1.00  0.00     0.031 C 
ATOM     53  C   UNL A   1      46.556  30.370  31.069  1.00  0.00     0.029 A 
ATOM     54  C   UNL A   1      45.243  30.126  30.700  1.00  0.00     0.049 A 
ATOM     55  H   UNL A   1      44.390  28.369  29.903  1.00  0.00     0.167 HD
ATOM     56  C   UNL A   1      42.844  30.713  30.419  1.00  0.00     0.074 A 
ATOM     57  C   UNL A   1      41.723  31.625  30.527  1.00  0.00     0.031 C 
ATOM     58  C   UNL A   1      44.114  31.018  30.775  1.00  0.00     0.037 A 
BRANCH  45  59
ATOM     59  C   UNL A   1      48.178  26.415  30.052  1.00  0.00     0.057 A 
ATOM     60  C   UNL A   1      49.144  26.587  29.052  1.00  0.00     0.134 A 
ATOM     61  C   UNL A   1      48.572  25.769  31.229  1.00  0.00     0.134 A 
ATOM     62  F   UNL A   1      48.823  27.184  27.894  1.00  0.00    -0.206 F 
ATOM     63  C   UNL A   1      50.447  26.112  29.207  1.00  0.00     0.040 A 
ATOM     64  C   UNL A   1      49.879  25.310  31.406  1.00  0.00     0.040 A 
ATOM     65  F   UNL A   1      47.696  25.573  32.226  1.00  0.00    -0.206 F 
ATOM     66  C   UNL A   1      50.818  25.476  30.390  1.00  0.00     0.006 A 
ENDBRANCH  45  59
BRANCH  46  67
ATOM     67  C   UNL A   1      38.613  29.188  29.030  1.00  0.00     0.057 A 
ATOM     68  C   UNL A   1      38.097  29.636  27.809  1.00  0.00     0.134 A 
ATOM     69  C   UNL A   1      37.732  29.114  30.114  1.00  0.00     0.134 A 
ATOM     70  F   UNL A   1      38.895  29.739  26.736  1.00  0.00    -0.206 F 
ATOM     71  C   UNL A   1      36.759  30.011  27.674  1.00  0.00     0.040 A 
ATOM     72  C   UNL A   1      36.387  29.466  29.989  1.00  0.00     0.040 A 
ATOM     73  F   UNL A   1      38.163  28.678  31.309  1.00  0.00    -0.206 F 
ATOM     74  C   UNL A   1      35.898  29.921  28.766  1.00  0.00     0.006 A 
ENDBRANCH  46  67
BRANCH  58  75
ATOM     75  C   UNL A   1      44.370  32.408  31.267  1.00  0.00     0.057 A 
ATOM     76  C   UNL A   1      44.268  32.739  32.623  1.00  0.00     0.134 A 
ATOM     77  C   UNL A   1      44.788  33.408  30.379  1.00  0.00     0.134 A 
ATOM     78  F   UNL A   1      43.859  31.826  33.516  1.00  0.00    -0.206 F 
ATOM     79  C   UNL A   1      44.570  34.022  33.080  1.00  0.00     0.040 A 
ATOM     80  C   UNL A   1      45.110  34.688  30.827  1.00  0.00     0.040 A 
ATOM     81  F   UNL A   1      44.908  33.147  29.069  1.00  0.00    -0.206 F 
ATOM     82  C   UNL A   1      45.001  34.998  32.181  1.00  0.00     0.006 A 
ENDBRANCH  58  75
ENDBRANCH  32  33
ENDBRANCH  24  27
ENDBRANCH  22  23
ENDBRANCH  21  22
ENDBRANCH  20  21
ENDBRANCH   3  20
TORSDOF 16
ENDMDL
MODEL 2
REMARK VINA RESULT:     -10.2      1.026      1.773
REMARK SMILES Cc1csc(CSCC[C@H]([NH3+])C(=O)NCCCNC(=O)c2ccc(-c3c4nc(c(-c5c(F)cccc5F)c5ccc([nH]5)c(-c5c(F)cccc5F)c5nc(c(-c6c(F)cccc6F)c6ccc3[nH]6)C=C5)C=C4)cc2)n1
REMARK SMILES IDX 12 1 13 2 14 3 10 5 9 6 8 7 7 8 6 9 5 10 1 11 2 12 3 13
REMARK SMILES IDX 75 14 4 15 11 16 15 20 16 21 17 22 18 23 19 24 20 26 21 27
REMARK SMILES IDX 22 28 74 29 23 30 73 31 24 32 25 33 26 34 67 35 27 36 72 37
REMARK SMILES IDX 66 38 68 39 28 40 71 41 65 42 64 43 29 45 55 46 38 47 54 48
REMARK SMILES IDX 39 49 42 50 53 51 69 52 40 53 41 54 52 56 70 57 43 58 30 59
REMARK SMILES IDX 31 60 36 61 32 62 33 63 35 64 37 65 34 66 56 67 57 68 62 69
REMARK SMILES IDX 58 70 59 71 61 72 63 73 60 74 44 75 45 76 50 77 46 78 47 79
REMARK SMILES IDX 49 80 51 81 48 82
REMARK H PARENT 14 4 11 17 11 18 11 19 18 25 68 44 42 55
REMARK Flexibility Score: inf
ROOT
ATOM      1  C   UNL A   1      34.269  21.100  26.552  1.00  0.00     0.278 C 
ATOM      2  O   UNL A   1      33.946  21.539  27.662  1.00  0.00    -0.268 OA
ATOM      3  N   UNL A   1      35.523  21.403  26.118  1.00  0.00    -0.351 N 
ATOM      4  H   UNL A   1      35.982  22.094  26.649  1.00  0.00     0.163 HD
ENDROOT
BRANCH   1   5
ATOM      5  C   UNL A   1      33.265  20.269  25.730  1.00  0.00     0.271 C 
BRANCH   5   6
ATOM      6  C   UNL A   1      32.056  20.995  25.103  1.00  0.00     0.086 C 
BRANCH   6   7
ATOM      7  C   UNL A   1      32.198  22.410  24.539  1.00  0.00     0.076 C 
BRANCH   7   8
ATOM      8  S   UNL A   1      32.761  22.516  22.804  1.00  0.00    -0.154 SA
BRANCH   8   9
ATOM      9  C   UNL A   1      34.049  23.803  22.890  1.00  0.00     0.137 C 
BRANCH   9  10
ATOM     10  C   UNL A   1      33.649  25.116  23.510  1.00  0.00     0.103 A 
ATOM     11  C   UNL A   1      33.759  27.479  26.240  1.00  0.00     0.067 C 
ATOM     12  C   UNL A   1      33.419  26.780  24.973  1.00  0.00     0.049 A 
ATOM     13  C   UNL A   1      32.368  27.088  24.134  1.00  0.00     0.090 A 
ATOM     14  N   UNL A   1      34.180  25.690  24.574  1.00  0.00    -0.246 NA
ATOM     15  S   UNL A   1      32.268  25.942  22.872  1.00  0.00    -0.126 S 
ENDBRANCH   9  10
ENDBRANCH   8   9
ENDBRANCH   7   8
ENDBRANCH   6   7
ENDBRANCH   5   6
BRANCH   5  16
ATOM     16  N   UNL A   1      32.927  18.996  26.401  1.00  0.00    -0.347 N 
ATOM     17  H   UNL A   1      33.592  18.276  26.120  1.00  0.00     0.345 HD
ATOM     18  H   UNL A   1      31.985  18.711  26.133  1.00  0.00     0.345 HD
ATOM     19  H   UNL A   1      32.969  19.123  27.412  1.00  0.00     0.345 HD
ENDBRANCH   5  16
ENDBRANCH   1   5
BRANCH   3  20
ATOM     20  C   UNL A   1      36.302  20.882  25.011  1.00  0.00     0.118 C 
BRANCH  20  21
ATOM     21  C   UNL A   1      37.560  21.681  24.731  1.00  0.00     0.042 C 
BRANCH  21  22
ATOM     22  C   UNL A   1      38.613  21.515  25.818  1.00  0.00     0.118 C 
BRANCH  22  23
ATOM     23  N   UNL A   1      39.367  20.265  25.721  1.00  0.00    -0.352 N 
ATOM     24  C   UNL A   1      40.684  20.024  26.031  1.00  0.00     0.251 C 
ATOM     25  H   UNL A   1      38.861  19.490  25.388  1.00  0.00     0.163 HD
ATOM     26  O   UNL A   1      41.198  18.935  25.798  1.00  0.00    -0.269 OA
BRANCH  24  27
ATOM     27  C   UNL A   1      41.495  21.110  26.603  1.00  0.00     0.039 A 
ATOM     28  C   UNL A   1      42.181  21.955  25.728  1.00  0.00     0.014 A 
ATOM     29  C   UNL A   1      41.479  21.361  27.977  1.00  0.00     0.014 A 
ATOM     30  C   UNL A   1      42.723  23.141  26.213  1.00  0.00     0.010 A 
ATOM     31  C   UNL A   1      41.945  22.580  28.445  1.00  0.00     0.010 A 
ATOM     32  C   UNL A   1      42.528  23.495  27.558  1.00  0.00    -0.014 A 
BRANCH  32  33
ATOM     33  C   UNL A   1      42.818  24.864  28.035  1.00  0.00     0.031 A 
ATOM     34  C   UNL A   1      44.200  25.230  28.476  1.00  0.00     0.074 A 
ATOM     35  C   UNL A   1      41.792  25.725  28.181  1.00  0.00     0.049 A 
ATOM     36  N   UNL A   1      44.620  26.336  29.032  1.00  0.00    -0.248 NA
ATOM     37  C   UNL A   1      45.242  24.207  28.299  1.00  0.00     0.031 C 
ATOM     38  C   UNL A   1      40.392  25.441  27.847  1.00  0.00     0.029 A 
ATOM     39  N   UNL A   1      41.760  27.007  28.665  1.00  0.00    -0.354 N 
ATOM     40  C   UNL A   1      45.969  26.137  29.287  1.00  0.00     0.074 A 
ATOM     41  C   UNL A   1      46.289  24.791  28.865  1.00  0.00     0.031 C 
ATOM     42  C   UNL A   1      39.645  26.522  28.118  1.00  0.00     0.029 A 
ATOM     43  C   UNL A   1      40.502  27.559  28.677  1.00  0.00     0.049 A 
ATOM     44  H   UNL A   1      42.563  27.486  28.974  1.00  0.00     0.167 HD
ATOM     45  C   UNL A   1      46.860  27.011  29.810  1.00  0.00     0.037 A 
ATOM     46  C   UNL A   1      40.086  28.767  29.101  1.00  0.00     0.037 A 
ATOM     47  C   UNL A   1      46.528  28.354  30.207  1.00  0.00     0.049 A 
ATOM     48  C   UNL A   1      41.101  29.726  29.653  1.00  0.00     0.074 A 
ATOM     49  C   UNL A   1      47.365  29.337  30.702  1.00  0.00     0.029 A 
ATOM     50  N   UNL A   1      45.254  28.898  30.150  1.00  0.00    -0.354 N 
ATOM     51  N   UNL A   1      42.389  29.551  29.827  1.00  0.00    -0.248 NA
ATOM     52  C   UNL A   1      40.611  31.049  30.064  1.00  0.00     0.031 C 
ATOM     53  C   UNL A   1      46.590  30.472  30.969  1.00  0.00     0.029 A 
ATOM     54  C   UNL A   1      45.279  30.203  30.609  1.00  0.00     0.049 A 
ATOM     55  H   UNL A   1      44.451  28.426  29.831  1.00  0.00     0.167 HD
ATOM     56  C   UNL A   1      42.870  30.748  30.336  1.00  0.00     0.074 A 
ATOM     57  C   UNL A   1      41.735  31.643  30.443  1.00  0.00     0.031 C 
ATOM     58  C   UNL A   1      44.136  31.077  30.682  1.00  0.00     0.037 A 
BRANCH  45  59
ATOM     59  C   UNL A   1      48.271  26.535  29.975  1.00  0.00     0.057 A 
ATOM     60  C   UNL A   1      49.234  26.734  28.978  1.00  0.00     0.134 A 
ATOM     61  C   UNL A   1      48.677  25.886  31.147  1.00  0.00     0.134 A 
ATOM     62  F   UNL A   1      48.904  27.335  27.824  1.00  0.00    -0.206 F 
ATOM     63  C   UNL A   1      50.546  26.282  29.129  1.00  0.00     0.040 A 
ATOM     64  C   UNL A   1      49.991  25.449  31.320  1.00  0.00     0.040 A 
ATOM     65  F   UNL A   1      47.804  25.665  32.141  1.00  0.00    -0.206 F 
ATOM     66  C   UNL A   1      50.928  25.642  30.306  1.00  0.00     0.006 A 
ENDBRANCH  45  59
BRANCH  46  67
ATOM     67  C   UNL A   1      38.657  29.142  28.982  1.00  0.00     0.057 A 
ATOM     68  C   UNL A   1      37.795  29.043  30.080  1.00  0.00     0.134 A 
ATOM     69  C   UNL A   1      38.122  29.626  27.783  1.00  0.00     0.134 A 
ATOM     70  F   UNL A   1      38.247  28.576  31.253  1.00  0.00    -0.206 F 
ATOM     71  C   UNL A   1      36.448  29.398  29.987  1.00  0.00     0.040 A 
ATOM     72  C   UNL A   1      36.782  30.004  27.681  1.00  0.00     0.040 A 
ATOM     73  F   UNL A   1      38.901  29.758  26.698  1.00  0.00    -0.206 F 
ATOM     74  C   UNL A   1      35.939  29.885  28.784  1.00  0.00     0.006 A 
ENDBRANCH  46  67
BRANCH  58  75
ATOM     75  C   UNL A   1      44.372  32.475  31.162  1.00  0.00     0.057 A 
ATOM     76  C   UNL A   1      44.636  33.523  30.273  1.00  0.00     0.134 A 
ATOM     77  C   UNL A   1      44.265  32.783  32.524  1.00  0.00     0.134 A 
ATOM     78  F   UNL A   1      44.762  33.285  28.959  1.00  0.00    -0.206 F 
ATOM     79  C   UNL A   1      44.791  34.834  30.724  1.00  0.00     0.040 A 
ATOM     80  C   UNL A   1      44.400  34.093  32.984  1.00  0.00     0.040 A 
ATOM     81  F   UNL A   1      44.009  31.820  33.421  1.00  0.00    -0.206 F 
ATOM     82  C   UNL A   1      44.664  35.122  32.083  1.00  0.00     0.006 A 
ENDBRANCH  58  75
ENDBRANCH  32  33
ENDBRANCH  24  27
ENDBRANCH  22  23
ENDBRANCH  21  22
ENDBRANCH  20  21
ENDBRANCH   3  20
TORSDOF 16
ENDMDL
MODEL 3
REMARK VINA RESULT:     -10.2      5.094      9.941
REMARK SMILES Cc1csc(CSCC[C@H]([NH3+])C(=O)NCCCNC(=O)c2ccc(-c3c4nc(c(-c5c(F)cccc5F)c5ccc([nH]5)c(-c5c(F)cccc5F)c5nc(c(-c6c(F)cccc6F)c6ccc3[nH]6)C=C5)C=C4)cc2)n1
REMARK SMILES IDX 12 1 13 2 14 3 10 5 9 6 8 7 7 8 6 9 5 10 1 11 2 12 3 13
REMARK SMILES IDX 75 14 4 15 11 16 15 20 16 21 17 22 18 23 19 24 20 26 21 27
REMARK SMILES IDX 22 28 74 29 23 30 73 31 24 32 25 33 26 34 67 35 27 36 72 37
REMARK SMILES IDX 66 38 68 39 28 40 71 41 65 42 64 43 29 45 55 46 38 47 54 48
REMARK SMILES IDX 39 49 42 50 53 51 69 52 40 53 41 54 52 56 70 57 43 58 30 59
REMARK SMILES IDX 31 60 36 61 32 62 33 63 35 64 37 65 34 66 56 67 57 68 62 69
REMARK SMILES IDX 58 70 59 71 61 72 63 73 60 74 44 75 45 76 50 77 46 78 47 79
REMARK SMILES IDX 49 80 51 81 48 82
REMARK H PARENT 14 4 11 17 11 18 11 19 18 25 68 44 42 55
REMARK Flexibility Score: inf
ROOT
ATOM      1  C   UNL A   1      32.409  36.289  32.285  1.00  0.00     0.278 C 
ATOM      2  O   UNL A   1      31.461  36.763  32.921  1.00  0.00    -0.268 OA
ATOM      3  N   UNL A   1      33.270  35.493  32.977  1.00  0.00    -0.351 N 
ATOM      4  H   UNL A   1      33.156  35.522  33.955  1.00  0.00     0.163 HD
ENDROOT
BRANCH   1   5
ATOM      5  C   UNL A   1      32.578  36.622  30.790  1.00  0.00     0.271 C 
BRANCH   5   6
ATOM      6  C   UNL A   1      32.960  35.479  29.826  1.00  0.00     0.086 C 
BRANCH   6   7
ATOM      7  C   UNL A   1      34.055  35.673  28.775  1.00  0.00     0.076 C 
BRANCH   7   8
ATOM      8  S   UNL A   1      35.074  34.200  28.415  1.00  0.00    -0.154 SA
BRANCH   8   9
ATOM      9  C   UNL A   1      33.817  32.945  28.006  1.00  0.00     0.137 C 
BRANCH   9  10
ATOM     10  C   UNL A   1      34.302  31.525  27.871  1.00  0.00     0.103 A 
ATOM     11  C   UNL A   1      36.948  29.068  28.007  1.00  0.00     0.067 C 
ATOM     12  C   UNL A   1      35.642  29.747  27.793  1.00  0.00     0.049 A 
ATOM     13  C   UNL A   1      34.560  29.227  27.115  1.00  0.00     0.090 A 
ATOM     14  N   UNL A   1      35.461  31.037  28.273  1.00  0.00    -0.246 NA
ATOM     15  S   UNL A   1      33.325  30.400  26.991  1.00  0.00    -0.126 S 
ENDBRANCH   9  10
ENDBRANCH   8   9
ENDBRANCH   7   8
ENDBRANCH   6   7
ENDBRANCH   5   6
BRANCH   5  16
ATOM     16  N   UNL A   1      33.347  37.868  30.589  1.00  0.00    -0.347 N 
ATOM     17  H   UNL A   1      32.821  38.498  29.984  1.00  0.00     0.345 HD
ATOM     18  H   UNL A   1      34.242  37.648  30.152  1.00  0.00     0.345 HD
ATOM     19  H   UNL A   1      33.509  38.317  31.490  1.00  0.00     0.345 HD
ENDBRANCH   5  16
ENDBRANCH   1   5
BRANCH   3  20
ATOM     20  C   UNL A   1      34.324  34.607  32.523  1.00  0.00     0.118 C 
BRANCH  20  21
ATOM     21  C   UNL A   1      35.688  34.955  33.089  1.00  0.00     0.042 C 
BRANCH  21  22
ATOM     22  C   UNL A   1      36.539  33.722  33.364  1.00  0.00     0.118 C 
BRANCH  22  23
ATOM     23  N   UNL A   1      35.855  32.460  33.084  1.00  0.00    -0.352 N 
ATOM     24  C   UNL A   1      36.295  31.382  32.355  1.00  0.00     0.251 C 
ATOM     25  H   UNL A   1      34.955  32.371  33.472  1.00  0.00     0.163 HD
ATOM     26  O   UNL A   1      35.556  30.429  32.128  1.00  0.00    -0.269 OA
BRANCH  24  27
ATOM     27  C   UNL A   1      37.657  31.402  31.798  1.00  0.00     0.039 A 
ATOM     28  C   UNL A   1      38.699  30.898  32.580  1.00  0.00     0.014 A 
ATOM     29  C   UNL A   1      37.880  31.801  30.478  1.00  0.00     0.014 A 
ATOM     30  C   UNL A   1      39.933  30.648  31.989  1.00  0.00     0.010 A 
ATOM     31  C   UNL A   1      39.081  31.476  29.869  1.00  0.00     0.010 A 
ATOM     32  C   UNL A   1      40.097  30.856  30.610  1.00  0.00    -0.014 A 
BRANCH  32  33
ATOM     33  C   UNL A   1      41.278  30.326  29.895  1.00  0.00     0.031 A 
ATOM     34  C   UNL A   1      42.417  31.232  29.547  1.00  0.00     0.074 A 
ATOM     35  C   UNL A   1      41.247  29.052  29.458  1.00  0.00     0.049 A 
ATOM     36  N   UNL A   1      43.477  30.981  28.826  1.00  0.00    -0.248 NA
ATOM     37  C   UNL A   1      42.339  32.613  30.051  1.00  0.00     0.031 C 
ATOM     38  C   UNL A   1      40.149  28.105  29.682  1.00  0.00     0.029 A 
ATOM     39  N   UNL A   1      42.151  28.336  28.718  1.00  0.00    -0.354 N 
ATOM     40  C   UNL A   1      44.184  32.173  28.773  1.00  0.00     0.074 A 
ATOM     41  C   UNL A   1      43.413  33.159  29.499  1.00  0.00     0.031 C 
ATOM     42  C   UNL A   1      40.454  26.931  29.110  1.00  0.00     0.029 A 
ATOM     43  C   UNL A   1      41.747  27.051  28.449  1.00  0.00     0.049 A 
ATOM     44  H   UNL A   1      43.009  28.708  28.409  1.00  0.00     0.167 HD
ATOM     45  C   UNL A   1      45.379  32.413  28.183  1.00  0.00     0.037 A 
ATOM     46  C   UNL A   1      42.351  26.081  27.738  1.00  0.00     0.037 A 
ATOM     47  C   UNL A   1      46.141  31.416  27.482  1.00  0.00     0.049 A 
ATOM     48  C   UNL A   1      43.688  26.366  27.118  1.00  0.00     0.074 A 
ATOM     49  C   UNL A   1      47.386  31.539  26.892  1.00  0.00     0.029 A 
ATOM     50  N   UNL A   1      45.727  30.108  27.279  1.00  0.00    -0.354 N 
ATOM     51  N   UNL A   1      44.380  27.480  27.132  1.00  0.00    -0.248 NA
ATOM     52  C   UNL A   1      44.332  25.265  26.388  1.00  0.00     0.031 C 
ATOM     53  C   UNL A   1      47.714  30.310  26.309  1.00  0.00     0.029 A 
ATOM     54  C   UNL A   1      46.688  29.414  26.565  1.00  0.00     0.049 A 
ATOM     55  H   UNL A   1      44.875  29.729  27.596  1.00  0.00     0.167 HD
ATOM     56  C   UNL A   1      45.553  27.207  26.443  1.00  0.00     0.074 A 
ATOM     57  C   UNL A   1      45.479  25.822  26.025  1.00  0.00     0.031 C 
ATOM     58  C   UNL A   1      46.597  28.029  26.183  1.00  0.00     0.037 A 
BRANCH  45  59
ATOM     59  C   UNL A   1      45.925  33.805  28.283  1.00  0.00     0.057 A 
ATOM     60  C   UNL A   1      46.760  34.192  29.338  1.00  0.00     0.134 A 
ATOM     61  C   UNL A   1      45.627  34.763  27.307  1.00  0.00     0.134 A 
ATOM     62  F   UNL A   1      47.069  33.324  30.314  1.00  0.00    -0.206 F 
ATOM     63  C   UNL A   1      47.260  35.492  29.434  1.00  0.00     0.040 A 
ATOM     64  C   UNL A   1      46.140  36.060  27.379  1.00  0.00     0.040 A 
ATOM     65  F   UNL A   1      44.834  34.457  26.270  1.00  0.00    -0.206 F 
ATOM     66  C   UNL A   1      46.954  36.428  28.448  1.00  0.00     0.006 A 
ENDBRANCH  45  59
BRANCH  46  67
ATOM     67  C   UNL A   1      41.714  24.748  27.613  1.00  0.00     0.057 A 
ATOM     68  C   UNL A   1      42.080  23.694  28.458  1.00  0.00     0.134 A 
ATOM     69  C   UNL A   1      40.714  24.498  26.667  1.00  0.00     0.134 A 
ATOM     70  F   UNL A   1      43.040  23.871  29.379  1.00  0.00    -0.206 F 
ATOM     71  C   UNL A   1      41.486  22.436  28.359  1.00  0.00     0.040 A 
ATOM     72  C   UNL A   1      40.096  23.249  26.569  1.00  0.00     0.040 A 
ATOM     73  F   UNL A   1      40.308  25.470  25.837  1.00  0.00    -0.206 F 
ATOM     74  C   UNL A   1      40.486  22.212  27.414  1.00  0.00     0.006 A 
ENDBRANCH  46  67
BRANCH  58  75
ATOM     75  C   UNL A   1      47.764  27.440  25.453  1.00  0.00     0.057 A 
ATOM     76  C   UNL A   1      47.861  27.491  24.058  1.00  0.00     0.134 A 
ATOM     77  C   UNL A   1      48.832  26.878  26.164  1.00  0.00     0.134 A 
ATOM     78  F   UNL A   1      46.863  28.006  23.326  1.00  0.00    -0.206 F 
ATOM     79  C   UNL A   1      48.982  26.997  23.392  1.00  0.00     0.040 A 
ATOM     80  C   UNL A   1      49.965  26.397  25.510  1.00  0.00     0.040 A 
ATOM     81  F   UNL A   1      48.795  26.806  27.503  1.00  0.00    -0.206 F 
ATOM     82  C   UNL A   1      50.042  26.455  24.120  1.00  0.00     0.006 A 
ENDBRANCH  58  75
ENDBRANCH  32  33
ENDBRANCH  24  27
ENDBRANCH  22  23
ENDBRANCH  21  22
ENDBRANCH  20  21
ENDBRANCH   3  20
TORSDOF 16
ENDMDL
