MODEL 1
REMARK VINA RESULT:     -12.3      0.000      0.000
REMARK SMILES COc1ccc(/C=C(/SCC(=O)NCCCNC(=O)c2ccc(-c3c4nc(c(-c5c(F)cccc5F)c5ccc([nH]5)c(-c5c(F)cccc5F)c5nc(c(-c6c(F)cccc6F)c6ccc3[nH]6)C=C5)C=C4)cc2)c2nc3ccccc3s2)cc1O
REMARK SMILES IDX 14 1 13 2 11 3 12 4 10 6 9 7 8 8 7 9 6 10 3 11 4 12 84 13
REMARK SMILES IDX 5 14 83 15 2 16 1 17 85 18 74 20 75 21 82 22 76 23 81 24
REMARK SMILES IDX 77 25 80 26 78 27 79 28 15 29 16 30 17 31 18 32 19 34 20 35
REMARK SMILES IDX 21 36 73 37 22 38 72 39 23 40 24 41 25 42 66 43 26 44 71 45
REMARK SMILES IDX 65 46 67 47 27 48 70 49 64 50 63 51 28 53 54 54 37 55 53 56
REMARK SMILES IDX 38 57 41 58 52 59 68 60 39 61 40 62 51 64 69 65 42 66 29 67
REMARK SMILES IDX 30 68 35 69 31 70 32 71 34 72 36 73 33 74 55 75 56 76 61 77
REMARK SMILES IDX 57 78 58 79 60 80 62 81 59 82 43 83 44 84 49 85 45 86 46 87
REMARK SMILES IDX 48 88 50 89 47 90
REMARK H PARENT 13 5 85 19 17 33 67 52 41 63
REMARK Flexibility Score: inf
ROOT
ATOM      1  C   UNL A   1      31.444  27.735  26.340  1.00  0.00     0.117 C 
ENDROOT
BRANCH   1   2
ATOM      2  N   UNL A   1      31.547  26.417  26.942  1.00  0.00    -0.355 N 
ATOM      3  C   UNL A   1      31.306  25.189  26.401  1.00  0.00     0.230 C 
ATOM      4  O   UNL A   1      31.368  24.210  27.148  1.00  0.00    -0.274 OA
ATOM      5  H   UNL A   1      31.836  26.410  27.882  1.00  0.00     0.163 HD
BRANCH   3   6
ATOM      6  C   UNL A   1      31.058  25.020  24.917  1.00  0.00     0.174 C 
BRANCH   6   7
ATOM      7  S   UNL A   1      32.534  24.773  23.926  1.00  0.00    -0.113 SA
BRANCH   7   8
ATOM      8  C   UNL A   1      33.052  23.098  24.083  1.00  0.00     0.044 C 
ATOM      9  C   UNL A   1      32.238  22.044  23.857  1.00  0.00     0.026 C 
BRANCH   9  10
ATOM     10  C   UNL A   1      32.412  20.578  24.009  1.00  0.00    -0.020 A 
ATOM     11  C   UNL A   1      32.621  17.736  24.147  1.00  0.00     0.160 A 
ATOM     12  C   UNL A   1      32.784  18.537  25.281  1.00  0.00     0.051 A 
ATOM     13  C   UNL A   1      32.302  18.371  22.949  1.00  0.00     0.158 A 
ATOM     14  C   UNL A   1      32.636  19.929  25.224  1.00  0.00     0.012 A 
ATOM     15  C   UNL A   1      32.232  19.770  22.872  1.00  0.00     0.058 A 
BRANCH  11  16
ATOM     16  O   UNL A   1      32.783  16.406  24.406  1.00  0.00    -0.493 OA
ATOM     17  C   UNL A   1      33.171  15.978  25.701  1.00  0.00     0.278 C 
ENDBRANCH  11  16
BRANCH  13  18
ATOM     18  O   UNL A   1      31.979  17.706  21.801  1.00  0.00    -0.504 OA
ATOM     19  H   UNL A   1      31.918  18.172  20.990  1.00  0.00     0.293 HD
ENDBRANCH  13  18
ENDBRANCH   9  10
BRANCH   8  20
ATOM     20  C   UNL A   1      34.387  22.992  24.618  1.00  0.00     0.131 A 
ATOM     21  N   UNL A   1      35.166  21.937  24.453  1.00  0.00    -0.235 NA
ATOM     22  S   UNL A   1      35.076  24.195  25.665  1.00  0.00    -0.113 S 
ATOM     23  C   UNL A   1      36.392  22.109  25.056  1.00  0.00     0.082 A 
ATOM     24  C   UNL A   1      36.571  23.334  25.693  1.00  0.00     0.055 A 
ATOM     25  C   UNL A   1      37.445  21.175  25.047  1.00  0.00     0.030 A 
ATOM     26  C   UNL A   1      37.809  23.692  26.254  1.00  0.00     0.021 A 
ATOM     27  C   UNL A   1      38.674  21.511  25.620  1.00  0.00     0.002 A 
ATOM     28  C   UNL A   1      38.856  22.765  26.195  1.00  0.00     0.002 A 
ENDBRANCH   8  20
ENDBRANCH   7   8
ENDBRANCH   6   7
ENDBRANCH   3   6
ENDBRANCH   1   2
BRANCH   1  29
ATOM     29  C   UNL A   1      32.815  28.288  25.957  1.00  0.00     0.042 C 
BRANCH  29  30
ATOM     30  C   UNL A   1      33.735  28.549  27.148  1.00  0.00     0.118 C 
BRANCH  30  31
ATOM     31  N   UNL A   1      33.705  29.935  27.592  1.00  0.00    -0.352 N 
ATOM     32  C   UNL A   1      34.654  30.672  28.252  1.00  0.00     0.251 C 
ATOM     33  H   UNL A   1      32.872  30.419  27.387  1.00  0.00     0.163 HD
ATOM     34  O   UNL A   1      34.359  31.784  28.694  1.00  0.00    -0.269 OA
BRANCH  32  35
ATOM     35  C   UNL A   1      36.019  30.142  28.457  1.00  0.00     0.039 A 
ATOM     36  C   UNL A   1      36.932  30.212  27.399  1.00  0.00     0.014 A 
ATOM     37  C   UNL A   1      36.398  29.552  29.665  1.00  0.00     0.014 A 
ATOM     38  C   UNL A   1      38.239  29.753  27.576  1.00  0.00     0.010 A 
ATOM     39  C   UNL A   1      37.721  29.163  29.865  1.00  0.00     0.010 A 
ATOM     40  C   UNL A   1      38.656  29.260  28.824  1.00  0.00    -0.014 A 
BRANCH  40  41
ATOM     41  C   UNL A   1      40.064  28.843  29.056  1.00  0.00     0.031 A 
ATOM     42  C   UNL A   1      41.041  29.791  29.698  1.00  0.00     0.074 A 
ATOM     43  C   UNL A   1      40.477  27.628  28.644  1.00  0.00     0.049 A 
ATOM     44  N   UNL A   1      42.324  29.639  29.908  1.00  0.00    -0.248 NA
ATOM     45  C   UNL A   1      40.509  31.088  30.147  1.00  0.00     0.031 C 
ATOM     46  C   UNL A   1      39.639  26.626  27.982  1.00  0.00     0.029 A 
ATOM     47  N   UNL A   1      41.712  27.030  28.712  1.00  0.00    -0.354 N 
ATOM     48  C   UNL A   1      42.751  30.816  30.512  1.00  0.00     0.074 A 
ATOM     49  C   UNL A   1      41.604  31.697  30.578  1.00  0.00     0.031 C 
ATOM     50  C   UNL A   1      40.376  25.534  27.725  1.00  0.00     0.029 A 
ATOM     51  C   UNL A   1      41.748  25.772  28.161  1.00  0.00     0.049 A 
ATOM     52  H   UNL A   1      42.497  27.463  29.118  1.00  0.00     0.167 HD
ATOM     53  C   UNL A   1      43.978  31.125  30.994  1.00  0.00     0.037 A 
ATOM     54  C   UNL A   1      42.774  24.912  28.011  1.00  0.00     0.037 A 
ATOM     55  C   UNL A   1      45.118  30.248  30.937  1.00  0.00     0.049 A 
ATOM     56  C   UNL A   1      44.139  25.306  28.511  1.00  0.00     0.074 A 
ATOM     57  C   UNL A   1      46.400  30.467  31.410  1.00  0.00     0.029 A 
ATOM     58  N   UNL A   1      45.111  28.980  30.375  1.00  0.00    -0.354 N 
ATOM     59  N   UNL A   1      44.516  26.404  29.119  1.00  0.00    -0.248 NA
ATOM     60  C   UNL A   1      45.224  24.335  28.305  1.00  0.00     0.031 C 
ATOM     61  C   UNL A   1      47.179  29.348  31.101  1.00  0.00     0.029 A 
ATOM     62  C   UNL A   1      46.369  28.412  30.480  1.00  0.00     0.049 A 
ATOM     63  H   UNL A   1      44.329  28.549  29.961  1.00  0.00     0.167 HD
ATOM     64  C   UNL A   1      45.864  26.239  29.405  1.00  0.00     0.074 A 
ATOM     65  C   UNL A   1      46.239  24.928  28.916  1.00  0.00     0.031 C 
ATOM     66  C   UNL A   1      46.720  27.094  30.014  1.00  0.00     0.037 A 
BRANCH  53  67
ATOM     67  C   UNL A   1      44.151  32.465  31.650  1.00  0.00     0.057 A 
ATOM     68  C   UNL A   1      44.513  33.599  30.912  1.00  0.00     0.134 A 
ATOM     69  C   UNL A   1      43.896  32.637  33.017  1.00  0.00     0.134 A 
ATOM     70  F   UNL A   1      44.781  33.501  29.601  1.00  0.00    -0.206 F 
ATOM     71  C   UNL A   1      44.631  34.854  31.512  1.00  0.00     0.040 A 
ATOM     72  C   UNL A   1      43.984  33.893  33.622  1.00  0.00     0.040 A 
ATOM     73  F   UNL A   1      43.538  31.595  33.781  1.00  0.00    -0.206 F 
ATOM     74  C   UNL A   1      44.356  35.005  32.869  1.00  0.00     0.006 A 
ENDBRANCH  53  67
BRANCH  54  75
ATOM     75  C   UNL A   1      42.569  23.591  27.364  1.00  0.00     0.057 A 
ATOM     76  C   UNL A   1      42.292  22.448  28.126  1.00  0.00     0.134 A 
ATOM     77  C   UNL A   1      42.703  23.423  25.980  1.00  0.00     0.134 A 
ATOM     78  F   UNL A   1      42.172  22.540  29.459  1.00  0.00    -0.206 F 
ATOM     79  C   UNL A   1      42.197  21.184  27.542  1.00  0.00     0.040 A 
ATOM     80  C   UNL A   1      42.578  22.168  25.381  1.00  0.00     0.040 A 
ATOM     81  F   UNL A   1      42.962  24.475  25.192  1.00  0.00    -0.206 F 
ATOM     82  C   UNL A   1      42.339  21.042  26.164  1.00  0.00     0.006 A 
ENDBRANCH  54  75
BRANCH  66  83
ATOM     83  C   UNL A   1      48.125  26.619  30.242  1.00  0.00     0.057 A 
ATOM     84  C   UNL A   1      49.159  26.890  29.338  1.00  0.00     0.134 A 
ATOM     85  C   UNL A   1      48.454  25.908  31.405  1.00  0.00     0.134 A 
ATOM     86  F   UNL A   1      48.909  27.554  28.199  1.00  0.00    -0.206 F 
ATOM     87  C   UNL A   1      50.463  26.448  29.566  1.00  0.00     0.040 A 
ATOM     88  C   UNL A   1      49.759  25.487  31.659  1.00  0.00     0.040 A 
ATOM     89  F   UNL A   1      47.514  25.623  32.319  1.00  0.00    -0.206 F 
ATOM     90  C   UNL A   1      50.767  25.749  30.734  1.00  0.00     0.006 A 
ENDBRANCH  66  83
ENDBRANCH  40  41
ENDBRANCH  32  35
ENDBRANCH  30  31
ENDBRANCH  29  30
ENDBRANCH   1  29
TORSDOF 16
ENDMDL
MODEL 2
REMARK VINA RESULT:     -11.9      1.703      2.195
REMARK SMILES COc1ccc(/C=C(/SCC(=O)NCCCNC(=O)c2ccc(-c3c4nc(c(-c5c(F)cccc5F)c5ccc([nH]5)c(-c5c(F)cccc5F)c5nc(c(-c6c(F)cccc6F)c6ccc3[nH]6)C=C5)C=C4)cc2)c2nc3ccccc3s2)cc1O
REMARK SMILES IDX 14 1 13 2 11 3 12 4 10 6 9 7 8 8 7 9 6 10 3 11 4 12 84 13
REMARK SMILES IDX 5 14 83 15 2 16 1 17 85 18 74 20 75 21 82 22 76 23 81 24
REMARK SMILES IDX 77 25 80 26 78 27 79 28 15 29 16 30 17 31 18 32 19 34 20 35
REMARK SMILES IDX 21 36 73 37 22 38 72 39 23 40 24 41 25 42 66 43 26 44 71 45
REMARK SMILES IDX 65 46 67 47 27 48 70 49 64 50 63 51 28 53 54 54 37 55 53 56
REMARK SMILES IDX 38 57 41 58 52 59 68 60 39 61 40 62 51 64 69 65 42 66 29 67
REMARK SMILES IDX 30 68 35 69 31 70 32 71 34 72 36 73 33 74 55 75 56 76 61 77
REMARK SMILES IDX 57 78 58 79 60 80 62 81 59 82 43 83 44 84 49 85 45 86 46 87
REMARK SMILES IDX 48 88 50 89 47 90
REMARK H PARENT 13 5 85 19 17 33 67 52 41 63
REMARK Flexibility Score: inf
ROOT
ATOM      1  C   UNL A   1      31.571  27.573  26.217  1.00  0.00     0.117 C 
ENDROOT
BRANCH   1   2
ATOM      2  N   UNL A   1      31.404  26.187  26.619  1.00  0.00    -0.355 N 
ATOM      3  C   UNL A   1      31.081  25.094  25.872  1.00  0.00     0.230 C 
ATOM      4  O   UNL A   1      30.898  24.027  26.462  1.00  0.00    -0.274 OA
ATOM      5  H   UNL A   1      31.547  26.010  27.577  1.00  0.00     0.163 HD
BRANCH   3   6
ATOM      6  C   UNL A   1      31.035  25.162  24.360  1.00  0.00     0.174 C 
BRANCH   6   7
ATOM      7  S   UNL A   1      32.603  24.857  23.540  1.00  0.00    -0.113 SA
BRANCH   7   8
ATOM      8  C   UNL A   1      33.094  23.194  23.850  1.00  0.00     0.044 C 
ATOM      9  C   UNL A   1      32.278  22.133  23.668  1.00  0.00     0.026 C 
BRANCH   9  10
ATOM     10  C   UNL A   1      32.427  20.681  23.941  1.00  0.00    -0.020 A 
ATOM     11  C   UNL A   1      32.592  17.857  24.310  1.00  0.00     0.160 A 
ATOM     12  C   UNL A   1      32.743  18.745  25.380  1.00  0.00     0.051 A 
ATOM     13  C   UNL A   1      32.307  18.398  23.059  1.00  0.00     0.158 A 
ATOM     14  C   UNL A   1      32.617  20.130  25.208  1.00  0.00     0.012 A 
ATOM     15  C   UNL A   1      32.259  19.788  22.868  1.00  0.00     0.058 A 
BRANCH  11  16
ATOM     16  O   UNL A   1      32.729  16.551  24.678  1.00  0.00    -0.493 OA
ATOM     17  C   UNL A   1      33.916  16.116  25.322  1.00  0.00     0.278 C 
ENDBRANCH  11  16
BRANCH  13  18
ATOM     18  O   UNL A   1      31.998  17.647  21.960  1.00  0.00    -0.504 OA
ATOM     19  H   UNL A   1      31.744  18.067  21.162  1.00  0.00     0.293 HD
ENDBRANCH  13  18
ENDBRANCH   9  10
BRANCH   8  20
ATOM     20  C   UNL A   1      34.400  23.120  24.456  1.00  0.00     0.131 A 
ATOM     21  N   UNL A   1      35.209  22.081  24.337  1.00  0.00    -0.235 NA
ATOM     22  S   UNL A   1      35.006  24.341  25.531  1.00  0.00    -0.113 S 
ATOM     23  C   UNL A   1      36.397  22.282  25.003  1.00  0.00     0.082 A 
ATOM     24  C   UNL A   1      36.516  23.513  25.642  1.00  0.00     0.055 A 
ATOM     25  C   UNL A   1      37.470  21.371  25.055  1.00  0.00     0.030 A 
ATOM     26  C   UNL A   1      37.714  23.900  26.266  1.00  0.00     0.021 A 
ATOM     27  C   UNL A   1      38.658  21.736  25.689  1.00  0.00     0.002 A 
ATOM     28  C   UNL A   1      38.783  22.996  26.267  1.00  0.00     0.002 A 
ENDBRANCH   8  20
ENDBRANCH   7   8
ENDBRANCH   6   7
ENDBRANCH   3   6
ENDBRANCH   1   2
BRANCH   1  29
ATOM     29  C   UNL A   1      32.302  28.385  27.284  1.00  0.00     0.042 C 
BRANCH  29  30
ATOM     30  C   UNL A   1      33.534  29.125  26.769  1.00  0.00     0.118 C 
BRANCH  30  31
ATOM     31  N   UNL A   1      33.568  30.520  27.183  1.00  0.00    -0.352 N 
ATOM     32  C   UNL A   1      34.456  31.178  27.995  1.00  0.00     0.251 C 
ATOM     33  H   UNL A   1      32.841  31.078  26.824  1.00  0.00     0.163 HD
ATOM     34  O   UNL A   1      34.204  32.327  28.362  1.00  0.00    -0.269 OA
BRANCH  32  35
ATOM     35  C   UNL A   1      35.699  30.520  28.450  1.00  0.00     0.039 A 
ATOM     36  C   UNL A   1      36.855  30.659  27.674  1.00  0.00     0.014 A 
ATOM     37  C   UNL A   1      35.731  29.747  29.613  1.00  0.00     0.014 A 
ATOM     38  C   UNL A   1      38.052  30.080  28.100  1.00  0.00     0.010 A 
ATOM     39  C   UNL A   1      36.941  29.233  30.075  1.00  0.00     0.010 A 
ATOM     40  C   UNL A   1      38.115  29.395  29.324  1.00  0.00    -0.014 A 
BRANCH  40  41
ATOM     41  C   UNL A   1      39.398  28.841  29.833  1.00  0.00     0.031 A 
ATOM     42  C   UNL A   1      40.082  29.474  31.016  1.00  0.00     0.074 A 
ATOM     43  C   UNL A   1      39.974  27.800  29.201  1.00  0.00     0.049 A 
ATOM     44  N   UNL A   1      41.241  29.187  31.551  1.00  0.00    -0.248 NA
ATOM     45  C   UNL A   1      39.378  30.589  31.670  1.00  0.00     0.031 C 
ATOM     46  C   UNL A   1      39.430  27.115  28.026  1.00  0.00     0.029 A 
ATOM     47  N   UNL A   1      41.151  27.139  29.452  1.00  0.00    -0.354 N 
ATOM     48  C   UNL A   1      41.404  30.080  32.603  1.00  0.00     0.074 A 
ATOM     49  C   UNL A   1      40.255  30.960  32.592  1.00  0.00     0.031 C 
ATOM     50  C   UNL A   1      40.259  26.120  27.672  1.00  0.00     0.029 A 
ATOM     51  C   UNL A   1      41.415  26.123  28.564  1.00  0.00     0.049 A 
ATOM     52  H   UNL A   1      41.750  27.371  30.197  1.00  0.00     0.167 HD
ATOM     53  C   UNL A   1      42.404  30.145  33.514  1.00  0.00     0.037 A 
ATOM     54  C   UNL A   1      42.475  25.297  28.470  1.00  0.00     0.037 A 
ATOM     55  C   UNL A   1      43.544  29.265  33.533  1.00  0.00     0.049 A 
ATOM     56  C   UNL A   1      43.596  25.428  29.467  1.00  0.00     0.074 A 
ATOM     57  C   UNL A   1      44.602  29.244  34.424  1.00  0.00     0.029 A 
ATOM     58  N   UNL A   1      43.770  28.247  32.619  1.00  0.00    -0.354 N 
ATOM     59  N   UNL A   1      43.713  26.249  30.482  1.00  0.00    -0.248 NA
ATOM     60  C   UNL A   1      44.734  24.510  29.305  1.00  0.00     0.031 C 
ATOM     61  C   UNL A   1      45.489  28.239  34.028  1.00  0.00     0.029 A 
ATOM     62  C   UNL A   1      44.957  27.600  32.920  1.00  0.00     0.049 A 
ATOM     63  H   UNL A   1      43.176  28.019  31.869  1.00  0.00     0.167 HD
ATOM     64  C   UNL A   1      44.912  25.920  31.102  1.00  0.00     0.074 A 
ATOM     65  C   UNL A   1      45.479  24.815  30.358  1.00  0.00     0.031 C 
ATOM     66  C   UNL A   1      45.495  26.483  32.187  1.00  0.00     0.037 A 
BRANCH  53  67
ATOM     67  C   UNL A   1      42.302  31.191  34.586  1.00  0.00     0.057 A 
ATOM     68  C   UNL A   1      41.689  30.920  35.817  1.00  0.00     0.134 A 
ATOM     69  C   UNL A   1      42.873  32.459  34.414  1.00  0.00     0.134 A 
ATOM     70  F   UNL A   1      41.114  29.729  36.042  1.00  0.00    -0.206 F 
ATOM     71  C   UNL A   1      41.633  31.877  36.831  1.00  0.00     0.040 A 
ATOM     72  C   UNL A   1      42.847  33.414  35.432  1.00  0.00     0.040 A 
ATOM     73  F   UNL A   1      43.482  32.783  33.264  1.00  0.00    -0.206 F 
ATOM     74  C   UNL A   1      42.222  33.125  36.644  1.00  0.00     0.006 A 
ENDBRANCH  53  67
BRANCH  54  75
ATOM     75  C   UNL A   1      42.541  24.267  27.402  1.00  0.00     0.057 A 
ATOM     76  C   UNL A   1      42.164  22.941  27.651  1.00  0.00     0.134 A 
ATOM     77  C   UNL A   1      43.039  24.564  26.127  1.00  0.00     0.134 A 
ATOM     78  F   UNL A   1      41.698  22.589  28.859  1.00  0.00    -0.206 F 
ATOM     79  C   UNL A   1      42.316  21.942  26.689  1.00  0.00     0.040 A 
ATOM     80  C   UNL A   1      43.166  23.580  25.145  1.00  0.00     0.040 A 
ATOM     81  F   UNL A   1      43.414  25.813  25.820  1.00  0.00    -0.206 F 
ATOM     82  C   UNL A   1      42.818  22.261  25.430  1.00  0.00     0.006 A 
ENDBRANCH  54  75
BRANCH  66  83
ATOM     83  C   UNL A   1      46.778  25.876  32.673  1.00  0.00     0.057 A 
ATOM     84  C   UNL A   1      48.025  26.271  32.172  1.00  0.00     0.134 A 
ATOM     85  C   UNL A   1      46.767  24.905  33.684  1.00  0.00     0.134 A 
ATOM     86  F   UNL A   1      48.106  27.186  31.195  1.00  0.00    -0.206 F 
ATOM     87  C   UNL A   1      49.212  25.704  32.638  1.00  0.00     0.040 A 
ATOM     88  C   UNL A   1      47.948  24.352  34.179  1.00  0.00     0.040 A 
ATOM     89  F   UNL A   1      45.607  24.488  34.215  1.00  0.00    -0.206 F 
ATOM     90  C   UNL A   1      49.175  24.745  33.650  1.00  0.00     0.006 A 
ENDBRANCH  66  83
ENDBRANCH  40  41
ENDBRANCH  32  35
ENDBRANCH  30  31
ENDBRANCH  29  30
ENDBRANCH   1  29
TORSDOF 16
ENDMDL
MODEL 3
REMARK VINA RESULT:     -11.8      3.252      8.593
REMARK SMILES COc1ccc(/C=C(/SCC(=O)NCCCNC(=O)c2ccc(-c3c4nc(c(-c5c(F)cccc5F)c5ccc([nH]5)c(-c5c(F)cccc5F)c5nc(c(-c6c(F)cccc6F)c6ccc3[nH]6)C=C5)C=C4)cc2)c2nc3ccccc3s2)cc1O
REMARK SMILES IDX 14 1 13 2 11 3 12 4 10 6 9 7 8 8 7 9 6 10 3 11 4 12 84 13
REMARK SMILES IDX 5 14 83 15 2 16 1 17 85 18 74 20 75 21 82 22 76 23 81 24
REMARK SMILES IDX 77 25 80 26 78 27 79 28 15 29 16 30 17 31 18 32 19 34 20 35
REMARK SMILES IDX 21 36 73 37 22 38 72 39 23 40 24 41 25 42 66 43 26 44 71 45
REMARK SMILES IDX 65 46 67 47 27 48 70 49 64 50 63 51 28 53 54 54 37 55 53 56
REMARK SMILES IDX 38 57 41 58 52 59 68 60 39 61 40 62 51 64 69 65 42 66 29 67
REMARK SMILES IDX 30 68 35 69 31 70 32 71 34 72 36 73 33 74 55 75 56 76 61 77
REMARK SMILES IDX 57 78 58 79 60 80 62 81 59 82 43 83 44 84 49 85 45 86 46 87
REMARK SMILES IDX 48 88 50 89 47 90
REMARK H PARENT 13 5 85 19 17 33 67 52 41 63
REMARK Flexibility Score: inf
ROOT
ATOM      1  C   UNL A   1      35.209  23.473  23.752  1.00  0.00     0.117 C 
ENDROOT
BRANCH   1   2
ATOM      2  N   UNL A   1      34.328  22.336  23.953  1.00  0.00    -0.355 N 
ATOM      3  C   UNL A   1      32.970  22.292  24.058  1.00  0.00     0.230 C 
ATOM      4  O   UNL A   1      32.448  21.207  24.328  1.00  0.00    -0.274 OA
ATOM      5  H   UNL A   1      34.781  21.465  24.022  1.00  0.00     0.163 HD
BRANCH   3   6
ATOM      6  C   UNL A   1      32.120  23.510  23.765  1.00  0.00     0.174 C 
BRANCH   6   7
ATOM      7  S   UNL A   1      31.412  24.304  25.211  1.00  0.00    -0.113 SA
BRANCH   7   8
ATOM      8  C   UNL A   1      30.879  25.923  24.768  1.00  0.00     0.044 C 
ATOM      9  C   UNL A   1      29.897  26.162  23.872  1.00  0.00     0.026 C 
BRANCH   9  10
ATOM     10  C   UNL A   1      29.347  27.407  23.279  1.00  0.00    -0.020 A 
ATOM     11  C   UNL A   1      28.476  29.873  22.140  1.00  0.00     0.160 A 
ATOM     12  C   UNL A   1      27.633  29.103  22.946  1.00  0.00     0.051 A 
ATOM     13  C   UNL A   1      29.779  29.420  21.950  1.00  0.00     0.158 A 
ATOM     14  C   UNL A   1      28.074  27.915  23.544  1.00  0.00     0.012 A 
ATOM     15  C   UNL A   1      30.199  28.191  22.481  1.00  0.00     0.058 A 
BRANCH  11  16
ATOM     16  O   UNL A   1      27.874  31.003  21.667  1.00  0.00    -0.493 OA
ATOM     17  C   UNL A   1      28.428  32.276  21.955  1.00  0.00     0.278 C 
ENDBRANCH  11  16
BRANCH  13  18
ATOM     18  O   UNL A   1      30.746  30.139  21.305  1.00  0.00    -0.504 OA
ATOM     19  H   UNL A   1      31.610  29.788  21.218  1.00  0.00     0.293 HD
ENDBRANCH  13  18
ENDBRANCH   9  10
BRANCH   8  20
ATOM     20  C   UNL A   1      31.708  26.945  25.356  1.00  0.00     0.131 A 
ATOM     21  N   UNL A   1      31.270  28.147  25.690  1.00  0.00    -0.235 NA
ATOM     22  S   UNL A   1      33.421  26.756  25.569  1.00  0.00    -0.113 S 
ATOM     23  C   UNL A   1      32.268  28.916  26.245  1.00  0.00     0.082 A 
ATOM     24  C   UNL A   1      33.506  28.290  26.355  1.00  0.00     0.055 A 
ATOM     25  C   UNL A   1      32.118  30.235  26.715  1.00  0.00     0.030 A 
ATOM     26  C   UNL A   1      34.587  28.914  27.002  1.00  0.00     0.021 A 
ATOM     27  C   UNL A   1      33.190  30.874  27.341  1.00  0.00     0.002 A 
ATOM     28  C   UNL A   1      34.402  30.209  27.502  1.00  0.00     0.002 A 
ENDBRANCH   8  20
ENDBRANCH   7   8
ENDBRANCH   6   7
ENDBRANCH   3   6
ENDBRANCH   1   2
BRANCH   1  29
ATOM     29  C   UNL A   1      36.653  23.139  24.122  1.00  0.00     0.042 C 
BRANCH  29  30
ATOM     30  C   UNL A   1      36.912  23.075  25.625  1.00  0.00     0.118 C 
BRANCH  30  31
ATOM     31  N   UNL A   1      38.034  22.213  25.968  1.00  0.00    -0.352 N 
ATOM     32  C   UNL A   1      39.283  22.533  26.433  1.00  0.00     0.251 C 
ATOM     33  H   UNL A   1      37.871  21.249  25.846  1.00  0.00     0.163 HD
ATOM     34  O   UNL A   1      40.150  21.660  26.494  1.00  0.00    -0.269 OA
BRANCH  32  35
ATOM     35  C   UNL A   1      39.608  23.916  26.844  1.00  0.00     0.039 A 
ATOM     36  C   UNL A   1      39.380  24.293  28.172  1.00  0.00     0.014 A 
ATOM     37  C   UNL A   1      40.105  24.849  25.932  1.00  0.00     0.014 A 
ATOM     38  C   UNL A   1      39.712  25.581  28.596  1.00  0.00     0.010 A 
ATOM     39  C   UNL A   1      40.506  26.109  26.372  1.00  0.00     0.010 A 
ATOM     40  C   UNL A   1      40.315  26.488  27.709  1.00  0.00    -0.014 A 
BRANCH  40  41
ATOM     41  C   UNL A   1      40.750  27.836  28.163  1.00  0.00     0.031 A 
ATOM     42  C   UNL A   1      42.215  28.175  28.239  1.00  0.00     0.074 A 
ATOM     43  C   UNL A   1      39.830  28.739  28.555  1.00  0.00     0.049 A 
ATOM     44  N   UNL A   1      42.790  29.263  28.685  1.00  0.00    -0.248 NA
ATOM     45  C   UNL A   1      43.159  27.149  27.767  1.00  0.00     0.031 C 
ATOM     46  C   UNL A   1      38.381  28.526  28.559  1.00  0.00     0.029 A 
ATOM     47  N   UNL A   1      39.976  30.017  29.036  1.00  0.00    -0.354 N 
ATOM     48  C   UNL A   1      44.157  29.053  28.548  1.00  0.00     0.074 A 
ATOM     49  C   UNL A   1      44.329  27.711  28.035  1.00  0.00     0.031 C 
ATOM     50  C   UNL A   1      37.772  29.639  28.999  1.00  0.00     0.029 A 
ATOM     51  C   UNL A   1      38.785  30.628  29.351  1.00  0.00     0.049 A 
ATOM     52  H   UNL A   1      40.851  30.454  29.145  1.00  0.00     0.167 HD
ATOM     53  C   UNL A   1      45.176  29.909  28.797  1.00  0.00     0.037 A 
ATOM     54  C   UNL A   1      38.540  31.844  29.877  1.00  0.00     0.037 A 
ATOM     55  C   UNL A   1      45.007  31.248  29.299  1.00  0.00     0.049 A 
ATOM     56  C   UNL A   1      39.697  32.754  30.193  1.00  0.00     0.074 A 
ATOM     57  C   UNL A   1      45.978  32.196  29.571  1.00  0.00     0.029 A 
ATOM     58  N   UNL A   1      43.785  31.830  29.600  1.00  0.00    -0.354 N 
ATOM     59  N   UNL A   1      40.981  32.557  30.015  1.00  0.00    -0.248 NA
ATOM     60  C   UNL A   1      39.369  34.061  30.780  1.00  0.00     0.031 C 
ATOM     61  C   UNL A   1      45.348  33.338  30.073  1.00  0.00     0.029 A 
ATOM     62  C   UNL A   1      43.980  33.120  30.065  1.00  0.00     0.049 A 
ATOM     63  H   UNL A   1      42.910  31.392  29.498  1.00  0.00     0.167 HD
ATOM     64  C   UNL A   1      41.606  33.725  30.427  1.00  0.00     0.074 A 
ATOM     65  C   UNL A   1      40.561  34.633  30.852  1.00  0.00     0.031 C 
ATOM     66  C   UNL A   1      42.928  34.022  30.457  1.00  0.00     0.037 A 
BRANCH  53  67
ATOM     67  C   UNL A   1      46.570  29.434  28.510  1.00  0.00     0.057 A 
ATOM     68  C   UNL A   1      47.166  29.631  27.257  1.00  0.00     0.134 A 
ATOM     69  C   UNL A   1      47.348  28.830  29.506  1.00  0.00     0.134 A 
ATOM     70  F   UNL A   1      46.473  30.194  26.255  1.00  0.00    -0.206 F 
ATOM     71  C   UNL A   1      48.479  29.230  27.001  1.00  0.00     0.040 A 
ATOM     72  C   UNL A   1      48.670  28.450  29.270  1.00  0.00     0.040 A 
ATOM     73  F   UNL A   1      46.842  28.618  30.731  1.00  0.00    -0.206 F 
ATOM     74  C   UNL A   1      49.238  28.646  28.012  1.00  0.00     0.006 A 
ENDBRANCH  53  67
BRANCH  54  75
ATOM     75  C   UNL A   1      37.147  32.287  30.142  1.00  0.00     0.057 A 
ATOM     76  C   UNL A   1      36.398  32.947  29.159  1.00  0.00     0.134 A 
ATOM     77  C   UNL A   1      36.551  32.120  31.399  1.00  0.00     0.134 A 
ATOM     78  F   UNL A   1      36.920  33.155  27.941  1.00  0.00    -0.206 F 
ATOM     79  C   UNL A   1      35.127  33.458  29.426  1.00  0.00     0.040 A 
ATOM     80  C   UNL A   1      35.268  32.599  31.669  1.00  0.00     0.040 A 
ATOM     81  F   UNL A   1      37.210  31.494  32.384  1.00  0.00    -0.206 F 
ATOM     82  C   UNL A   1      34.558  33.283  30.685  1.00  0.00     0.006 A 
ENDBRANCH  54  75
BRANCH  66  83
ATOM     83  C   UNL A   1      43.315  35.401  30.904  1.00  0.00     0.057 A 
ATOM     84  C   UNL A   1      43.511  36.451  29.998  1.00  0.00     0.134 A 
ATOM     85  C   UNL A   1      43.462  35.690  32.269  1.00  0.00     0.134 A 
ATOM     86  F   UNL A   1      43.400  36.239  28.678  1.00  0.00    -0.206 F 
ATOM     87  C   UNL A   1      43.865  37.731  30.429  1.00  0.00     0.040 A 
ATOM     88  C   UNL A   1      43.785  36.972  32.713  1.00  0.00     0.040 A 
ATOM     89  F   UNL A   1      43.279  34.733  33.191  1.00  0.00    -0.206 F 
ATOM     90  C   UNL A   1      43.996  37.995  31.792  1.00  0.00     0.006 A 
ENDBRANCH  66  83
ENDBRANCH  40  41
ENDBRANCH  32  35
ENDBRANCH  30  31
ENDBRANCH  29  30
ENDBRANCH   1  29
TORSDOF 16
ENDMDL
