MODEL 1
REMARK VINA RESULT:     -12.2      0.000      0.000
REMARK SMILES CCc1c(Cl)ccc2c1C=C(C(=O)NCCCNC(=O)c1ccc(-c3c4nc(c(-c5c(F)cccc5F)c5ccc([nH]5)c(-c5c(F)cccc5F)c5nc(c(-c6c(F)cccc6F)c6ccc3[nH]6)C=C5)C=C4)cc1)[C@@H](C(F)(F)F)O2
REMARK SMILES IDX 16 1 15 2 14 3 12 4 13 5 11 7 3 8 4 9 9 10 5 11 6 12 8 13
REMARK SMILES IDX 10 14 7 15 80 16 75 17 2 18 1 19 76 20 77 21 78 22 79 23
REMARK SMILES IDX 17 24 18 25 19 26 20 28 21 29 22 30 74 31 23 32 73 33 24 34
REMARK SMILES IDX 25 35 26 36 67 37 27 38 72 39 66 40 68 41 28 42 71 43 65 44
REMARK SMILES IDX 64 45 29 47 55 48 38 49 54 50 39 51 42 52 53 53 69 54 40 55
REMARK SMILES IDX 41 56 52 58 70 59 43 60 30 61 31 62 36 63 32 64 33 65 35 66
REMARK SMILES IDX 37 67 34 68 56 69 57 70 62 71 58 72 59 73 61 74 63 75 60 76
REMARK SMILES IDX 44 77 45 78 50 79 46 80 47 81 49 82 51 83 48 84
REMARK H PARENT 14 6 18 27 68 46 42 57
REMARK Flexibility Score: inf
ROOT
ATOM      1  C   UNL A   1      37.669  19.749  24.954  1.00  0.00     0.042 C 
ENDROOT
BRANCH   1   2
ATOM      2  C   UNL A   1      36.541  20.768  25.008  1.00  0.00     0.118 C 
BRANCH   2   3
ATOM      3  N   UNL A   1      36.995  22.058  25.509  1.00  0.00    -0.352 N 
ATOM      4  C   UNL A   1      36.451  23.260  25.813  1.00  0.00     0.251 C 
ATOM      5  O   UNL A   1      37.255  24.101  26.228  1.00  0.00    -0.270 OA
ATOM      6  H   UNL A   1      37.966  22.054  25.675  1.00  0.00     0.163 HD
BRANCH   4   7
ATOM      7  C   UNL A   1      35.007  23.619  25.677  1.00  0.00     0.067 C 
ATOM      8  C   UNL A   1      32.978  26.735  25.092  1.00  0.00    -0.019 A 
ATOM      9  C   UNL A   1      31.609  27.021  24.856  1.00  0.00     0.045 A 
ATOM     10  C   UNL A   1      33.358  25.372  25.235  1.00  0.00     0.022 A 
ATOM     11  Cl  UNL A   1      31.028  28.630  24.580  1.00  0.00    -0.084 Cl
ATOM     12  C   UNL A   1      30.651  26.007  24.794  1.00  0.00     0.024 A 
ATOM     13  C   UNL A   1      32.373  24.372  25.152  1.00  0.00     0.128 A 
ATOM     14  C   UNL A   1      34.744  24.912  25.401  1.00  0.00     0.026 C 
ATOM     15  C   UNL A   1      31.034  24.682  24.939  1.00  0.00     0.048 A 
ATOM     16  O   UNL A   1      32.643  23.034  25.210  1.00  0.00    -0.475 OA
ATOM     17  C   UNL A   1      33.887  22.641  25.837  1.00  0.00     0.314 C 
BRANCH   8  18
ATOM     18  C   UNL A   1      33.977  27.876  25.177  1.00  0.00     0.034 C 
ATOM     19  C   UNL A   1      34.076  28.493  26.569  1.00  0.00     0.009 C 
ENDBRANCH   8  18
BRANCH  17  20
ATOM     20  C   UNL A   1      33.618  22.268  27.306  1.00  0.00     0.429 C 
ATOM     21  F   UNL A   1      33.881  20.952  27.512  1.00  0.00    -0.167 F 
ATOM     22  F   UNL A   1      34.403  22.953  28.171  1.00  0.00    -0.167 F 
ATOM     23  F   UNL A   1      32.338  22.489  27.677  1.00  0.00    -0.167 F 
ENDBRANCH  17  20
ENDBRANCH   4   7
ENDBRANCH   2   3
ENDBRANCH   1   2
BRANCH   1  24
ATOM     24  C   UNL A   1      38.900  20.194  25.734  1.00  0.00     0.118 C 
BRANCH  24  25
ATOM     25  N   UNL A   1      39.916  19.145  25.815  1.00  0.00    -0.352 N 
ATOM     26  C   UNL A   1      41.276  19.229  25.993  1.00  0.00     0.251 C 
ATOM     27  H   UNL A   1      39.568  18.228  25.727  1.00  0.00     0.163 HD
ATOM     28  O   UNL A   1      41.978  18.236  25.816  1.00  0.00    -0.269 OA
BRANCH  26  29
ATOM     29  C   UNL A   1      41.899  20.514  26.372  1.00  0.00     0.039 A 
ATOM     30  C   UNL A   1      42.099  20.829  27.714  1.00  0.00     0.014 A 
ATOM     31  C   UNL A   1      42.285  21.416  25.376  1.00  0.00     0.014 A 
ATOM     32  C   UNL A   1      42.480  22.115  28.068  1.00  0.00     0.010 A 
ATOM     33  C   UNL A   1      42.782  22.673  25.733  1.00  0.00     0.010 A 
ATOM     34  C   UNL A   1      42.828  23.055  27.083  1.00  0.00    -0.014 A 
BRANCH  34  35
ATOM     35  C   UNL A   1      43.224  24.423  27.505  1.00  0.00     0.031 A 
ATOM     36  C   UNL A   1      44.657  24.875  27.412  1.00  0.00     0.074 A 
ATOM     37  C   UNL A   1      42.267  25.287  27.896  1.00  0.00     0.049 A 
ATOM     38  N   UNL A   1      45.173  26.043  27.702  1.00  0.00    -0.248 NA
ATOM     39  C   UNL A   1      45.641  23.890  26.938  1.00  0.00     0.031 C 
ATOM     40  C   UNL A   1      40.841  24.969  28.016  1.00  0.00     0.029 A 
ATOM     41  N   UNL A   1      42.339  26.615  28.227  1.00  0.00    -0.354 N 
ATOM     42  C   UNL A   1      46.538  25.926  27.471  1.00  0.00     0.074 A 
ATOM     43  C   UNL A   1      46.777  24.564  27.043  1.00  0.00     0.031 C 
ATOM     44  C   UNL A   1      40.166  26.086  28.322  1.00  0.00     0.029 A 
ATOM     45  C   UNL A   1      41.115  27.179  28.495  1.00  0.00     0.049 A 
ATOM     46  H   UNL A   1      43.185  27.117  28.268  1.00  0.00     0.167 HD
ATOM     47  C   UNL A   1      47.504  26.869  27.594  1.00  0.00     0.037 A 
ATOM     48  C   UNL A   1      40.792  28.434  28.857  1.00  0.00     0.037 A 
ATOM     49  C   UNL A   1      47.261  28.229  27.997  1.00  0.00     0.049 A 
ATOM     50  C   UNL A   1      41.887  29.446  29.022  1.00  0.00     0.074 A 
ATOM     51  C   UNL A   1      48.168  29.265  28.137  1.00  0.00     0.029 A 
ATOM     52  N   UNL A   1      46.015  28.745  28.323  1.00  0.00    -0.354 N 
ATOM     53  N   UNL A   1      43.172  29.317  28.802  1.00  0.00    -0.248 NA
ATOM     54  C   UNL A   1      41.485  30.775  29.501  1.00  0.00     0.031 C 
ATOM     55  C   UNL A   1      47.477  30.397  28.584  1.00  0.00     0.029 A 
ATOM     56  C   UNL A   1      46.132  30.078  28.682  1.00  0.00     0.049 A 
ATOM     57  H   UNL A   1      45.172  28.238  28.302  1.00  0.00     0.167 HD
ATOM     58  C   UNL A   1      43.734  30.548  29.108  1.00  0.00     0.074 A 
ATOM     59  C   UNL A   1      42.644  31.418  29.501  1.00  0.00     0.031 C 
ATOM     60  C   UNL A   1      45.035  30.924  29.075  1.00  0.00     0.037 A 
BRANCH  47  61
ATOM     61  C   UNL A   1      48.918  26.450  27.309  1.00  0.00     0.057 A 
ATOM     62  C   UNL A   1      49.434  26.519  26.009  1.00  0.00     0.134 A 
ATOM     63  C   UNL A   1      49.765  25.961  28.314  1.00  0.00     0.134 A 
ATOM     64  F   UNL A   1      48.677  26.974  25.000  1.00  0.00    -0.206 F 
ATOM     65  C   UNL A   1      50.739  26.117  25.717  1.00  0.00     0.040 A 
ATOM     66  C   UNL A   1      51.080  25.578  28.038  1.00  0.00     0.040 A 
ATOM     67  F   UNL A   1      49.338  25.883  29.584  1.00  0.00    -0.206 F 
ATOM     68  C   UNL A   1      51.568  25.651  26.735  1.00  0.00     0.006 A 
ENDBRANCH  47  61
BRANCH  48  69
ATOM     69  C   UNL A   1      39.375  28.795  29.105  1.00  0.00     0.057 A 
ATOM     70  C   UNL A   1      38.788  28.619  30.365  1.00  0.00     0.134 A 
ATOM     71  C   UNL A   1      38.576  29.332  28.091  1.00  0.00     0.134 A 
ATOM     72  F   UNL A   1      39.501  28.103  31.377  1.00  0.00    -0.206 F 
ATOM     73  C   UNL A   1      37.455  28.953  30.604  1.00  0.00     0.040 A 
ATOM     74  C   UNL A   1      37.249  29.697  28.323  1.00  0.00     0.040 A 
ATOM     75  F   UNL A   1      39.086  29.543  26.869  1.00  0.00    -0.206 F 
ATOM     76  C   UNL A   1      36.684  29.501  29.582  1.00  0.00     0.006 A 
ENDBRANCH  48  69
BRANCH  60  77
ATOM     77  C   UNL A   1      45.334  32.342  29.458  1.00  0.00     0.057 A 
ATOM     78  C   UNL A   1      45.300  33.364  28.501  1.00  0.00     0.134 A 
ATOM     79  C   UNL A   1      45.655  32.697  30.775  1.00  0.00     0.134 A 
ATOM     80  F   UNL A   1      45.003  33.088  27.221  1.00  0.00    -0.206 F 
ATOM     81  C   UNL A   1      45.569  34.689  28.841  1.00  0.00     0.040 A 
ATOM     82  C   UNL A   1      45.901  34.023  31.132  1.00  0.00     0.040 A 
ATOM     83  F   UNL A   1      45.686  31.766  31.741  1.00  0.00    -0.206 F 
ATOM     84  C   UNL A   1      45.863  35.023  30.163  1.00  0.00     0.006 A 
ENDBRANCH  60  77
ENDBRANCH  34  35
ENDBRANCH  26  29
ENDBRANCH  24  25
ENDBRANCH   1  24
TORSDOF 12
ENDMDL
MODEL 2
REMARK VINA RESULT:     -12.1      1.325      1.783
REMARK SMILES CCc1c(Cl)ccc2c1C=C(C(=O)NCCCNC(=O)c1ccc(-c3c4nc(c(-c5c(F)cccc5F)c5ccc([nH]5)c(-c5c(F)cccc5F)c5nc(c(-c6c(F)cccc6F)c6ccc3[nH]6)C=C5)C=C4)cc1)[C@@H](C(F)(F)F)O2
REMARK SMILES IDX 16 1 15 2 14 3 12 4 13 5 11 7 3 8 4 9 9 10 5 11 6 12 8 13
REMARK SMILES IDX 10 14 7 15 80 16 75 17 2 18 1 19 76 20 77 21 78 22 79 23
REMARK SMILES IDX 17 24 18 25 19 26 20 28 21 29 22 30 74 31 23 32 73 33 24 34
REMARK SMILES IDX 25 35 26 36 67 37 27 38 72 39 66 40 68 41 28 42 71 43 65 44
REMARK SMILES IDX 64 45 29 47 55 48 38 49 54 50 39 51 42 52 53 53 69 54 40 55
REMARK SMILES IDX 41 56 52 58 70 59 43 60 30 61 31 62 36 63 32 64 33 65 35 66
REMARK SMILES IDX 37 67 34 68 56 69 57 70 62 71 58 72 59 73 61 74 63 75 60 76
REMARK SMILES IDX 44 77 45 78 50 79 46 80 47 81 49 82 51 83 48 84
REMARK H PARENT 14 6 18 27 68 46 42 57
REMARK Flexibility Score: inf
ROOT
ATOM      1  C   UNL A   1      37.842  19.735  25.009  1.00  0.00     0.042 C 
ENDROOT
BRANCH   1   2
ATOM      2  C   UNL A   1      36.934  20.886  24.603  1.00  0.00     0.118 C 
BRANCH   2   3
ATOM      3  N   UNL A   1      35.995  21.238  25.659  1.00  0.00    -0.352 N 
ATOM      4  C   UNL A   1      34.972  22.107  25.838  1.00  0.00     0.251 C 
ATOM      5  O   UNL A   1      34.434  22.051  26.949  1.00  0.00    -0.270 OA
ATOM      6  H   UNL A   1      36.143  20.692  26.465  1.00  0.00     0.163 HD
BRANCH   4   7
ATOM      7  C   UNL A   1      34.479  23.088  24.826  1.00  0.00     0.067 C 
ATOM      8  C   UNL A   1      33.633  26.755  24.714  1.00  0.00    -0.019 A 
ATOM      9  C   UNL A   1      33.274  27.680  23.702  1.00  0.00     0.045 A 
ATOM     10  C   UNL A   1      33.914  25.417  24.325  1.00  0.00     0.022 A 
ATOM     11  Cl  UNL A   1      32.990  29.358  24.030  1.00  0.00    -0.084 Cl
ATOM     12  C   UNL A   1      33.167  27.293  22.364  1.00  0.00     0.024 A 
ATOM     13  C   UNL A   1      33.812  25.061  22.968  1.00  0.00     0.128 A 
ATOM     14  C   UNL A   1      34.377  24.366  25.243  1.00  0.00     0.026 C 
ATOM     15  C   UNL A   1      33.439  25.984  21.997  1.00  0.00     0.048 A 
ATOM     16  O   UNL A   1      34.124  23.821  22.483  1.00  0.00    -0.475 OA
ATOM     17  C   UNL A   1      34.103  22.722  23.425  1.00  0.00     0.314 C 
BRANCH   8  18
ATOM     18  C   UNL A   1      33.711  27.220  26.159  1.00  0.00     0.034 C 
ATOM     19  C   UNL A   1      32.348  27.319  26.838  1.00  0.00     0.009 C 
ENDBRANCH   8  18
BRANCH  17  20
ATOM     20  C   UNL A   1      32.744  22.004  23.334  1.00  0.00     0.429 C 
ATOM     21  F   UNL A   1      32.308  21.987  22.049  1.00  0.00    -0.167 F 
ATOM     22  F   UNL A   1      32.810  20.711  23.731  1.00  0.00    -0.167 F 
ATOM     23  F   UNL A   1      31.787  22.595  24.081  1.00  0.00    -0.167 F 
ENDBRANCH  17  20
ENDBRANCH   4   7
ENDBRANCH   2   3
ENDBRANCH   1   2
BRANCH   1  24
ATOM     24  C   UNL A   1      39.065  20.200  25.790  1.00  0.00     0.118 C 
BRANCH  24  25
ATOM     25  N   UNL A   1      40.098  19.167  25.872  1.00  0.00    -0.352 N 
ATOM     26  C   UNL A   1      41.453  19.272  26.077  1.00  0.00     0.251 C 
ATOM     27  H   UNL A   1      39.768  18.246  25.762  1.00  0.00     0.163 HD
ATOM     28  O   UNL A   1      42.175  18.295  25.896  1.00  0.00    -0.269 OA
BRANCH  26  29
ATOM     29  C   UNL A   1      42.046  20.560  26.490  1.00  0.00     0.039 A 
ATOM     30  C   UNL A   1      42.161  20.879  27.842  1.00  0.00     0.014 A 
ATOM     31  C   UNL A   1      42.489  21.462  25.518  1.00  0.00     0.014 A 
ATOM     32  C   UNL A   1      42.515  22.168  28.215  1.00  0.00     0.010 A 
ATOM     33  C   UNL A   1      42.957  22.722  25.902  1.00  0.00     0.010 A 
ATOM     34  C   UNL A   1      42.919  23.106  27.251  1.00  0.00    -0.014 A 
BRANCH  34  35
ATOM     35  C   UNL A   1      43.282  24.477  27.693  1.00  0.00     0.031 A 
ATOM     36  C   UNL A   1      44.713  24.945  27.662  1.00  0.00     0.074 A 
ATOM     37  C   UNL A   1      42.301  25.330  28.046  1.00  0.00     0.049 A 
ATOM     38  N   UNL A   1      45.204  26.117  27.977  1.00  0.00    -0.248 NA
ATOM     39  C   UNL A   1      45.726  23.971  27.227  1.00  0.00     0.031 C 
ATOM     40  C   UNL A   1      40.874  24.998  28.104  1.00  0.00     0.029 A 
ATOM     41  N   UNL A   1      42.344  26.658  28.383  1.00  0.00    -0.354 N 
ATOM     42  C   UNL A   1      46.579  26.014  27.803  1.00  0.00     0.074 A 
ATOM     43  C   UNL A   1      46.850  24.657  27.382  1.00  0.00     0.031 C 
ATOM     44  C   UNL A   1      40.175  26.107  28.384  1.00  0.00     0.029 A 
ATOM     45  C   UNL A   1      41.104  27.208  28.600  1.00  0.00     0.049 A 
ATOM     46  H   UNL A   1      43.182  27.169  28.461  1.00  0.00     0.167 HD
ATOM     47  C   UNL A   1      47.529  26.967  27.970  1.00  0.00     0.037 A 
ATOM     48  C   UNL A   1      40.753  28.459  28.952  1.00  0.00     0.037 A 
ATOM     49  C   UNL A   1      47.255  28.324  28.366  1.00  0.00     0.049 A 
ATOM     50  C   UNL A   1      41.830  29.482  29.166  1.00  0.00     0.074 A 
ATOM     51  C   UNL A   1      48.145  29.369  28.547  1.00  0.00     0.029 A 
ATOM     52  N   UNL A   1      45.991  28.826  28.640  1.00  0.00    -0.354 N 
ATOM     53  N   UNL A   1      43.124  29.366  29.000  1.00  0.00    -0.248 NA
ATOM     54  C   UNL A   1      41.394  30.805  29.631  1.00  0.00     0.031 C 
ATOM     55  C   UNL A   1      47.423  30.492  28.967  1.00  0.00     0.029 A 
ATOM     56  C   UNL A   1      46.079  30.158  29.007  1.00  0.00     0.049 A 
ATOM     57  H   UNL A   1      45.155  28.310  28.582  1.00  0.00     0.167 HD
ATOM     58  C   UNL A   1      43.660  30.602  29.333  1.00  0.00     0.074 A 
ATOM     59  C   UNL A   1      42.545  31.460  29.682  1.00  0.00     0.031 C 
ATOM     60  C   UNL A   1      44.958  30.992  29.356  1.00  0.00     0.037 A 
BRANCH  47  61
ATOM     61  C   UNL A   1      48.958  26.564  27.744  1.00  0.00     0.057 A 
ATOM     62  C   UNL A   1      49.527  26.642  26.466  1.00  0.00     0.134 A 
ATOM     63  C   UNL A   1      49.767  26.080  28.782  1.00  0.00     0.134 A 
ATOM     64  F   UNL A   1      48.809  27.092  25.428  1.00  0.00    -0.206 F 
ATOM     65  C   UNL A   1      50.848  26.255  26.229  1.00  0.00     0.040 A 
ATOM     66  C   UNL A   1      51.096  25.712  28.561  1.00  0.00     0.040 A 
ATOM     67  F   UNL A   1      49.288  25.994  30.032  1.00  0.00    -0.206 F 
ATOM     68  C   UNL A   1      51.638  25.794  27.280  1.00  0.00     0.006 A 
ENDBRANCH  47  61
BRANCH  48  69
ATOM     69  C   UNL A   1      39.323  28.804  29.141  1.00  0.00     0.057 A 
ATOM     70  C   UNL A   1      38.693  28.644  30.382  1.00  0.00     0.134 A 
ATOM     71  C   UNL A   1      38.555  29.311  28.088  1.00  0.00     0.134 A 
ATOM     72  F   UNL A   1      39.375  28.159  31.429  1.00  0.00    -0.206 F 
ATOM     73  C   UNL A   1      37.348  28.964  30.565  1.00  0.00     0.040 A 
ATOM     74  C   UNL A   1      37.216  29.662  28.264  1.00  0.00     0.040 A 
ATOM     75  F   UNL A   1      39.107  29.505  26.881  1.00  0.00    -0.206 F 
ATOM     76  C   UNL A   1      36.607  29.482  29.505  1.00  0.00     0.006 A 
ENDBRANCH  48  69
BRANCH  60  77
ATOM     77  C   UNL A   1      45.225  32.412  29.755  1.00  0.00     0.057 A 
ATOM     78  C   UNL A   1      45.482  32.743  31.091  1.00  0.00     0.134 A 
ATOM     79  C   UNL A   1      45.228  33.452  28.817  1.00  0.00     0.134 A 
ATOM     80  F   UNL A   1      45.489  31.793  32.039  1.00  0.00    -0.206 F 
ATOM     81  C   UNL A   1      45.739  34.058  31.479  1.00  0.00     0.040 A 
ATOM     82  C   UNL A   1      45.508  34.767  29.189  1.00  0.00     0.040 A 
ATOM     83  F   UNL A   1      45.006  33.196  27.519  1.00  0.00    -0.206 F 
ATOM     84  C   UNL A   1      45.761  35.073  30.525  1.00  0.00     0.006 A 
ENDBRANCH  60  77
ENDBRANCH  34  35
ENDBRANCH  26  29
ENDBRANCH  24  25
ENDBRANCH   1  24
TORSDOF 12
ENDMDL
MODEL 3
REMARK VINA RESULT:     -12.1      5.086      9.752
REMARK SMILES CCc1c(Cl)ccc2c1C=C(C(=O)NCCCNC(=O)c1ccc(-c3c4nc(c(-c5c(F)cccc5F)c5ccc([nH]5)c(-c5c(F)cccc5F)c5nc(c(-c6c(F)cccc6F)c6ccc3[nH]6)C=C5)C=C4)cc1)[C@@H](C(F)(F)F)O2
REMARK SMILES IDX 16 1 15 2 14 3 12 4 13 5 11 7 3 8 4 9 9 10 5 11 6 12 8 13
REMARK SMILES IDX 10 14 7 15 80 16 75 17 2 18 1 19 76 20 77 21 78 22 79 23
REMARK SMILES IDX 17 24 18 25 19 26 20 28 21 29 22 30 74 31 23 32 73 33 24 34
REMARK SMILES IDX 25 35 26 36 67 37 27 38 72 39 66 40 68 41 28 42 71 43 65 44
REMARK SMILES IDX 64 45 29 47 55 48 38 49 54 50 39 51 42 52 53 53 69 54 40 55
REMARK SMILES IDX 41 56 52 58 70 59 43 60 30 61 31 62 36 63 32 64 33 65 35 66
REMARK SMILES IDX 37 67 34 68 56 69 57 70 62 71 58 72 59 73 61 74 63 75 60 76
REMARK SMILES IDX 44 77 45 78 50 79 46 80 47 81 49 82 51 83 48 84
REMARK H PARENT 14 6 18 27 68 46 42 57
REMARK Flexibility Score: inf
ROOT
ATOM      1  C   UNL A   1      31.469  31.917  26.500  1.00  0.00     0.042 C 
ENDROOT
BRANCH   1   2
ATOM      2  C   UNL A   1      31.535  30.400  26.407  1.00  0.00     0.118 C 
BRANCH   2   3
ATOM      3  N   UNL A   1      32.407  29.957  25.327  1.00  0.00    -0.352 N 
ATOM      4  C   UNL A   1      32.835  28.784  24.805  1.00  0.00     0.251 C 
ATOM      5  O   UNL A   1      33.604  28.895  23.845  1.00  0.00    -0.270 OA
ATOM      6  H   UNL A   1      32.790  30.724  24.841  1.00  0.00     0.163 HD
BRANCH   4   7
ATOM      7  C   UNL A   1      32.458  27.425  25.299  1.00  0.00     0.067 C 
ATOM      8  C   UNL A   1      34.180  24.137  25.926  1.00  0.00    -0.019 A 
ATOM      9  C   UNL A   1      33.812  22.896  26.505  1.00  0.00     0.045 A 
ATOM     10  C   UNL A   1      33.212  25.177  25.908  1.00  0.00     0.022 A 
ATOM     11  Cl  UNL A   1      34.923  21.576  26.666  1.00  0.00    -0.084 Cl
ATOM     12  C   UNL A   1      32.531  22.681  27.017  1.00  0.00     0.024 A 
ATOM     13  C   UNL A   1      31.934  24.936  26.445  1.00  0.00     0.128 A 
ATOM     14  C   UNL A   1      33.468  26.540  25.419  1.00  0.00     0.026 C 
ATOM     15  C   UNL A   1      31.593  23.702  26.989  1.00  0.00     0.048 A 
ATOM     16  O   UNL A   1      30.957  25.887  26.535  1.00  0.00    -0.475 OA
ATOM     17  C   UNL A   1      31.060  27.023  25.644  1.00  0.00     0.314 C 
BRANCH   8  18
ATOM     18  C   UNL A   1      35.579  24.312  25.360  1.00  0.00     0.034 C 
ATOM     19  C   UNL A   1      35.738  23.748  23.951  1.00  0.00     0.009 C 
ENDBRANCH   8  18
BRANCH  17  20
ATOM     20  C   UNL A   1      30.181  26.774  24.405  1.00  0.00     0.429 C 
ATOM     21  F   UNL A   1      29.074  26.068  24.749  1.00  0.00    -0.167 F 
ATOM     22  F   UNL A   1      29.739  27.923  23.840  1.00  0.00    -0.167 F 
ATOM     23  F   UNL A   1      30.821  26.082  23.437  1.00  0.00    -0.167 F 
ENDBRANCH  17  20
ENDBRANCH   4   7
ENDBRANCH   2   3
ENDBRANCH   1   2
BRANCH   1  24
ATOM     24  C   UNL A   1      32.652  32.510  27.255  1.00  0.00     0.118 C 
BRANCH  24  25
ATOM     25  N   UNL A   1      32.447  33.918  27.592  1.00  0.00    -0.352 N 
ATOM     26  C   UNL A   1      33.088  34.723  28.503  1.00  0.00     0.251 C 
ATOM     27  H   UNL A   1      31.731  34.363  27.082  1.00  0.00     0.163 HD
ATOM     28  O   UNL A   1      32.619  35.823  28.783  1.00  0.00    -0.269 OA
BRANCH  26  29
ATOM     29  C   UNL A   1      34.326  34.260  29.162  1.00  0.00     0.039 A 
ATOM     30  C   UNL A   1      35.570  34.541  28.598  1.00  0.00     0.014 A 
ATOM     31  C   UNL A   1      34.246  33.535  30.355  1.00  0.00     0.014 A 
ATOM     32  C   UNL A   1      36.706  33.923  29.101  1.00  0.00     0.010 A 
ATOM     33  C   UNL A   1      35.408  33.010  30.927  1.00  0.00     0.010 A 
ATOM     34  C   UNL A   1      36.642  33.151  30.272  1.00  0.00    -0.014 A 
BRANCH  34  35
ATOM     35  C   UNL A   1      37.881  32.501  30.772  1.00  0.00     0.031 A 
ATOM     36  C   UNL A   1      38.556  32.987  32.027  1.00  0.00     0.074 A 
ATOM     37  C   UNL A   1      38.350  31.413  30.132  1.00  0.00     0.049 A 
ATOM     38  N   UNL A   1      39.621  32.517  32.625  1.00  0.00    -0.248 NA
ATOM     39  C   UNL A   1      37.964  34.156  32.696  1.00  0.00     0.031 C 
ATOM     40  C   UNL A   1      37.776  30.838  28.911  1.00  0.00     0.029 A 
ATOM     41  N   UNL A   1      39.390  30.572  30.434  1.00  0.00    -0.354 N 
ATOM     42  C   UNL A   1      39.841  33.344  33.721  1.00  0.00     0.074 A 
ATOM     43  C   UNL A   1      38.814  34.363  33.691  1.00  0.00     0.031 C 
ATOM     44  C   UNL A   1      38.424  29.703  28.612  1.00  0.00     0.029 A 
ATOM     45  C   UNL A   1      39.504  29.510  29.571  1.00  0.00     0.049 A 
ATOM     46  H   UNL A   1      39.996  30.715  31.197  1.00  0.00     0.167 HD
ATOM     47  C   UNL A   1      40.803  33.256  34.671  1.00  0.00     0.037 A 
ATOM     48  C   UNL A   1      40.391  28.499  29.542  1.00  0.00     0.037 A 
ATOM     49  C   UNL A   1      41.809  32.227  34.712  1.00  0.00     0.049 A 
ATOM     50  C   UNL A   1      41.468  28.449  30.586  1.00  0.00     0.074 A 
ATOM     51  C   UNL A   1      42.818  32.040  35.641  1.00  0.00     0.029 A 
ATOM     52  N   UNL A   1      41.931  31.205  33.782  1.00  0.00    -0.354 N 
ATOM     53  N   UNL A   1      41.662  29.240  31.612  1.00  0.00    -0.248 NA
ATOM     54  C   UNL A   1      42.459  27.373  30.455  1.00  0.00     0.031 C 
ATOM     55  C   UNL A   1      43.573  30.927  35.252  1.00  0.00     0.029 A 
ATOM     56  C   UNL A   1      43.009  30.396  34.103  1.00  0.00     0.049 A 
ATOM     57  H   UNL A   1      41.338  31.073  33.008  1.00  0.00     0.167 HD
ATOM     58  C   UNL A   1      42.791  28.755  32.256  1.00  0.00     0.074 A 
ATOM     59  C   UNL A   1      43.221  27.583  31.519  1.00  0.00     0.031 C 
ATOM     60  C   UNL A   1      43.422  29.239  33.353  1.00  0.00     0.037 A 
BRANCH  47  61
ATOM     61  C   UNL A   1      40.825  34.318  35.733  1.00  0.00     0.057 A 
ATOM     62  C   UNL A   1      40.095  34.156  36.918  1.00  0.00     0.134 A 
ATOM     63  C   UNL A   1      41.548  35.509  35.578  1.00  0.00     0.134 A 
ATOM     64  F   UNL A   1      39.378  33.043  37.129  1.00  0.00    -0.206 F 
ATOM     65  C   UNL A   1      40.084  35.139  37.910  1.00  0.00     0.040 A 
ATOM     66  C   UNL A   1      41.564  36.488  36.574  1.00  0.00     0.040 A 
ATOM     67  F   UNL A   1      42.280  35.720  34.474  1.00  0.00    -0.206 F 
ATOM     68  C   UNL A   1      40.826  36.306  37.742  1.00  0.00     0.006 A 
ENDBRANCH  47  61
BRANCH  48  69
ATOM     69  C   UNL A   1      40.308  27.466  28.481  1.00  0.00     0.057 A 
ATOM     70  C   UNL A   1      39.555  26.299  28.658  1.00  0.00     0.134 A 
ATOM     71  C   UNL A   1      40.974  27.626  27.261  1.00  0.00     0.134 A 
ATOM     72  F   UNL A   1      38.898  26.085  29.807  1.00  0.00    -0.206 F 
ATOM     73  C   UNL A   1      39.475  25.322  27.665  1.00  0.00     0.040 A 
ATOM     74  C   UNL A   1      40.880  26.671  26.248  1.00  0.00     0.040 A 
ATOM     75  F   UNL A   1      41.695  28.732  27.025  1.00  0.00    -0.206 F 
ATOM     76  C   UNL A   1      40.134  25.512  26.452  1.00  0.00     0.006 A 
ENDBRANCH  48  69
BRANCH  60  77
ATOM     77  C   UNL A   1      44.629  28.482  33.822  1.00  0.00     0.057 A 
ATOM     78  C   UNL A   1      44.498  27.402  34.703  1.00  0.00     0.134 A 
ATOM     79  C   UNL A   1      45.921  28.823  33.400  1.00  0.00     0.134 A 
ATOM     80  F   UNL A   1      43.288  27.029  35.148  1.00  0.00    -0.206 F 
ATOM     81  C   UNL A   1      45.609  26.683  35.144  1.00  0.00     0.040 A 
ATOM     82  C   UNL A   1      47.037  28.096  33.815  1.00  0.00     0.040 A 
ATOM     83  F   UNL A   1      46.110  29.837  32.542  1.00  0.00    -0.206 F 
ATOM     84  C   UNL A   1      46.883  27.025  34.693  1.00  0.00     0.006 A 
ENDBRANCH  60  77
ENDBRANCH  34  35
ENDBRANCH  26  29
ENDBRANCH  24  25
ENDBRANCH   1  24
TORSDOF 12
ENDMDL
