MODEL 1
REMARK VINA RESULT:     -10.0      0.000      0.000
REMARK SMILES CCCCS[C@@H]1CC[C@@]([NH2+]CC)(C(=O)NCCCNC(=O)c2ccc(-c3c4nc(c(-c5c(F)cccc5F)c5ccc([nH]5)c(-c5c(F)cccc5F)c5nc(c(-c6c(F)cccc6F)c6ccc3[nH]6)C=C5)C=C4)cc2)C1
REMARK SMILES IDX 16 1 15 2 13 3 14 4 9 6 6 7 7 8 76 9 8 10 5 11 4 12 3 13
REMARK SMILES IDX 2 14 1 15 10 16 11 19 12 20 17 21 18 22 19 23 20 24 21 26
REMARK SMILES IDX 22 27 23 28 75 29 24 30 74 31 25 32 26 33 27 34 68 35 28 36
REMARK SMILES IDX 73 37 67 38 69 39 29 40 72 41 66 42 65 43 30 45 56 46 39 47
REMARK SMILES IDX 55 48 40 49 43 50 54 51 70 52 41 53 42 54 53 56 71 57 44 58
REMARK SMILES IDX 31 59 32 60 37 61 33 62 34 63 36 64 38 65 35 66 57 67 58 68
REMARK SMILES IDX 63 69 59 70 60 71 62 72 64 73 61 74 45 75 46 76 51 77 47 78
REMARK SMILES IDX 48 79 50 80 52 81 49 82
REMARK H PARENT 15 5 10 17 10 18 19 25 69 44 43 55
REMARK Flexibility Score: inf
ROOT
ATOM      1  C   UNL A   1      31.411  30.646  26.394  1.00  0.00     0.118 C 
ENDROOT
BRANCH   1   2
ATOM      2  N   UNL A   1      31.242  30.226  25.010  1.00  0.00    -0.351 N 
ATOM      3  C   UNL A   1      31.865  29.226  24.312  1.00  0.00     0.281 C 
ATOM      4  O   UNL A   1      31.537  29.067  23.133  1.00  0.00    -0.268 OA
ATOM      5  H   UNL A   1      30.579  30.742  24.497  1.00  0.00     0.163 HD
BRANCH   3   6
ATOM      6  C   UNL A   1      32.939  28.333  24.997  1.00  0.00     0.176 C 
ATOM      7  C   UNL A   1      31.849  26.166  25.324  1.00  0.00     0.053 C 
ATOM      8  C   UNL A   1      32.605  26.105  23.999  1.00  0.00     0.022 C 
ATOM      9  C   UNL A   1      32.358  27.394  26.069  1.00  0.00     0.093 C 
ATOM     10  C   UNL A   1      33.504  27.340  23.961  1.00  0.00     0.080 C 
BRANCH   7  11
ATOM     11  S   UNL A   1      31.803  24.548  26.196  1.00  0.00    -0.158 SA
BRANCH  11  12
ATOM     12  C   UNL A   1      31.199  23.315  24.980  1.00  0.00     0.070 C 
BRANCH  12  13
ATOM     13  C   UNL A   1      32.070  22.065  24.807  1.00  0.00     0.011 C 
BRANCH  13  14
ATOM     14  C   UNL A   1      33.242  22.179  23.840  1.00  0.00    -0.003 C 
ATOM     15  C   UNL A   1      32.874  22.707  22.462  1.00  0.00     0.004 C 
ENDBRANCH  13  14
ENDBRANCH  12  13
ENDBRANCH  11  12
ENDBRANCH   7  11
BRANCH   6  16
ATOM     16  N   UNL A   1      34.037  29.169  25.552  1.00  0.00    -0.334 N 
ATOM     17  H   UNL A   1      33.699  30.131  25.593  1.00  0.00     0.347 HD
ATOM     18  H   UNL A   1      34.827  29.015  24.925  1.00  0.00     0.347 HD
BRANCH  16  19
ATOM     19  C   UNL A   1      34.537  28.821  26.883  1.00  0.00     0.257 C 
ATOM     20  C   UNL A   1      34.850  30.007  27.781  1.00  0.00     0.071 C 
ENDBRANCH  16  19
ENDBRANCH   6  16
ENDBRANCH   3   6
ENDBRANCH   1   2
BRANCH   1  21
ATOM     21  C   UNL A   1      31.364  32.162  26.541  1.00  0.00     0.042 C 
BRANCH  21  22
ATOM     22  C   UNL A   1      32.684  32.773  26.979  1.00  0.00     0.118 C 
BRANCH  22  23
ATOM     23  N   UNL A   1      32.514  34.078  27.599  1.00  0.00    -0.352 N 
ATOM     24  C   UNL A   1      33.160  34.622  28.677  1.00  0.00     0.251 C 
ATOM     25  H   UNL A   1      31.835  34.655  27.180  1.00  0.00     0.163 HD
ATOM     26  O   UNL A   1      32.741  35.667  29.175  1.00  0.00    -0.269 OA
BRANCH  24  27
ATOM     27  C   UNL A   1      34.341  33.951  29.259  1.00  0.00     0.039 A 
ATOM     28  C   UNL A   1      34.144  32.949  30.213  1.00  0.00     0.014 A 
ATOM     29  C   UNL A   1      35.639  34.315  28.887  1.00  0.00     0.014 A 
ATOM     30  C   UNL A   1      35.244  32.285  30.757  1.00  0.00     0.010 A 
ATOM     31  C   UNL A   1      36.728  33.585  29.355  1.00  0.00     0.010 A 
ATOM     32  C   UNL A   1      36.544  32.577  30.311  1.00  0.00    -0.014 A 
BRANCH  32  33
ATOM     33  C   UNL A   1      37.722  31.860  30.860  1.00  0.00     0.031 A 
ATOM     34  C   UNL A   1      38.214  32.166  32.249  1.00  0.00     0.074 A 
ATOM     35  C   UNL A   1      38.373  30.961  30.095  1.00  0.00     0.049 A 
ATOM     36  N   UNL A   1      39.241  31.668  32.891  1.00  0.00    -0.248 NA
ATOM     37  C   UNL A   1      37.473  33.185  33.008  1.00  0.00     0.031 C 
ATOM     38  C   UNL A   1      38.026  30.612  28.716  1.00  0.00     0.029 A 
ATOM     39  N   UNL A   1      39.466  30.179  30.369  1.00  0.00    -0.354 N 
ATOM     40  C   UNL A   1      39.273  32.321  34.118  1.00  0.00     0.074 A 
ATOM     41  C   UNL A   1      38.204  33.295  34.106  1.00  0.00     0.031 C 
ATOM     42  C   UNL A   1      38.868  29.663  28.278  1.00  0.00     0.029 A 
ATOM     43  C   UNL A   1      39.837  29.365  29.327  1.00  0.00     0.049 A 
ATOM     44  H   UNL A   1      39.941  30.200  31.233  1.00  0.00     0.167 HD
ATOM     45  C   UNL A   1      40.098  32.110  35.171  1.00  0.00     0.037 A 
ATOM     46  C   UNL A   1      40.847  28.480  29.228  1.00  0.00     0.037 A 
ATOM     47  C   UNL A   1      41.149  31.125  35.187  1.00  0.00     0.049 A 
ATOM     48  C   UNL A   1      41.754  28.268  30.409  1.00  0.00     0.074 A 
ATOM     49  C   UNL A   1      42.008  30.799  36.221  1.00  0.00     0.029 A 
ATOM     50  N   UNL A   1      41.483  30.311  34.116  1.00  0.00    -0.354 N 
ATOM     51  N   UNL A   1      41.728  28.844  31.586  1.00  0.00    -0.248 NA
ATOM     52  C   UNL A   1      42.822  27.273  30.250  1.00  0.00     0.031 C 
ATOM     53  C   UNL A   1      42.896  29.822  35.759  1.00  0.00     0.029 A 
ATOM     54  C   UNL A   1      42.550  29.496  34.458  1.00  0.00     0.049 A 
ATOM     55  H   UNL A   1      41.030  30.311  33.242  1.00  0.00     0.167 HD
ATOM     56  C   UNL A   1      42.753  28.257  32.319  1.00  0.00     0.074 A 
ATOM     57  C   UNL A   1      43.368  27.269  31.457  1.00  0.00     0.031 C 
ATOM     58  C   UNL A   1      43.146  28.510  33.592  1.00  0.00     0.037 A 
BRANCH  45  59
ATOM     59  C   UNL A   1      39.894  32.960  36.393  1.00  0.00     0.057 A 
ATOM     60  C   UNL A   1      40.612  34.147  36.597  1.00  0.00     0.134 A 
ATOM     61  C   UNL A   1      38.949  32.605  37.363  1.00  0.00     0.134 A 
ATOM     62  F   UNL A   1      41.542  34.540  35.714  1.00  0.00    -0.206 F 
ATOM     63  C   UNL A   1      40.418  34.932  37.735  1.00  0.00     0.040 A 
ATOM     64  C   UNL A   1      38.725  33.397  38.490  1.00  0.00     0.040 A 
ATOM     65  F   UNL A   1      38.223  31.484  37.229  1.00  0.00    -0.206 F 
ATOM     66  C   UNL A   1      39.466  34.561  38.682  1.00  0.00     0.006 A 
ENDBRANCH  45  59
BRANCH  46  67
ATOM     67  C   UNL A   1      41.038  27.704  27.975  1.00  0.00     0.057 A 
ATOM     68  C   UNL A   1      41.811  28.209  26.922  1.00  0.00     0.134 A 
ATOM     69  C   UNL A   1      40.441  26.452  27.792  1.00  0.00     0.134 A 
ATOM     70  F   UNL A   1      42.396  29.412  27.030  1.00  0.00    -0.206 F 
ATOM     71  C   UNL A   1      41.961  27.510  25.724  1.00  0.00     0.040 A 
ATOM     72  C   UNL A   1      40.607  25.729  26.610  1.00  0.00     0.040 A 
ATOM     73  F   UNL A   1      39.696  25.907  28.766  1.00  0.00    -0.206 F 
ATOM     74  C   UNL A   1      41.361  26.263  25.568  1.00  0.00     0.006 A 
ENDBRANCH  46  67
BRANCH  58  75
ATOM     75  C   UNL A   1      44.261  27.669  34.145  1.00  0.00     0.057 A 
ATOM     76  C   UNL A   1      45.599  28.081  34.101  1.00  0.00     0.134 A 
ATOM     77  C   UNL A   1      43.985  26.437  34.752  1.00  0.00     0.134 A 
ATOM     78  F   UNL A   1      45.935  29.244  33.523  1.00  0.00    -0.206 F 
ATOM     79  C   UNL A   1      46.626  27.282  34.608  1.00  0.00     0.040 A 
ATOM     80  C   UNL A   1      44.998  25.644  35.293  1.00  0.00     0.040 A 
ATOM     81  F   UNL A   1      42.724  25.986  34.840  1.00  0.00    -0.206 F 
ATOM     82  C   UNL A   1      46.325  26.062  35.212  1.00  0.00     0.006 A 
ENDBRANCH  58  75
ENDBRANCH  32  33
ENDBRANCH  24  27
ENDBRANCH  22  23
ENDBRANCH  21  22
ENDBRANCH   1  21
TORSDOF 16
ENDMDL
MODEL 2
REMARK VINA RESULT:      -9.9      5.051      9.791
REMARK SMILES CCCCS[C@@H]1CC[C@@]([NH2+]CC)(C(=O)NCCCNC(=O)c2ccc(-c3c4nc(c(-c5c(F)cccc5F)c5ccc([nH]5)c(-c5c(F)cccc5F)c5nc(c(-c6c(F)cccc6F)c6ccc3[nH]6)C=C5)C=C4)cc2)C1
REMARK SMILES IDX 16 1 15 2 13 3 14 4 9 6 6 7 7 8 76 9 8 10 5 11 4 12 3 13
REMARK SMILES IDX 2 14 1 15 10 16 11 19 12 20 17 21 18 22 19 23 20 24 21 26
REMARK SMILES IDX 22 27 23 28 75 29 24 30 74 31 25 32 26 33 27 34 68 35 28 36
REMARK SMILES IDX 73 37 67 38 69 39 29 40 72 41 66 42 65 43 30 45 56 46 39 47
REMARK SMILES IDX 55 48 40 49 43 50 54 51 70 52 41 53 42 54 53 56 71 57 44 58
REMARK SMILES IDX 31 59 32 60 37 61 33 62 34 63 36 64 38 65 35 66 57 67 58 68
REMARK SMILES IDX 63 69 59 70 60 71 62 72 64 73 61 74 45 75 46 76 51 77 47 78
REMARK SMILES IDX 48 79 50 80 52 81 49 82
REMARK H PARENT 15 5 10 17 10 18 19 25 69 44 43 55
REMARK Flexibility Score: inf
ROOT
ATOM      1  C   UNL A   1      36.822  20.348  24.630  1.00  0.00     0.118 C 
ENDROOT
BRANCH   1   2
ATOM      2  N   UNL A   1      35.494  19.921  25.046  1.00  0.00    -0.351 N 
ATOM      3  C   UNL A   1      34.413  20.665  25.437  1.00  0.00     0.281 C 
ATOM      4  O   UNL A   1      33.384  20.057  25.741  1.00  0.00    -0.268 OA
ATOM      5  H   UNL A   1      35.352  18.947  25.048  1.00  0.00     0.163 HD
BRANCH   3   6
ATOM      6  C   UNL A   1      34.497  22.219  25.485  1.00  0.00     0.176 C 
ATOM      7  C   UNL A   1      33.240  22.984  23.529  1.00  0.00     0.053 C 
ATOM      8  C   UNL A   1      32.281  22.972  24.718  1.00  0.00     0.022 C 
ATOM      9  C   UNL A   1      34.650  22.865  24.097  1.00  0.00     0.093 C 
ATOM     10  C   UNL A   1      33.144  22.781  25.964  1.00  0.00     0.080 C 
BRANCH   7  11
ATOM     11  S   UNL A   1      32.872  24.325  22.326  1.00  0.00    -0.158 SA
BRANCH  11  12
ATOM     12  C   UNL A   1      33.641  25.851  22.994  1.00  0.00     0.070 C 
BRANCH  12  13
ATOM     13  C   UNL A   1      32.912  26.504  24.174  1.00  0.00     0.011 C 
BRANCH  13  14
ATOM     14  C   UNL A   1      33.774  26.918  25.362  1.00  0.00    -0.003 C 
ATOM     15  C   UNL A   1      33.000  27.533  26.518  1.00  0.00     0.004 C 
ENDBRANCH  13  14
ENDBRANCH  12  13
ENDBRANCH  11  12
ENDBRANCH   7  11
BRANCH   6  16
ATOM     16  N   UNL A   1      35.583  22.654  26.403  1.00  0.00    -0.334 N 
ATOM     17  H   UNL A   1      36.208  21.858  26.540  1.00  0.00     0.347 HD
ATOM     18  H   UNL A   1      35.103  22.977  27.244  1.00  0.00     0.347 HD
BRANCH  16  19
ATOM     19  C   UNL A   1      36.405  23.789  25.979  1.00  0.00     0.257 C 
ATOM     20  C   UNL A   1      37.906  23.567  26.075  1.00  0.00     0.071 C 
ENDBRANCH  16  19
ENDBRANCH   6  16
ENDBRANCH   3   6
ENDBRANCH   1   2
BRANCH   1  21
ATOM     21  C   UNL A   1      37.899  19.351  25.042  1.00  0.00     0.042 C 
BRANCH  21  22
ATOM     22  C   UNL A   1      39.063  19.983  25.785  1.00  0.00     0.118 C 
BRANCH  22  23
ATOM     23  N   UNL A   1      40.216  19.100  25.865  1.00  0.00    -0.352 N 
ATOM     24  C   UNL A   1      41.525  19.398  26.138  1.00  0.00     0.251 C 
ATOM     25  H   UNL A   1      40.028  18.148  25.698  1.00  0.00     0.163 HD
ATOM     26  O   UNL A   1      42.394  18.543  25.968  1.00  0.00    -0.269 OA
BRANCH  24  27
ATOM     27  C   UNL A   1      41.903  20.746  26.614  1.00  0.00     0.039 A 
ATOM     28  C   UNL A   1      42.280  21.710  25.676  1.00  0.00     0.014 A 
ATOM     29  C   UNL A   1      41.906  21.059  27.977  1.00  0.00     0.014 A 
ATOM     30  C   UNL A   1      42.616  22.995  26.101  1.00  0.00     0.010 A 
ATOM     31  C   UNL A   1      42.145  22.366  28.390  1.00  0.00     0.010 A 
ATOM     32  C   UNL A   1      42.523  23.343  27.459  1.00  0.00    -0.014 A 
BRANCH  32  33
ATOM     33  C   UNL A   1      42.850  24.715  27.923  1.00  0.00     0.031 A 
ATOM     34  C   UNL A   1      44.284  25.120  28.134  1.00  0.00     0.074 A 
ATOM     35  C   UNL A   1      41.856  25.585  28.192  1.00  0.00     0.049 A 
ATOM     36  N   UNL A   1      44.768  26.259  28.563  1.00  0.00    -0.248 NA
ATOM     37  C   UNL A   1      45.310  24.104  27.854  1.00  0.00     0.031 C 
ATOM     38  C   UNL A   1      40.425  25.297  28.075  1.00  0.00     0.029 A 
ATOM     39  N   UNL A   1      41.898  26.886  28.623  1.00  0.00    -0.354 N 
ATOM     40  C   UNL A   1      46.146  26.089  28.614  1.00  0.00     0.074 A 
ATOM     41  C   UNL A   1      46.418  24.721  28.236  1.00  0.00     0.031 C 
ATOM     42  C   UNL A   1      39.728  26.400  28.393  1.00  0.00     0.029 A 
ATOM     43  C   UNL A   1      40.659  27.457  28.774  1.00  0.00     0.049 A 
ATOM     44  H   UNL A   1      42.739  27.366  28.806  1.00  0.00     0.167 HD
ATOM     45  C   UNL A   1      47.102  26.998  28.920  1.00  0.00     0.037 A 
ATOM     46  C   UNL A   1      40.312  28.694  29.177  1.00  0.00     0.037 A 
ATOM     47  C   UNL A   1      46.829  28.367  29.276  1.00  0.00     0.049 A 
ATOM     48  C   UNL A   1      41.392  29.684  29.517  1.00  0.00     0.074 A 
ATOM     49  C   UNL A   1      47.729  29.380  29.557  1.00  0.00     0.029 A 
ATOM     50  N   UNL A   1      45.561  28.910  29.406  1.00  0.00    -0.354 N 
ATOM     51  N   UNL A   1      42.694  29.529  29.495  1.00  0.00    -0.248 NA
ATOM     52  C   UNL A   1      40.953  31.024  29.928  1.00  0.00     0.031 C 
ATOM     53  C   UNL A   1      47.004  30.525  29.904  1.00  0.00     0.029 A 
ATOM     54  C   UNL A   1      45.653  30.241  29.780  1.00  0.00     0.049 A 
ATOM     55  H   UNL A   1      44.718  28.424  29.253  1.00  0.00     0.167 HD
ATOM     56  C   UNL A   1      43.229  30.761  29.852  1.00  0.00     0.074 A 
ATOM     57  C   UNL A   1      42.110  31.654  30.071  1.00  0.00     0.031 C 
ATOM     58  C   UNL A   1      44.530  31.121  29.985  1.00  0.00     0.037 A 
BRANCH  45  59
ATOM     59  C   UNL A   1      48.533  26.541  28.879  1.00  0.00     0.057 A 
ATOM     60  C   UNL A   1      49.152  25.944  29.987  1.00  0.00     0.134 A 
ATOM     61  C   UNL A   1      49.293  26.670  27.710  1.00  0.00     0.134 A 
ATOM     62  F   UNL A   1      48.485  25.801  31.143  1.00  0.00    -0.206 F 
ATOM     63  C   UNL A   1      50.481  25.522  29.942  1.00  0.00     0.040 A 
ATOM     64  C   UNL A   1      50.614  26.223  27.644  1.00  0.00     0.040 A 
ATOM     65  F   UNL A   1      48.763  27.227  26.610  1.00  0.00    -0.206 F 
ATOM     66  C   UNL A   1      51.214  25.654  28.765  1.00  0.00     0.006 A 
ENDBRANCH  45  59
BRANCH  46  67
ATOM     67  C   UNL A   1      38.878  29.079  29.254  1.00  0.00     0.057 A 
ATOM     68  C   UNL A   1      38.161  28.961  30.450  1.00  0.00     0.134 A 
ATOM     69  C   UNL A   1      38.188  29.554  28.133  1.00  0.00     0.134 A 
ATOM     70  F   UNL A   1      38.761  28.496  31.555  1.00  0.00    -0.206 F 
ATOM     71  C   UNL A   1      36.803  29.277  30.523  1.00  0.00     0.040 A 
ATOM     72  C   UNL A   1      36.838  29.902  28.199  1.00  0.00     0.040 A 
ATOM     73  F   UNL A   1      38.820  29.700  26.958  1.00  0.00    -0.206 F 
ATOM     74  C   UNL A   1      36.139  29.754  29.395  1.00  0.00     0.006 A 
ENDBRANCH  46  67
BRANCH  58  75
ATOM     75  C   UNL A   1      44.812  32.555  30.333  1.00  0.00     0.057 A 
ATOM     76  C   UNL A   1      44.970  32.984  31.657  1.00  0.00     0.134 A 
ATOM     77  C   UNL A   1      44.952  33.515  29.323  1.00  0.00     0.134 A 
ATOM     78  F   UNL A   1      44.837  32.119  32.674  1.00  0.00    -0.206 F 
ATOM     79  C   UNL A   1      45.220  34.322  31.965  1.00  0.00     0.040 A 
ATOM     80  C   UNL A   1      45.235  34.849  29.615  1.00  0.00     0.040 A 
ATOM     81  F   UNL A   1      44.826  33.171  28.032  1.00  0.00    -0.206 F 
ATOM     82  C   UNL A   1      45.359  35.258  30.941  1.00  0.00     0.006 A 
ENDBRANCH  58  75
ENDBRANCH  32  33
ENDBRANCH  24  27
ENDBRANCH  22  23
ENDBRANCH  21  22
ENDBRANCH   1  21
TORSDOF 16
ENDMDL
MODEL 3
REMARK VINA RESULT:      -9.8      5.010      9.881
REMARK SMILES CCCCS[C@@H]1CC[C@@]([NH2+]CC)(C(=O)NCCCNC(=O)c2ccc(-c3c4nc(c(-c5c(F)cccc5F)c5ccc([nH]5)c(-c5c(F)cccc5F)c5nc(c(-c6c(F)cccc6F)c6ccc3[nH]6)C=C5)C=C4)cc2)C1
REMARK SMILES IDX 16 1 15 2 13 3 14 4 9 6 6 7 7 8 76 9 8 10 5 11 4 12 3 13
REMARK SMILES IDX 2 14 1 15 10 16 11 19 12 20 17 21 18 22 19 23 20 24 21 26
REMARK SMILES IDX 22 27 23 28 75 29 24 30 74 31 25 32 26 33 27 34 68 35 28 36
REMARK SMILES IDX 73 37 67 38 69 39 29 40 72 41 66 42 65 43 30 45 56 46 39 47
REMARK SMILES IDX 55 48 40 49 43 50 54 51 70 52 41 53 42 54 53 56 71 57 44 58
REMARK SMILES IDX 31 59 32 60 37 61 33 62 34 63 36 64 38 65 35 66 57 67 58 68
REMARK SMILES IDX 63 69 59 70 60 71 62 72 64 73 61 74 45 75 46 76 51 77 47 78
REMARK SMILES IDX 48 79 50 80 52 81 49 82
REMARK H PARENT 15 5 10 17 10 18 19 25 69 44 43 55
REMARK Flexibility Score: inf
ROOT
ATOM      1  C   UNL A   1      37.220  20.593  24.742  1.00  0.00     0.118 C 
ENDROOT
BRANCH   1   2
ATOM      2  N   UNL A   1      37.742  21.925  25.011  1.00  0.00    -0.351 N 
ATOM      3  C   UNL A   1      37.101  23.047  25.462  1.00  0.00     0.281 C 
ATOM      4  O   UNL A   1      37.778  24.066  25.616  1.00  0.00    -0.268 OA
ATOM      5  H   UNL A   1      38.706  22.035  24.842  1.00  0.00     0.163 HD
BRANCH   3   6
ATOM      6  C   UNL A   1      35.575  23.017  25.768  1.00  0.00     0.176 C 
ATOM      7  C   UNL A   1      34.586  24.636  24.221  1.00  0.00     0.053 C 
ATOM      8  C   UNL A   1      34.507  23.261  23.561  1.00  0.00     0.022 C 
ATOM      9  C   UNL A   1      34.910  24.403  25.692  1.00  0.00     0.093 C 
ATOM     10  C   UNL A   1      34.852  22.243  24.647  1.00  0.00     0.080 C 
BRANCH   7  11
ATOM     11  S   UNL A   1      33.169  25.722  23.780  1.00  0.00    -0.158 SA
BRANCH  11  12
ATOM     12  C   UNL A   1      32.587  26.482  25.345  1.00  0.00     0.070 C 
BRANCH  12  13
ATOM     13  C   UNL A   1      32.873  27.980  25.508  1.00  0.00     0.011 C 
BRANCH  13  14
ATOM     14  C   UNL A   1      32.802  28.537  26.925  1.00  0.00    -0.003 C 
ATOM     15  C   UNL A   1      31.550  28.146  27.694  1.00  0.00     0.004 C 
ENDBRANCH  13  14
ENDBRANCH  12  13
ENDBRANCH  11  12
ENDBRANCH   7  11
BRANCH   6  16
ATOM     16  N   UNL A   1      35.318  22.369  27.082  1.00  0.00    -0.334 N 
ATOM     17  H   UNL A   1      35.336  23.100  27.793  1.00  0.00     0.347 HD
ATOM     18  H   UNL A   1      36.046  21.660  27.171  1.00  0.00     0.347 HD
BRANCH  16  19
ATOM     19  C   UNL A   1      34.059  21.638  27.234  1.00  0.00     0.257 C 
ATOM     20  C   UNL A   1      32.948  22.411  27.928  1.00  0.00     0.071 C 
ENDBRANCH  16  19
ENDBRANCH   6  16
ENDBRANCH   3   6
ENDBRANCH   1   2
BRANCH   1  21
ATOM     21  C   UNL A   1      38.285  19.516  24.910  1.00  0.00     0.042 C 
BRANCH  21  22
ATOM     22  C   UNL A   1      39.301  19.826  25.995  1.00  0.00     0.118 C 
BRANCH  22  23
ATOM     23  N   UNL A   1      40.504  19.017  25.878  1.00  0.00    -0.352 N 
ATOM     24  C   UNL A   1      41.819  19.389  25.985  1.00  0.00     0.251 C 
ATOM     25  H   UNL A   1      40.351  18.062  25.696  1.00  0.00     0.163 HD
ATOM     26  O   UNL A   1      42.704  18.599  25.660  1.00  0.00    -0.269 OA
BRANCH  24  27
ATOM     27  C   UNL A   1      42.178  20.740  26.466  1.00  0.00     0.039 A 
ATOM     28  C   UNL A   1      42.484  21.729  25.527  1.00  0.00     0.014 A 
ATOM     29  C   UNL A   1      42.235  21.032  27.831  1.00  0.00     0.014 A 
ATOM     30  C   UNL A   1      42.801  23.017  25.958  1.00  0.00     0.010 A 
ATOM     31  C   UNL A   1      42.454  22.340  28.255  1.00  0.00     0.010 A 
ATOM     32  C   UNL A   1      42.760  23.341  27.324  1.00  0.00    -0.014 A 
BRANCH  32  33
ATOM     33  C   UNL A   1      43.068  24.715  27.795  1.00  0.00     0.031 A 
ATOM     34  C   UNL A   1      44.498  25.152  27.971  1.00  0.00     0.074 A 
ATOM     35  C   UNL A   1      42.062  25.558  28.103  1.00  0.00     0.049 A 
ATOM     36  N   UNL A   1      44.967  26.297  28.400  1.00  0.00    -0.248 NA
ATOM     37  C   UNL A   1      45.540  24.163  27.650  1.00  0.00     0.031 C 
ATOM     38  C   UNL A   1      40.635  25.238  28.023  1.00  0.00     0.029 A 
ATOM     39  N   UNL A   1      42.086  26.855  28.548  1.00  0.00    -0.354 N 
ATOM     40  C   UNL A   1      46.350  26.160  28.410  1.00  0.00     0.074 A 
ATOM     41  C   UNL A   1      46.643  24.802  28.007  1.00  0.00     0.031 C 
ATOM     42  C   UNL A   1      39.923  26.320  28.373  1.00  0.00     0.029 A 
ATOM     43  C   UNL A   1      40.838  27.395  28.740  1.00  0.00     0.049 A 
ATOM     44  H   UNL A   1      42.921  27.352  28.713  1.00  0.00     0.167 HD
ATOM     45  C   UNL A   1      47.292  27.088  28.700  1.00  0.00     0.037 A 
ATOM     46  C   UNL A   1      40.474  28.618  29.169  1.00  0.00     0.037 A 
ATOM     47  C   UNL A   1      46.998  28.445  29.081  1.00  0.00     0.049 A 
ATOM     48  C   UNL A   1      41.540  29.630  29.490  1.00  0.00     0.074 A 
ATOM     49  C   UNL A   1      47.881  29.476  29.348  1.00  0.00     0.029 A 
ATOM     50  N   UNL A   1      45.721  28.957  29.252  1.00  0.00    -0.354 N 
ATOM     51  N   UNL A   1      42.844  29.506  29.429  1.00  0.00    -0.248 NA
ATOM     52  C   UNL A   1      41.082  30.954  29.929  1.00  0.00     0.031 C 
ATOM     53  C   UNL A   1      47.139  30.599  29.729  1.00  0.00     0.029 A 
ATOM     54  C   UNL A   1      45.793  30.285  29.640  1.00  0.00     0.049 A 
ATOM     55  H   UNL A   1      44.886  28.452  29.117  1.00  0.00     0.167 HD
ATOM     56  C   UNL A   1      43.360  30.746  29.787  1.00  0.00     0.074 A 
ATOM     57  C   UNL A   1      42.227  31.609  30.048  1.00  0.00     0.031 C 
ATOM     58  C   UNL A   1      44.656  31.135  29.887  1.00  0.00     0.037 A 
BRANCH  45  59
ATOM     59  C   UNL A   1      48.731  26.665  28.613  1.00  0.00     0.057 A 
ATOM     60  C   UNL A   1      49.422  26.156  29.722  1.00  0.00     0.134 A 
ATOM     61  C   UNL A   1      49.428  26.738  27.400  1.00  0.00     0.134 A 
ATOM     62  F   UNL A   1      48.820  26.071  30.918  1.00  0.00    -0.206 F 
ATOM     63  C   UNL A   1      50.759  25.766  29.635  1.00  0.00     0.040 A 
ATOM     64  C   UNL A   1      50.756  26.321  27.293  1.00  0.00     0.040 A 
ATOM     65  F   UNL A   1      48.827  27.209  26.297  1.00  0.00    -0.206 F 
ATOM     66  C   UNL A   1      51.428  25.840  28.415  1.00  0.00     0.006 A 
ENDBRANCH  45  59
BRANCH  46  67
ATOM     67  C   UNL A   1      39.035  28.968  29.290  1.00  0.00     0.057 A 
ATOM     68  C   UNL A   1      38.336  29.537  28.219  1.00  0.00     0.134 A 
ATOM     69  C   UNL A   1      38.330  28.762  30.482  1.00  0.00     0.134 A 
ATOM     70  F   UNL A   1      38.960  29.775  27.056  1.00  0.00    -0.206 F 
ATOM     71  C   UNL A   1      36.996  29.911  28.335  1.00  0.00     0.040 A 
ATOM     72  C   UNL A   1      36.983  29.104  30.603  1.00  0.00     0.040 A 
ATOM     73  F   UNL A   1      38.939  28.212  31.543  1.00  0.00    -0.206 F 
ATOM     74  C   UNL A   1      36.315  29.690  29.530  1.00  0.00     0.006 A 
ENDBRANCH  46  67
BRANCH  58  75
ATOM     75  C   UNL A   1      44.914  32.571  30.245  1.00  0.00     0.057 A 
ATOM     76  C   UNL A   1      45.113  32.987  31.567  1.00  0.00     0.134 A 
ATOM     77  C   UNL A   1      44.988  33.548  29.243  1.00  0.00     0.134 A 
ATOM     78  F   UNL A   1      45.044  32.104  32.576  1.00  0.00    -0.206 F 
ATOM     79  C   UNL A   1      45.340  34.327  31.885  1.00  0.00     0.040 A 
ATOM     80  C   UNL A   1      45.248  34.886  29.544  1.00  0.00     0.040 A 
ATOM     81  F   UNL A   1      44.820  33.218  27.954  1.00  0.00    -0.206 F 
ATOM     82  C   UNL A   1      45.414  35.280  30.870  1.00  0.00     0.006 A 
ENDBRANCH  58  75
ENDBRANCH  32  33
ENDBRANCH  24  27
ENDBRANCH  22  23
ENDBRANCH  21  22
ENDBRANCH   1  21
TORSDOF 16
ENDMDL
