MODEL 1
REMARK VINA RESULT:     -11.9      0.000      0.000
REMARK SMILES Cc1ccc2nc(C(=O)NCCCNC(=O)c3ccc(-c4c5nc(c(-c6c(F)cccc6F)c6ccc([nH]6)c(-c6c(F)cccc6F)c6nc(c(-c7c(F)cccc7F)c7ccc4[nH]7)C=C6)C=C5)cc3)cc(N3CCOCC3)c2c1
REMARK SMILES IDX 12 1 11 2 10 3 8 4 9 5 7 7 1 8 2 9 3 10 80 11 4 12 79 13
REMARK SMILES IDX 5 14 72 15 6 16 71 17 73 18 74 19 78 20 75 21 77 22 76 23
REMARK SMILES IDX 13 24 14 25 15 26 16 28 17 29 18 30 70 31 19 32 69 33 20 34
REMARK SMILES IDX 21 35 22 36 63 37 23 38 68 39 62 40 64 41 24 42 67 43 61 44
REMARK SMILES IDX 60 45 25 47 51 48 34 49 50 50 35 51 38 52 49 53 65 54 36 55
REMARK SMILES IDX 37 56 48 58 66 59 39 60 26 61 27 62 32 63 28 64 29 65 31 66
REMARK SMILES IDX 33 67 30 68 52 69 53 70 58 71 54 72 55 73 57 74 59 75 56 76
REMARK SMILES IDX 40 77 41 78 46 79 42 80 43 81 45 82 47 83 44 84
REMARK H PARENT 10 6 14 27 64 46 38 57
REMARK Flexibility Score: inf
ROOT
ATOM      1  C   UNL A   1      33.735  28.098  25.724  1.00  0.00     0.042 C 
ENDROOT
BRANCH   1   2
ATOM      2  C   UNL A   1      33.517  26.646  25.295  1.00  0.00     0.118 C 
BRANCH   2   3
ATOM      3  N   UNL A   1      32.513  26.004  26.120  1.00  0.00    -0.351 N 
ATOM      4  C   UNL A   1      32.313  24.699  26.513  1.00  0.00     0.269 C 
ATOM      5  O   UNL A   1      31.345  24.505  27.253  1.00  0.00    -0.268 OA
ATOM      6  H   UNL A   1      31.835  26.627  26.470  1.00  0.00     0.163 HD
BRANCH   4   7
ATOM      7  C   UNL A   1      33.206  23.550  26.124  1.00  0.00     0.130 A 
ATOM      8  C   UNL A   1      38.449  19.987  24.808  1.00  0.00     0.044 C 
ATOM      9  C   UNL A   1      37.411  20.999  25.189  1.00  0.00    -0.050 A 
ATOM     10  C   UNL A   1      37.762  22.250  25.686  1.00  0.00     0.005 A 
ATOM     11  C   UNL A   1      36.053  20.695  25.045  1.00  0.00     0.016 A 
ATOM     12  C   UNL A   1      36.767  23.173  26.019  1.00  0.00     0.029 A 
ATOM     13  C   UNL A   1      35.038  21.605  25.425  1.00  0.00     0.024 A 
ATOM     14  C   UNL A   1      35.416  22.878  25.892  1.00  0.00     0.073 A 
ATOM     15  C   UNL A   1      33.651  21.313  25.347  1.00  0.00     0.049 A 
ATOM     16  N   UNL A   1      34.530  23.827  26.215  1.00  0.00    -0.242 NA
ATOM     17  C   UNL A   1      32.745  22.302  25.741  1.00  0.00     0.060 A 
BRANCH  15  18
ATOM     18  N   UNL A   1      33.193  20.078  24.889  1.00  0.00    -0.366 N 
ATOM     19  C   UNL A   1      32.888  19.040  25.892  1.00  0.00     0.145 C 
ATOM     20  C   UNL A   1      32.363  19.993  23.677  1.00  0.00     0.145 C 
ATOM     21  C   UNL A   1      32.959  17.659  25.219  1.00  0.00     0.181 C 
ATOM     22  C   UNL A   1      32.449  18.570  23.101  1.00  0.00     0.181 C 
ATOM     23  O   UNL A   1      32.083  17.582  24.080  1.00  0.00    -0.378 OA
ENDBRANCH  15  18
ENDBRANCH   4   7
ENDBRANCH   2   3
ENDBRANCH   1   2
BRANCH   1  24
ATOM     24  C   UNL A   1      33.537  28.325  27.222  1.00  0.00     0.118 C 
BRANCH  24  25
ATOM     25  N   UNL A   1      33.512  29.740  27.553  1.00  0.00    -0.352 N 
ATOM     26  C   UNL A   1      34.462  30.530  28.147  1.00  0.00     0.251 C 
ATOM     27  H   UNL A   1      32.679  30.207  27.311  1.00  0.00     0.163 HD
ATOM     28  O   UNL A   1      34.146  31.648  28.543  1.00  0.00    -0.269 OA
BRANCH  26  29
ATOM     29  C   UNL A   1      35.856  30.061  28.323  1.00  0.00     0.039 A 
ATOM     30  C   UNL A   1      36.241  29.581  29.580  1.00  0.00     0.014 A 
ATOM     31  C   UNL A   1      36.804  30.167  27.301  1.00  0.00     0.014 A 
ATOM     32  C   UNL A   1      37.562  29.186  29.804  1.00  0.00     0.010 A 
ATOM     33  C   UNL A   1      38.109  29.715  27.507  1.00  0.00     0.010 A 
ATOM     34  C   UNL A   1      38.504  29.238  28.766  1.00  0.00    -0.014 A 
BRANCH  34  35
ATOM     35  C   UNL A   1      39.913  28.828  28.994  1.00  0.00     0.031 A 
ATOM     36  C   UNL A   1      40.883  29.777  29.644  1.00  0.00     0.074 A 
ATOM     37  C   UNL A   1      40.329  27.615  28.584  1.00  0.00     0.049 A 
ATOM     38  N   UNL A   1      42.159  29.618  29.887  1.00  0.00    -0.248 NA
ATOM     39  C   UNL A   1      40.353  31.088  30.051  1.00  0.00     0.031 C 
ATOM     40  C   UNL A   1      39.497  26.620  27.907  1.00  0.00     0.029 A 
ATOM     41  N   UNL A   1      41.560  27.017  28.670  1.00  0.00    -0.354 N 
ATOM     42  C   UNL A   1      42.588  30.811  30.457  1.00  0.00     0.074 A 
ATOM     43  C   UNL A   1      41.446  31.700  30.484  1.00  0.00     0.031 C 
ATOM     44  C   UNL A   1      40.235  25.526  27.658  1.00  0.00     0.029 A 
ATOM     45  C   UNL A   1      41.597  25.754  28.133  1.00  0.00     0.049 A 
ATOM     46  H   UNL A   1      42.343  27.451  29.080  1.00  0.00     0.167 HD
ATOM     47  C   UNL A   1      43.815  31.131  30.932  1.00  0.00     0.037 A 
ATOM     48  C   UNL A   1      42.615  24.878  28.034  1.00  0.00     0.037 A 
ATOM     49  C   UNL A   1      44.943  30.235  30.934  1.00  0.00     0.049 A 
ATOM     50  C   UNL A   1      43.960  25.247  28.591  1.00  0.00     0.074 A 
ATOM     51  C   UNL A   1      46.214  30.447  31.439  1.00  0.00     0.029 A 
ATOM     52  N   UNL A   1      44.930  28.952  30.409  1.00  0.00    -0.354 N 
ATOM     53  N   UNL A   1      44.336  26.358  29.174  1.00  0.00    -0.248 NA
ATOM     54  C   UNL A   1      45.019  24.234  28.485  1.00  0.00     0.031 C 
ATOM     55  C   UNL A   1      46.979  29.301  31.193  1.00  0.00     0.029 A 
ATOM     56  C   UNL A   1      46.173  28.364  30.569  1.00  0.00     0.049 A 
ATOM     57  H   UNL A   1      44.153  28.523  29.984  1.00  0.00     0.167 HD
ATOM     58  C   UNL A   1      45.665  26.170  29.530  1.00  0.00     0.074 A 
ATOM     59  C   UNL A   1      46.026  24.833  29.107  1.00  0.00     0.031 C 
ATOM     60  C   UNL A   1      46.511  27.028  30.150  1.00  0.00     0.037 A 
BRANCH  47  61
ATOM     61  C   UNL A   1      43.999  32.509  31.497  1.00  0.00     0.057 A 
ATOM     62  C   UNL A   1      43.817  32.778  32.859  1.00  0.00     0.134 A 
ATOM     63  C   UNL A   1      44.386  33.574  30.674  1.00  0.00     0.134 A 
ATOM     64  F   UNL A   1      43.434  31.804  33.699  1.00  0.00    -0.206 F 
ATOM     65  C   UNL A   1      43.988  34.062  33.379  1.00  0.00     0.040 A 
ATOM     66  C   UNL A   1      44.584  34.857  31.186  1.00  0.00     0.040 A 
ATOM     67  F   UNL A   1      44.583  33.384  29.361  1.00  0.00    -0.206 F 
ATOM     68  C   UNL A   1      44.379  35.106  32.542  1.00  0.00     0.006 A 
ENDBRANCH  47  61
BRANCH  48  69
ATOM     69  C   UNL A   1      42.389  23.550  27.412  1.00  0.00     0.057 A 
ATOM     70  C   UNL A   1      42.534  23.369  26.032  1.00  0.00     0.134 A 
ATOM     71  C   UNL A   1      42.026  22.435  28.176  1.00  0.00     0.134 A 
ATOM     72  F   UNL A   1      42.863  24.404  25.246  1.00  0.00    -0.206 F 
ATOM     73  C   UNL A   1      42.308  22.130  25.430  1.00  0.00     0.040 A 
ATOM     74  C   UNL A   1      41.818  21.186  27.592  1.00  0.00     0.040 A 
ATOM     75  F   UNL A   1      41.880  22.545  29.505  1.00  0.00    -0.206 F 
ATOM     76  C   UNL A   1      41.954  21.032  26.213  1.00  0.00     0.006 A 
ENDBRANCH  48  69
BRANCH  60  77
ATOM     77  C   UNL A   1      47.895  26.529  30.441  1.00  0.00     0.057 A 
ATOM     78  C   UNL A   1      48.948  26.707  29.536  1.00  0.00     0.134 A 
ATOM     79  C   UNL A   1      48.180  25.887  31.652  1.00  0.00     0.134 A 
ATOM     80  F   UNL A   1      48.736  27.302  28.353  1.00  0.00    -0.206 F 
ATOM     81  C   UNL A   1      50.235  26.241  29.816  1.00  0.00     0.040 A 
ATOM     82  C   UNL A   1      49.466  25.438  31.953  1.00  0.00     0.040 A 
ATOM     83  F   UNL A   1      47.217  25.694  32.564  1.00  0.00    -0.206 F 
ATOM     84  C   UNL A   1      50.497  25.610  31.030  1.00  0.00     0.006 A 
ENDBRANCH  60  77
ENDBRANCH  34  35
ENDBRANCH  26  29
ENDBRANCH  24  25
ENDBRANCH   1  24
TORSDOF 11
ENDMDL
MODEL 2
REMARK VINA RESULT:     -11.9      3.242      8.633
REMARK SMILES Cc1ccc2nc(C(=O)NCCCNC(=O)c3ccc(-c4c5nc(c(-c6c(F)cccc6F)c6ccc([nH]6)c(-c6c(F)cccc6F)c6nc(c(-c7c(F)cccc7F)c7ccc4[nH]7)C=C6)C=C5)cc3)cc(N3CCOCC3)c2c1
REMARK SMILES IDX 12 1 11 2 10 3 8 4 9 5 7 7 1 8 2 9 3 10 80 11 4 12 79 13
REMARK SMILES IDX 5 14 72 15 6 16 71 17 73 18 74 19 78 20 75 21 77 22 76 23
REMARK SMILES IDX 13 24 14 25 15 26 16 28 17 29 18 30 70 31 19 32 69 33 20 34
REMARK SMILES IDX 21 35 22 36 63 37 23 38 68 39 62 40 64 41 24 42 67 43 61 44
REMARK SMILES IDX 60 45 25 47 51 48 34 49 50 50 35 51 38 52 49 53 65 54 36 55
REMARK SMILES IDX 37 56 48 58 66 59 39 60 26 61 27 62 32 63 28 64 29 65 31 66
REMARK SMILES IDX 33 67 30 68 52 69 53 70 58 71 54 72 55 73 57 74 59 75 56 76
REMARK SMILES IDX 40 77 41 78 46 79 42 80 43 81 45 82 47 83 44 84
REMARK H PARENT 10 6 14 27 64 46 38 57
REMARK Flexibility Score: inf
ROOT
ATOM      1  C   UNL A   1      35.757  23.520  25.990  1.00  0.00     0.042 C 
ENDROOT
BRANCH   1   2
ATOM      2  C   UNL A   1      34.541  24.350  25.576  1.00  0.00     0.118 C 
BRANCH   2   3
ATOM      3  N   UNL A   1      34.432  24.432  24.133  1.00  0.00    -0.351 N 
ATOM      4  C   UNL A   1      33.864  25.356  23.284  1.00  0.00     0.269 C 
ATOM      5  O   UNL A   1      33.976  25.117  22.080  1.00  0.00    -0.268 OA
ATOM      6  H   UNL A   1      34.847  23.672  23.664  1.00  0.00     0.163 HD
BRANCH   4   7
ATOM      7  C   UNL A   1      33.170  26.613  23.741  1.00  0.00     0.130 A 
ATOM      8  C   UNL A   1      31.651  31.959  27.061  1.00  0.00     0.044 C 
ATOM      9  C   UNL A   1      32.219  30.714  26.451  1.00  0.00    -0.050 A 
ATOM     10  C   UNL A   1      33.415  30.163  26.899  1.00  0.00     0.005 A 
ATOM     11  C   UNL A   1      31.541  30.076  25.406  1.00  0.00     0.016 A 
ATOM     12  C   UNL A   1      33.908  28.993  26.314  1.00  0.00     0.029 A 
ATOM     13  C   UNL A   1      32.056  28.919  24.775  1.00  0.00     0.024 A 
ATOM     14  C   UNL A   1      33.250  28.359  25.269  1.00  0.00     0.073 A 
ATOM     15  C   UNL A   1      31.428  28.277  23.676  1.00  0.00     0.049 A 
ATOM     16  N   UNL A   1      33.781  27.233  24.780  1.00  0.00    -0.242 NA
ATOM     17  C   UNL A   1      32.031  27.131  23.148  1.00  0.00     0.060 A 
BRANCH  15  18
ATOM     18  N   UNL A   1      30.240  28.764  23.132  1.00  0.00    -0.366 N 
ATOM     19  C   UNL A   1      30.334  29.668  21.970  1.00  0.00     0.145 C 
ATOM     20  C   UNL A   1      29.020  27.941  23.146  1.00  0.00     0.145 C 
ATOM     21  C   UNL A   1      29.049  30.509  21.887  1.00  0.00     0.181 C 
ATOM     22  C   UNL A   1      27.791  28.853  23.005  1.00  0.00     0.181 C 
ATOM     23  O   UNL A   1      27.877  29.676  21.830  1.00  0.00    -0.378 OA
ENDBRANCH  15  18
ENDBRANCH   4   7
ENDBRANCH   2   3
ENDBRANCH   1   2
BRANCH   1  24
ATOM     24  C   UNL A   1      36.975  23.738  25.093  1.00  0.00     0.118 C 
BRANCH  24  25
ATOM     25  N   UNL A   1      38.050  22.813  25.411  1.00  0.00    -0.352 N 
ATOM     26  C   UNL A   1      39.233  23.019  26.073  1.00  0.00     0.251 C 
ATOM     27  H   UNL A   1      37.906  21.889  25.102  1.00  0.00     0.163 HD
ATOM     28  O   UNL A   1      40.100  22.152  26.029  1.00  0.00    -0.269 OA
BRANCH  26  29
ATOM     29  C   UNL A   1      39.484  24.265  26.834  1.00  0.00     0.039 A 
ATOM     30  C   UNL A   1      40.239  25.274  26.225  1.00  0.00     0.014 A 
ATOM     31  C   UNL A   1      39.064  24.417  28.158  1.00  0.00     0.014 A 
ATOM     32  C   UNL A   1      40.550  26.438  26.931  1.00  0.00     0.010 A 
ATOM     33  C   UNL A   1      39.323  25.606  28.842  1.00  0.00     0.010 A 
ATOM     34  C   UNL A   1      40.084  26.620  28.241  1.00  0.00    -0.014 A 
BRANCH  34  35
ATOM     35  C   UNL A   1      40.413  27.850  29.004  1.00  0.00     0.031 A 
ATOM     36  C   UNL A   1      41.752  27.988  29.678  1.00  0.00     0.074 A 
ATOM     37  C   UNL A   1      39.496  28.829  29.121  1.00  0.00     0.049 A 
ATOM     38  N   UNL A   1      42.207  28.964  30.423  1.00  0.00    -0.248 NA
ATOM     39  C   UNL A   1      42.693  26.869  29.515  1.00  0.00     0.031 C 
ATOM     40  C   UNL A   1      38.150  28.799  28.547  1.00  0.00     0.029 A 
ATOM     41  N   UNL A   1      39.556  30.036  29.767  1.00  0.00    -0.354 N 
ATOM     42  C   UNL A   1      43.475  28.570  30.830  1.00  0.00     0.074 A 
ATOM     43  C   UNL A   1      43.702  27.248  30.286  1.00  0.00     0.031 C 
ATOM     44  C   UNL A   1      37.518  29.944  28.850  1.00  0.00     0.029 A 
ATOM     45  C   UNL A   1      38.404  30.775  29.660  1.00  0.00     0.049 A 
ATOM     46  H   UNL A   1      40.350  30.345  30.261  1.00  0.00     0.167 HD
ATOM     47  C   UNL A   1      44.378  29.253  31.573  1.00  0.00     0.037 A 
ATOM     48  C   UNL A   1      38.096  31.987  30.159  1.00  0.00     0.037 A 
ATOM     49  C   UNL A   1      44.165  30.581  32.088  1.00  0.00     0.049 A 
ATOM     50  C   UNL A   1      39.123  32.737  30.960  1.00  0.00     0.074 A 
ATOM     51  C   UNL A   1      45.036  31.379  32.809  1.00  0.00     0.029 A 
ATOM     52  N   UNL A   1      42.995  31.309  31.930  1.00  0.00    -0.354 N 
ATOM     53  N   UNL A   1      40.337  32.373  31.292  1.00  0.00    -0.248 NA
ATOM     54  C   UNL A   1      38.739  34.069  31.445  1.00  0.00     0.031 C 
ATOM     55  C   UNL A   1      44.383  32.579  33.112  1.00  0.00     0.029 A 
ATOM     56  C   UNL A   1      43.119  32.542  32.548  1.00  0.00     0.049 A 
ATOM     57  H   UNL A   1      42.195  30.994  31.451  1.00  0.00     0.167 HD
ATOM     58  C   UNL A   1      40.873  33.441  32.000  1.00  0.00     0.074 A 
ATOM     59  C   UNL A   1      39.855  34.470  32.040  1.00  0.00     0.031 C 
ATOM     60  C   UNL A   1      42.098  33.558  32.568  1.00  0.00     0.037 A 
BRANCH  47  61
ATOM     61  C   UNL A   1      45.684  28.576  31.869  1.00  0.00     0.057 A 
ATOM     62  C   UNL A   1      46.790  28.705  31.019  1.00  0.00     0.134 A 
ATOM     63  C   UNL A   1      45.846  27.807  33.028  1.00  0.00     0.134 A 
ATOM     64  F   UNL A   1      46.697  29.417  29.885  1.00  0.00    -0.206 F 
ATOM     65  C   UNL A   1      48.003  28.071  31.297  1.00  0.00     0.040 A 
ATOM     66  C   UNL A   1      47.061  27.189  33.329  1.00  0.00     0.040 A 
ATOM     67  F   UNL A   1      44.829  27.647  33.887  1.00  0.00    -0.206 F 
ATOM     68  C   UNL A   1      48.142  27.315  32.459  1.00  0.00     0.006 A 
ENDBRANCH  47  61
BRANCH  48  69
ATOM     69  C   UNL A   1      36.766  32.584  29.884  1.00  0.00     0.057 A 
ATOM     70  C   UNL A   1      35.667  32.301  30.704  1.00  0.00     0.134 A 
ATOM     71  C   UNL A   1      36.559  33.447  28.802  1.00  0.00     0.134 A 
ATOM     72  F   UNL A   1      35.800  31.467  31.746  1.00  0.00    -0.206 F 
ATOM     73  C   UNL A   1      34.406  32.841  30.448  1.00  0.00     0.040 A 
ATOM     74  C   UNL A   1      35.309  34.011  28.546  1.00  0.00     0.040 A 
ATOM     75  F   UNL A   1      37.575  33.763  27.985  1.00  0.00    -0.206 F 
ATOM     76  C   UNL A   1      34.226  33.703  29.368  1.00  0.00     0.006 A 
ENDBRANCH  48  69
BRANCH  60  77
ATOM     77  C   UNL A   1      42.413  34.858  33.245  1.00  0.00     0.057 A 
ATOM     78  C   UNL A   1      42.058  35.101  34.578  1.00  0.00     0.134 A 
ATOM     79  C   UNL A   1      43.104  35.867  32.563  1.00  0.00     0.134 A 
ATOM     80  F   UNL A   1      41.383  34.180  35.281  1.00  0.00    -0.206 F 
ATOM     81  C   UNL A   1      42.358  36.314  35.201  1.00  0.00     0.040 A 
ATOM     82  C   UNL A   1      43.430  37.074  33.181  1.00  0.00     0.040 A 
ATOM     83  F   UNL A   1      43.479  35.692  31.287  1.00  0.00    -0.206 F 
ATOM     84  C   UNL A   1      43.051  37.302  34.503  1.00  0.00     0.006 A 
ENDBRANCH  60  77
ENDBRANCH  34  35
ENDBRANCH  26  29
ENDBRANCH  24  25
ENDBRANCH   1  24
TORSDOF 11
ENDMDL
MODEL 3
REMARK VINA RESULT:     -11.9      3.288      8.599
REMARK SMILES Cc1ccc2nc(C(=O)NCCCNC(=O)c3ccc(-c4c5nc(c(-c6c(F)cccc6F)c6ccc([nH]6)c(-c6c(F)cccc6F)c6nc(c(-c7c(F)cccc7F)c7ccc4[nH]7)C=C6)C=C5)cc3)cc(N3CCOCC3)c2c1
REMARK SMILES IDX 12 1 11 2 10 3 8 4 9 5 7 7 1 8 2 9 3 10 80 11 4 12 79 13
REMARK SMILES IDX 5 14 72 15 6 16 71 17 73 18 74 19 78 20 75 21 77 22 76 23
REMARK SMILES IDX 13 24 14 25 15 26 16 28 17 29 18 30 70 31 19 32 69 33 20 34
REMARK SMILES IDX 21 35 22 36 63 37 23 38 68 39 62 40 64 41 24 42 67 43 61 44
REMARK SMILES IDX 60 45 25 47 51 48 34 49 50 50 35 51 38 52 49 53 65 54 36 55
REMARK SMILES IDX 37 56 48 58 66 59 39 60 26 61 27 62 32 63 28 64 29 65 31 66
REMARK SMILES IDX 33 67 30 68 52 69 53 70 58 71 54 72 55 73 57 74 59 75 56 76
REMARK SMILES IDX 40 77 41 78 46 79 42 80 43 81 45 82 47 83 44 84
REMARK H PARENT 10 6 14 27 64 46 38 57
REMARK Flexibility Score: inf
ROOT
ATOM      1  C   UNL A   1      35.208  23.304  26.306  1.00  0.00     0.042 C 
ENDROOT
BRANCH   1   2
ATOM      2  C   UNL A   1      34.087  24.195  25.771  1.00  0.00     0.118 C 
BRANCH   2   3
ATOM      3  N   UNL A   1      34.173  24.333  24.330  1.00  0.00    -0.351 N 
ATOM      4  C   UNL A   1      33.771  25.317  23.454  1.00  0.00     0.269 C 
ATOM      5  O   UNL A   1      34.028  25.112  22.265  1.00  0.00    -0.268 OA
ATOM      6  H   UNL A   1      34.606  23.567  23.888  1.00  0.00     0.163 HD
BRANCH   4   7
ATOM      7  C   UNL A   1      33.088  26.595  23.868  1.00  0.00     0.130 A 
ATOM      8  C   UNL A   1      31.594  32.039  27.035  1.00  0.00     0.044 C 
ATOM      9  C   UNL A   1      32.153  30.771  26.465  1.00  0.00    -0.050 A 
ATOM     10  C   UNL A   1      33.331  30.212  26.949  1.00  0.00     0.005 A 
ATOM     11  C   UNL A   1      31.485  30.120  25.422  1.00  0.00     0.016 A 
ATOM     12  C   UNL A   1      33.816  29.021  26.400  1.00  0.00     0.029 A 
ATOM     13  C   UNL A   1      31.993  28.941  24.827  1.00  0.00     0.024 A 
ATOM     14  C   UNL A   1      33.168  28.374  25.357  1.00  0.00     0.073 A 
ATOM     15  C   UNL A   1      31.375  28.283  23.731  1.00  0.00     0.049 A 
ATOM     16  N   UNL A   1      33.689  27.228  24.904  1.00  0.00    -0.242 NA
ATOM     17  C   UNL A   1      31.970  27.117  23.242  1.00  0.00     0.060 A 
BRANCH  15  18
ATOM     18  N   UNL A   1      30.206  28.777  23.154  1.00  0.00    -0.366 N 
ATOM     19  C   UNL A   1      30.338  29.685  21.998  1.00  0.00     0.145 C 
ATOM     20  C   UNL A   1      28.984  27.958  23.126  1.00  0.00     0.145 C 
ATOM     21  C   UNL A   1      29.059  30.531  21.880  1.00  0.00     0.181 C 
ATOM     22  C   UNL A   1      27.762  28.874  22.953  1.00  0.00     0.181 C 
ATOM     23  O   UNL A   1      27.886  29.702  21.783  1.00  0.00    -0.378 OA
ENDBRANCH  15  18
ENDBRANCH   4   7
ENDBRANCH   2   3
ENDBRANCH   1   2
BRANCH   1  24
ATOM     24  C   UNL A   1      36.572  23.607  25.690  1.00  0.00     0.118 C 
BRANCH  24  25
ATOM     25  N   UNL A   1      37.564  22.612  26.062  1.00  0.00    -0.352 N 
ATOM     26  C   UNL A   1      38.854  22.765  26.501  1.00  0.00     0.251 C 
ATOM     27  H   UNL A   1      37.261  21.678  25.987  1.00  0.00     0.163 HD
ATOM     28  O   UNL A   1      39.591  21.784  26.537  1.00  0.00    -0.269 OA
BRANCH  26  29
ATOM     29  C   UNL A   1      39.373  24.085  26.926  1.00  0.00     0.039 A 
ATOM     30  C   UNL A   1      39.231  24.453  28.269  1.00  0.00     0.014 A 
ATOM     31  C   UNL A   1      39.915  24.994  26.012  1.00  0.00     0.014 A 
ATOM     32  C   UNL A   1      39.652  25.714  28.698  1.00  0.00     0.010 A 
ATOM     33  C   UNL A   1      40.391  26.230  26.452  1.00  0.00     0.010 A 
ATOM     34  C   UNL A   1      40.247  26.608  27.795  1.00  0.00    -0.014 A 
BRANCH  34  35
ATOM     35  C   UNL A   1      40.692  27.954  28.238  1.00  0.00     0.031 A 
ATOM     36  C   UNL A   1      42.155  28.308  28.232  1.00  0.00     0.074 A 
ATOM     37  C   UNL A   1      39.784  28.845  28.679  1.00  0.00     0.049 A 
ATOM     38  N   UNL A   1      42.740  29.413  28.622  1.00  0.00    -0.248 NA
ATOM     39  C   UNL A   1      43.084  27.275  27.750  1.00  0.00     0.031 C 
ATOM     40  C   UNL A   1      38.343  28.609  28.769  1.00  0.00     0.029 A 
ATOM     41  N   UNL A   1      39.942  30.127  29.140  1.00  0.00    -0.354 N 
ATOM     42  C   UNL A   1      44.102  29.201  28.449  1.00  0.00     0.074 A 
ATOM     43  C   UNL A   1      44.260  27.848  27.960  1.00  0.00     0.031 C 
ATOM     44  C   UNL A   1      37.745  29.717  29.237  1.00  0.00     0.029 A 
ATOM     45  C   UNL A   1      38.763  30.729  29.503  1.00  0.00     0.049 A 
ATOM     46  H   UNL A   1      40.817  30.573  29.204  1.00  0.00     0.167 HD
ATOM     47  C   UNL A   1      45.127  30.061  28.659  1.00  0.00     0.037 A 
ATOM     48  C   UNL A   1      38.529  31.960  29.996  1.00  0.00     0.037 A 
ATOM     49  C   UNL A   1      44.968  31.417  29.115  1.00  0.00     0.049 A 
ATOM     50  C   UNL A   1      39.680  32.904  30.197  1.00  0.00     0.074 A 
ATOM     51  C   UNL A   1      45.939  32.383  29.310  1.00  0.00     0.029 A 
ATOM     52  N   UNL A   1      43.752  32.000  29.442  1.00  0.00    -0.354 N 
ATOM     53  N   UNL A   1      40.957  32.708  29.979  1.00  0.00    -0.248 NA
ATOM     54  C   UNL A   1      39.355  34.245  30.703  1.00  0.00     0.031 C 
ATOM     55  C   UNL A   1      45.314  33.543  29.783  1.00  0.00     0.029 A 
ATOM     56  C   UNL A   1      43.951  33.309  29.847  1.00  0.00     0.049 A 
ATOM     57  H   UNL A   1      42.879  31.549  29.394  1.00  0.00     0.167 HD
ATOM     58  C   UNL A   1      41.585  33.906  30.293  1.00  0.00     0.074 A 
ATOM     59  C   UNL A   1      40.547  34.827  30.706  1.00  0.00     0.031 C 
ATOM     60  C   UNL A   1      42.904  34.215  30.245  1.00  0.00     0.037 A 
BRANCH  47  61
ATOM     61  C   UNL A   1      46.516  29.559  28.390  1.00  0.00     0.057 A 
ATOM     62  C   UNL A   1      47.112  29.679  27.128  1.00  0.00     0.134 A 
ATOM     63  C   UNL A   1      47.274  28.970  29.409  1.00  0.00     0.134 A 
ATOM     64  F   UNL A   1      46.433  30.221  26.105  1.00  0.00    -0.206 F 
ATOM     65  C   UNL A   1      48.403  29.208  26.882  1.00  0.00     0.040 A 
ATOM     66  C   UNL A   1      48.576  28.518  29.182  1.00  0.00     0.040 A 
ATOM     67  F   UNL A   1      46.766  28.829  30.642  1.00  0.00    -0.206 F 
ATOM     68  C   UNL A   1      49.142  28.631  27.914  1.00  0.00     0.006 A 
ENDBRANCH  47  61
BRANCH  48  69
ATOM     69  C   UNL A   1      37.140  32.383  30.299  1.00  0.00     0.057 A 
ATOM     70  C   UNL A   1      36.577  32.150  31.560  1.00  0.00     0.134 A 
ATOM     71  C   UNL A   1      36.344  33.027  29.345  1.00  0.00     0.134 A 
ATOM     72  F   UNL A   1      37.284  31.522  32.509  1.00  0.00    -0.206 F 
ATOM     73  C   UNL A   1      35.265  32.527  31.855  1.00  0.00     0.040 A 
ATOM     74  C   UNL A   1      35.040  33.428  29.632  1.00  0.00     0.040 A 
ATOM     75  F   UNL A   1      36.831  33.285  28.122  1.00  0.00    -0.206 F 
ATOM     76  C   UNL A   1      34.495  33.173  30.890  1.00  0.00     0.006 A 
ENDBRANCH  48  69
BRANCH  60  77
ATOM     77  C   UNL A   1      43.289  35.617  30.612  1.00  0.00     0.057 A 
ATOM     78  C   UNL A   1      43.571  35.982  31.934  1.00  0.00     0.134 A 
ATOM     79  C   UNL A   1      43.403  36.605  29.626  1.00  0.00     0.134 A 
ATOM     80  F   UNL A   1      43.467  35.084  32.925  1.00  0.00    -0.206 F 
ATOM     81  C   UNL A   1      43.932  37.289  32.266  1.00  0.00     0.040 A 
ATOM     82  C   UNL A   1      43.784  37.909  29.943  1.00  0.00     0.040 A 
ATOM     83  F   UNL A   1      43.153  36.317  28.341  1.00  0.00    -0.206 F 
ATOM     84  C   UNL A   1      44.043  38.255  31.268  1.00  0.00     0.006 A 
ENDBRANCH  60  77
ENDBRANCH  34  35
ENDBRANCH  26  29
ENDBRANCH  24  25
ENDBRANCH   1  24
TORSDOF 11
ENDMDL
