MODEL 1
REMARK VINA RESULT:     -12.5      0.000      0.000
REMARK SMILES Cc1ccc([C@@H](C)Nc2ccccc2C(=O)NCCCNC(=O)c2ccc(-c3c4nc(c(-c5c(F)cccc5F)c5ccc([nH]5)c(-c5c(F)cccc5F)c5nc(c(-c6c(F)cccc6F)c6ccc3[nH]6)C=C5)C=C4)cc2)cc1F
REMARK SMILES IDX 18 1 17 2 15 3 16 4 14 6 9 7 10 8 11 9 13 10 12 11 8 12 6 14
REMARK SMILES IDX 7 15 5 16 1 17 2 18 3 19 79 20 4 21 78 22 80 23 19 24 20 25
REMARK SMILES IDX 21 26 22 27 23 29 24 30 25 31 77 32 26 33 76 34 27 35 28 36
REMARK SMILES IDX 29 37 70 38 30 39 75 40 69 41 71 42 31 43 74 44 68 45 67 46
REMARK SMILES IDX 32 48 58 49 41 50 57 51 42 52 45 53 56 54 72 55 43 56 44 57
REMARK SMILES IDX 55 59 73 60 46 61 33 62 34 63 39 64 35 65 36 66 38 67 40 68
REMARK SMILES IDX 37 69 59 70 60 71 65 72 61 73 62 74 64 75 66 76 63 77 47 78
REMARK SMILES IDX 48 79 53 80 49 81 50 82 52 83 54 84 51 85
REMARK H PARENT 17 5 8 13 21 28 71 47 45 58
REMARK Flexibility Score: inf
ROOT
ATOM      1  C   UNL A   1      32.324  28.702  27.094  1.00  0.00     0.118 C 
ENDROOT
BRANCH   1   2
ATOM      2  N   UNL A   1      31.529  27.506  27.316  1.00  0.00    -0.352 N 
ATOM      3  C   UNL A   1      31.131  26.562  26.391  1.00  0.00     0.253 C 
ATOM      4  O   UNL A   1      30.419  25.627  26.759  1.00  0.00    -0.269 OA
ATOM      5  H   UNL A   1      31.236  27.349  28.243  1.00  0.00     0.163 HD
BRANCH   3   6
ATOM      6  C   UNL A   1      31.457  26.704  24.948  1.00  0.00     0.062 A 
ATOM      7  C   UNL A   1      32.622  26.229  24.325  1.00  0.00     0.047 A 
ATOM      8  C   UNL A   1      32.917  26.739  23.042  1.00  0.00     0.026 A 
ATOM      9  C   UNL A   1      32.045  27.590  22.359  1.00  0.00     0.002 A 
ATOM     10  C   UNL A   1      30.541  27.497  24.224  1.00  0.00     0.016 A 
ATOM     11  C   UNL A   1      30.830  27.931  22.932  1.00  0.00     0.001 A 
BRANCH   7  12
ATOM     12  N   UNL A   1      33.514  25.284  24.826  1.00  0.00    -0.378 N 
ATOM     13  H   UNL A   1      34.234  25.607  25.414  1.00  0.00     0.161 HD
BRANCH  12  14
ATOM     14  C   UNL A   1      33.465  23.841  24.546  1.00  0.00     0.106 C 
ATOM     15  C   UNL A   1      32.418  23.060  25.335  1.00  0.00     0.036 C 
BRANCH  14  16
ATOM     16  C   UNL A   1      34.832  23.249  24.890  1.00  0.00    -0.023 A 
ATOM     17  C   UNL A   1      38.745  21.648  25.783  1.00  0.00     0.047 C 
ATOM     18  C   UNL A   1      37.400  22.222  25.469  1.00  0.00    -0.015 A 
ATOM     19  C   UNL A   1      37.130  23.587  25.617  1.00  0.00     0.007 A 
ATOM     20  C   UNL A   1      36.383  21.384  25.019  1.00  0.00     0.126 A 
ATOM     21  C   UNL A   1      35.860  24.095  25.329  1.00  0.00     0.006 A 
ATOM     22  C   UNL A   1      35.117  21.882  24.735  1.00  0.00     0.045 A 
ATOM     23  F   UNL A   1      36.608  20.071  24.873  1.00  0.00    -0.207 F 
ENDBRANCH  14  16
ENDBRANCH  12  14
ENDBRANCH   7  12
ENDBRANCH   3   6
ENDBRANCH   1   2
BRANCH   1  24
ATOM     24  C   UNL A   1      33.803  28.582  27.442  1.00  0.00     0.042 C 
BRANCH  24  25
ATOM     25  C   UNL A   1      34.647  29.809  27.122  1.00  0.00     0.118 C 
BRANCH  25  26
ATOM     26  N   UNL A   1      34.940  30.702  28.248  1.00  0.00    -0.352 N 
ATOM     27  C   UNL A   1      36.026  30.678  29.116  1.00  0.00     0.251 C 
ATOM     28  H   UNL A   1      34.280  31.415  28.412  1.00  0.00     0.163 HD
ATOM     29  O   UNL A   1      36.152  31.440  30.052  1.00  0.00    -0.269 OA
BRANCH  27  30
ATOM     30  C   UNL A   1      37.074  29.688  28.836  1.00  0.00     0.039 A 
ATOM     31  C   UNL A   1      37.905  29.785  27.709  1.00  0.00     0.014 A 
ATOM     32  C   UNL A   1      37.295  28.762  29.843  1.00  0.00     0.014 A 
ATOM     33  C   UNL A   1      39.067  29.018  27.668  1.00  0.00     0.010 A 
ATOM     34  C   UNL A   1      38.508  28.154  29.882  1.00  0.00     0.010 A 
ATOM     35  C   UNL A   1      39.378  28.247  28.786  1.00  0.00    -0.014 A 
BRANCH  35  36
ATOM     36  C   UNL A   1      40.605  27.499  28.992  1.00  0.00     0.031 A 
ATOM     37  C   UNL A   1      40.693  26.076  28.639  1.00  0.00     0.074 A 
ATOM     38  C   UNL A   1      41.682  28.280  29.226  1.00  0.00     0.049 A 
ATOM     39  N   UNL A   1      41.656  25.314  29.016  1.00  0.00    -0.248 NA
ATOM     40  C   UNL A   1      39.696  25.376  27.829  1.00  0.00     0.031 C 
ATOM     41  C   UNL A   1      43.097  28.041  29.022  1.00  0.00     0.029 A 
ATOM     42  N   UNL A   1      41.640  29.556  29.796  1.00  0.00    -0.354 N 
ATOM     43  C   UNL A   1      41.589  24.159  28.266  1.00  0.00     0.074 A 
ATOM     44  C   UNL A   1      40.287  24.187  27.644  1.00  0.00     0.031 C 
ATOM     45  C   UNL A   1      43.788  28.975  29.708  1.00  0.00     0.029 A 
ATOM     46  C   UNL A   1      42.831  29.722  30.513  1.00  0.00     0.049 A 
ATOM     47  H   UNL A   1      40.912  30.214  29.710  1.00  0.00     0.167 HD
ATOM     48  C   UNL A   1      42.718  23.405  28.138  1.00  0.00     0.037 A 
ATOM     49  C   UNL A   1      42.732  29.712  31.880  1.00  0.00     0.037 A 
ATOM     50  C   UNL A   1      43.821  24.036  28.857  1.00  0.00     0.049 A 
ATOM     51  C   UNL A   1      43.344  28.467  32.491  1.00  0.00     0.074 A 
ATOM     52  C   UNL A   1      44.819  24.924  28.490  1.00  0.00     0.029 A 
ATOM     53  N   UNL A   1      43.762  24.076  30.231  1.00  0.00    -0.354 N 
ATOM     54  N   UNL A   1      43.731  27.429  31.801  1.00  0.00    -0.248 NA
ATOM     55  C   UNL A   1      43.520  28.273  33.927  1.00  0.00     0.031 C 
ATOM     56  C   UNL A   1      45.320  25.534  29.679  1.00  0.00     0.029 A 
ATOM     57  C   UNL A   1      44.632  25.004  30.760  1.00  0.00     0.049 A 
ATOM     58  H   UNL A   1      43.166  23.510  30.772  1.00  0.00     0.167 HD
ATOM     59  C   UNL A   1      44.165  26.449  32.642  1.00  0.00     0.074 A 
ATOM     60  C   UNL A   1      44.004  27.018  33.969  1.00  0.00     0.031 C 
ATOM     61  C   UNL A   1      44.600  25.236  32.195  1.00  0.00     0.037 A 
BRANCH  48  62
ATOM     62  C   UNL A   1      42.922  22.228  27.221  1.00  0.00     0.057 A 
ATOM     63  C   UNL A   1      42.109  21.081  27.351  1.00  0.00     0.134 A 
ATOM     64  C   UNL A   1      43.855  22.162  26.172  1.00  0.00     0.134 A 
ATOM     65  F   UNL A   1      41.140  21.004  28.273  1.00  0.00    -0.206 F 
ATOM     66  C   UNL A   1      42.242  19.949  26.541  1.00  0.00     0.040 A 
ATOM     67  C   UNL A   1      44.022  21.019  25.373  1.00  0.00     0.040 A 
ATOM     68  F   UNL A   1      44.612  23.215  25.838  1.00  0.00    -0.206 F 
ATOM     69  C   UNL A   1      43.214  19.906  25.555  1.00  0.00     0.006 A 
ENDBRANCH  48  62
BRANCH  49  70
ATOM     70  C   UNL A   1      41.439  30.347  32.329  1.00  0.00     0.057 A 
ATOM     71  C   UNL A   1      40.442  29.498  32.856  1.00  0.00     0.134 A 
ATOM     72  C   UNL A   1      41.405  31.687  32.739  1.00  0.00     0.134 A 
ATOM     73  F   UNL A   1      40.405  28.203  32.504  1.00  0.00    -0.206 F 
ATOM     74  C   UNL A   1      39.589  29.910  33.887  1.00  0.00     0.040 A 
ATOM     75  C   UNL A   1      40.539  32.114  33.756  1.00  0.00     0.040 A 
ATOM     76  F   UNL A   1      42.300  32.568  32.270  1.00  0.00    -0.206 F 
ATOM     77  C   UNL A   1      39.673  31.212  34.372  1.00  0.00     0.006 A 
ENDBRANCH  49  70
BRANCH  61  78
ATOM     78  C   UNL A   1      45.021  24.142  33.125  1.00  0.00     0.057 A 
ATOM     79  C   UNL A   1      44.127  23.155  33.551  1.00  0.00     0.134 A 
ATOM     80  C   UNL A   1      46.307  24.103  33.699  1.00  0.00     0.134 A 
ATOM     81  F   UNL A   1      42.858  23.141  33.117  1.00  0.00    -0.206 F 
ATOM     82  C   UNL A   1      44.508  22.155  34.449  1.00  0.00     0.040 A 
ATOM     83  C   UNL A   1      46.676  23.153  34.648  1.00  0.00     0.040 A 
ATOM     84  F   UNL A   1      47.271  24.965  33.344  1.00  0.00    -0.206 F 
ATOM     85  C   UNL A   1      45.782  22.159  35.009  1.00  0.00     0.006 A 
ENDBRANCH  61  78
ENDBRANCH  35  36
ENDBRANCH  27  30
ENDBRANCH  25  26
ENDBRANCH  24  25
ENDBRANCH   1  24
TORSDOF 13
ENDMDL
MODEL 2
REMARK VINA RESULT:     -12.3      3.822      9.167
REMARK SMILES Cc1ccc([C@@H](C)Nc2ccccc2C(=O)NCCCNC(=O)c2ccc(-c3c4nc(c(-c5c(F)cccc5F)c5ccc([nH]5)c(-c5c(F)cccc5F)c5nc(c(-c6c(F)cccc6F)c6ccc3[nH]6)C=C5)C=C4)cc2)cc1F
REMARK SMILES IDX 18 1 17 2 15 3 16 4 14 6 9 7 10 8 11 9 13 10 12 11 8 12 6 14
REMARK SMILES IDX 7 15 5 16 1 17 2 18 3 19 79 20 4 21 78 22 80 23 19 24 20 25
REMARK SMILES IDX 21 26 22 27 23 29 24 30 25 31 77 32 26 33 76 34 27 35 28 36
REMARK SMILES IDX 29 37 70 38 30 39 75 40 69 41 71 42 31 43 74 44 68 45 67 46
REMARK SMILES IDX 32 48 58 49 41 50 57 51 42 52 45 53 56 54 72 55 43 56 44 57
REMARK SMILES IDX 55 59 73 60 46 61 33 62 34 63 39 64 35 65 36 66 38 67 40 68
REMARK SMILES IDX 37 69 59 70 60 71 65 72 61 73 62 74 64 75 66 76 63 77 47 78
REMARK SMILES IDX 48 79 53 80 49 81 50 82 52 83 54 84 51 85
REMARK H PARENT 17 5 8 13 21 28 71 47 45 58
REMARK Flexibility Score: inf
ROOT
ATOM      1  C   UNL A   1      36.617  21.466  25.595  1.00  0.00     0.118 C 
ENDROOT
BRANCH   1   2
ATOM      2  N   UNL A   1      35.542  21.765  26.527  1.00  0.00    -0.352 N 
ATOM      3  C   UNL A   1      34.190  21.529  26.374  1.00  0.00     0.253 C 
ATOM      4  O   UNL A   1      33.415  21.889  27.260  1.00  0.00    -0.269 OA
ATOM      5  H   UNL A   1      35.810  22.190  27.374  1.00  0.00     0.163 HD
BRANCH   3   6
ATOM      6  C   UNL A   1      33.642  20.942  25.123  1.00  0.00     0.062 A 
ATOM      7  C   UNL A   1      33.305  21.661  23.965  1.00  0.00     0.047 A 
ATOM      8  C   UNL A   1      32.498  21.002  23.012  1.00  0.00     0.026 A 
ATOM      9  C   UNL A   1      32.135  19.659  23.143  1.00  0.00     0.002 A 
ATOM     10  C   UNL A   1      33.344  19.566  25.212  1.00  0.00     0.016 A 
ATOM     11  C   UNL A   1      32.601  18.925  24.222  1.00  0.00     0.001 A 
BRANCH   7  12
ATOM     12  N   UNL A   1      33.703  22.955  23.637  1.00  0.00    -0.378 N 
ATOM     13  H   UNL A   1      34.667  23.152  23.654  1.00  0.00     0.161 HD
BRANCH  12  14
ATOM     14  C   UNL A   1      32.795  24.051  23.268  1.00  0.00     0.106 C 
ATOM     15  C   UNL A   1      32.874  24.500  21.811  1.00  0.00     0.036 C 
BRANCH  14  16
ATOM     16  C   UNL A   1      33.141  25.260  24.138  1.00  0.00    -0.023 A 
ATOM     17  C   UNL A   1      34.009  28.678  26.637  1.00  0.00     0.047 C 
ATOM     18  C   UNL A   1      33.694  27.488  25.787  1.00  0.00    -0.015 A 
ATOM     19  C   UNL A   1      33.243  26.286  26.343  1.00  0.00     0.007 A 
ATOM     20  C   UNL A   1      33.852  27.568  24.405  1.00  0.00     0.126 A 
ATOM     21  C   UNL A   1      32.968  25.185  25.527  1.00  0.00     0.006 A 
ATOM     22  C   UNL A   1      33.584  26.476  23.589  1.00  0.00     0.045 A 
ATOM     23  F   UNL A   1      34.289  28.703  23.843  1.00  0.00    -0.207 F 
ENDBRANCH  14  16
ENDBRANCH  12  14
ENDBRANCH   7  12
ENDBRANCH   3   6
ENDBRANCH   1   2
BRANCH   1  24
ATOM     24  C   UNL A   1      37.410  22.669  25.100  1.00  0.00     0.042 C 
BRANCH  24  25
ATOM     25  C   UNL A   1      38.128  23.464  26.183  1.00  0.00     0.118 C 
BRANCH  25  26
ATOM     26  N   UNL A   1      39.587  23.318  26.230  1.00  0.00    -0.352 N 
ATOM     27  C   UNL A   1      40.537  24.231  26.674  1.00  0.00     0.251 C 
ATOM     28  H   UNL A   1      39.941  22.459  25.904  1.00  0.00     0.163 HD
ATOM     29  O   UNL A   1      41.733  24.028  26.627  1.00  0.00    -0.269 OA
BRANCH  27  30
ATOM     30  C   UNL A   1      40.032  25.481  27.255  1.00  0.00     0.039 A 
ATOM     31  C   UNL A   1      39.382  25.513  28.499  1.00  0.00     0.014 A 
ATOM     32  C   UNL A   1      40.392  26.635  26.577  1.00  0.00     0.014 A 
ATOM     33  C   UNL A   1      39.218  26.740  29.136  1.00  0.00     0.010 A 
ATOM     34  C   UNL A   1      40.392  27.799  27.275  1.00  0.00     0.010 A 
ATOM     35  C   UNL A   1      39.774  27.867  28.533  1.00  0.00    -0.014 A 
BRANCH  35  36
ATOM     36  C   UNL A   1      39.834  29.199  29.105  1.00  0.00     0.031 A 
ATOM     37  C   UNL A   1      38.764  30.176  28.866  1.00  0.00     0.074 A 
ATOM     38  C   UNL A   1      40.760  29.327  30.081  1.00  0.00     0.049 A 
ATOM     39  N   UNL A   1      38.876  31.426  29.139  1.00  0.00    -0.248 NA
ATOM     40  C   UNL A   1      37.465  29.832  28.289  1.00  0.00     0.031 C 
ATOM     41  C   UNL A   1      40.851  30.250  31.194  1.00  0.00     0.029 A 
ATOM     42  N   UNL A   1      41.926  28.562  30.188  1.00  0.00    -0.354 N 
ATOM     43  C   UNL A   1      37.613  31.976  29.086  1.00  0.00     0.074 A 
ATOM     44  C   UNL A   1      36.796  30.986  28.428  1.00  0.00     0.031 C 
ATOM     45  C   UNL A   1      42.107  30.201  31.684  1.00  0.00     0.029 A 
ATOM     46  C   UNL A   1      42.897  29.378  30.778  1.00  0.00     0.049 A 
ATOM     47  H   UNL A   1      42.041  27.626  29.903  1.00  0.00     0.167 HD
ATOM     48  C   UNL A   1      37.386  33.140  29.759  1.00  0.00     0.037 A 
ATOM     49  C   UNL A   1      43.915  29.808  29.966  1.00  0.00     0.037 A 
ATOM     50  C   UNL A   1      38.605  33.564  30.443  1.00  0.00     0.049 A 
ATOM     51  C   UNL A   1      43.832  31.292  29.676  1.00  0.00     0.074 A 
ATOM     52  C   UNL A   1      39.108  33.358  31.717  1.00  0.00     0.029 A 
ATOM     53  N   UNL A   1      39.668  33.981  29.675  1.00  0.00    -0.354 N 
ATOM     54  N   UNL A   1      42.806  32.040  29.980  1.00  0.00    -0.248 NA
ATOM     55  C   UNL A   1      44.871  32.040  28.974  1.00  0.00     0.031 C 
ATOM     56  C   UNL A   1      40.512  33.613  31.678  1.00  0.00     0.029 A 
ATOM     57  C   UNL A   1      40.848  33.985  30.386  1.00  0.00     0.049 A 
ATOM     58  H   UNL A   1      39.594  34.244  28.730  1.00  0.00     0.167 HD
ATOM     59  C   UNL A   1      43.004  33.308  29.522  1.00  0.00     0.074 A 
ATOM     60  C   UNL A   1      44.309  33.259  28.886  1.00  0.00     0.031 C 
ATOM     61  C   UNL A   1      42.077  34.297  29.673  1.00  0.00     0.037 A 
BRANCH  48  62
ATOM     62  C   UNL A   1      36.055  33.805  29.997  1.00  0.00     0.057 A 
ATOM     63  C   UNL A   1      35.271  34.228  28.902  1.00  0.00     0.134 A 
ATOM     64  C   UNL A   1      35.465  34.024  31.254  1.00  0.00     0.134 A 
ATOM     65  F   UNL A   1      35.672  34.050  27.636  1.00  0.00    -0.206 F 
ATOM     66  C   UNL A   1      34.030  34.857  29.044  1.00  0.00     0.040 A 
ATOM     67  C   UNL A   1      34.235  34.684  31.411  1.00  0.00     0.040 A 
ATOM     68  F   UNL A   1      36.022  33.566  32.382  1.00  0.00    -0.206 F 
ATOM     69  C   UNL A   1      33.512  35.103  30.304  1.00  0.00     0.006 A 
ENDBRANCH  48  62
BRANCH  49  70
ATOM     70  C   UNL A   1      44.275  28.749  28.952  1.00  0.00     0.057 A 
ATOM     71  C   UNL A   1      43.921  28.985  27.606  1.00  0.00     0.134 A 
ATOM     72  C   UNL A   1      45.354  27.882  29.176  1.00  0.00     0.134 A 
ATOM     73  F   UNL A   1      42.893  29.798  27.313  1.00  0.00    -0.206 F 
ATOM     74  C   UNL A   1      44.720  28.548  26.545  1.00  0.00     0.040 A 
ATOM     75  C   UNL A   1      46.148  27.422  28.116  1.00  0.00     0.040 A 
ATOM     76  F   UNL A   1      45.743  27.584  30.423  1.00  0.00    -0.206 F 
ATOM     77  C   UNL A   1      45.867  27.803  26.804  1.00  0.00     0.006 A 
ENDBRANCH  49  70
BRANCH  61  78
ATOM     78  C   UNL A   1      42.274  35.672  29.117  1.00  0.00     0.057 A 
ATOM     79  C   UNL A   1      41.710  36.060  27.898  1.00  0.00     0.134 A 
ATOM     80  C   UNL A   1      43.116  36.616  29.738  1.00  0.00     0.134 A 
ATOM     81  F   UNL A   1      40.946  35.213  27.192  1.00  0.00    -0.206 F 
ATOM     82  C   UNL A   1      41.924  37.331  27.359  1.00  0.00     0.040 A 
ATOM     83  C   UNL A   1      43.393  37.859  29.175  1.00  0.00     0.040 A 
ATOM     84  F   UNL A   1      43.684  36.386  30.931  1.00  0.00    -0.206 F 
ATOM     85  C   UNL A   1      42.776  38.231  27.992  1.00  0.00     0.006 A 
ENDBRANCH  61  78
ENDBRANCH  35  36
ENDBRANCH  27  30
ENDBRANCH  25  26
ENDBRANCH  24  25
ENDBRANCH   1  24
TORSDOF 13
ENDMDL
MODEL 3
REMARK VINA RESULT:     -12.0      1.205      1.601
REMARK SMILES Cc1ccc([C@@H](C)Nc2ccccc2C(=O)NCCCNC(=O)c2ccc(-c3c4nc(c(-c5c(F)cccc5F)c5ccc([nH]5)c(-c5c(F)cccc5F)c5nc(c(-c6c(F)cccc6F)c6ccc3[nH]6)C=C5)C=C4)cc2)cc1F
REMARK SMILES IDX 18 1 17 2 15 3 16 4 14 6 9 7 10 8 11 9 13 10 12 11 8 12 6 14
REMARK SMILES IDX 7 15 5 16 1 17 2 18 3 19 79 20 4 21 78 22 80 23 19 24 20 25
REMARK SMILES IDX 21 26 22 27 23 29 24 30 25 31 77 32 26 33 76 34 27 35 28 36
REMARK SMILES IDX 29 37 70 38 30 39 75 40 69 41 71 42 31 43 74 44 68 45 67 46
REMARK SMILES IDX 32 48 58 49 41 50 57 51 42 52 45 53 56 54 72 55 43 56 44 57
REMARK SMILES IDX 55 59 73 60 46 61 33 62 34 63 39 64 35 65 36 66 38 67 40 68
REMARK SMILES IDX 37 69 59 70 60 71 65 72 61 73 62 74 64 75 66 76 63 77 47 78
REMARK SMILES IDX 48 79 53 80 49 81 50 82 52 83 54 84 51 85
REMARK H PARENT 17 5 8 13 21 28 71 47 45 58
REMARK Flexibility Score: inf
ROOT
ATOM      1  C   UNL A   1      32.946  28.034  26.385  1.00  0.00     0.118 C 
ENDROOT
BRANCH   1   2
ATOM      2  N   UNL A   1      33.495  28.290  25.064  1.00  0.00    -0.352 N 
ATOM      3  C   UNL A   1      32.812  28.505  23.883  1.00  0.00     0.253 C 
ATOM      4  O   UNL A   1      33.452  28.666  22.843  1.00  0.00    -0.269 OA
ATOM      5  H   UNL A   1      34.478  28.312  25.002  1.00  0.00     0.163 HD
BRANCH   3   6
ATOM      6  C   UNL A   1      31.328  28.445  23.823  1.00  0.00     0.062 A 
ATOM      7  C   UNL A   1      30.556  27.276  23.907  1.00  0.00     0.047 A 
ATOM      8  C   UNL A   1      29.207  27.368  23.500  1.00  0.00     0.026 A 
ATOM      9  C   UNL A   1      28.618  28.581  23.136  1.00  0.00     0.002 A 
ATOM     10  C   UNL A   1      30.712  29.681  23.535  1.00  0.00     0.016 A 
ATOM     11  C   UNL A   1      29.360  29.750  23.201  1.00  0.00     0.001 A 
BRANCH   7  12
ATOM     12  N   UNL A   1      30.969  26.031  24.374  1.00  0.00    -0.378 N 
ATOM     13  H   UNL A   1      30.886  25.858  25.340  1.00  0.00     0.161 HD
BRANCH  12  14
ATOM     14  C   UNL A   1      31.520  24.953  23.538  1.00  0.00     0.106 C 
ATOM     15  C   UNL A   1      30.653  23.701  23.437  1.00  0.00     0.036 C 
BRANCH  14  16
ATOM     16  C   UNL A   1      32.862  24.532  24.138  1.00  0.00    -0.023 A 
ATOM     17  C   UNL A   1      36.662  23.257  25.753  1.00  0.00     0.047 C 
ATOM     18  C   UNL A   1      35.353  23.692  25.174  1.00  0.00    -0.015 A 
ATOM     19  C   UNL A   1      35.235  24.083  23.836  1.00  0.00     0.007 A 
ATOM     20  C   UNL A   1      34.217  23.713  25.980  1.00  0.00     0.126 A 
ATOM     21  C   UNL A   1      34.002  24.497  23.324  1.00  0.00     0.006 A 
ATOM     22  C   UNL A   1      32.990  24.127  25.478  1.00  0.00     0.045 A 
ATOM     23  F   UNL A   1      34.299  23.351  27.268  1.00  0.00    -0.207 F 
ENDBRANCH  14  16
ENDBRANCH  12  14
ENDBRANCH   7  12
ENDBRANCH   3   6
ENDBRANCH   1   2
BRANCH   1  24
ATOM     24  C   UNL A   1      33.684  28.696  27.542  1.00  0.00     0.042 C 
BRANCH  24  25
ATOM     25  C   UNL A   1      34.656  29.800  27.146  1.00  0.00     0.118 C 
BRANCH  25  26
ATOM     26  N   UNL A   1      35.017  30.751  28.203  1.00  0.00    -0.352 N 
ATOM     27  C   UNL A   1      36.135  30.748  29.029  1.00  0.00     0.251 C 
ATOM     28  H   UNL A   1      34.383  31.492  28.346  1.00  0.00     0.163 HD
ATOM     29  O   UNL A   1      36.318  31.562  29.910  1.00  0.00    -0.269 OA
BRANCH  27  30
ATOM     30  C   UNL A   1      37.144  29.713  28.772  1.00  0.00     0.039 A 
ATOM     31  C   UNL A   1      37.945  29.726  27.620  1.00  0.00     0.014 A 
ATOM     32  C   UNL A   1      37.364  28.831  29.818  1.00  0.00     0.014 A 
ATOM     33  C   UNL A   1      39.082  28.922  27.587  1.00  0.00     0.010 A 
ATOM     34  C   UNL A   1      38.558  28.187  29.857  1.00  0.00     0.010 A 
ATOM     35  C   UNL A   1      39.400  28.197  28.735  1.00  0.00    -0.014 A 
BRANCH  35  36
ATOM     36  C   UNL A   1      40.608  27.421  28.946  1.00  0.00     0.031 A 
ATOM     37  C   UNL A   1      40.661  25.993  28.606  1.00  0.00     0.074 A 
ATOM     38  C   UNL A   1      41.705  28.178  29.171  1.00  0.00     0.049 A 
ATOM     39  N   UNL A   1      41.606  25.212  28.989  1.00  0.00    -0.248 NA
ATOM     40  C   UNL A   1      39.646  25.311  27.804  1.00  0.00     0.031 C 
ATOM     41  C   UNL A   1      43.113  27.903  28.968  1.00  0.00     0.029 A 
ATOM     42  N   UNL A   1      41.695  29.460  29.730  1.00  0.00    -0.354 N 
ATOM     43  C   UNL A   1      41.510  24.052  28.250  1.00  0.00     0.074 A 
ATOM     44  C   UNL A   1      40.208  24.106  27.629  1.00  0.00     0.031 C 
ATOM     45  C   UNL A   1      43.828  28.825  29.644  1.00  0.00     0.029 A 
ATOM     46  C   UNL A   1      42.890  29.604  30.443  1.00  0.00     0.049 A 
ATOM     47  H   UNL A   1      40.983  30.134  29.639  1.00  0.00     0.167 HD
ATOM     48  C   UNL A   1      42.619  23.269  28.128  1.00  0.00     0.037 A 
ATOM     49  C   UNL A   1      42.793  29.608  31.811  1.00  0.00     0.037 A 
ATOM     50  C   UNL A   1      43.739  23.879  28.840  1.00  0.00     0.049 A 
ATOM     51  C   UNL A   1      43.376  28.355  32.432  1.00  0.00     0.074 A 
ATOM     52  C   UNL A   1      44.758  24.739  28.463  1.00  0.00     0.029 A 
ATOM     53  N   UNL A   1      43.683  23.934  30.213  1.00  0.00    -0.354 N 
ATOM     54  N   UNL A   1      43.736  27.301  31.751  1.00  0.00    -0.248 NA
ATOM     55  C   UNL A   1      43.549  28.170  33.870  1.00  0.00     0.031 C 
ATOM     56  C   UNL A   1      45.275  25.348  29.646  1.00  0.00     0.029 A 
ATOM     57  C   UNL A   1      44.576  24.845  30.732  1.00  0.00     0.049 A 
ATOM     58  H   UNL A   1      43.074  23.387  30.760  1.00  0.00     0.167 HD
ATOM     59  C   UNL A   1      44.148  26.319  32.601  1.00  0.00     0.074 A 
ATOM     60  C   UNL A   1      44.002  26.904  33.923  1.00  0.00     0.031 C 
ATOM     61  C   UNL A   1      44.552  25.091  32.165  1.00  0.00     0.037 A 
BRANCH  48  62
ATOM     62  C   UNL A   1      42.793  22.079  27.221  1.00  0.00     0.057 A 
ATOM     63  C   UNL A   1      41.961  20.948  27.372  1.00  0.00     0.134 A 
ATOM     64  C   UNL A   1      43.715  21.986  26.164  1.00  0.00     0.134 A 
ATOM     65  F   UNL A   1      41.000  20.898  28.304  1.00  0.00    -0.206 F 
ATOM     66  C   UNL A   1      42.066  19.805  26.572  1.00  0.00     0.040 A 
ATOM     67  C   UNL A   1      43.853  20.831  25.376  1.00  0.00     0.040 A 
ATOM     68  F   UNL A   1      44.487  23.021  25.811  1.00  0.00    -0.206 F 
ATOM     69  C   UNL A   1      43.027  19.735  25.578  1.00  0.00     0.006 A 
ENDBRANCH  48  62
BRANCH  49  70
ATOM     70  C   UNL A   1      41.517  30.279  32.255  1.00  0.00     0.057 A 
ATOM     71  C   UNL A   1      40.502  29.460  32.795  1.00  0.00     0.134 A 
ATOM     72  C   UNL A   1      41.516  31.624  32.649  1.00  0.00     0.134 A 
ATOM     73  F   UNL A   1      40.433  28.162  32.458  1.00  0.00    -0.206 F 
ATOM     74  C   UNL A   1      39.662  29.905  33.823  1.00  0.00     0.040 A 
ATOM     75  C   UNL A   1      40.663  32.083  33.664  1.00  0.00     0.040 A 
ATOM     76  F   UNL A   1      42.430  32.478  32.168  1.00  0.00    -0.206 F 
ATOM     77  C   UNL A   1      39.777  31.209  34.293  1.00  0.00     0.006 A 
ENDBRANCH  49  70
BRANCH  61  78
ATOM     78  C   UNL A   1      44.947  23.996  33.104  1.00  0.00     0.057 A 
ATOM     79  C   UNL A   1      44.053  22.988  33.477  1.00  0.00     0.134 A 
ATOM     80  C   UNL A   1      46.203  23.975  33.742  1.00  0.00     0.134 A 
ATOM     81  F   UNL A   1      42.807  22.954  32.980  1.00  0.00    -0.206 F 
ATOM     82  C   UNL A   1      44.408  21.987  34.383  1.00  0.00     0.040 A 
ATOM     83  C   UNL A   1      46.544  23.023  34.699  1.00  0.00     0.040 A 
ATOM     84  F   UNL A   1      47.167  24.859  33.443  1.00  0.00    -0.206 F 
ATOM     85  C   UNL A   1      45.652  22.008  35.006  1.00  0.00     0.006 A 
ENDBRANCH  61  78
ENDBRANCH  35  36
ENDBRANCH  27  30
ENDBRANCH  25  26
ENDBRANCH  24  25
ENDBRANCH   1  24
TORSDOF 13
ENDMDL
