MODEL 1
REMARK VINA RESULT:     -12.4      0.000      0.000
REMARK SMILES Cc1cc(Cl)c(C)c2c1O[C@H](C(F)(F)F)C(C(=O)NCCCNC(=O)c1ccc(-c3c4nc(c(-c5c(F)cccc5F)c5ccc([nH]5)c(-c5c(F)cccc5F)c5nc(c(-c6c(F)cccc6F)c6ccc3[nH]6)C=C5)C=C4)cc1)=C2
REMARK SMILES IDX 21 1 20 2 19 3 17 4 18 5 16 7 1 8 2 9 3 10 9 11 4 12 8 13
REMARK SMILES IDX 10 14 5 15 6 16 80 17 11 18 7 19 12 20 13 21 14 22 15 23
REMARK SMILES IDX 22 24 23 25 24 26 25 28 26 29 27 30 79 31 28 32 78 33 29 34
REMARK SMILES IDX 30 35 31 36 72 37 32 38 77 39 71 40 73 41 33 42 76 43 70 44
REMARK SMILES IDX 69 45 34 47 60 48 43 49 59 50 44 51 47 52 58 53 74 54 45 55
REMARK SMILES IDX 46 56 57 58 75 59 48 60 35 61 36 62 41 63 37 64 38 65 40 66
REMARK SMILES IDX 42 67 39 68 61 69 62 70 67 71 63 72 64 73 66 74 68 75 65 76
REMARK SMILES IDX 49 77 50 78 55 79 51 80 52 81 54 82 56 83 53 84
REMARK H PARENT 19 6 23 27 73 46 47 57
REMARK Flexibility Score: inf
ROOT
ATOM      1  C   UNL A   1      38.189  19.974  24.732  1.00  0.00     0.042 C 
ENDROOT
BRANCH   1   2
ATOM      2  C   UNL A   1      37.353  21.231  24.546  1.00  0.00     0.118 C 
BRANCH   2   3
ATOM      3  N   UNL A   1      36.353  21.374  25.594  1.00  0.00    -0.352 N 
ATOM      4  C   UNL A   1      35.215  22.078  25.791  1.00  0.00     0.251 C 
ATOM      5  O   UNL A   1      34.664  21.892  26.880  1.00  0.00    -0.270 OA
ATOM      6  H   UNL A   1      36.563  20.805  26.371  1.00  0.00     0.163 HD
BRANCH   4   7
ATOM      7  C   UNL A   1      34.615  23.023  24.808  1.00  0.00     0.067 C 
ATOM      8  C   UNL A   1      32.831  25.318  20.620  1.00  0.00     0.048 C 
ATOM      9  C   UNL A   1      33.120  25.773  22.021  1.00  0.00    -0.007 A 
ATOM     10  C   UNL A   1      32.852  27.085  22.412  1.00  0.00     0.028 A 
ATOM     11  C   UNL A   1      33.686  24.903  22.956  1.00  0.00     0.131 A 
ATOM     12  C   UNL A   1      33.128  27.513  23.717  1.00  0.00     0.045 A 
ATOM     13  C   UNL A   1      33.966  25.309  24.273  1.00  0.00     0.022 A 
ATOM     14  O   UNL A   1      33.997  23.652  22.496  1.00  0.00    -0.475 OA
ATOM     15  Cl  UNL A   1      32.759  29.166  24.074  1.00  0.00    -0.084 Cl
ATOM     16  C   UNL A   1      33.682  26.637  24.672  1.00  0.00    -0.021 A 
ATOM     17  C   UNL A   1      34.576  24.320  25.171  1.00  0.00     0.026 C 
ATOM     18  C   UNL A   1      34.052  22.603  23.488  1.00  0.00     0.314 C 
ATOM     19  C   UNL A   1      33.974  27.083  26.084  1.00  0.00     0.047 C 
BRANCH  18  20
ATOM     20  C   UNL A   1      32.673  21.926  23.607  1.00  0.00     0.429 C 
ATOM     21  F   UNL A   1      32.821  20.593  23.814  1.00  0.00    -0.167 F 
ATOM     22  F   UNL A   1      31.949  22.396  24.651  1.00  0.00    -0.167 F 
ATOM     23  F   UNL A   1      31.912  22.084  22.502  1.00  0.00    -0.167 F 
ENDBRANCH  18  20
ENDBRANCH   4   7
ENDBRANCH   2   3
ENDBRANCH   1   2
BRANCH   1  24
ATOM     24  C   UNL A   1      39.001  20.018  26.019  1.00  0.00     0.118 C 
BRANCH  24  25
ATOM     25  N   UNL A   1      40.224  19.227  25.912  1.00  0.00    -0.352 N 
ATOM     26  C   UNL A   1      41.537  19.617  25.962  1.00  0.00     0.251 C 
ATOM     27  H   UNL A   1      40.082  18.260  25.784  1.00  0.00     0.163 HD
ATOM     28  O   UNL A   1      42.418  18.858  25.560  1.00  0.00    -0.269 OA
BRANCH  26  29
ATOM     29  C   UNL A   1      41.890  20.942  26.498  1.00  0.00     0.039 A 
ATOM     30  C   UNL A   1      42.267  21.961  25.621  1.00  0.00     0.014 A 
ATOM     31  C   UNL A   1      41.871  21.169  27.876  1.00  0.00     0.014 A 
ATOM     32  C   UNL A   1      42.565  23.226  26.127  1.00  0.00     0.010 A 
ATOM     33  C   UNL A   1      42.061  22.451  28.368  1.00  0.00     0.010 A 
ATOM     34  C   UNL A   1      42.430  23.487  27.501  1.00  0.00    -0.014 A 
BRANCH  34  35
ATOM     35  C   UNL A   1      42.710  24.828  28.063  1.00  0.00     0.031 A 
ATOM     36  C   UNL A   1      44.109  25.182  28.486  1.00  0.00     0.074 A 
ATOM     37  C   UNL A   1      41.699  25.699  28.243  1.00  0.00     0.049 A 
ATOM     38  N   UNL A   1      44.548  26.275  29.052  1.00  0.00    -0.248 NA
ATOM     39  C   UNL A   1      45.150  24.160  28.273  1.00  0.00     0.031 C 
ATOM     40  C   UNL A   1      40.295  25.442  27.915  1.00  0.00     0.029 A 
ATOM     41  N   UNL A   1      41.695  26.973  28.749  1.00  0.00    -0.354 N 
ATOM     42  C   UNL A   1      45.904  26.068  29.269  1.00  0.00     0.074 A 
ATOM     43  C   UNL A   1      46.206  24.722  28.840  1.00  0.00     0.031 C 
ATOM     44  C   UNL A   1      39.572  26.539  28.193  1.00  0.00     0.029 A 
ATOM     45  C   UNL A   1      40.453  27.558  28.756  1.00  0.00     0.049 A 
ATOM     46  H   UNL A   1      42.506  27.425  29.074  1.00  0.00     0.167 HD
ATOM     47  C   UNL A   1      46.821  26.937  29.750  1.00  0.00     0.037 A 
ATOM     48  C   UNL A   1      40.069  28.780  29.172  1.00  0.00     0.037 A 
ATOM     49  C   UNL A   1      46.518  28.287  30.140  1.00  0.00     0.049 A 
ATOM     50  C   UNL A   1      41.106  29.723  29.714  1.00  0.00     0.074 A 
ATOM     51  C   UNL A   1      47.386  29.268  30.583  1.00  0.00     0.029 A 
ATOM     52  N   UNL A   1      45.248  28.844  30.131  1.00  0.00    -0.354 N 
ATOM     53  N   UNL A   1      42.398  29.538  29.851  1.00  0.00    -0.248 NA
ATOM     54  C   UNL A   1      40.638  31.043  30.159  1.00  0.00     0.031 C 
ATOM     55  C   UNL A   1      46.634  30.405  30.890  1.00  0.00     0.029 A 
ATOM     56  C   UNL A   1      45.306  30.149  30.587  1.00  0.00     0.049 A 
ATOM     57  H   UNL A   1      44.429  28.381  29.843  1.00  0.00     0.167 HD
ATOM     58  C   UNL A   1      42.899  30.722  30.374  1.00  0.00     0.074 A 
ATOM     59  C   UNL A   1      41.775  31.626  30.516  1.00  0.00     0.031 C 
ATOM     60  C   UNL A   1      44.175  31.033  30.713  1.00  0.00     0.037 A 
BRANCH  47  61
ATOM     61  C   UNL A   1      48.242  26.468  29.859  1.00  0.00     0.057 A 
ATOM     62  C   UNL A   1      49.173  26.693  28.835  1.00  0.00     0.134 A 
ATOM     63  C   UNL A   1      48.703  25.842  31.024  1.00  0.00     0.134 A 
ATOM     64  F   UNL A   1      48.793  27.273  27.687  1.00  0.00    -0.206 F 
ATOM     65  C   UNL A   1      50.506  26.301  28.961  1.00  0.00     0.040 A 
ATOM     66  C   UNL A   1      50.040  25.472  31.172  1.00  0.00     0.040 A 
ATOM     67  F   UNL A   1      47.867  25.599  32.044  1.00  0.00    -0.206 F 
ATOM     68  C   UNL A   1      50.945  25.699  30.137  1.00  0.00     0.006 A 
ENDBRANCH  47  61
BRANCH  48  69
ATOM     69  C   UNL A   1      38.645  29.187  29.056  1.00  0.00     0.057 A 
ATOM     70  C   UNL A   1      38.118  29.623  27.835  1.00  0.00     0.134 A 
ATOM     71  C   UNL A   1      37.773  29.130  30.150  1.00  0.00     0.134 A 
ATOM     72  F   UNL A   1      38.905  29.713  26.754  1.00  0.00    -0.206 F 
ATOM     73  C   UNL A   1      36.779  29.999  27.708  1.00  0.00     0.040 A 
ATOM     74  C   UNL A   1      36.427  29.478  30.032  1.00  0.00     0.040 A 
ATOM     75  F   UNL A   1      38.213  28.712  31.347  1.00  0.00    -0.206 F 
ATOM     76  C   UNL A   1      35.927  29.919  28.808  1.00  0.00     0.006 A 
ENDBRANCH  48  69
BRANCH  60  77
ATOM     77  C   UNL A   1      44.436  32.406  31.257  1.00  0.00     0.057 A 
ATOM     78  C   UNL A   1      44.686  33.494  30.412  1.00  0.00     0.134 A 
ATOM     79  C   UNL A   1      44.340  32.660  32.632  1.00  0.00     0.134 A 
ATOM     80  F   UNL A   1      44.799  33.314  29.087  1.00  0.00    -0.206 F 
ATOM     81  C   UNL A   1      44.840  34.786  30.916  1.00  0.00     0.040 A 
ATOM     82  C   UNL A   1      44.463  33.951  33.144  1.00  0.00     0.040 A 
ATOM     83  F   UNL A   1      44.089  31.662  33.492  1.00  0.00    -0.206 F 
ATOM     84  C   UNL A   1      44.716  35.018  32.285  1.00  0.00     0.006 A 
ENDBRANCH  60  77
ENDBRANCH  34  35
ENDBRANCH  26  29
ENDBRANCH  24  25
ENDBRANCH   1  24
TORSDOF 11
ENDMDL
MODEL 2
REMARK VINA RESULT:     -12.4      2.529      7.378
REMARK SMILES Cc1cc(Cl)c(C)c2c1O[C@H](C(F)(F)F)C(C(=O)NCCCNC(=O)c1ccc(-c3c4nc(c(-c5c(F)cccc5F)c5ccc([nH]5)c(-c5c(F)cccc5F)c5nc(c(-c6c(F)cccc6F)c6ccc3[nH]6)C=C5)C=C4)cc1)=C2
REMARK SMILES IDX 21 1 20 2 19 3 17 4 18 5 16 7 1 8 2 9 3 10 9 11 4 12 8 13
REMARK SMILES IDX 10 14 5 15 6 16 80 17 11 18 7 19 12 20 13 21 14 22 15 23
REMARK SMILES IDX 22 24 23 25 24 26 25 28 26 29 27 30 79 31 28 32 78 33 29 34
REMARK SMILES IDX 30 35 31 36 72 37 32 38 77 39 71 40 73 41 33 42 76 43 70 44
REMARK SMILES IDX 69 45 34 47 60 48 43 49 59 50 44 51 47 52 58 53 74 54 45 55
REMARK SMILES IDX 46 56 57 58 75 59 48 60 35 61 36 62 41 63 37 64 38 65 40 66
REMARK SMILES IDX 42 67 39 68 61 69 62 70 67 71 63 72 64 73 66 74 68 75 65 76
REMARK SMILES IDX 49 77 50 78 55 79 51 80 52 81 54 82 56 83 53 84
REMARK H PARENT 19 6 23 27 73 46 47 57
REMARK Flexibility Score: inf
ROOT
ATOM      1  C   UNL A   1      34.032  28.442  25.512  1.00  0.00     0.042 C 
ENDROOT
BRANCH   1   2
ATOM      2  C   UNL A   1      33.450  27.174  24.908  1.00  0.00     0.118 C 
BRANCH   2   3
ATOM      3  N   UNL A   1      32.398  26.612  25.741  1.00  0.00    -0.352 N 
ATOM      4  C   UNL A   1      32.007  25.385  26.154  1.00  0.00     0.251 C 
ATOM      5  O   UNL A   1      31.009  25.367  26.881  1.00  0.00    -0.270 OA
ATOM      6  H   UNL A   1      31.811  27.316  26.102  1.00  0.00     0.163 HD
BRANCH   4   7
ATOM      7  C   UNL A   1      32.686  24.107  25.796  1.00  0.00     0.067 C 
ATOM      8  C   UNL A   1      33.819  19.280  24.613  1.00  0.00     0.048 C 
ATOM      9  C   UNL A   1      34.632  20.482  24.998  1.00  0.00    -0.007 A 
ATOM     10  C   UNL A   1      36.024  20.414  25.047  1.00  0.00     0.028 A 
ATOM     11  C   UNL A   1      34.013  21.687  25.341  1.00  0.00     0.131 A 
ATOM     12  C   UNL A   1      36.783  21.533  25.413  1.00  0.00     0.045 A 
ATOM     13  C   UNL A   1      34.755  22.825  25.706  1.00  0.00     0.022 A 
ATOM     14  O   UNL A   1      32.645  21.675  25.349  1.00  0.00    -0.475 OA
ATOM     15  Cl  UNL A   1      38.500  21.316  25.444  1.00  0.00    -0.084 Cl
ATOM     16  C   UNL A   1      36.168  22.757  25.742  1.00  0.00    -0.021 A 
ATOM     17  C   UNL A   1      34.004  24.036  26.063  1.00  0.00     0.026 C 
ATOM     18  C   UNL A   1      31.994  22.949  25.152  1.00  0.00     0.314 C 
ATOM     19  C   UNL A   1      36.975  23.973  26.129  1.00  0.00     0.047 C 
BRANCH  18  20
ATOM     20  C   UNL A   1      31.718  23.168  23.652  1.00  0.00     0.429 C 
ATOM     21  F   UNL A   1      31.787  21.988  22.985  1.00  0.00    -0.167 F 
ATOM     22  F   UNL A   1      30.482  23.667  23.416  1.00  0.00    -0.167 F 
ATOM     23  F   UNL A   1      32.598  24.014  23.073  1.00  0.00    -0.167 F 
ENDBRANCH  18  20
ENDBRANCH   4   7
ENDBRANCH   2   3
ENDBRANCH   1   2
BRANCH   1  24
ATOM     24  C   UNL A   1      33.854  28.484  27.023  1.00  0.00     0.118 C 
BRANCH  24  25
ATOM     25  N   UNL A   1      33.786  29.856  27.520  1.00  0.00    -0.352 N 
ATOM     26  C   UNL A   1      34.669  30.560  28.297  1.00  0.00     0.251 C 
ATOM     27  H   UNL A   1      32.978  30.354  27.255  1.00  0.00     0.163 HD
ATOM     28  O   UNL A   1      34.306  31.595  28.855  1.00  0.00    -0.269 OA
BRANCH  26  29
ATOM     29  C   UNL A   1      36.051  30.078  28.460  1.00  0.00     0.039 A 
ATOM     30  C   UNL A   1      36.940  30.160  27.386  1.00  0.00     0.014 A 
ATOM     31  C   UNL A   1      36.460  29.519  29.673  1.00  0.00     0.014 A 
ATOM     32  C   UNL A   1      38.258  29.738  27.553  1.00  0.00     0.010 A 
ATOM     33  C   UNL A   1      37.794  29.201  29.871  1.00  0.00     0.010 A 
ATOM     34  C   UNL A   1      38.702  29.287  28.808  1.00  0.00    -0.014 A 
BRANCH  34  35
ATOM     35  C   UNL A   1      40.103  28.861  29.023  1.00  0.00     0.031 A 
ATOM     36  C   UNL A   1      41.080  29.807  29.666  1.00  0.00     0.074 A 
ATOM     37  C   UNL A   1      40.506  27.652  28.587  1.00  0.00     0.049 A 
ATOM     38  N   UNL A   1      42.359  29.648  29.888  1.00  0.00    -0.248 NA
ATOM     39  C   UNL A   1      40.559  31.119  30.090  1.00  0.00     0.031 C 
ATOM     40  C   UNL A   1      39.656  26.674  27.905  1.00  0.00     0.029 A 
ATOM     41  N   UNL A   1      41.731  27.040  28.652  1.00  0.00    -0.354 N 
ATOM     42  C   UNL A   1      42.790  30.834  30.464  1.00  0.00     0.074 A 
ATOM     43  C   UNL A   1      41.659  31.732  30.497  1.00  0.00     0.031 C 
ATOM     44  C   UNL A   1      40.376  25.571  27.647  1.00  0.00     0.029 A 
ATOM     45  C   UNL A   1      41.746  25.779  28.109  1.00  0.00     0.049 A 
ATOM     46  H   UNL A   1      42.524  27.464  29.051  1.00  0.00     0.167 HD
ATOM     47  C   UNL A   1      44.014  31.135  30.955  1.00  0.00     0.037 A 
ATOM     48  C   UNL A   1      42.753  24.893  27.995  1.00  0.00     0.037 A 
ATOM     49  C   UNL A   1      45.124  30.222  30.952  1.00  0.00     0.049 A 
ATOM     50  C   UNL A   1      44.106  25.255  28.538  1.00  0.00     0.074 A 
ATOM     51  C   UNL A   1      46.388  30.406  31.479  1.00  0.00     0.029 A 
ATOM     52  N   UNL A   1      45.099  28.952  30.395  1.00  0.00    -0.354 N 
ATOM     53  N   UNL A   1      44.485  26.356  29.143  1.00  0.00    -0.248 NA
ATOM     54  C   UNL A   1      45.174  24.257  28.387  1.00  0.00     0.031 C 
ATOM     55  C   UNL A   1      47.146  29.267  31.197  1.00  0.00     0.029 A 
ATOM     56  C   UNL A   1      46.337  28.352  30.542  1.00  0.00     0.049 A 
ATOM     57  H   UNL A   1      44.319  28.540  29.960  1.00  0.00     0.167 HD
ATOM     58  C   UNL A   1      45.823  26.175  29.463  1.00  0.00     0.074 A 
ATOM     59  C   UNL A   1      46.188  24.851  29.001  1.00  0.00     0.031 C 
ATOM     60  C   UNL A   1      46.676  27.029  30.080  1.00  0.00     0.037 A 
BRANCH  47  61
ATOM     61  C   UNL A   1      44.213  32.493  31.560  1.00  0.00     0.057 A 
ATOM     62  C   UNL A   1      44.625  33.589  30.790  1.00  0.00     0.134 A 
ATOM     63  C   UNL A   1      43.928  32.724  32.912  1.00  0.00     0.134 A 
ATOM     64  F   UNL A   1      44.929  33.433  29.493  1.00  0.00    -0.206 F 
ATOM     65  C   UNL A   1      44.759  34.863  31.346  1.00  0.00     0.040 A 
ATOM     66  C   UNL A   1      44.032  33.999  33.471  1.00  0.00     0.040 A 
ATOM     67  F   UNL A   1      43.527  31.721  33.706  1.00  0.00    -0.206 F 
ATOM     68  C   UNL A   1      44.451  35.072  32.687  1.00  0.00     0.006 A 
ENDBRANCH  47  61
BRANCH  48  69
ATOM     69  C   UNL A   1      42.504  23.567  27.373  1.00  0.00     0.057 A 
ATOM     70  C   UNL A   1      42.668  23.375  25.996  1.00  0.00     0.134 A 
ATOM     71  C   UNL A   1      42.121  22.457  28.136  1.00  0.00     0.134 A 
ATOM     72  F   UNL A   1      43.020  24.402  25.209  1.00  0.00    -0.206 F 
ATOM     73  C   UNL A   1      42.448  22.133  25.398  1.00  0.00     0.040 A 
ATOM     74  C   UNL A   1      41.922  21.203  27.556  1.00  0.00     0.040 A 
ATOM     75  F   UNL A   1      41.956  22.571  29.463  1.00  0.00    -0.206 F 
ATOM     76  C   UNL A   1      42.081  21.040  26.181  1.00  0.00     0.006 A 
ENDBRANCH  48  69
BRANCH  60  77
ATOM     77  C   UNL A   1      48.084  26.564  30.308  1.00  0.00     0.057 A 
ATOM     78  C   UNL A   1      48.444  25.853  31.459  1.00  0.00     0.134 A 
ATOM     79  C   UNL A   1      49.064  26.746  29.323  1.00  0.00     0.134 A 
ATOM     80  F   UNL A   1      47.553  25.655  32.442  1.00  0.00    -0.206 F 
ATOM     81  C   UNL A   1      49.733  25.345  31.626  1.00  0.00     0.040 A 
ATOM     82  C   UNL A   1      50.346  26.218  29.466  1.00  0.00     0.040 A 
ATOM     83  F   UNL A   1      48.778  27.407  28.191  1.00  0.00    -0.206 F 
ATOM     84  C   UNL A   1      50.684  25.517  30.622  1.00  0.00     0.006 A 
ENDBRANCH  60  77
ENDBRANCH  34  35
ENDBRANCH  26  29
ENDBRANCH  24  25
ENDBRANCH   1  24
TORSDOF 11
ENDMDL
MODEL 3
REMARK VINA RESULT:     -12.3      3.171      7.685
REMARK SMILES Cc1cc(Cl)c(C)c2c1O[C@H](C(F)(F)F)C(C(=O)NCCCNC(=O)c1ccc(-c3c4nc(c(-c5c(F)cccc5F)c5ccc([nH]5)c(-c5c(F)cccc5F)c5nc(c(-c6c(F)cccc6F)c6ccc3[nH]6)C=C5)C=C4)cc1)=C2
REMARK SMILES IDX 21 1 20 2 19 3 17 4 18 5 16 7 1 8 2 9 3 10 9 11 4 12 8 13
REMARK SMILES IDX 10 14 5 15 6 16 80 17 11 18 7 19 12 20 13 21 14 22 15 23
REMARK SMILES IDX 22 24 23 25 24 26 25 28 26 29 27 30 79 31 28 32 78 33 29 34
REMARK SMILES IDX 30 35 31 36 72 37 32 38 77 39 71 40 73 41 33 42 76 43 70 44
REMARK SMILES IDX 69 45 34 47 60 48 43 49 59 50 44 51 47 52 58 53 74 54 45 55
REMARK SMILES IDX 46 56 57 58 75 59 48 60 35 61 36 62 41 63 37 64 38 65 40 66
REMARK SMILES IDX 42 67 39 68 61 69 62 70 67 71 63 72 64 73 66 74 68 75 65 76
REMARK SMILES IDX 49 77 50 78 55 79 51 80 52 81 54 82 56 83 53 84
REMARK H PARENT 19 6 23 27 73 46 47 57
REMARK Flexibility Score: inf
ROOT
ATOM      1  C   UNL A   1      33.839  28.431  24.570  1.00  0.00     0.042 C 
ENDROOT
BRANCH   1   2
ATOM      2  C   UNL A   1      33.183  27.097  24.253  1.00  0.00     0.118 C 
BRANCH   2   3
ATOM      3  N   UNL A   1      32.358  26.625  25.354  1.00  0.00    -0.352 N 
ATOM      4  C   UNL A   1      32.136  25.456  25.999  1.00  0.00     0.251 C 
ATOM      5  O   UNL A   1      31.308  25.509  26.913  1.00  0.00    -0.270 OA
ATOM      6  H   UNL A   1      31.813  27.353  25.732  1.00  0.00     0.163 HD
BRANCH   4   7
ATOM      7  C   UNL A   1      32.808  24.165  25.680  1.00  0.00     0.067 C 
ATOM      8  C   UNL A   1      33.909  19.302  24.616  1.00  0.00     0.048 C 
ATOM      9  C   UNL A   1      34.727  20.503  24.994  1.00  0.00    -0.007 A 
ATOM     10  C   UNL A   1      36.117  20.420  25.072  1.00  0.00     0.028 A 
ATOM     11  C   UNL A   1      34.115  21.721  25.300  1.00  0.00     0.131 A 
ATOM     12  C   UNL A   1      36.881  21.538  25.432  1.00  0.00     0.045 A 
ATOM     13  C   UNL A   1      34.862  22.858  25.657  1.00  0.00     0.022 A 
ATOM     14  O   UNL A   1      32.747  21.724  25.280  1.00  0.00    -0.475 OA
ATOM     15  Cl  UNL A   1      38.595  21.303  25.502  1.00  0.00    -0.084 Cl
ATOM     16  C   UNL A   1      36.273  22.775  25.724  1.00  0.00    -0.021 A 
ATOM     17  C   UNL A   1      34.119  24.084  25.976  1.00  0.00     0.026 C 
ATOM     18  C   UNL A   1      32.115  23.001  25.045  1.00  0.00     0.314 C 
ATOM     19  C   UNL A   1      37.087  23.990  26.103  1.00  0.00     0.047 C 
BRANCH  18  20
ATOM     20  C   UNL A   1      31.872  23.193  23.536  1.00  0.00     0.429 C 
ATOM     21  F   UNL A   1      30.631  23.699  23.321  1.00  0.00    -0.167 F 
ATOM     22  F   UNL A   1      32.742  24.066  22.974  1.00  0.00    -0.167 F 
ATOM     23  F   UNL A   1      31.968  22.041  22.837  1.00  0.00    -0.167 F 
ENDBRANCH  18  20
ENDBRANCH   4   7
ENDBRANCH   2   3
ENDBRANCH   1   2
BRANCH   1  24
ATOM     24  C   UNL A   1      34.075  28.606  26.064  1.00  0.00     0.118 C 
BRANCH  24  25
ATOM     25  N   UNL A   1      33.877  29.991  26.483  1.00  0.00    -0.352 N 
ATOM     26  C   UNL A   1      34.490  30.712  27.475  1.00  0.00     0.251 C 
ATOM     27  H   UNL A   1      33.196  30.486  25.971  1.00  0.00     0.163 HD
ATOM     28  O   UNL A   1      33.988  31.763  27.869  1.00  0.00    -0.269 OA
BRANCH  26  29
ATOM     29  C   UNL A   1      35.749  30.227  28.064  1.00  0.00     0.039 A 
ATOM     30  C   UNL A   1      35.731  29.622  29.323  1.00  0.00     0.014 A 
ATOM     31  C   UNL A   1      36.954  30.393  27.378  1.00  0.00     0.014 A 
ATOM     32  C   UNL A   1      36.918  29.129  29.864  1.00  0.00     0.010 A 
ATOM     33  C   UNL A   1      38.113  29.808  27.867  1.00  0.00     0.010 A 
ATOM     34  C   UNL A   1      38.111  29.189  29.123  1.00  0.00    -0.014 A 
BRANCH  34  35
ATOM     35  C   UNL A   1      39.380  28.647  29.659  1.00  0.00     0.031 A 
ATOM     36  C   UNL A   1      40.022  29.295  30.854  1.00  0.00     0.074 A 
ATOM     37  C   UNL A   1      39.978  27.614  29.035  1.00  0.00     0.049 A 
ATOM     38  N   UNL A   1      41.158  29.011  31.436  1.00  0.00    -0.248 NA
ATOM     39  C   UNL A   1      39.309  30.435  31.459  1.00  0.00     0.031 C 
ATOM     40  C   UNL A   1      39.471  26.940  27.838  1.00  0.00     0.029 A 
ATOM     41  N   UNL A   1      41.144  26.951  29.320  1.00  0.00    -0.354 N 
ATOM     42  C   UNL A   1      41.296  29.936  32.462  1.00  0.00     0.074 A 
ATOM     43  C   UNL A   1      40.168  30.835  32.383  1.00  0.00     0.031 C 
ATOM     44  C   UNL A   1      40.301  25.937  27.514  1.00  0.00     0.029 A 
ATOM     45  C   UNL A   1      41.418  25.922  28.453  1.00  0.00     0.049 A 
ATOM     46  H   UNL A   1      41.728  27.190  30.075  1.00  0.00     0.167 HD
ATOM     47  C   UNL A   1      42.261  30.007  33.407  1.00  0.00     0.037 A 
ATOM     48  C   UNL A   1      42.456  25.065  28.421  1.00  0.00     0.037 A 
ATOM     49  C   UNL A   1      43.359  29.085  33.499  1.00  0.00     0.049 A 
ATOM     50  C   UNL A   1      43.522  25.172  29.475  1.00  0.00     0.074 A 
ATOM     51  C   UNL A   1      44.357  29.033  34.454  1.00  0.00     0.029 A 
ATOM     52  N   UNL A   1      43.602  28.055  32.604  1.00  0.00    -0.354 N 
ATOM     53  N   UNL A   1      43.605  26.010  30.481  1.00  0.00    -0.248 NA
ATOM     54  C   UNL A   1      44.636  24.217  29.395  1.00  0.00     0.031 C 
ATOM     55  C   UNL A   1      45.233  28.000  34.109  1.00  0.00     0.029 A 
ATOM     56  C   UNL A   1      44.751  27.376  32.970  1.00  0.00     0.049 A 
ATOM     57  H   UNL A   1      43.041  27.838  31.825  1.00  0.00     0.167 HD
ATOM     58  C   UNL A   1      44.765  25.671  31.165  1.00  0.00     0.074 A 
ATOM     59  C   UNL A   1      45.344  24.539  30.470  1.00  0.00     0.031 C 
ATOM     60  C   UNL A   1      45.306  26.247  32.266  1.00  0.00     0.037 A 
BRANCH  47  61
ATOM     61  C   UNL A   1      42.160  31.099  34.431  1.00  0.00     0.057 A 
ATOM     62  C   UNL A   1      42.746  32.356  34.227  1.00  0.00     0.134 A 
ATOM     63  C   UNL A   1      41.418  30.914  35.604  1.00  0.00     0.134 A 
ATOM     64  F   UNL A   1      43.483  32.593  33.132  1.00  0.00    -0.206 F 
ATOM     65  C   UNL A   1      42.607  33.385  35.159  1.00  0.00     0.040 A 
ATOM     66  C   UNL A   1      41.249  31.945  36.530  1.00  0.00     0.040 A 
ATOM     67  F   UNL A   1      40.829  29.737  35.861  1.00  0.00    -0.206 F 
ATOM     68  C   UNL A   1      41.847  33.185  36.309  1.00  0.00     0.006 A 
ENDBRANCH  47  61
BRANCH  48  69
ATOM     69  C   UNL A   1      42.513  24.012  27.374  1.00  0.00     0.057 A 
ATOM     70  C   UNL A   1      43.096  24.267  26.128  1.00  0.00     0.134 A 
ATOM     71  C   UNL A   1      42.011  22.724  27.598  1.00  0.00     0.134 A 
ATOM     72  F   UNL A   1      43.582  25.485  25.846  1.00  0.00    -0.206 F 
ATOM     73  C   UNL A   1      43.166  23.285  25.138  1.00  0.00     0.040 A 
ATOM     74  C   UNL A   1      42.097  21.726  26.628  1.00  0.00     0.040 A 
ATOM     75  F   UNL A   1      41.449  22.412  28.776  1.00  0.00    -0.206 F 
ATOM     76  C   UNL A   1      42.673  22.007  25.390  1.00  0.00     0.006 A 
ENDBRANCH  48  69
BRANCH  60  77
ATOM     77  C   UNL A   1      46.578  25.664  32.804  1.00  0.00     0.057 A 
ATOM     78  C   UNL A   1      47.832  26.129  32.389  1.00  0.00     0.134 A 
ATOM     79  C   UNL A   1      46.548  24.695  33.816  1.00  0.00     0.134 A 
ATOM     80  F   UNL A   1      47.927  27.049  31.417  1.00  0.00    -0.206 F 
ATOM     81  C   UNL A   1      49.011  25.646  32.957  1.00  0.00     0.040 A 
ATOM     82  C   UNL A   1      47.718  24.226  34.411  1.00  0.00     0.040 A 
ATOM     83  F   UNL A   1      45.378  24.218  34.267  1.00  0.00    -0.206 F 
ATOM     84  C   UNL A   1      48.955  24.701  33.980  1.00  0.00     0.006 A 
ENDBRANCH  60  77
ENDBRANCH  34  35
ENDBRANCH  26  29
ENDBRANCH  24  25
ENDBRANCH   1  24
TORSDOF 11
ENDMDL
