MODEL 1
REMARK VINA RESULT:     -11.7      0.000      0.000
REMARK SMILES C[C@@H](Oc1ccccc1Cl)C(=O)Nc1ccc(C(=O)NCCCNC(=O)c2ccc(-c3c4nc(c(-c5c(F)cccc5F)c5ccc([nH]5)c(-c5c(F)cccc5F)c5nc(c(-c6c(F)cccc6F)c6ccc3[nH]6)C=C5)C=C4)cc2)cc1
REMARK SMILES IDX 21 1 20 2 18 3 19 4 17 6 14 7 15 8 82 9 16 10 81 11 13 12
REMARK SMILES IDX 11 13 12 14 2 16 1 17 3 18 4 19 5 20 9 21 6 22 8 23 10 24
REMARK SMILES IDX 7 25 22 26 23 27 24 28 25 29 26 31 27 32 28 33 80 34 29 35
REMARK SMILES IDX 79 36 30 37 31 38 32 39 73 40 33 41 78 42 72 43 74 44 34 45
REMARK SMILES IDX 77 46 71 47 70 48 35 50 61 51 44 52 60 53 45 54 48 55 59 56
REMARK SMILES IDX 75 57 46 58 47 59 58 61 76 62 49 63 36 64 37 65 42 66 38 67
REMARK SMILES IDX 39 68 41 69 43 70 40 71 62 72 63 73 68 74 64 75 65 76 67 77
REMARK SMILES IDX 69 78 66 79 50 80 51 81 56 82 52 83 53 84 55 85 57 86 54 87
REMARK H PARENT 20 5 13 15 24 30 74 49 48 60
REMARK Flexibility Score: inf
ROOT
ATOM      1  C   UNL A   1      36.127  20.144  24.989  1.00  0.00     0.118 C 
ENDROOT
BRANCH   1   2
ATOM      2  N   UNL A   1      35.148  19.068  24.979  1.00  0.00    -0.352 N 
ATOM      3  C   UNL A   1      33.798  19.089  24.725  1.00  0.00     0.251 C 
ATOM      4  O   UNL A   1      33.193  18.019  24.649  1.00  0.00    -0.269 OA
ATOM      5  H   UNL A   1      35.513  18.178  25.189  1.00  0.00     0.163 HD
BRANCH   3   6
ATOM      6  C   UNL A   1      33.068  20.356  24.469  1.00  0.00     0.039 A 
ATOM      7  C   UNL A   1      31.471  22.627  24.158  1.00  0.00     0.041 A 
ATOM      8  C   UNL A   1      32.051  22.355  25.396  1.00  0.00     0.027 A 
ATOM      9  C   UNL A   1      31.819  21.861  23.049  1.00  0.00     0.027 A 
ATOM     10  C   UNL A   1      32.825  21.203  25.557  1.00  0.00     0.016 A 
ATOM     11  C   UNL A   1      32.635  20.739  23.199  1.00  0.00     0.016 A 
BRANCH   7  12
ATOM     12  N   UNL A   1      30.564  23.685  24.067  1.00  0.00    -0.323 N 
ATOM     13  C   UNL A   1      30.742  24.930  23.526  1.00  0.00     0.265 C 
ATOM     14  O   UNL A   1      29.833  25.756  23.682  1.00  0.00    -0.270 OA
ATOM     15  H   UNL A   1      29.672  23.511  24.446  1.00  0.00     0.170 HD
BRANCH  13  16
ATOM     16  C   UNL A   1      31.979  25.303  22.663  1.00  0.00     0.259 C 
ATOM     17  C   UNL A   1      31.538  26.053  21.410  1.00  0.00     0.064 C 
BRANCH  16  18
ATOM     18  O   UNL A   1      32.989  26.038  23.354  1.00  0.00    -0.479 OA
BRANCH  18  19
ATOM     19  C   UNL A   1      33.969  25.265  23.918  1.00  0.00     0.139 A 
ATOM     20  C   UNL A   1      34.573  24.256  23.163  1.00  0.00     0.048 A 
ATOM     21  C   UNL A   1      34.269  25.390  25.280  1.00  0.00     0.083 A 
ATOM     22  C   UNL A   1      35.505  23.402  23.759  1.00  0.00     0.004 A 
ATOM     23  C   UNL A   1      35.199  24.533  25.872  1.00  0.00     0.024 A 
ATOM     24  Cl  UNL A   1      33.520  26.588  26.270  1.00  0.00    -0.080 Cl
ATOM     25  C   UNL A   1      35.818  23.541  25.111  1.00  0.00     0.002 A 
ENDBRANCH  18  19
ENDBRANCH  16  18
ENDBRANCH  13  16
ENDBRANCH   7  12
ENDBRANCH   3   6
ENDBRANCH   1   2
BRANCH   1  26
ATOM     26  C   UNL A   1      37.533  19.626  24.692  1.00  0.00     0.042 C 
BRANCH  26  27
ATOM     27  C   UNL A   1      38.591  20.141  25.663  1.00  0.00     0.118 C 
BRANCH  27  28
ATOM     28  N   UNL A   1      39.731  19.243  25.766  1.00  0.00    -0.352 N 
ATOM     29  C   UNL A   1      41.029  19.501  26.116  1.00  0.00     0.251 C 
ATOM     30  H   UNL A   1      39.538  18.301  25.550  1.00  0.00     0.163 HD
ATOM     31  O   UNL A   1      41.878  18.619  25.969  1.00  0.00    -0.269 OA
BRANCH  29  32
ATOM     32  C   UNL A   1      41.438  20.820  26.651  1.00  0.00     0.039 A 
ATOM     33  C   UNL A   1      41.887  21.794  25.753  1.00  0.00     0.014 A 
ATOM     34  C   UNL A   1      41.441  21.092  28.023  1.00  0.00     0.014 A 
ATOM     35  C   UNL A   1      42.298  23.044  26.222  1.00  0.00     0.010 A 
ATOM     36  C   UNL A   1      41.783  22.363  28.484  1.00  0.00     0.010 A 
ATOM     37  C   UNL A   1      42.229  23.347  27.591  1.00  0.00    -0.014 A 
BRANCH  37  38
ATOM     38  C   UNL A   1      42.640  24.683  28.096  1.00  0.00     0.031 A 
ATOM     39  C   UNL A   1      41.611  25.759  28.324  1.00  0.00     0.074 A 
ATOM     40  C   UNL A   1      43.943  24.942  28.316  1.00  0.00     0.049 A 
ATOM     41  N   UNL A   1      41.780  26.992  28.733  1.00  0.00    -0.248 NA
ATOM     42  C   UNL A   1      40.212  25.410  28.034  1.00  0.00     0.031 C 
ATOM     43  C   UNL A   1      45.042  24.002  28.092  1.00  0.00     0.029 A 
ATOM     44  N   UNL A   1      44.564  26.077  28.775  1.00  0.00    -0.354 N 
ATOM     45  C   UNL A   1      40.516  27.567  28.735  1.00  0.00     0.074 A 
ATOM     46  C   UNL A   1      39.597  26.565  28.238  1.00  0.00     0.031 C 
ATOM     47  C   UNL A   1      46.199  24.589  28.438  1.00  0.00     0.029 A 
ATOM     48  C   UNL A   1      45.928  25.954  28.880  1.00  0.00     0.049 A 
ATOM     49  H   UNL A   1      44.078  26.901  29.006  1.00  0.00     0.167 HD
ATOM     50  C   UNL A   1      40.148  28.807  29.136  1.00  0.00     0.037 A 
ATOM     51  C   UNL A   1      46.856  26.840  29.287  1.00  0.00     0.037 A 
ATOM     52  C   UNL A   1      41.057  29.795  29.655  1.00  0.00     0.049 A 
ATOM     53  C   UNL A   1      46.421  28.208  29.733  1.00  0.00     0.074 A 
ATOM     54  C   UNL A   1      40.773  31.061  30.137  1.00  0.00     0.029 A 
ATOM     55  N   UNL A   1      42.429  29.625  29.762  1.00  0.00    -0.354 N 
ATOM     56  N   UNL A   1      45.214  28.716  29.789  1.00  0.00    -0.248 NA
ATOM     57  C   UNL A   1      47.479  29.124  30.184  1.00  0.00     0.031 C 
ATOM     58  C   UNL A   1      41.979  31.671  30.503  1.00  0.00     0.029 A 
ATOM     59  C   UNL A   1      43.008  30.769  30.287  1.00  0.00     0.049 A 
ATOM     60  H   UNL A   1      42.919  28.812  29.502  1.00  0.00     0.167 HD
ATOM     61  C   UNL A   1      45.363  29.997  30.303  1.00  0.00     0.074 A 
ATOM     62  C   UNL A   1      46.777  30.183  30.559  1.00  0.00     0.031 C 
ATOM     63  C   UNL A   1      44.415  30.936  30.542  1.00  0.00     0.037 A 
BRANCH  50  64
ATOM     64  C   UNL A   1      38.692  29.160  29.037  1.00  0.00     0.057 A 
ATOM     65  C   UNL A   1      37.833  29.066  30.141  1.00  0.00     0.134 A 
ATOM     66  C   UNL A   1      38.147  29.628  27.834  1.00  0.00     0.134 A 
ATOM     67  F   UNL A   1      38.289  28.613  31.319  1.00  0.00    -0.206 F 
ATOM     68  C   UNL A   1      36.480  29.396  30.044  1.00  0.00     0.040 A 
ATOM     69  C   UNL A   1      36.801  29.987  27.733  1.00  0.00     0.040 A 
ATOM     70  F   UNL A   1      38.915  29.750  26.741  1.00  0.00    -0.206 F 
ATOM     71  C   UNL A   1      35.962  29.863  28.839  1.00  0.00     0.006 A 
ENDBRANCH  50  64
BRANCH  51  72
ATOM     72  C   UNL A   1      48.289  26.454  29.324  1.00  0.00     0.057 A 
ATOM     73  C   UNL A   1      49.123  26.679  28.223  1.00  0.00     0.134 A 
ATOM     74  C   UNL A   1      48.854  25.844  30.450  1.00  0.00     0.134 A 
ATOM     75  F   UNL A   1      48.633  27.243  27.109  1.00  0.00    -0.206 F 
ATOM     76  C   UNL A   1      50.465  26.294  28.232  1.00  0.00     0.040 A 
ATOM     77  C   UNL A   1      50.199  25.474  30.481  1.00  0.00     0.040 A 
ATOM     78  F   UNL A   1      48.107  25.607  31.538  1.00  0.00    -0.206 F 
ATOM     79  C   UNL A   1      51.007  25.692  29.366  1.00  0.00     0.006 A 
ENDBRANCH  51  72
BRANCH  63  80
ATOM     80  C   UNL A   1      44.875  32.234  31.138  1.00  0.00     0.057 A 
ATOM     81  C   UNL A   1      44.953  32.425  32.523  1.00  0.00     0.134 A 
ATOM     82  C   UNL A   1      45.266  33.297  30.314  1.00  0.00     0.134 A 
ATOM     83  F   UNL A   1      44.579  31.450  33.366  1.00  0.00    -0.206 F 
ATOM     84  C   UNL A   1      45.379  33.637  33.068  1.00  0.00     0.040 A 
ATOM     85  C   UNL A   1      45.718  34.504  30.846  1.00  0.00     0.040 A 
ATOM     86  F   UNL A   1      45.222  33.176  28.978  1.00  0.00    -0.206 F 
ATOM     87  C   UNL A   1      45.768  34.679  32.229  1.00  0.00     0.006 A 
ENDBRANCH  63  80
ENDBRANCH  37  38
ENDBRANCH  29  32
ENDBRANCH  27  28
ENDBRANCH  26  27
ENDBRANCH   1  26
TORSDOF 14
ENDMDL
MODEL 2
REMARK VINA RESULT:     -11.6      1.522      6.456
REMARK SMILES C[C@@H](Oc1ccccc1Cl)C(=O)Nc1ccc(C(=O)NCCCNC(=O)c2ccc(-c3c4nc(c(-c5c(F)cccc5F)c5ccc([nH]5)c(-c5c(F)cccc5F)c5nc(c(-c6c(F)cccc6F)c6ccc3[nH]6)C=C5)C=C4)cc2)cc1
REMARK SMILES IDX 21 1 20 2 18 3 19 4 17 6 14 7 15 8 82 9 16 10 81 11 13 12
REMARK SMILES IDX 11 13 12 14 2 16 1 17 3 18 4 19 5 20 9 21 6 22 8 23 10 24
REMARK SMILES IDX 7 25 22 26 23 27 24 28 25 29 26 31 27 32 28 33 80 34 29 35
REMARK SMILES IDX 79 36 30 37 31 38 32 39 73 40 33 41 78 42 72 43 74 44 34 45
REMARK SMILES IDX 77 46 71 47 70 48 35 50 61 51 44 52 60 53 45 54 48 55 59 56
REMARK SMILES IDX 75 57 46 58 47 59 58 61 76 62 49 63 36 64 37 65 42 66 38 67
REMARK SMILES IDX 39 68 41 69 43 70 40 71 62 72 63 73 68 74 64 75 65 76 67 77
REMARK SMILES IDX 69 78 66 79 50 80 51 81 56 82 52 83 53 84 55 85 57 86 54 87
REMARK H PARENT 20 5 13 15 24 30 74 49 48 60
REMARK Flexibility Score: inf
ROOT
ATOM      1  C   UNL A   1      37.869  21.521  25.321  1.00  0.00     0.118 C 
ENDROOT
BRANCH   1   2
ATOM      2  N   UNL A   1      37.428  22.197  24.111  1.00  0.00    -0.352 N 
ATOM      3  C   UNL A   1      36.188  22.662  23.746  1.00  0.00     0.251 C 
ATOM      4  O   UNL A   1      36.082  23.322  22.713  1.00  0.00    -0.269 OA
ATOM      5  H   UNL A   1      38.135  22.345  23.442  1.00  0.00     0.163 HD
BRANCH   3   6
ATOM      6  C   UNL A   1      34.991  22.451  24.598  1.00  0.00     0.039 A 
ATOM      7  C   UNL A   1      32.594  22.251  26.021  1.00  0.00     0.041 A 
ATOM      8  C   UNL A   1      32.684  21.707  24.740  1.00  0.00     0.027 A 
ATOM      9  C   UNL A   1      33.737  22.745  26.644  1.00  0.00     0.027 A 
ATOM     10  C   UNL A   1      33.874  21.834  24.019  1.00  0.00     0.016 A 
ATOM     11  C   UNL A   1      34.940  22.824  25.942  1.00  0.00     0.016 A 
BRANCH   7  12
ATOM     12  N   UNL A   1      31.347  22.265  26.650  1.00  0.00    -0.323 N 
ATOM     13  C   UNL A   1      30.499  23.320  26.860  1.00  0.00     0.265 C 
ATOM     14  O   UNL A   1      29.503  23.119  27.567  1.00  0.00    -0.270 OA
ATOM     15  H   UNL A   1      31.036  21.396  26.992  1.00  0.00     0.170 HD
BRANCH  13  16
ATOM     16  C   UNL A   1      30.693  24.703  26.181  1.00  0.00     0.259 C 
ATOM     17  C   UNL A   1      29.342  25.387  25.987  1.00  0.00     0.064 C 
BRANCH  16  18
ATOM     18  O   UNL A   1      31.601  25.576  26.852  1.00  0.00    -0.479 OA
BRANCH  18  19
ATOM     19  C   UNL A   1      32.296  26.418  26.026  1.00  0.00     0.139 A 
ATOM     20  C   UNL A   1      33.012  25.890  24.947  1.00  0.00     0.048 A 
ATOM     21  C   UNL A   1      32.405  27.779  26.334  1.00  0.00     0.083 A 
ATOM     22  C   UNL A   1      33.802  26.730  24.156  1.00  0.00     0.004 A 
ATOM     23  C   UNL A   1      33.196  28.614  25.543  1.00  0.00     0.024 A 
ATOM     24  Cl  UNL A   1      31.579  28.474  27.679  1.00  0.00    -0.080 Cl
ATOM     25  C   UNL A   1      33.892  28.090  24.453  1.00  0.00     0.002 A 
ENDBRANCH  18  19
ENDBRANCH  16  18
ENDBRANCH  13  16
ENDBRANCH   7  12
ENDBRANCH   3   6
ENDBRANCH   1   2
BRANCH   1  26
ATOM     26  C   UNL A   1      38.586  20.210  25.003  1.00  0.00     0.042 C 
BRANCH  26  27
ATOM     27  C   UNL A   1      39.296  19.595  26.205  1.00  0.00     0.118 C 
BRANCH  27  28
ATOM     28  N   UNL A   1      40.581  19.013  25.849  1.00  0.00    -0.352 N 
ATOM     29  C   UNL A   1      41.834  19.567  25.862  1.00  0.00     0.251 C 
ATOM     30  H   UNL A   1      40.545  18.075  25.553  1.00  0.00     0.163 HD
ATOM     31  O   UNL A   1      42.769  18.946  25.351  1.00  0.00    -0.269 OA
BRANCH  29  32
ATOM     32  C   UNL A   1      42.086  20.898  26.458  1.00  0.00     0.039 A 
ATOM     33  C   UNL A   1      42.398  21.963  25.606  1.00  0.00     0.014 A 
ATOM     34  C   UNL A   1      42.075  21.101  27.842  1.00  0.00     0.014 A 
ATOM     35  C   UNL A   1      42.660  23.229  26.133  1.00  0.00     0.010 A 
ATOM     36  C   UNL A   1      42.265  22.382  28.362  1.00  0.00     0.010 A 
ATOM     37  C   UNL A   1      42.574  23.455  27.516  1.00  0.00    -0.014 A 
BRANCH  37  38
ATOM     38  C   UNL A   1      42.825  24.806  28.084  1.00  0.00     0.031 A 
ATOM     39  C   UNL A   1      44.212  25.203  28.514  1.00  0.00     0.074 A 
ATOM     40  C   UNL A   1      41.799  25.662  28.248  1.00  0.00     0.049 A 
ATOM     41  N   UNL A   1      44.621  26.323  29.057  1.00  0.00    -0.248 NA
ATOM     42  C   UNL A   1      45.275  24.203  28.331  1.00  0.00     0.031 C 
ATOM     43  C   UNL A   1      40.402  25.383  27.914  1.00  0.00     0.029 A 
ATOM     44  N   UNL A   1      41.774  26.943  28.741  1.00  0.00    -0.354 N 
ATOM     45  C   UNL A   1      45.980  26.156  29.291  1.00  0.00     0.074 A 
ATOM     46  C   UNL A   1      46.317  24.811  28.880  1.00  0.00     0.031 C 
ATOM     47  C   UNL A   1      39.660  26.468  28.187  1.00  0.00     0.029 A 
ATOM     48  C   UNL A   1      40.522  27.508  28.742  1.00  0.00     0.049 A 
ATOM     49  H   UNL A   1      42.577  27.412  29.065  1.00  0.00     0.167 HD
ATOM     50  C   UNL A   1      46.873  27.050  29.780  1.00  0.00     0.037 A 
ATOM     51  C   UNL A   1      40.114  28.726  29.143  1.00  0.00     0.037 A 
ATOM     52  C   UNL A   1      46.545  28.398  30.165  1.00  0.00     0.049 A 
ATOM     53  C   UNL A   1      41.125  29.702  29.677  1.00  0.00     0.074 A 
ATOM     54  C   UNL A   1      47.388  29.395  30.623  1.00  0.00     0.029 A 
ATOM     55  N   UNL A   1      45.268  28.938  30.134  1.00  0.00    -0.354 N 
ATOM     56  N   UNL A   1      42.418  29.551  29.834  1.00  0.00    -0.248 NA
ATOM     57  C   UNL A   1      40.621  31.022  30.081  1.00  0.00     0.031 C 
ATOM     58  C   UNL A   1      46.615  30.528  30.902  1.00  0.00     0.029 A 
ATOM     59  C   UNL A   1      45.297  30.249  30.579  1.00  0.00     0.049 A 
ATOM     60  H   UNL A   1      44.459  28.459  29.839  1.00  0.00     0.167 HD
ATOM     61  C   UNL A   1      42.885  30.762  30.329  1.00  0.00     0.074 A 
ATOM     62  C   UNL A   1      41.739  31.643  30.430  1.00  0.00     0.031 C 
ATOM     63  C   UNL A   1      44.149  31.114  30.668  1.00  0.00     0.037 A 
BRANCH  50  64
ATOM     64  C   UNL A   1      48.297  26.596  29.919  1.00  0.00     0.057 A 
ATOM     65  C   UNL A   1      49.246  26.827  28.913  1.00  0.00     0.134 A 
ATOM     66  C   UNL A   1      48.735  25.948  31.081  1.00  0.00     0.134 A 
ATOM     67  F   UNL A   1      48.889  27.433  27.769  1.00  0.00    -0.206 F 
ATOM     68  C   UNL A   1      50.569  26.405  29.046  1.00  0.00     0.040 A 
ATOM     69  C   UNL A   1      50.062  25.544  31.236  1.00  0.00     0.040 A 
ATOM     70  F   UNL A   1      47.881  25.702  32.086  1.00  0.00    -0.206 F 
ATOM     71  C   UNL A   1      50.982  25.766  30.213  1.00  0.00     0.006 A 
ENDBRANCH  50  64
BRANCH  51  72
ATOM     72  C   UNL A   1      38.685  29.109  29.026  1.00  0.00     0.057 A 
ATOM     73  C   UNL A   1      38.158  29.559  27.810  1.00  0.00     0.134 A 
ATOM     74  C   UNL A   1      37.818  29.046  30.123  1.00  0.00     0.134 A 
ATOM     75  F   UNL A   1      38.945  29.658  26.729  1.00  0.00    -0.206 F 
ATOM     76  C   UNL A   1      36.823  29.951  27.692  1.00  0.00     0.040 A 
ATOM     77  C   UNL A   1      36.476  29.413  30.014  1.00  0.00     0.040 A 
ATOM     78  F   UNL A   1      38.262  28.618  31.313  1.00  0.00    -0.206 F 
ATOM     79  C   UNL A   1      35.977  29.875  28.797  1.00  0.00     0.006 A 
ENDBRANCH  51  72
BRANCH  63  80
ATOM     80  C   UNL A   1      44.361  32.519  31.151  1.00  0.00     0.057 A 
ATOM     81  C   UNL A   1      44.275  32.856  32.508  1.00  0.00     0.134 A 
ATOM     82  C   UNL A   1      44.676  33.542  30.247  1.00  0.00     0.134 A 
ATOM     83  F   UNL A   1      43.963  31.924  33.421  1.00  0.00    -0.206 F 
ATOM     84  C   UNL A   1      44.471  34.166  32.946  1.00  0.00     0.040 A 
ATOM     85  C   UNL A   1      44.898  34.850  30.677  1.00  0.00     0.040 A 
ATOM     86  F   UNL A   1      44.780  33.284  28.935  1.00  0.00    -0.206 F 
ATOM     87  C   UNL A   1      44.788  35.166  32.030  1.00  0.00     0.006 A 
ENDBRANCH  63  80
ENDBRANCH  37  38
ENDBRANCH  29  32
ENDBRANCH  27  28
ENDBRANCH  26  27
ENDBRANCH   1  26
TORSDOF 14
ENDMDL
MODEL 3
REMARK VINA RESULT:     -11.6      0.360      6.132
REMARK SMILES C[C@@H](Oc1ccccc1Cl)C(=O)Nc1ccc(C(=O)NCCCNC(=O)c2ccc(-c3c4nc(c(-c5c(F)cccc5F)c5ccc([nH]5)c(-c5c(F)cccc5F)c5nc(c(-c6c(F)cccc6F)c6ccc3[nH]6)C=C5)C=C4)cc2)cc1
REMARK SMILES IDX 21 1 20 2 18 3 19 4 17 6 14 7 15 8 82 9 16 10 81 11 13 12
REMARK SMILES IDX 11 13 12 14 2 16 1 17 3 18 4 19 5 20 9 21 6 22 8 23 10 24
REMARK SMILES IDX 7 25 22 26 23 27 24 28 25 29 26 31 27 32 28 33 80 34 29 35
REMARK SMILES IDX 79 36 30 37 31 38 32 39 73 40 33 41 78 42 72 43 74 44 34 45
REMARK SMILES IDX 77 46 71 47 70 48 35 50 61 51 44 52 60 53 45 54 48 55 59 56
REMARK SMILES IDX 75 57 46 58 47 59 58 61 76 62 49 63 36 64 37 65 42 66 38 67
REMARK SMILES IDX 39 68 41 69 43 70 40 71 62 72 63 73 68 74 64 75 65 76 67 77
REMARK SMILES IDX 69 78 66 79 50 80 51 81 56 82 52 83 53 84 55 85 57 86 54 87
REMARK H PARENT 20 5 13 15 24 30 74 49 48 60
REMARK Flexibility Score: inf
ROOT
ATOM      1  C   UNL A   1      36.049  20.006  24.990  1.00  0.00     0.118 C 
ENDROOT
BRANCH   1   2
ATOM      2  N   UNL A   1      35.040  18.959  24.943  1.00  0.00    -0.352 N 
ATOM      3  C   UNL A   1      33.695  19.023  24.670  1.00  0.00     0.251 C 
ATOM      4  O   UNL A   1      33.062  17.974  24.563  1.00  0.00    -0.269 OA
ATOM      5  H   UNL A   1      35.376  18.055  25.140  1.00  0.00     0.163 HD
BRANCH   3   6
ATOM      6  C   UNL A   1      33.006  20.316  24.430  1.00  0.00     0.039 A 
ATOM      7  C   UNL A   1      31.480  22.640  24.149  1.00  0.00     0.041 A 
ATOM      8  C   UNL A   1      32.051  22.334  25.384  1.00  0.00     0.027 A 
ATOM      9  C   UNL A   1      31.804  21.878  23.030  1.00  0.00     0.027 A 
ATOM     10  C   UNL A   1      32.789  21.157  25.529  1.00  0.00     0.016 A 
ATOM     11  C   UNL A   1      32.584  20.729  23.165  1.00  0.00     0.016 A 
BRANCH   7  12
ATOM     12  N   UNL A   1      30.606  23.727  24.072  1.00  0.00    -0.323 N 
ATOM     13  C   UNL A   1      30.811  24.961  23.513  1.00  0.00     0.265 C 
ATOM     14  O   UNL A   1      29.935  25.817  23.685  1.00  0.00    -0.270 OA
ATOM     15  H   UNL A   1      29.720  23.587  24.477  1.00  0.00     0.170 HD
BRANCH  13  16
ATOM     16  C   UNL A   1      32.036  25.283  22.614  1.00  0.00     0.259 C 
ATOM     17  C   UNL A   1      31.584  26.017  21.355  1.00  0.00     0.064 C 
BRANCH  16  18
ATOM     18  O   UNL A   1      33.080  26.007  23.264  1.00  0.00    -0.479 OA
BRANCH  18  19
ATOM     19  C   UNL A   1      34.025  25.222  23.869  1.00  0.00     0.139 A 
ATOM     20  C   UNL A   1      34.626  24.187  23.148  1.00  0.00     0.048 A 
ATOM     21  C   UNL A   1      34.290  25.364  25.236  1.00  0.00     0.083 A 
ATOM     22  C   UNL A   1      35.520  23.321  23.785  1.00  0.00     0.004 A 
ATOM     23  C   UNL A   1      35.182  24.496  25.869  1.00  0.00     0.024 A 
ATOM     24  Cl  UNL A   1      33.542  26.596  26.184  1.00  0.00    -0.080 Cl
ATOM     25  C   UNL A   1      35.799  23.477  25.143  1.00  0.00     0.002 A 
ENDBRANCH  18  19
ENDBRANCH  16  18
ENDBRANCH  13  16
ENDBRANCH   7  12
ENDBRANCH   3   6
ENDBRANCH   1   2
BRANCH   1  26
ATOM     26  C   UNL A   1      37.441  19.457  24.685  1.00  0.00     0.042 C 
BRANCH  26  27
ATOM     27  C   UNL A   1      38.548  20.109  25.508  1.00  0.00     0.118 C 
BRANCH  27  28
ATOM     28  N   UNL A   1      39.716  19.251  25.641  1.00  0.00    -0.352 N 
ATOM     29  C   UNL A   1      40.992  19.553  26.037  1.00  0.00     0.251 C 
ATOM     30  H   UNL A   1      39.565  18.306  25.413  1.00  0.00     0.163 HD
ATOM     31  O   UNL A   1      41.876  18.703  25.911  1.00  0.00    -0.269 OA
BRANCH  29  32
ATOM     32  C   UNL A   1      41.335  20.881  26.595  1.00  0.00     0.039 A 
ATOM     33  C   UNL A   1      41.820  21.865  25.727  1.00  0.00     0.014 A 
ATOM     34  C   UNL A   1      41.242  21.153  27.964  1.00  0.00     0.014 A 
ATOM     35  C   UNL A   1      42.172  23.123  26.219  1.00  0.00     0.010 A 
ATOM     36  C   UNL A   1      41.524  22.432  28.444  1.00  0.00     0.010 A 
ATOM     37  C   UNL A   1      42.006  23.425  27.581  1.00  0.00    -0.014 A 
BRANCH  37  38
ATOM     38  C   UNL A   1      42.353  24.770  28.110  1.00  0.00     0.031 A 
ATOM     39  C   UNL A   1      43.776  25.100  28.473  1.00  0.00     0.074 A 
ATOM     40  C   UNL A   1      41.382  25.684  28.299  1.00  0.00     0.049 A 
ATOM     41  N   UNL A   1      44.267  26.206  28.974  1.00  0.00    -0.248 NA
ATOM     42  C   UNL A   1      44.775  24.041  28.265  1.00  0.00     0.031 C 
ATOM     43  C   UNL A   1      39.958  25.475  28.030  1.00  0.00     0.029 A 
ATOM     44  N   UNL A   1      41.446  26.973  28.766  1.00  0.00    -0.354 N 
ATOM     45  C   UNL A   1      45.624  25.970  29.155  1.00  0.00     0.074 A 
ATOM     46  C   UNL A   1      45.871  24.601  28.758  1.00  0.00     0.031 C 
ATOM     47  C   UNL A   1      39.288  26.603  28.311  1.00  0.00     0.029 A 
ATOM     48  C   UNL A   1      40.227  27.605  28.808  1.00  0.00     0.049 A 
ATOM     49  H   UNL A   1      42.286  27.404  29.046  1.00  0.00     0.167 HD
ATOM     50  C   UNL A   1      46.583  26.824  29.588  1.00  0.00     0.037 A 
ATOM     51  C   UNL A   1      39.902  28.851  29.201  1.00  0.00     0.037 A 
ATOM     52  C   UNL A   1      46.344  28.194  29.959  1.00  0.00     0.049 A 
ATOM     53  C   UNL A   1      40.986  29.780  29.672  1.00  0.00     0.074 A 
ATOM     54  C   UNL A   1      47.258  29.152  30.359  1.00  0.00     0.029 A 
ATOM     55  N   UNL A   1      45.098  28.801  29.970  1.00  0.00    -0.354 N 
ATOM     56  N   UNL A   1      42.275  29.562  29.777  1.00  0.00    -0.248 NA
ATOM     57  C   UNL A   1      40.571  31.133  30.069  1.00  0.00     0.031 C 
ATOM     58  C   UNL A   1      46.560  30.330  30.648  1.00  0.00     0.029 A 
ATOM     59  C   UNL A   1      45.216  30.117  30.387  1.00  0.00     0.049 A 
ATOM     60  H   UNL A   1      44.253  28.362  29.720  1.00  0.00     0.167 HD
ATOM     61  C   UNL A   1      42.826  30.755  30.227  1.00  0.00     0.074 A 
ATOM     62  C   UNL A   1      41.734  31.698  30.358  1.00  0.00     0.031 C 
ATOM     63  C   UNL A   1      44.121  31.044  30.506  1.00  0.00     0.037 A 
BRANCH  50  64
ATOM     64  C   UNL A   1      47.986  26.296  29.676  1.00  0.00     0.057 A 
ATOM     65  C   UNL A   1      48.866  26.355  28.586  1.00  0.00     0.134 A 
ATOM     66  C   UNL A   1      48.475  25.749  30.869  1.00  0.00     0.134 A 
ATOM     67  F   UNL A   1      48.457  26.856  27.410  1.00  0.00    -0.206 F 
ATOM     68  C   UNL A   1      50.170  25.865  28.672  1.00  0.00     0.040 A 
ATOM     69  C   UNL A   1      49.785  25.280  30.975  1.00  0.00     0.040 A 
ATOM     70  F   UNL A   1      47.688  25.669  31.954  1.00  0.00    -0.206 F 
ATOM     71  C   UNL A   1      50.634  25.330  29.871  1.00  0.00     0.006 A 
ENDBRANCH  50  64
BRANCH  51  72
ATOM     72  C   UNL A   1      38.492  29.308  29.136  1.00  0.00     0.057 A 
ATOM     73  C   UNL A   1      37.944  29.783  27.940  1.00  0.00     0.134 A 
ATOM     74  C   UNL A   1      37.664  29.290  30.264  1.00  0.00     0.134 A 
ATOM     75  F   UNL A   1      38.694  29.841  26.829  1.00  0.00    -0.206 F 
ATOM     76  C   UNL A   1      36.629  30.246  27.870  1.00  0.00     0.040 A 
ATOM     77  C   UNL A   1      36.340  29.728  30.205  1.00  0.00     0.040 A 
ATOM     78  F   UNL A   1      38.129  28.840  31.439  1.00  0.00    -0.206 F 
ATOM     79  C   UNL A   1      35.822  30.214  29.006  1.00  0.00     0.006 A 
ENDBRANCH  51  72
BRANCH  63  80
ATOM     80  C   UNL A   1      44.427  32.444  30.950  1.00  0.00     0.057 A 
ATOM     81  C   UNL A   1      44.443  32.804  32.304  1.00  0.00     0.134 A 
ATOM     82  C   UNL A   1      44.732  33.438  30.012  1.00  0.00     0.134 A 
ATOM     83  F   UNL A   1      44.146  31.901  33.250  1.00  0.00    -0.206 F 
ATOM     84  C   UNL A   1      44.726  34.110  32.707  1.00  0.00     0.040 A 
ATOM     85  C   UNL A   1      45.041  34.740  30.403  1.00  0.00     0.040 A 
ATOM     86  F   UNL A   1      44.741  33.157  28.699  1.00  0.00    -0.206 F 
ATOM     87  C   UNL A   1      45.032  35.081  31.755  1.00  0.00     0.006 A 
ENDBRANCH  63  80
ENDBRANCH  37  38
ENDBRANCH  29  32
ENDBRANCH  27  28
ENDBRANCH  26  27
ENDBRANCH   1  26
TORSDOF 14
ENDMDL
