MODEL 1
REMARK VINA RESULT:     -11.1      0.000      0.000
REMARK SMILES CC[C@](C)(Nc1cccc(Cl)c1C(N)=O)C(=O)NCCCNC(=O)c1ccc(-c2c3nc(c(-c4c(F)cccc4F)c4ccc([nH]4)c(-c4c(F)cccc4F)c4nc(c(-c5c(F)cccc5F)c5ccc2[nH]5)C=C4)C=C3)cc1
REMARK SMILES IDX 19 1 18 2 16 3 17 4 3 6 4 7 2 8 1 9 5 10 6 12 7 13 12 14
REMARK SMILES IDX 8 15 10 16 9 17 11 18 13 19 14 20 15 21 20 24 21 25 22 26
REMARK SMILES IDX 23 27 24 29 25 30 26 31 78 32 27 33 77 34 28 35 29 36 30 37
REMARK SMILES IDX 71 38 31 39 76 40 70 41 72 42 32 43 75 44 69 45 68 46 33 48
REMARK SMILES IDX 59 49 42 50 58 51 43 52 46 53 57 54 73 55 44 56 45 57 56 59
REMARK SMILES IDX 74 60 47 61 34 62 35 63 40 64 36 65 37 66 39 67 41 68 38 69
REMARK SMILES IDX 60 70 61 71 66 72 62 73 63 74 65 75 67 76 64 77 48 78 49 79
REMARK SMILES IDX 54 80 50 81 51 82 53 83 55 84 52 85
REMARK H PARENT 18 5 5 11 14 22 14 23 22 28 72 47 46 58
REMARK Flexibility Score: inf
ROOT
ATOM      1  C   UNL A   1      36.534  20.327  25.001  1.00  0.00     0.117 C 
ENDROOT
BRANCH   1   2
ATOM      2  N   UNL A   1      36.759  21.683  25.469  1.00  0.00    -0.354 N 
ATOM      3  C   UNL A   1      35.907  22.694  25.813  1.00  0.00     0.245 C 
ATOM      4  O   UNL A   1      36.448  23.743  26.185  1.00  0.00    -0.272 OA
ATOM      5  H   UNL A   1      37.711  21.921  25.554  1.00  0.00     0.163 HD
BRANCH   3   6
ATOM      6  C   UNL A   1      34.359  22.561  25.735  1.00  0.00     0.113 C 
ATOM      7  C   UNL A   1      33.930  21.232  26.405  1.00  0.00     0.045 C 
BRANCH   6   8
ATOM      8  C   UNL A   1      33.893  22.475  24.245  1.00  0.00     0.035 C 
ATOM      9  C   UNL A   1      34.721  23.310  23.263  1.00  0.00     0.007 C 
ENDBRANCH   6   8
BRANCH   6  10
ATOM     10  N   UNL A   1      33.607  23.653  26.431  1.00  0.00    -0.371 N 
ATOM     11  H   UNL A   1      33.508  23.528  27.403  1.00  0.00     0.161 HD
BRANCH  10  12
ATOM     12  C   UNL A   1      33.020  24.824  25.936  1.00  0.00     0.049 A 
ATOM     13  C   UNL A   1      33.777  25.987  25.715  1.00  0.00     0.026 A 
ATOM     14  C   UNL A   1      31.636  24.897  25.577  1.00  0.00     0.081 A 
ATOM     15  C   UNL A   1      33.303  27.074  24.980  1.00  0.00     0.004 A 
ATOM     16  C   UNL A   1      31.154  26.013  24.845  1.00  0.00     0.055 A 
ATOM     17  C   UNL A   1      32.004  27.070  24.512  1.00  0.00     0.021 A 
ATOM     18  Cl  UNL A   1      29.516  26.225  24.316  1.00  0.00    -0.083 Cl
BRANCH  14  19
ATOM     19  C   UNL A   1      30.653  23.846  26.020  1.00  0.00     0.252 C 
ATOM     20  N   UNL A   1      29.660  24.247  26.876  1.00  0.00    -0.365 N 
ATOM     21  O   UNL A   1      30.661  22.687  25.647  1.00  0.00    -0.269 OA
ATOM     22  H   UNL A   1      29.631  25.178  27.193  1.00  0.00     0.159 HD
ATOM     23  H   UNL A   1      28.978  23.603  27.174  1.00  0.00     0.159 HD
ENDBRANCH  14  19
ENDBRANCH  10  12
ENDBRANCH   6  10
ENDBRANCH   3   6
ENDBRANCH   1   2
BRANCH   1  24
ATOM     24  C   UNL A   1      37.777  19.446  24.983  1.00  0.00     0.042 C 
BRANCH  24  25
ATOM     25  C   UNL A   1      38.966  20.012  25.748  1.00  0.00     0.118 C 
BRANCH  25  26
ATOM     26  N   UNL A   1      40.064  19.065  25.821  1.00  0.00    -0.352 N 
ATOM     27  C   UNL A   1      41.409  19.291  25.953  1.00  0.00     0.251 C 
ATOM     28  H   UNL A   1      39.802  18.117  25.768  1.00  0.00     0.163 HD
ATOM     29  O   UNL A   1      42.194  18.369  25.751  1.00  0.00    -0.269 OA
BRANCH  27  30
ATOM     30  C   UNL A   1      41.926  20.626  26.334  1.00  0.00     0.039 A 
ATOM     31  C   UNL A   1      42.052  20.923  27.694  1.00  0.00     0.014 A 
ATOM     32  C   UNL A   1      42.205  21.612  25.382  1.00  0.00     0.014 A 
ATOM     33  C   UNL A   1      42.458  22.197  28.094  1.00  0.00     0.010 A 
ATOM     34  C   UNL A   1      42.694  22.856  25.780  1.00  0.00     0.010 A 
ATOM     35  C   UNL A   1      42.788  23.176  27.142  1.00  0.00    -0.014 A 
BRANCH  35  36
ATOM     36  C   UNL A   1      43.159  24.548  27.579  1.00  0.00     0.031 A 
ATOM     37  C   UNL A   1      44.594  25.004  27.512  1.00  0.00     0.074 A 
ATOM     38  C   UNL A   1      42.208  25.393  28.017  1.00  0.00     0.049 A 
ATOM     39  N   UNL A   1      45.101  26.181  27.785  1.00  0.00    -0.248 NA
ATOM     40  C   UNL A   1      45.595  24.004  27.104  1.00  0.00     0.031 C 
ATOM     41  C   UNL A   1      40.790  25.063  28.171  1.00  0.00     0.029 A 
ATOM     42  N   UNL A   1      42.287  26.708  28.401  1.00  0.00    -0.354 N 
ATOM     43  C   UNL A   1      46.472  26.060  27.584  1.00  0.00     0.074 A 
ATOM     44  C   UNL A   1      46.726  24.680  27.233  1.00  0.00     0.031 C 
ATOM     45  C   UNL A   1      40.127  26.157  28.578  1.00  0.00     0.029 A 
ATOM     46  C   UNL A   1      41.074  27.257  28.741  1.00  0.00     0.049 A 
ATOM     47  H   UNL A   1      43.132  27.212  28.429  1.00  0.00     0.167 HD
ATOM     48  C   UNL A   1      47.430  27.015  27.655  1.00  0.00     0.037 A 
ATOM     49  C   UNL A   1      40.759  28.506  29.134  1.00  0.00     0.037 A 
ATOM     50  C   UNL A   1      47.177  28.392  27.990  1.00  0.00     0.049 A 
ATOM     51  C   UNL A   1      41.843  29.547  29.211  1.00  0.00     0.074 A 
ATOM     52  C   UNL A   1      48.073  29.445  28.049  1.00  0.00     0.029 A 
ATOM     53  N   UNL A   1      45.934  28.906  28.329  1.00  0.00    -0.354 N 
ATOM     54  N   UNL A   1      43.122  29.434  28.948  1.00  0.00    -0.248 NA
ATOM     55  C   UNL A   1      41.432  30.897  29.623  1.00  0.00     0.031 C 
ATOM     56  C   UNL A   1      47.384  30.584  28.475  1.00  0.00     0.029 A 
ATOM     57  C   UNL A   1      46.045  30.257  28.617  1.00  0.00     0.049 A 
ATOM     58  H   UNL A   1      45.098  28.388  28.361  1.00  0.00     0.167 HD
ATOM     59  C   UNL A   1      43.660  30.704  29.123  1.00  0.00     0.074 A 
ATOM     60  C   UNL A   1      42.565  31.572  29.501  1.00  0.00     0.031 C 
ATOM     61  C   UNL A   1      44.945  31.115  28.980  1.00  0.00     0.037 A 
BRANCH  48  62
ATOM     62  C   UNL A   1      48.845  26.599  27.362  1.00  0.00     0.057 A 
ATOM     63  C   UNL A   1      49.723  26.191  28.377  1.00  0.00     0.134 A 
ATOM     64  C   UNL A   1      49.329  26.579  26.048  1.00  0.00     0.134 A 
ATOM     65  F   UNL A   1      49.330  26.196  29.660  1.00  0.00    -0.206 F 
ATOM     66  C   UNL A   1      51.036  25.807  28.098  1.00  0.00     0.040 A 
ATOM     67  C   UNL A   1      50.630  26.168  25.753  1.00  0.00     0.040 A 
ATOM     68  F   UNL A   1      48.543  26.951  25.027  1.00  0.00    -0.206 F 
ATOM     69  C   UNL A   1      51.491  25.788  26.782  1.00  0.00     0.006 A 
ENDBRANCH  48  62
BRANCH  49  70
ATOM     70  C   UNL A   1      39.350  28.854  29.452  1.00  0.00     0.057 A 
ATOM     71  C   UNL A   1      38.501  29.402  28.484  1.00  0.00     0.134 A 
ATOM     72  C   UNL A   1      38.827  28.668  30.737  1.00  0.00     0.134 A 
ATOM     73  F   UNL A   1      38.948  29.621  27.238  1.00  0.00    -0.206 F 
ATOM     74  C   UNL A   1      37.191  29.777  28.787  1.00  0.00     0.040 A 
ATOM     75  C   UNL A   1      37.510  29.011  31.047  1.00  0.00     0.040 A 
ATOM     76  F   UNL A   1      39.586  28.140  31.708  1.00  0.00    -0.206 F 
ATOM     77  C   UNL A   1      36.691  29.579  30.073  1.00  0.00     0.006 A 
ENDBRANCH  49  70
BRANCH  61  78
ATOM     78  C   UNL A   1      45.225  32.578  29.176  1.00  0.00     0.057 A 
ATOM     79  C   UNL A   1      45.611  33.108  30.414  1.00  0.00     0.134 A 
ATOM     80  C   UNL A   1      45.119  33.469  28.100  1.00  0.00     0.134 A 
ATOM     81  F   UNL A   1      45.723  32.313  31.490  1.00  0.00    -0.206 F 
ATOM     82  C   UNL A   1      45.841  34.475  30.584  1.00  0.00     0.040 A 
ATOM     83  C   UNL A   1      45.379  34.832  28.249  1.00  0.00     0.040 A 
ATOM     84  F   UNL A   1      44.766  33.028  26.882  1.00  0.00    -0.206 F 
ATOM     85  C   UNL A   1      45.730  35.340  29.497  1.00  0.00     0.006 A 
ENDBRANCH  61  78
ENDBRANCH  35  36
ENDBRANCH  27  30
ENDBRANCH  25  26
ENDBRANCH  24  25
ENDBRANCH   1  24
TORSDOF 14
ENDMDL
MODEL 2
REMARK VINA RESULT:     -11.0      2.742      7.363
REMARK SMILES CC[C@](C)(Nc1cccc(Cl)c1C(N)=O)C(=O)NCCCNC(=O)c1ccc(-c2c3nc(c(-c4c(F)cccc4F)c4ccc([nH]4)c(-c4c(F)cccc4F)c4nc(c(-c5c(F)cccc5F)c5ccc2[nH]5)C=C4)C=C3)cc1
REMARK SMILES IDX 19 1 18 2 16 3 17 4 3 6 4 7 2 8 1 9 5 10 6 12 7 13 12 14
REMARK SMILES IDX 8 15 10 16 9 17 11 18 13 19 14 20 15 21 20 24 21 25 22 26
REMARK SMILES IDX 23 27 24 29 25 30 26 31 78 32 27 33 77 34 28 35 29 36 30 37
REMARK SMILES IDX 71 38 31 39 76 40 70 41 72 42 32 43 75 44 69 45 68 46 33 48
REMARK SMILES IDX 59 49 42 50 58 51 43 52 46 53 57 54 73 55 44 56 45 57 56 59
REMARK SMILES IDX 74 60 47 61 34 62 35 63 40 64 36 65 37 66 39 67 41 68 38 69
REMARK SMILES IDX 60 70 61 71 66 72 62 73 63 74 65 75 67 76 64 77 48 78 49 79
REMARK SMILES IDX 54 80 50 81 51 82 53 83 55 84 52 85
REMARK H PARENT 18 5 5 11 14 22 14 23 22 28 72 47 46 58
REMARK Flexibility Score: inf
ROOT
ATOM      1  C   UNL A   1      33.180  29.066  24.840  1.00  0.00     0.117 C 
ENDROOT
BRANCH   1   2
ATOM      2  N   UNL A   1      33.179  28.385  23.557  1.00  0.00    -0.354 N 
ATOM      3  C   UNL A   1      32.515  27.285  23.097  1.00  0.00     0.245 C 
ATOM      4  O   UNL A   1      32.747  26.975  21.922  1.00  0.00    -0.272 OA
ATOM      5  H   UNL A   1      33.774  28.798  22.889  1.00  0.00     0.163 HD
BRANCH   3   6
ATOM      6  C   UNL A   1      31.540  26.453  23.979  1.00  0.00     0.113 C 
ATOM      7  C   UNL A   1      31.038  25.232  23.167  1.00  0.00     0.045 C 
BRANCH   6   8
ATOM      8  C   UNL A   1      30.272  27.296  24.335  1.00  0.00     0.035 C 
ATOM      9  C   UNL A   1      29.699  28.117  23.176  1.00  0.00     0.007 C 
ENDBRANCH   6   8
BRANCH   6  10
ATOM     10  N   UNL A   1      32.148  25.910  25.235  1.00  0.00    -0.371 N 
ATOM     11  H   UNL A   1      31.802  26.311  26.065  1.00  0.00     0.161 HD
BRANCH  10  12
ATOM     12  C   UNL A   1      33.127  24.928  25.431  1.00  0.00     0.049 A 
ATOM     13  C   UNL A   1      34.427  25.076  24.919  1.00  0.00     0.026 A 
ATOM     14  C   UNL A   1      32.885  23.746  26.201  1.00  0.00     0.081 A 
ATOM     15  C   UNL A   1      35.495  24.267  25.312  1.00  0.00     0.004 A 
ATOM     16  C   UNL A   1      33.971  22.916  26.584  1.00  0.00     0.055 A 
ATOM     17  C   UNL A   1      35.273  23.213  26.175  1.00  0.00     0.021 A 
ATOM     18  Cl  UNL A   1      33.836  21.475  27.538  1.00  0.00    -0.083 Cl
BRANCH  14  19
ATOM     19  C   UNL A   1      31.487  23.314  26.561  1.00  0.00     0.252 C 
ATOM     20  N   UNL A   1      31.096  22.069  26.144  1.00  0.00    -0.365 N 
ATOM     21  O   UNL A   1      30.704  23.975  27.217  1.00  0.00    -0.269 OA
ATOM     22  H   UNL A   1      31.710  21.513  25.611  1.00  0.00     0.159 HD
ATOM     23  H   UNL A   1      30.201  21.730  26.376  1.00  0.00     0.159 HD
ENDBRANCH  14  19
ENDBRANCH  10  12
ENDBRANCH   6  10
ENDBRANCH   3   6
ENDBRANCH   1   2
BRANCH   1  24
ATOM     24  C   UNL A   1      34.258  28.597  25.809  1.00  0.00     0.042 C 
BRANCH  24  25
ATOM     25  C   UNL A   1      33.857  28.648  27.277  1.00  0.00     0.118 C 
BRANCH  25  26
ATOM     26  N   UNL A   1      33.893  30.001  27.801  1.00  0.00    -0.352 N 
ATOM     27  C   UNL A   1      34.896  30.656  28.467  1.00  0.00     0.251 C 
ATOM     28  H   UNL A   1      33.075  30.528  27.656  1.00  0.00     0.163 HD
ATOM     29  O   UNL A   1      34.644  31.713  29.041  1.00  0.00    -0.269 OA
BRANCH  27  30
ATOM     30  C   UNL A   1      36.273  30.110  28.505  1.00  0.00     0.039 A 
ATOM     31  C   UNL A   1      36.734  29.563  29.706  1.00  0.00     0.014 A 
ATOM     32  C   UNL A   1      37.138  30.205  27.410  1.00  0.00     0.014 A 
ATOM     33  C   UNL A   1      38.051  29.112  29.805  1.00  0.00     0.010 A 
ATOM     34  C   UNL A   1      38.426  29.676  27.484  1.00  0.00     0.010 A 
ATOM     35  C   UNL A   1      38.910  29.159  28.694  1.00  0.00    -0.014 A 
BRANCH  35  36
ATOM     36  C   UNL A   1      40.329  28.734  28.828  1.00  0.00     0.031 A 
ATOM     37  C   UNL A   1      40.740  27.331  28.461  1.00  0.00     0.074 A 
ATOM     38  C   UNL A   1      41.254  29.611  29.260  1.00  0.00     0.049 A 
ATOM     39  N   UNL A   1      41.935  26.796  28.448  1.00  0.00    -0.248 NA
ATOM     40  C   UNL A   1      39.666  26.399  28.078  1.00  0.00     0.031 C 
ATOM     41  C   UNL A   1      40.983  30.984  29.688  1.00  0.00     0.029 A 
ATOM     42  N   UNL A   1      42.614  29.482  29.398  1.00  0.00    -0.354 N 
ATOM     43  C   UNL A   1      41.756  25.473  28.059  1.00  0.00     0.074 A 
ATOM     44  C   UNL A   1      40.332  25.267  27.912  1.00  0.00     0.031 C 
ATOM     45  C   UNL A   1      42.143  31.583  30.001  1.00  0.00     0.029 A 
ATOM     46  C   UNL A   1      43.235  30.630  29.826  1.00  0.00     0.049 A 
ATOM     47  H   UNL A   1      43.098  28.646  29.208  1.00  0.00     0.167 HD
ATOM     48  C   UNL A   1      42.690  24.523  27.816  1.00  0.00     0.037 A 
ATOM     49  C   UNL A   1      44.539  30.889  30.045  1.00  0.00     0.037 A 
ATOM     50  C   UNL A   1      44.109  24.730  27.948  1.00  0.00     0.049 A 
ATOM     51  C   UNL A   1      45.557  29.815  29.774  1.00  0.00     0.074 A 
ATOM     52  C   UNL A   1      45.139  23.844  27.687  1.00  0.00     0.029 A 
ATOM     53  N   UNL A   1      44.696  25.908  28.385  1.00  0.00    -0.354 N 
ATOM     54  N   UNL A   1      45.376  28.592  29.337  1.00  0.00    -0.248 NA
ATOM     55  C   UNL A   1      46.964  30.166  30.009  1.00  0.00     0.031 C 
ATOM     56  C   UNL A   1      46.347  24.466  28.015  1.00  0.00     0.029 A 
ATOM     57  C   UNL A   1      46.074  25.763  28.419  1.00  0.00     0.049 A 
ATOM     58  H   UNL A   1      44.208  26.725  28.634  1.00  0.00     0.167 HD
ATOM     59  C   UNL A   1      46.646  28.043  29.208  1.00  0.00     0.074 A 
ATOM     60  C   UNL A   1      47.587  29.071  29.599  1.00  0.00     0.031 C 
ATOM     61  C   UNL A   1      47.002  26.799  28.798  1.00  0.00     0.037 A 
BRANCH  48  62
ATOM     62  C   UNL A   1      42.204  23.168  27.381  1.00  0.00     0.057 A 
ATOM     63  C   UNL A   1      41.777  22.202  28.304  1.00  0.00     0.134 A 
ATOM     64  C   UNL A   1      42.133  22.834  26.022  1.00  0.00     0.134 A 
ATOM     65  F   UNL A   1      41.829  22.450  29.621  1.00  0.00    -0.206 F 
ATOM     66  C   UNL A   1      41.328  20.945  27.892  1.00  0.00     0.040 A 
ATOM     67  C   UNL A   1      41.656  21.593  25.598  1.00  0.00     0.040 A 
ATOM     68  F   UNL A   1      42.519  23.712  25.085  1.00  0.00    -0.206 F 
ATOM     69  C   UNL A   1      41.260  20.641  26.535  1.00  0.00     0.006 A 
ENDBRANCH  48  62
BRANCH  49  70
ATOM     70  C   UNL A   1      44.963  32.233  30.516  1.00  0.00     0.057 A 
ATOM     71  C   UNL A   1      45.312  33.242  29.611  1.00  0.00     0.134 A 
ATOM     72  C   UNL A   1      45.050  32.532  31.880  1.00  0.00     0.134 A 
ATOM     73  F   UNL A   1      45.266  33.012  28.290  1.00  0.00    -0.206 F 
ATOM     74  C   UNL A   1      45.759  34.492  30.045  1.00  0.00     0.040 A 
ATOM     75  C   UNL A   1      45.466  33.787  32.328  1.00  0.00     0.040 A 
ATOM     76  F   UNL A   1      44.721  31.611  32.798  1.00  0.00    -0.206 F 
ATOM     77  C   UNL A   1      45.833  34.767  31.409  1.00  0.00     0.006 A 
ENDBRANCH  49  70
BRANCH  61  78
ATOM     78  C   UNL A   1      48.472  26.503  28.696  1.00  0.00     0.057 A 
ATOM     79  C   UNL A   1      49.187  25.891  29.735  1.00  0.00     0.134 A 
ATOM     80  C   UNL A   1      49.180  26.824  27.531  1.00  0.00     0.134 A 
ATOM     81  F   UNL A   1      48.574  25.565  30.884  1.00  0.00    -0.206 F 
ATOM     82  C   UNL A   1      50.558  25.648  29.633  1.00  0.00     0.040 A 
ATOM     83  C   UNL A   1      50.543  26.555  27.404  1.00  0.00     0.040 A 
ATOM     84  F   UNL A   1      48.555  27.400  26.491  1.00  0.00    -0.206 F 
ATOM     85  C   UNL A   1      51.239  25.976  28.462  1.00  0.00     0.006 A 
ENDBRANCH  61  78
ENDBRANCH  35  36
ENDBRANCH  27  30
ENDBRANCH  25  26
ENDBRANCH  24  25
ENDBRANCH   1  24
TORSDOF 14
ENDMDL
MODEL 3
REMARK VINA RESULT:     -11.0      5.028      9.867
REMARK SMILES CC[C@](C)(Nc1cccc(Cl)c1C(N)=O)C(=O)NCCCNC(=O)c1ccc(-c2c3nc(c(-c4c(F)cccc4F)c4ccc([nH]4)c(-c4c(F)cccc4F)c4nc(c(-c5c(F)cccc5F)c5ccc2[nH]5)C=C4)C=C3)cc1
REMARK SMILES IDX 19 1 18 2 16 3 17 4 3 6 4 7 2 8 1 9 5 10 6 12 7 13 12 14
REMARK SMILES IDX 8 15 10 16 9 17 11 18 13 19 14 20 15 21 20 24 21 25 22 26
REMARK SMILES IDX 23 27 24 29 25 30 26 31 78 32 27 33 77 34 28 35 29 36 30 37
REMARK SMILES IDX 71 38 31 39 76 40 70 41 72 42 32 43 75 44 69 45 68 46 33 48
REMARK SMILES IDX 59 49 42 50 58 51 43 52 46 53 57 54 73 55 44 56 45 57 56 59
REMARK SMILES IDX 74 60 47 61 34 62 35 63 40 64 36 65 37 66 39 67 41 68 38 69
REMARK SMILES IDX 60 70 61 71 66 72 62 73 63 74 65 75 67 76 64 77 48 78 49 79
REMARK SMILES IDX 54 80 50 81 51 82 53 83 55 84 52 85
REMARK H PARENT 18 5 5 11 14 22 14 23 22 28 72 47 46 58
REMARK Flexibility Score: inf
ROOT
ATOM      1  C   UNL A   1      31.287  30.520  26.180  1.00  0.00     0.117 C 
ENDROOT
BRANCH   1   2
ATOM      2  N   UNL A   1      31.797  30.091  24.890  1.00  0.00    -0.354 N 
ATOM      3  C   UNL A   1      32.489  28.982  24.494  1.00  0.00     0.245 C 
ATOM      4  O   UNL A   1      32.766  28.929  23.289  1.00  0.00    -0.272 OA
ATOM      5  H   UNL A   1      31.607  30.722  24.158  1.00  0.00     0.163 HD
BRANCH   3   6
ATOM      6  C   UNL A   1      32.924  27.858  25.477  1.00  0.00     0.113 C 
ATOM      7  C   UNL A   1      31.707  26.947  25.776  1.00  0.00     0.045 C 
BRANCH   6   8
ATOM      8  C   UNL A   1      33.363  28.471  26.847  1.00  0.00     0.035 C 
ATOM      9  C   UNL A   1      34.764  29.090  26.856  1.00  0.00     0.007 C 
ENDBRANCH   6   8
BRANCH   6  10
ATOM     10  N   UNL A   1      34.010  26.965  24.959  1.00  0.00    -0.371 N 
ATOM     11  H   UNL A   1      34.834  27.434  24.696  1.00  0.00     0.161 HD
BRANCH  10  12
ATOM     12  C   UNL A   1      34.051  25.576  24.785  1.00  0.00     0.049 A 
ATOM     13  C   UNL A   1      34.617  24.733  25.755  1.00  0.00     0.026 A 
ATOM     14  C   UNL A   1      33.480  24.928  23.643  1.00  0.00     0.081 A 
ATOM     15  C   UNL A   1      34.442  23.348  25.753  1.00  0.00     0.004 A 
ATOM     16  C   UNL A   1      33.320  23.518  23.638  1.00  0.00     0.055 A 
ATOM     17  C   UNL A   1      33.760  22.746  24.716  1.00  0.00     0.021 A 
ATOM     18  Cl  UNL A   1      32.620  22.600  22.344  1.00  0.00    -0.083 Cl
BRANCH  14  19
ATOM     19  C   UNL A   1      33.106  25.701  22.406  1.00  0.00     0.252 C 
ATOM     20  N   UNL A   1      31.772  25.951  22.210  1.00  0.00    -0.365 N 
ATOM     21  O   UNL A   1      33.900  26.141  21.596  1.00  0.00    -0.269 OA
ATOM     22  H   UNL A   1      31.108  25.606  22.850  1.00  0.00     0.159 HD
ATOM     23  H   UNL A   1      31.479  26.474  21.430  1.00  0.00     0.159 HD
ENDBRANCH  14  19
ENDBRANCH  10  12
ENDBRANCH   6  10
ENDBRANCH   3   6
ENDBRANCH   1   2
BRANCH   1  24
ATOM     24  C   UNL A   1      31.387  32.018  26.437  1.00  0.00     0.042 C 
BRANCH  24  25
ATOM     25  C   UNL A   1      32.622  32.446  27.219  1.00  0.00     0.118 C 
BRANCH  25  26
ATOM     26  N   UNL A   1      32.545  33.834  27.637  1.00  0.00    -0.352 N 
ATOM     27  C   UNL A   1      33.236  34.493  28.620  1.00  0.00     0.251 C 
ATOM     28  H   UNL A   1      31.900  34.386  27.138  1.00  0.00     0.163 HD
ATOM     29  O   UNL A   1      32.853  35.603  28.979  1.00  0.00    -0.269 OA
BRANCH  27  30
ATOM     30  C   UNL A   1      34.431  33.887  29.252  1.00  0.00     0.039 A 
ATOM     31  C   UNL A   1      35.691  34.271  28.785  1.00  0.00     0.014 A 
ATOM     32  C   UNL A   1      34.328  32.892  30.229  1.00  0.00     0.014 A 
ATOM     33  C   UNL A   1      36.838  33.664  29.299  1.00  0.00     0.010 A 
ATOM     34  C   UNL A   1      35.477  32.349  30.803  1.00  0.00     0.010 A 
ATOM     35  C   UNL A   1      36.745  32.700  30.316  1.00  0.00    -0.014 A 
BRANCH  35  36
ATOM     36  C   UNL A   1      37.968  32.015  30.812  1.00  0.00     0.031 A 
ATOM     37  C   UNL A   1      38.528  32.349  32.171  1.00  0.00     0.074 A 
ATOM     38  C   UNL A   1      38.567  31.079  30.053  1.00  0.00     0.049 A 
ATOM     39  N   UNL A   1      39.544  31.813  32.801  1.00  0.00    -0.248 NA
ATOM     40  C   UNL A   1      37.876  33.440  32.912  1.00  0.00     0.031 C 
ATOM     41  C   UNL A   1      38.152  30.692  28.703  1.00  0.00     0.029 A 
ATOM     42  N   UNL A   1      39.645  30.270  30.313  1.00  0.00    -0.354 N 
ATOM     43  C   UNL A   1      39.651  32.501  34.004  1.00  0.00     0.074 A 
ATOM     44  C   UNL A   1      38.641  33.537  33.988  1.00  0.00     0.031 C 
ATOM     45  C   UNL A   1      38.940  29.695  28.270  1.00  0.00     0.029 A 
ATOM     46  C   UNL A   1      39.932  29.391  29.297  1.00  0.00     0.049 A 
ATOM     47  H   UNL A   1      40.163  30.316  31.149  1.00  0.00     0.167 HD
ATOM     48  C   UNL A   1      40.490  32.275  35.043  1.00  0.00     0.037 A 
ATOM     49  C   UNL A   1      40.884  28.442  29.206  1.00  0.00     0.037 A 
ATOM     50  C   UNL A   1      41.485  31.235  35.067  1.00  0.00     0.049 A 
ATOM     51  C   UNL A   1      41.809  28.214  30.371  1.00  0.00     0.074 A 
ATOM     52  C   UNL A   1      42.358  30.898  36.087  1.00  0.00     0.029 A 
ATOM     53  N   UNL A   1      41.745  30.367  34.017  1.00  0.00    -0.354 N 
ATOM     54  N   UNL A   1      41.849  28.825  31.530  1.00  0.00    -0.248 NA
ATOM     55  C   UNL A   1      42.809  27.149  30.219  1.00  0.00     0.031 C 
ATOM     56  C   UNL A   1      43.180  29.861  35.637  1.00  0.00     0.029 A 
ATOM     57  C   UNL A   1      42.777  29.507  34.359  1.00  0.00     0.049 A 
ATOM     58  H   UNL A   1      41.267  30.361  33.157  1.00  0.00     0.167 HD
ATOM     59  C   UNL A   1      42.850  28.193  32.259  1.00  0.00     0.074 A 
ATOM     60  C   UNL A   1      43.380  27.143  31.415  1.00  0.00     0.031 C 
ATOM     61  C   UNL A   1      43.288  28.456  33.515  1.00  0.00     0.037 A 
BRANCH  48  62
ATOM     62  C   UNL A   1      40.366  33.172  36.243  1.00  0.00     0.057 A 
ATOM     63  C   UNL A   1      39.458  32.906  37.278  1.00  0.00     0.134 A 
ATOM     64  C   UNL A   1      41.184  34.301  36.381  1.00  0.00     0.134 A 
ATOM     65  F   UNL A   1      38.636  31.848  37.205  1.00  0.00    -0.206 F 
ATOM     66  C   UNL A   1      39.348  33.744  38.389  1.00  0.00     0.040 A 
ATOM     67  C   UNL A   1      41.105  35.130  37.502  1.00  0.00     0.040 A 
ATOM     68  F   UNL A   1      42.080  34.613  35.433  1.00  0.00    -0.206 F 
ATOM     69  C   UNL A   1      40.178  34.856  38.506  1.00  0.00     0.006 A 
ENDBRANCH  48  62
BRANCH  49  70
ATOM     70  C   UNL A   1      40.991  27.609  27.980  1.00  0.00     0.057 A 
ATOM     71  C   UNL A   1      40.320  26.385  27.873  1.00  0.00     0.134 A 
ATOM     72  C   UNL A   1      41.783  28.007  26.897  1.00  0.00     0.134 A 
ATOM     73  F   UNL A   1      39.559  25.940  28.884  1.00  0.00    -0.206 F 
ATOM     74  C   UNL A   1      40.454  25.574  26.744  1.00  0.00     0.040 A 
ATOM     75  C   UNL A   1      41.902  27.220  25.750  1.00  0.00     0.040 A 
ATOM     76  F   UNL A   1      42.444  29.173  26.934  1.00  0.00    -0.206 F 
ATOM     77  C   UNL A   1      41.246  25.993  25.677  1.00  0.00     0.006 A 
ENDBRANCH  49  70
BRANCH  61  78
ATOM     78  C   UNL A   1      44.354  27.556  34.074  1.00  0.00     0.057 A 
ATOM     79  C   UNL A   1      44.053  26.351  34.723  1.00  0.00     0.134 A 
ATOM     80  C   UNL A   1      45.707  27.898  33.946  1.00  0.00     0.134 A 
ATOM     81  F   UNL A   1      42.778  25.967  34.888  1.00  0.00    -0.206 F 
ATOM     82  C   UNL A   1      45.056  25.541  35.259  1.00  0.00     0.040 A 
ATOM     83  C   UNL A   1      46.719  27.079  34.448  1.00  0.00     0.040 A 
ATOM     84  F   UNL A   1      46.068  29.031  33.324  1.00  0.00    -0.206 F 
ATOM     85  C   UNL A   1      46.394  25.902  35.117  1.00  0.00     0.006 A 
ENDBRANCH  61  78
ENDBRANCH  35  36
ENDBRANCH  27  30
ENDBRANCH  25  26
ENDBRANCH  24  25
ENDBRANCH   1  24
TORSDOF 14
ENDMDL
