MODEL 1
REMARK VINA RESULT:     -11.9      0.000      0.000
REMARK SMILES C[C@]1(C(=O)N2CCC(CC(=O)NCCCNC(=O)c3ccc(-c4c5nc(c(-c6c(F)cccc6F)c6ccc([nH]6)c(-c6c(F)cccc6F)c6nc(c(-c7c(F)cccc7F)c7ccc4[nH]7)C=C6)C=C5)cc3)CC2)CCC[NH2+]C1
REMARK SMILES IDX 14 1 13 2 12 3 10 4 11 5 9 7 8 8 3 9 4 10 5 11 6 12 74 13
REMARK SMILES IDX 7 14 73 15 2 16 1 17 75 18 79 19 76 20 78 21 77 22 15 25
REMARK SMILES IDX 16 26 17 27 18 29 19 30 20 31 72 32 21 33 71 34 22 35 23 36
REMARK SMILES IDX 24 37 65 38 25 39 70 40 64 41 66 42 26 43 69 44 63 45 62 46
REMARK SMILES IDX 27 48 53 49 36 50 52 51 37 52 40 53 51 54 67 55 38 56 39 57
REMARK SMILES IDX 50 59 68 60 41 61 28 62 29 63 34 64 30 65 31 66 33 67 35 68
REMARK SMILES IDX 32 69 54 70 55 71 60 72 56 73 57 74 59 75 61 76 58 77 42 78
REMARK SMILES IDX 43 79 48 80 44 81 45 82 47 83 49 84 46 85
REMARK H PARENT 12 6 78 23 78 24 16 28 66 47 40 58
REMARK Flexibility Score: inf
ROOT
ATOM      1  C   UNL A   1      37.244  19.536  24.986  1.00  0.00     0.042 C 
ENDROOT
BRANCH   1   2
ATOM      2  C   UNL A   1      36.001  20.431  25.011  1.00  0.00     0.117 C 
BRANCH   2   3
ATOM      3  N   UNL A   1      34.761  19.665  25.053  1.00  0.00    -0.356 N 
ATOM      4  C   UNL A   1      33.471  20.041  25.293  1.00  0.00     0.220 C 
ATOM      5  O   UNL A   1      32.605  19.163  25.300  1.00  0.00    -0.275 OA
ATOM      6  H   UNL A   1      34.874  18.703  24.876  1.00  0.00     0.163 HD
BRANCH   4   7
ATOM      7  C   UNL A   1      33.107  21.490  25.554  1.00  0.00     0.103 C 
BRANCH   7   8
ATOM      8  C   UNL A   1      32.917  22.326  24.270  1.00  0.00     0.002 C 
ATOM      9  C   UNL A   1      32.027  26.379  23.403  1.00  0.00     0.234 C 
ATOM     10  O   UNL A   1      32.332  27.004  22.387  1.00  0.00    -0.274 OA
ATOM     11  N   UNL A   1      32.335  25.041  23.526  1.00  0.00    -0.342 N 
ATOM     12  C   UNL A   1      33.674  24.564  23.242  1.00  0.00     0.120 C 
ATOM     13  C   UNL A   1      31.307  24.059  23.264  1.00  0.00     0.120 C 
ATOM     14  C   UNL A   1      34.004  23.428  24.210  1.00  0.00     0.026 C 
ATOM     15  C   UNL A   1      31.492  22.900  24.219  1.00  0.00     0.026 C 
BRANCH   9  16
ATOM     16  C   UNL A   1      31.552  27.100  24.696  1.00  0.00     0.095 C 
ATOM     17  C   UNL A   1      30.174  26.472  25.014  1.00  0.00     0.028 C 
ATOM     18  C   UNL A   1      32.534  26.787  25.845  1.00  0.00     0.028 C 
ATOM     19  C   UNL A   1      31.347  28.632  24.617  1.00  0.00     0.277 C 
ATOM     20  C   UNL A   1      33.804  27.634  25.735  1.00  0.00     0.063 C 
ATOM     21  N   UNL A   1      32.577  29.432  24.567  1.00  0.00    -0.345 N 
ATOM     22  C   UNL A   1      33.469  29.121  25.682  1.00  0.00     0.260 C 
ATOM     23  H   UNL A   1      33.062  29.237  23.691  1.00  0.00     0.346 HD
ATOM     24  H   UNL A   1      32.319  30.417  24.630  1.00  0.00     0.346 HD
ENDBRANCH   9  16
ENDBRANCH   7   8
ENDBRANCH   4   7
ENDBRANCH   2   3
ENDBRANCH   1   2
BRANCH   1  25
ATOM     25  C   UNL A   1      38.546  20.250  25.327  1.00  0.00     0.118 C 
BRANCH  25  26
ATOM     26  N   UNL A   1      39.616  19.309  25.611  1.00  0.00    -0.352 N 
ATOM     27  C   UNL A   1      40.908  19.527  26.024  1.00  0.00     0.251 C 
ATOM     28  H   UNL A   1      39.375  18.362  25.489  1.00  0.00     0.163 HD
ATOM     29  O   UNL A   1      41.715  18.603  25.945  1.00  0.00    -0.269 OA
BRANCH  27  30
ATOM     30  C   UNL A   1      41.361  20.842  26.548  1.00  0.00     0.039 A 
ATOM     31  C   UNL A   1      41.211  21.100  27.917  1.00  0.00     0.014 A 
ATOM     32  C   UNL A   1      41.839  21.856  25.714  1.00  0.00     0.014 A 
ATOM     33  C   UNL A   1      41.571  22.343  28.448  1.00  0.00     0.010 A 
ATOM     34  C   UNL A   1      42.266  23.073  26.255  1.00  0.00     0.010 A 
ATOM     35  C   UNL A   1      42.124  23.337  27.626  1.00  0.00    -0.014 A 
BRANCH  35  36
ATOM     36  C   UNL A   1      42.529  24.658  28.178  1.00  0.00     0.031 A 
ATOM     37  C   UNL A   1      41.504  25.740  28.406  1.00  0.00     0.074 A 
ATOM     38  C   UNL A   1      43.829  24.911  28.434  1.00  0.00     0.049 A 
ATOM     39  N   UNL A   1      41.678  26.974  28.809  1.00  0.00    -0.248 NA
ATOM     40  C   UNL A   1      40.102  25.396  28.122  1.00  0.00     0.031 C 
ATOM     41  C   UNL A   1      44.932  23.973  28.222  1.00  0.00     0.029 A 
ATOM     42  N   UNL A   1      44.442  26.042  28.916  1.00  0.00    -0.354 N 
ATOM     43  C   UNL A   1      40.417  27.559  28.800  1.00  0.00     0.074 A 
ATOM     44  C   UNL A   1      39.491  26.554  28.323  1.00  0.00     0.031 C 
ATOM     45  C   UNL A   1      46.085  24.561  28.586  1.00  0.00     0.029 A 
ATOM     46  C   UNL A   1      45.807  25.926  29.024  1.00  0.00     0.049 A 
ATOM     47  H   UNL A   1      43.950  26.859  29.162  1.00  0.00     0.167 HD
ATOM     48  C   UNL A   1      40.059  28.811  29.173  1.00  0.00     0.037 A 
ATOM     49  C   UNL A   1      46.733  26.818  29.422  1.00  0.00     0.037 A 
ATOM     50  C   UNL A   1      40.966  29.799  29.695  1.00  0.00     0.049 A 
ATOM     51  C   UNL A   1      46.305  28.195  29.850  1.00  0.00     0.074 A 
ATOM     52  C   UNL A   1      40.676  31.068  30.172  1.00  0.00     0.029 A 
ATOM     53  N   UNL A   1      42.335  29.629  29.818  1.00  0.00    -0.354 N 
ATOM     54  N   UNL A   1      45.101  28.708  29.894  1.00  0.00    -0.248 NA
ATOM     55  C   UNL A   1      47.367  29.114  30.287  1.00  0.00     0.031 C 
ATOM     56  C   UNL A   1      41.876  31.676  30.553  1.00  0.00     0.029 A 
ATOM     57  C   UNL A   1      42.906  30.775  30.345  1.00  0.00     0.049 A 
ATOM     58  H   UNL A   1      42.828  28.814  29.566  1.00  0.00     0.167 HD
ATOM     59  C   UNL A   1      45.257  29.998  30.384  1.00  0.00     0.074 A 
ATOM     60  C   UNL A   1      46.670  30.186  30.637  1.00  0.00     0.031 C 
ATOM     61  C   UNL A   1      44.312  30.945  30.603  1.00  0.00     0.037 A 
BRANCH  48  62
ATOM     62  C   UNL A   1      38.614  29.191  29.040  1.00  0.00     0.057 A 
ATOM     63  C   UNL A   1      37.741  29.160  30.134  1.00  0.00     0.134 A 
ATOM     64  C   UNL A   1      38.108  29.656  27.819  1.00  0.00     0.134 A 
ATOM     65  F   UNL A   1      38.163  28.716  31.328  1.00  0.00    -0.206 F 
ATOM     66  C   UNL A   1      36.410  29.565  30.015  1.00  0.00     0.040 A 
ATOM     67  C   UNL A   1      36.785  30.083  27.694  1.00  0.00     0.040 A 
ATOM     68  F   UNL A   1      38.895  29.718  26.735  1.00  0.00    -0.206 F 
ATOM     69  C   UNL A   1      35.931  30.035  28.794  1.00  0.00     0.006 A 
ENDBRANCH  48  62
BRANCH  49  70
ATOM     70  C   UNL A   1      48.168  26.442  29.445  1.00  0.00     0.057 A 
ATOM     71  C   UNL A   1      48.997  26.691  28.345  1.00  0.00     0.134 A 
ATOM     72  C   UNL A   1      48.739  25.805  30.553  1.00  0.00     0.134 A 
ATOM     73  F   UNL A   1      48.501  27.277  27.245  1.00  0.00    -0.206 F 
ATOM     74  C   UNL A   1      50.337  26.302  28.336  1.00  0.00     0.040 A 
ATOM     75  C   UNL A   1      50.083  25.432  30.568  1.00  0.00     0.040 A 
ATOM     76  F   UNL A   1      47.997  25.543  31.638  1.00  0.00    -0.206 F 
ATOM     77  C   UNL A   1      50.885  25.674  29.453  1.00  0.00     0.006 A 
ENDBRANCH  49  70
BRANCH  61  78
ATOM     78  C   UNL A   1      44.770  32.255  31.169  1.00  0.00     0.057 A 
ATOM     79  C   UNL A   1      45.130  33.327  30.343  1.00  0.00     0.134 A 
ATOM     80  C   UNL A   1      44.819  32.456  32.554  1.00  0.00     0.134 A 
ATOM     81  F   UNL A   1      45.116  33.192  29.009  1.00  0.00    -0.206 F 
ATOM     82  C   UNL A   1      45.540  34.551  30.876  1.00  0.00     0.040 A 
ATOM     83  C   UNL A   1      45.208  33.680  33.098  1.00  0.00     0.040 A 
ATOM     84  F   UNL A   1      44.481  31.470  33.397  1.00  0.00    -0.206 F 
ATOM     85  C   UNL A   1      45.573  34.731  32.258  1.00  0.00     0.006 A 
ENDBRANCH  61  78
ENDBRANCH  35  36
ENDBRANCH  27  30
ENDBRANCH  25  26
ENDBRANCH   1  25
TORSDOF 12
ENDMDL
MODEL 2
REMARK VINA RESULT:     -11.9      0.895      1.527
REMARK SMILES C[C@]1(C(=O)N2CCC(CC(=O)NCCCNC(=O)c3ccc(-c4c5nc(c(-c6c(F)cccc6F)c6ccc([nH]6)c(-c6c(F)cccc6F)c6nc(c(-c7c(F)cccc7F)c7ccc4[nH]7)C=C6)C=C5)cc3)CC2)CCC[NH2+]C1
REMARK SMILES IDX 14 1 13 2 12 3 10 4 11 5 9 7 8 8 3 9 4 10 5 11 6 12 74 13
REMARK SMILES IDX 7 14 73 15 2 16 1 17 75 18 79 19 76 20 78 21 77 22 15 25
REMARK SMILES IDX 16 26 17 27 18 29 19 30 20 31 72 32 21 33 71 34 22 35 23 36
REMARK SMILES IDX 24 37 65 38 25 39 70 40 64 41 66 42 26 43 69 44 63 45 62 46
REMARK SMILES IDX 27 48 53 49 36 50 52 51 37 52 40 53 51 54 67 55 38 56 39 57
REMARK SMILES IDX 50 59 68 60 41 61 28 62 29 63 34 64 30 65 31 66 33 67 35 68
REMARK SMILES IDX 32 69 54 70 55 71 60 72 56 73 57 74 59 75 61 76 58 77 42 78
REMARK SMILES IDX 43 79 48 80 44 81 45 82 47 83 49 84 46 85
REMARK H PARENT 12 6 78 23 78 24 16 28 66 47 40 58
REMARK Flexibility Score: inf
ROOT
ATOM      1  C   UNL A   1      37.334  19.504  24.961  1.00  0.00     0.042 C 
ENDROOT
BRANCH   1   2
ATOM      2  C   UNL A   1      36.072  20.371  24.972  1.00  0.00     0.117 C 
BRANCH   2   3
ATOM      3  N   UNL A   1      34.850  19.579  25.043  1.00  0.00    -0.356 N 
ATOM      4  C   UNL A   1      33.544  19.905  24.819  1.00  0.00     0.220 C 
ATOM      5  O   UNL A   1      32.692  19.030  24.988  1.00  0.00    -0.275 OA
ATOM      6  H   UNL A   1      34.992  18.638  25.299  1.00  0.00     0.163 HD
BRANCH   4   7
ATOM      7  C   UNL A   1      33.142  21.303  24.388  1.00  0.00     0.103 C 
BRANCH   7   8
ATOM      8  C   UNL A   1      32.953  22.288  25.562  1.00  0.00     0.002 C 
ATOM      9  C   UNL A   1      31.447  26.226  25.994  1.00  0.00     0.234 C 
ATOM     10  O   UNL A   1      30.949  26.722  27.005  1.00  0.00    -0.274 OA
ATOM     11  N   UNL A   1      31.950  24.943  26.015  1.00  0.00    -0.342 N 
ATOM     12  C   UNL A   1      31.164  23.852  26.557  1.00  0.00     0.120 C 
ATOM     13  C   UNL A   1      33.376  24.751  26.158  1.00  0.00     0.120 C 
ATOM     14  C   UNL A   1      31.444  22.593  25.738  1.00  0.00     0.026 C 
ATOM     15  C   UNL A   1      33.788  23.556  25.327  1.00  0.00     0.026 C 
BRANCH   9  16
ATOM     16  C   UNL A   1      31.283  26.882  24.595  1.00  0.00     0.095 C 
ATOM     17  C   UNL A   1      29.914  26.376  24.081  1.00  0.00     0.028 C 
ATOM     18  C   UNL A   1      31.233  28.417  24.753  1.00  0.00     0.028 C 
ATOM     19  C   UNL A   1      32.335  26.526  23.517  1.00  0.00     0.277 C 
ATOM     20  C   UNL A   1      32.634  28.999  24.957  1.00  0.00     0.063 C 
ATOM     21  N   UNL A   1      33.658  27.136  23.699  1.00  0.00    -0.345 N 
ATOM     22  C   UNL A   1      33.568  28.590  23.823  1.00  0.00     0.260 C 
ATOM     23  H   UNL A   1      34.083  26.757  24.545  1.00  0.00     0.346 HD
ATOM     24  H   UNL A   1      34.223  26.921  22.878  1.00  0.00     0.346 HD
ENDBRANCH   9  16
ENDBRANCH   7   8
ENDBRANCH   4   7
ENDBRANCH   2   3
ENDBRANCH   1   2
BRANCH   1  25
ATOM     25  C   UNL A   1      38.605  20.228  25.388  1.00  0.00     0.118 C 
BRANCH  25  26
ATOM     26  N   UNL A   1      39.690  19.300  25.651  1.00  0.00    -0.352 N 
ATOM     27  C   UNL A   1      40.987  19.532  26.041  1.00  0.00     0.251 C 
ATOM     28  H   UNL A   1      39.459  18.350  25.528  1.00  0.00     0.163 HD
ATOM     29  O   UNL A   1      41.803  18.618  25.945  1.00  0.00    -0.269 OA
BRANCH  27  30
ATOM     30  C   UNL A   1      41.433  20.850  26.563  1.00  0.00     0.039 A 
ATOM     31  C   UNL A   1      41.302  21.102  27.935  1.00  0.00     0.014 A 
ATOM     32  C   UNL A   1      41.885  21.873  25.725  1.00  0.00     0.014 A 
ATOM     33  C   UNL A   1      41.656  22.347  28.465  1.00  0.00     0.010 A 
ATOM     34  C   UNL A   1      42.307  23.092  26.264  1.00  0.00     0.010 A 
ATOM     35  C   UNL A   1      42.185  23.350  27.637  1.00  0.00    -0.014 A 
BRANCH  35  36
ATOM     36  C   UNL A   1      42.583  24.674  28.188  1.00  0.00     0.031 A 
ATOM     37  C   UNL A   1      41.552  25.750  28.416  1.00  0.00     0.074 A 
ATOM     38  C   UNL A   1      43.882  24.935  28.441  1.00  0.00     0.049 A 
ATOM     39  N   UNL A   1      41.720  26.985  28.818  1.00  0.00    -0.248 NA
ATOM     40  C   UNL A   1      40.152  25.398  28.134  1.00  0.00     0.031 C 
ATOM     41  C   UNL A   1      44.989  24.003  28.229  1.00  0.00     0.029 A 
ATOM     42  N   UNL A   1      44.489  26.069  28.922  1.00  0.00    -0.354 N 
ATOM     43  C   UNL A   1      40.456  27.563  28.810  1.00  0.00     0.074 A 
ATOM     44  C   UNL A   1      39.534  26.554  28.336  1.00  0.00     0.031 C 
ATOM     45  C   UNL A   1      46.140  24.597  28.590  1.00  0.00     0.029 A 
ATOM     46  C   UNL A   1      45.855  25.961  29.028  1.00  0.00     0.049 A 
ATOM     47  H   UNL A   1      43.993  26.883  29.167  1.00  0.00     0.167 HD
ATOM     48  C   UNL A   1      40.091  28.814  29.182  1.00  0.00     0.037 A 
ATOM     49  C   UNL A   1      46.777  26.859  29.423  1.00  0.00     0.037 A 
ATOM     50  C   UNL A   1      40.993  29.808  29.703  1.00  0.00     0.049 A 
ATOM     51  C   UNL A   1      46.341  28.234  29.851  1.00  0.00     0.074 A 
ATOM     52  C   UNL A   1      40.697  31.075  30.178  1.00  0.00     0.029 A 
ATOM     53  N   UNL A   1      42.364  29.646  29.823  1.00  0.00    -0.354 N 
ATOM     54  N   UNL A   1      45.135  28.740  29.896  1.00  0.00    -0.248 NA
ATOM     55  C   UNL A   1      47.399  29.159  30.285  1.00  0.00     0.031 C 
ATOM     56  C   UNL A   1      41.894  31.691  30.556  1.00  0.00     0.029 A 
ATOM     57  C   UNL A   1      42.929  30.795  30.348  1.00  0.00     0.049 A 
ATOM     58  H   UNL A   1      42.861  28.833  29.571  1.00  0.00     0.167 HD
ATOM     59  C   UNL A   1      45.284  30.032  30.384  1.00  0.00     0.074 A 
ATOM     60  C   UNL A   1      46.696  30.227  30.634  1.00  0.00     0.031 C 
ATOM     61  C   UNL A   1      44.335  30.973  30.603  1.00  0.00     0.037 A 
BRANCH  48  62
ATOM     62  C   UNL A   1      38.644  29.186  29.051  1.00  0.00     0.057 A 
ATOM     63  C   UNL A   1      37.773  29.155  30.148  1.00  0.00     0.134 A 
ATOM     64  C   UNL A   1      38.133  29.643  27.830  1.00  0.00     0.134 A 
ATOM     65  F   UNL A   1      38.200  28.719  31.342  1.00  0.00    -0.206 F 
ATOM     66  C   UNL A   1      36.440  29.552  30.030  1.00  0.00     0.040 A 
ATOM     67  C   UNL A   1      36.806  30.062  27.705  1.00  0.00     0.040 A 
ATOM     68  F   UNL A   1      38.916  29.704  26.743  1.00  0.00    -0.206 F 
ATOM     69  C   UNL A   1      35.956  30.015  28.808  1.00  0.00     0.006 A 
ENDBRANCH  48  62
BRANCH  49  70
ATOM     70  C   UNL A   1      48.214  26.490  29.444  1.00  0.00     0.057 A 
ATOM     71  C   UNL A   1      49.044  26.762  28.350  1.00  0.00     0.134 A 
ATOM     72  C   UNL A   1      48.785  25.840  30.543  1.00  0.00     0.134 A 
ATOM     73  F   UNL A   1      48.547  27.362  27.258  1.00  0.00    -0.206 F 
ATOM     74  C   UNL A   1      50.386  26.381  28.339  1.00  0.00     0.040 A 
ATOM     75  C   UNL A   1      50.132  25.475  30.556  1.00  0.00     0.040 A 
ATOM     76  F   UNL A   1      48.042  25.557  31.623  1.00  0.00    -0.206 F 
ATOM     77  C   UNL A   1      50.935  25.739  29.448  1.00  0.00     0.006 A 
ENDBRANCH  49  70
BRANCH  61  78
ATOM     78  C   UNL A   1      44.786  32.287  31.167  1.00  0.00     0.057 A 
ATOM     79  C   UNL A   1      44.878  32.501  32.548  1.00  0.00     0.134 A 
ATOM     80  C   UNL A   1      45.165  33.335  30.320  1.00  0.00     0.134 A 
ATOM     81  F   UNL A   1      44.517  31.539  33.411  1.00  0.00    -0.206 F 
ATOM     82  C   UNL A   1      45.315  33.721  33.067  1.00  0.00     0.040 A 
ATOM     83  C   UNL A   1      45.622  34.552  30.827  1.00  0.00     0.040 A 
ATOM     84  F   UNL A   1      45.105  33.190  28.988  1.00  0.00    -0.206 F 
ATOM     85  C   UNL A   1      45.695  34.748  32.205  1.00  0.00     0.006 A 
ENDBRANCH  61  78
ENDBRANCH  35  36
ENDBRANCH  27  30
ENDBRANCH  25  26
ENDBRANCH   1  25
TORSDOF 12
ENDMDL
MODEL 3
REMARK VINA RESULT:     -11.8      1.989      7.522
REMARK SMILES C[C@]1(C(=O)N2CCC(CC(=O)NCCCNC(=O)c3ccc(-c4c5nc(c(-c6c(F)cccc6F)c6ccc([nH]6)c(-c6c(F)cccc6F)c6nc(c(-c7c(F)cccc7F)c7ccc4[nH]7)C=C6)C=C5)cc3)CC2)CCC[NH2+]C1
REMARK SMILES IDX 14 1 13 2 12 3 10 4 11 5 9 7 8 8 3 9 4 10 5 11 6 12 74 13
REMARK SMILES IDX 7 14 73 15 2 16 1 17 75 18 79 19 76 20 78 21 77 22 15 25
REMARK SMILES IDX 16 26 17 27 18 29 19 30 20 31 72 32 21 33 71 34 22 35 23 36
REMARK SMILES IDX 24 37 65 38 25 39 70 40 64 41 66 42 26 43 69 44 63 45 62 46
REMARK SMILES IDX 27 48 53 49 36 50 52 51 37 52 40 53 51 54 67 55 38 56 39 57
REMARK SMILES IDX 50 59 68 60 41 61 28 62 29 63 34 64 30 65 31 66 33 67 35 68
REMARK SMILES IDX 32 69 54 70 55 71 60 72 56 73 57 74 59 75 61 76 58 77 42 78
REMARK SMILES IDX 43 79 48 80 44 81 45 82 47 83 49 84 46 85
REMARK H PARENT 12 6 78 23 78 24 16 28 66 47 40 58
REMARK Flexibility Score: inf
ROOT
ATOM      1  C   UNL A   1      33.358  28.778  25.440  1.00  0.00     0.042 C 
ENDROOT
BRANCH   1   2
ATOM      2  C   UNL A   1      31.987  29.438  25.273  1.00  0.00     0.117 C 
BRANCH   2   3
ATOM      3  N   UNL A   1      31.509  29.394  23.895  1.00  0.00    -0.356 N 
ATOM      4  C   UNL A   1      30.838  28.431  23.200  1.00  0.00     0.220 C 
ATOM      5  O   UNL A   1      30.582  28.646  22.014  1.00  0.00    -0.275 OA
ATOM      6  H   UNL A   1      31.706  30.205  23.373  1.00  0.00     0.163 HD
BRANCH   4   7
ATOM      7  C   UNL A   1      30.424  27.126  23.856  1.00  0.00     0.103 C 
BRANCH   7   8
ATOM      8  C   UNL A   1      30.982  25.870  23.151  1.00  0.00     0.002 C 
ATOM      9  C   UNL A   1      33.708  22.790  24.171  1.00  0.00     0.234 C 
ATOM     10  O   UNL A   1      33.733  21.643  23.722  1.00  0.00    -0.274 OA
ATOM     11  N   UNL A   1      32.794  23.709  23.703  1.00  0.00    -0.342 N 
ATOM     12  C   UNL A   1      31.388  23.368  23.609  1.00  0.00     0.120 C 
ATOM     13  C   UNL A   1      33.217  24.679  22.719  1.00  0.00     0.120 C 
ATOM     14  C   UNL A   1      30.560  24.608  23.945  1.00  0.00     0.026 C 
ATOM     15  C   UNL A   1      32.506  25.986  22.993  1.00  0.00     0.026 C 
BRANCH   9  16
ATOM     16  C   UNL A   1      34.485  23.180  25.459  1.00  0.00     0.095 C 
ATOM     17  C   UNL A   1      35.669  24.043  24.958  1.00  0.00     0.028 C 
ATOM     18  C   UNL A   1      33.575  24.038  26.364  1.00  0.00     0.028 C 
ATOM     19  C   UNL A   1      35.084  22.029  26.302  1.00  0.00     0.277 C 
ATOM     20  C   UNL A   1      32.574  23.168  27.127  1.00  0.00     0.063 C 
ATOM     21  N   UNL A   1      34.116  21.238  27.070  1.00  0.00    -0.345 N 
ATOM     22  C   UNL A   1      33.289  22.085  27.929  1.00  0.00     0.260 C 
ATOM     23  H   UNL A   1      33.511  20.735  26.421  1.00  0.00     0.346 HD
ATOM     24  H   UNL A   1      34.633  20.591  27.664  1.00  0.00     0.346 HD
ENDBRANCH   9  16
ENDBRANCH   7   8
ENDBRANCH   4   7
ENDBRANCH   2   3
ENDBRANCH   1   2
BRANCH   1  25
ATOM     25  C   UNL A   1      33.866  28.725  26.876  1.00  0.00     0.118 C 
BRANCH  25  26
ATOM     26  N   UNL A   1      33.803  30.027  27.516  1.00  0.00    -0.352 N 
ATOM     27  C   UNL A   1      34.701  30.658  28.343  1.00  0.00     0.251 C 
ATOM     28  H   UNL A   1      32.984  30.540  27.327  1.00  0.00     0.163 HD
ATOM     29  O   UNL A   1      34.325  31.639  28.981  1.00  0.00    -0.269 OA
BRANCH  27  30
ATOM     30  C   UNL A   1      36.102  30.187  28.496  1.00  0.00     0.039 A 
ATOM     31  C   UNL A   1      36.508  29.702  29.746  1.00  0.00     0.014 A 
ATOM     32  C   UNL A   1      37.046  30.298  27.472  1.00  0.00     0.014 A 
ATOM     33  C   UNL A   1      37.831  29.297  29.955  1.00  0.00     0.010 A 
ATOM     34  C   UNL A   1      38.349  29.828  27.658  1.00  0.00     0.010 A 
ATOM     35  C   UNL A   1      38.762  29.335  28.905  1.00  0.00    -0.014 A 
BRANCH  35  36
ATOM     36  C   UNL A   1      40.169  28.893  29.106  1.00  0.00     0.031 A 
ATOM     37  C   UNL A   1      41.187  29.826  29.711  1.00  0.00     0.074 A 
ATOM     38  C   UNL A   1      40.553  27.665  28.700  1.00  0.00     0.049 A 
ATOM     39  N   UNL A   1      42.470  29.645  29.895  1.00  0.00    -0.248 NA
ATOM     40  C   UNL A   1      40.701  31.145  30.145  1.00  0.00     0.031 C 
ATOM     41  C   UNL A   1      39.685  26.674  28.063  1.00  0.00     0.029 A 
ATOM     42  N   UNL A   1      41.779  27.048  28.755  1.00  0.00    -0.354 N 
ATOM     43  C   UNL A   1      42.949  30.830  30.439  1.00  0.00     0.074 A 
ATOM     44  C   UNL A   1      41.825  31.737  30.527  1.00  0.00     0.031 C 
ATOM     45  C   UNL A   1      40.402  25.568  27.798  1.00  0.00     0.029 A 
ATOM     46  C   UNL A   1      41.784  25.784  28.216  1.00  0.00     0.049 A 
ATOM     47  H   UNL A   1      42.578  27.471  29.144  1.00  0.00     0.167 HD
ATOM     48  C   UNL A   1      44.205  31.133  30.845  1.00  0.00     0.037 A 
ATOM     49  C   UNL A   1      42.789  24.900  28.066  1.00  0.00     0.037 A 
ATOM     50  C   UNL A   1      45.319  30.221  30.807  1.00  0.00     0.049 A 
ATOM     51  C   UNL A   1      44.169  25.254  28.545  1.00  0.00     0.074 A 
ATOM     52  C   UNL A   1      46.609  30.417  31.271  1.00  0.00     0.029 A 
ATOM     53  N   UNL A   1      45.273  28.939  30.282  1.00  0.00    -0.354 N 
ATOM     54  N   UNL A   1      44.589  26.356  29.114  1.00  0.00    -0.248 NA
ATOM     55  C   UNL A   1      45.216  24.236  28.364  1.00  0.00     0.031 C 
ATOM     56  C   UNL A   1      47.353  29.264  30.998  1.00  0.00     0.029 A 
ATOM     57  C   UNL A   1      46.516  28.340  30.394  1.00  0.00     0.049 A 
ATOM     58  H   UNL A   1      44.475  28.519  29.887  1.00  0.00     0.167 HD
ATOM     59  C   UNL A   1      45.937  26.158  29.379  1.00  0.00     0.074 A 
ATOM     60  C   UNL A   1      46.264  24.824  28.922  1.00  0.00     0.031 C 
ATOM     61  C   UNL A   1      46.827  27.008  29.947  1.00  0.00     0.037 A 
BRANCH  48  62
ATOM     62  C   UNL A   1      44.452  32.512  31.381  1.00  0.00     0.057 A 
ATOM     63  C   UNL A   1      44.326  32.806  32.744  1.00  0.00     0.134 A 
ATOM     64  C   UNL A   1      44.884  33.540  30.533  1.00  0.00     0.134 A 
ATOM     65  F   UNL A   1      43.908  31.866  33.606  1.00  0.00    -0.206 F 
ATOM     66  C   UNL A   1      44.607  34.079  33.244  1.00  0.00     0.040 A 
ATOM     67  C   UNL A   1      45.188  34.811  31.024  1.00  0.00     0.040 A 
ATOM     68  F   UNL A   1      45.032  33.322  29.218  1.00  0.00    -0.206 F 
ATOM     69  C   UNL A   1      45.047  35.083  32.384  1.00  0.00     0.006 A 
ENDBRANCH  48  62
BRANCH  49  70
ATOM     70  C   UNL A   1      42.531  23.581  27.437  1.00  0.00     0.057 A 
ATOM     71  C   UNL A   1      42.213  22.462  28.215  1.00  0.00     0.134 A 
ATOM     72  C   UNL A   1      42.618  23.402  26.052  1.00  0.00     0.134 A 
ATOM     73  F   UNL A   1      42.138  22.567  29.550  1.00  0.00    -0.206 F 
ATOM     74  C   UNL A   1      42.012  21.206  27.641  1.00  0.00     0.040 A 
ATOM     75  C   UNL A   1      42.396  22.157  25.462  1.00  0.00     0.040 A 
ATOM     76  F   UNL A   1      42.915  24.438  25.254  1.00  0.00    -0.206 F 
ATOM     77  C   UNL A   1      42.099  21.053  26.258  1.00  0.00     0.006 A 
ENDBRANCH  49  70
BRANCH  61  78
ATOM     78  C   UNL A   1      48.228  26.511  30.136  1.00  0.00     0.057 A 
ATOM     79  C   UNL A   1      48.611  25.807  31.283  1.00  0.00     0.134 A 
ATOM     80  C   UNL A   1      49.195  26.710  29.142  1.00  0.00     0.134 A 
ATOM     81  F   UNL A   1      47.733  25.597  32.276  1.00  0.00    -0.206 F 
ATOM     82  C   UNL A   1      49.913  25.333  31.446  1.00  0.00     0.040 A 
ATOM     83  C   UNL A   1      50.495  26.223  29.284  1.00  0.00     0.040 A 
ATOM     84  F   UNL A   1      48.889  27.371  28.017  1.00  0.00    -0.206 F 
ATOM     85  C   UNL A   1      50.857  25.535  30.441  1.00  0.00     0.006 A 
ENDBRANCH  61  78
ENDBRANCH  35  36
ENDBRANCH  27  30
ENDBRANCH  25  26
ENDBRANCH   1  25
TORSDOF 12
ENDMDL
