MODEL 1
REMARK VINA RESULT:     -12.0      0.000      0.000
REMARK SMILES C[C@]1(C(=O)NCCCNC(=O)c2ccc(-c3c4nc(c(-c5c(F)cccc5F)c5ccc([nH]5)c(-c5c(F)cccc5F)c5nc(c(-c6c(F)cccc6F)c6ccc3[nH]6)C=C5)C=C4)cc2)COC[C@@H]1NC(=O)[C@H]1C=C[C@@H]([NH3+])C1
REMARK SMILES IDX 6 1 5 2 3 3 4 4 2 6 1 7 66 8 69 9 67 10 68 11 70 12 71 13
REMARK SMILES IDX 72 15 73 16 74 17 78 18 75 19 76 20 77 21 7 25 8 26 9 27
REMARK SMILES IDX 10 28 11 30 12 31 13 32 65 33 14 34 64 35 15 36 16 37 17 38
REMARK SMILES IDX 58 39 18 40 63 41 57 42 59 43 19 44 62 45 56 46 55 47 20 49
REMARK SMILES IDX 46 50 29 51 45 52 30 53 33 54 44 55 60 56 31 57 32 58 43 60
REMARK SMILES IDX 61 61 34 62 21 63 22 64 27 65 23 66 24 67 26 68 28 69 25 70
REMARK SMILES IDX 47 71 48 72 53 73 49 74 50 75 52 76 54 77 51 78 35 79 36 80
REMARK SMILES IDX 41 81 37 82 38 83 40 84 42 85 39 86
REMARK H PARENT 5 5 70 14 77 22 77 23 77 24 9 29 59 48 33 59
REMARK Flexibility Score: inf
ROOT
ATOM      1  C   UNL A   1      32.053  30.502  26.118  1.00  0.00     0.117 C 
ENDROOT
BRANCH   1   2
ATOM      2  N   UNL A   1      31.711  29.587  27.192  1.00  0.00    -0.355 N 
ATOM      3  C   UNL A   1      31.678  28.226  27.230  1.00  0.00     0.230 C 
ATOM      4  O   UNL A   1      31.340  27.718  28.300  1.00  0.00    -0.274 OA
ATOM      5  H   UNL A   1      31.458  30.025  28.037  1.00  0.00     0.163 HD
BRANCH   3   6
ATOM      6  C   UNL A   1      32.068  27.396  25.998  1.00  0.00     0.092 C 
ATOM      7  C   UNL A   1      33.529  27.751  25.644  1.00  0.00     0.026 C 
ATOM      8  C   UNL A   1      31.956  25.896  26.355  1.00  0.00     0.179 C 
ATOM      9  C   UNL A   1      30.974  27.532  24.908  1.00  0.00     0.125 C 
ATOM     10  O   UNL A   1      31.356  25.221  25.241  1.00  0.00    -0.378 OA
ATOM     11  C   UNL A   1      30.437  26.132  24.643  1.00  0.00     0.186 C 
BRANCH   9  12
ATOM     12  N   UNL A   1      31.229  28.342  23.712  1.00  0.00    -0.349 N 
ATOM     13  C   UNL A   1      30.598  29.257  22.947  1.00  0.00     0.227 C 
ATOM     14  H   UNL A   1      32.132  28.165  23.363  1.00  0.00     0.163 HD
ATOM     15  O   UNL A   1      31.267  29.642  21.973  1.00  0.00    -0.274 OA
BRANCH  13  16
ATOM     16  C   UNL A   1      29.213  29.875  23.165  1.00  0.00     0.107 C 
ATOM     17  C   UNL A   1      29.001  31.178  23.845  1.00  0.00    -0.012 C 
ATOM     18  C   UNL A   1      28.551  30.098  21.790  1.00  0.00     0.087 C 
ATOM     19  C   UNL A   1      28.205  32.002  23.157  1.00  0.00     0.033 C 
ATOM     20  C   UNL A   1      27.731  31.391  21.891  1.00  0.00     0.205 C 
BRANCH  20  21
ATOM     21  N   UNL A   1      27.966  32.273  20.763  1.00  0.00    -0.352 N 
ATOM     22  H   UNL A   1      27.083  32.464  20.291  1.00  0.00     0.345 HD
ATOM     23  H   UNL A   1      28.611  31.826  20.110  1.00  0.00     0.345 HD
ATOM     24  H   UNL A   1      28.370  33.149  21.095  1.00  0.00     0.345 HD
ENDBRANCH  20  21
ENDBRANCH  13  16
ENDBRANCH   9  12
ENDBRANCH   3   6
ENDBRANCH   1   2
BRANCH   1  25
ATOM     25  C   UNL A   1      31.677  31.931  26.468  1.00  0.00     0.042 C 
BRANCH  25  26
ATOM     26  C   UNL A   1      32.724  32.618  27.328  1.00  0.00     0.118 C 
BRANCH  26  27
ATOM     27  N   UNL A   1      32.397  34.012  27.598  1.00  0.00    -0.352 N 
ATOM     28  C   UNL A   1      32.957  34.861  28.522  1.00  0.00     0.251 C 
ATOM     29  H   UNL A   1      31.680  34.396  27.045  1.00  0.00     0.163 HD
ATOM     30  O   UNL A   1      32.462  35.955  28.747  1.00  0.00    -0.269 OA
BRANCH  28  31
ATOM     31  C   UNL A   1      34.160  34.416  29.253  1.00  0.00     0.039 A 
ATOM     32  C   UNL A   1      34.013  33.793  30.492  1.00  0.00     0.014 A 
ATOM     33  C   UNL A   1      35.422  34.575  28.676  1.00  0.00     0.014 A 
ATOM     34  C   UNL A   1      35.137  33.268  31.131  1.00  0.00     0.010 A 
ATOM     35  C   UNL A   1      36.522  33.972  29.267  1.00  0.00     0.010 A 
ATOM     36  C   UNL A   1      36.393  33.325  30.506  1.00  0.00    -0.014 A 
BRANCH  36  37
ATOM     37  C   UNL A   1      37.610  32.762  31.137  1.00  0.00     0.031 A 
ATOM     38  C   UNL A   1      38.286  31.579  30.499  1.00  0.00     0.074 A 
ATOM     39  C   UNL A   1      38.052  33.249  32.312  1.00  0.00     0.049 A 
ATOM     40  N   UNL A   1      39.256  30.832  30.957  1.00  0.00    -0.248 NA
ATOM     41  C   UNL A   1      37.773  31.159  29.183  1.00  0.00     0.031 C 
ATOM     42  C   UNL A   1      37.462  34.371  33.045  1.00  0.00     0.029 A 
ATOM     43  N   UNL A   1      39.096  32.847  33.106  1.00  0.00    -0.354 N 
ATOM     44  C   UNL A   1      39.449  29.843  30.001  1.00  0.00     0.074 A 
ATOM     45  C   UNL A   1      38.458  30.047  28.969  1.00  0.00     0.031 C 
ATOM     46  C   UNL A   1      38.166  34.581  34.169  1.00  0.00     0.029 A 
ATOM     47  C   UNL A   1      39.226  33.583  34.260  1.00  0.00     0.049 A 
ATOM     48  H   UNL A   1      39.695  32.102  32.872  1.00  0.00     0.167 HD
ATOM     49  C   UNL A   1      40.388  28.869  29.970  1.00  0.00     0.037 A 
ATOM     50  C   UNL A   1      40.098  33.454  35.277  1.00  0.00     0.037 A 
ATOM     51  C   UNL A   1      41.396  28.694  30.980  1.00  0.00     0.049 A 
ATOM     52  C   UNL A   1      41.127  32.357  35.223  1.00  0.00     0.074 A 
ATOM     53  C   UNL A   1      42.416  27.762  31.029  1.00  0.00     0.029 A 
ATOM     54  N   UNL A   1      41.516  29.483  32.114  1.00  0.00    -0.354 N 
ATOM     55  N   UNL A   1      41.322  31.450  34.297  1.00  0.00    -0.248 NA
ATOM     56  C   UNL A   1      42.061  32.268  36.355  1.00  0.00     0.031 C 
ATOM     57  C   UNL A   1      43.138  27.969  32.209  1.00  0.00     0.029 A 
ATOM     58  C   UNL A   1      42.593  29.056  32.871  1.00  0.00     0.049 A 
ATOM     59  H   UNL A   1      40.924  30.235  32.345  1.00  0.00     0.167 HD
ATOM     60  C   UNL A   1      42.423  30.712  34.712  1.00  0.00     0.074 A 
ATOM     61  C   UNL A   1      42.855  31.280  35.972  1.00  0.00     0.031 C 
ATOM     62  C   UNL A   1      43.024  29.660  34.106  1.00  0.00     0.037 A 
BRANCH  49  63
ATOM     63  C   UNL A   1      40.374  27.932  28.798  1.00  0.00     0.057 A 
ATOM     64  C   UNL A   1      41.105  28.202  27.633  1.00  0.00     0.134 A 
ATOM     65  C   UNL A   1      39.643  26.739  28.840  1.00  0.00     0.134 A 
ATOM     66  F   UNL A   1      41.812  29.336  27.522  1.00  0.00    -0.206 F 
ATOM     67  C   UNL A   1      41.088  27.331  26.543  1.00  0.00     0.040 A 
ATOM     68  C   UNL A   1      39.642  25.846  27.767  1.00  0.00     0.040 A 
ATOM     69  F   UNL A   1      38.923  26.418  29.926  1.00  0.00    -0.206 F 
ATOM     70  C   UNL A   1      40.361  26.145  26.612  1.00  0.00     0.006 A 
ENDBRANCH  49  63
BRANCH  50  71
ATOM     71  C   UNL A   1      40.061  34.397  36.423  1.00  0.00     0.057 A 
ATOM     72  C   UNL A   1      39.300  34.110  37.564  1.00  0.00     0.134 A 
ATOM     73  C   UNL A   1      40.752  35.613  36.401  1.00  0.00     0.134 A 
ATOM     74  F   UNL A   1      38.600  32.967  37.637  1.00  0.00    -0.206 F 
ATOM     75  C   UNL A   1      39.207  35.007  38.627  1.00  0.00     0.040 A 
ATOM     76  C   UNL A   1      40.688  36.510  37.469  1.00  0.00     0.040 A 
ATOM     77  F   UNL A   1      41.505  35.945  35.342  1.00  0.00    -0.206 F 
ATOM     78  C   UNL A   1      39.906  36.212  38.582  1.00  0.00     0.006 A 
ENDBRANCH  50  71
BRANCH  62  79
ATOM     79  C   UNL A   1      44.251  29.098  34.757  1.00  0.00     0.057 A 
ATOM     80  C   UNL A   1      44.185  28.058  35.692  1.00  0.00     0.134 A 
ATOM     81  C   UNL A   1      45.520  29.570  34.398  1.00  0.00     0.134 A 
ATOM     82  F   UNL A   1      42.998  27.572  36.086  1.00  0.00    -0.206 F 
ATOM     83  C   UNL A   1      45.340  27.518  36.261  1.00  0.00     0.040 A 
ATOM     84  C   UNL A   1      46.682  29.021  34.940  1.00  0.00     0.040 A 
ATOM     85  F   UNL A   1      45.651  30.558  33.500  1.00  0.00    -0.206 F 
ATOM     86  C   UNL A   1      46.593  27.994  35.878  1.00  0.00     0.006 A 
ENDBRANCH  62  79
ENDBRANCH  36  37
ENDBRANCH  28  31
ENDBRANCH  26  27
ENDBRANCH  25  26
ENDBRANCH   1  25
TORSDOF 13
ENDMDL
MODEL 2
REMARK VINA RESULT:     -12.0      6.383     11.345
REMARK SMILES C[C@]1(C(=O)NCCCNC(=O)c2ccc(-c3c4nc(c(-c5c(F)cccc5F)c5ccc([nH]5)c(-c5c(F)cccc5F)c5nc(c(-c6c(F)cccc6F)c6ccc3[nH]6)C=C5)C=C4)cc2)COC[C@@H]1NC(=O)[C@H]1C=C[C@@H]([NH3+])C1
REMARK SMILES IDX 6 1 5 2 3 3 4 4 2 6 1 7 66 8 69 9 67 10 68 11 70 12 71 13
REMARK SMILES IDX 72 15 73 16 74 17 78 18 75 19 76 20 77 21 7 25 8 26 9 27
REMARK SMILES IDX 10 28 11 30 12 31 13 32 65 33 14 34 64 35 15 36 16 37 17 38
REMARK SMILES IDX 58 39 18 40 63 41 57 42 59 43 19 44 62 45 56 46 55 47 20 49
REMARK SMILES IDX 46 50 29 51 45 52 30 53 33 54 44 55 60 56 31 57 32 58 43 60
REMARK SMILES IDX 61 61 34 62 21 63 22 64 27 65 23 66 24 67 26 68 28 69 25 70
REMARK SMILES IDX 47 71 48 72 53 73 49 74 50 75 52 76 54 77 51 78 35 79 36 80
REMARK SMILES IDX 41 81 37 82 38 83 40 84 42 85 39 86
REMARK H PARENT 5 5 70 14 77 22 77 23 77 24 9 29 59 48 33 59
REMARK Flexibility Score: inf
ROOT
ATOM      1  C   UNL A   1      36.919  21.002  25.134  1.00  0.00     0.117 C 
ENDROOT
BRANCH   1   2
ATOM      2  N   UNL A   1      37.057  21.820  23.942  1.00  0.00    -0.355 N 
ATOM      3  C   UNL A   1      36.263  22.805  23.437  1.00  0.00     0.230 C 
ATOM      4  O   UNL A   1      36.641  23.328  22.389  1.00  0.00    -0.274 OA
ATOM      5  H   UNL A   1      37.861  21.630  23.407  1.00  0.00     0.163 HD
BRANCH   3   6
ATOM      6  C   UNL A   1      34.983  23.235  24.170  1.00  0.00     0.092 C 
ATOM      7  C   UNL A   1      35.375  23.586  25.621  1.00  0.00     0.026 C 
ATOM      8  C   UNL A   1      34.400  24.478  23.459  1.00  0.00     0.179 C 
ATOM      9  C   UNL A   1      33.864  22.191  23.923  1.00  0.00     0.125 C 
ATOM     10  O   UNL A   1      32.976  24.316  23.386  1.00  0.00    -0.378 OA
ATOM     11  C   UNL A   1      32.718  22.923  23.238  1.00  0.00     0.186 C 
BRANCH   9  12
ATOM     12  N   UNL A   1      33.468  21.274  24.998  1.00  0.00    -0.349 N 
ATOM     13  C   UNL A   1      33.358  19.948  25.220  1.00  0.00     0.227 C 
ATOM     14  H   UNL A   1      33.203  21.780  25.800  1.00  0.00     0.163 HD
ATOM     15  O   UNL A   1      32.924  19.663  26.348  1.00  0.00    -0.274 OA
BRANCH  13  16
ATOM     16  C   UNL A   1      33.732  18.802  24.275  1.00  0.00     0.107 C 
ATOM     17  C   UNL A   1      34.894  17.904  24.504  1.00  0.00    -0.012 C 
ATOM     18  C   UNL A   1      32.549  17.814  24.206  1.00  0.00     0.087 C 
ATOM     19  C   UNL A   1      34.580  16.609  24.405  1.00  0.00     0.033 C 
ATOM     20  C   UNL A   1      33.146  16.405  24.081  1.00  0.00     0.205 C 
BRANCH  20  21
ATOM     21  N   UNL A   1      32.528  15.470  25.001  1.00  0.00    -0.352 N 
ATOM     22  H   UNL A   1      33.251  15.007  25.551  1.00  0.00     0.345 HD
ATOM     23  H   UNL A   1      32.004  14.770  24.474  1.00  0.00     0.345 HD
ATOM     24  H   UNL A   1      31.895  15.971  25.623  1.00  0.00     0.345 HD
ENDBRANCH  20  21
ENDBRANCH  13  16
ENDBRANCH   9  12
ENDBRANCH   3   6
ENDBRANCH   1   2
BRANCH   1  25
ATOM     25  C   UNL A   1      37.933  19.872  25.149  1.00  0.00     0.042 C 
BRANCH  25  26
ATOM     26  C   UNL A   1      39.264  20.287  25.751  1.00  0.00     0.118 C 
BRANCH  26  27
ATOM     27  N   UNL A   1      40.187  19.168  25.889  1.00  0.00    -0.352 N 
ATOM     28  C   UNL A   1      41.544  19.197  26.109  1.00  0.00     0.251 C 
ATOM     29  H   UNL A   1      39.787  18.273  25.813  1.00  0.00     0.163 HD
ATOM     30  O   UNL A   1      42.212  18.177  26.034  1.00  0.00    -0.269 OA
BRANCH  28  31
ATOM     31  C   UNL A   1      42.181  20.491  26.420  1.00  0.00     0.039 A 
ATOM     32  C   UNL A   1      42.654  21.287  25.376  1.00  0.00     0.014 A 
ATOM     33  C   UNL A   1      42.257  20.929  27.744  1.00  0.00     0.014 A 
ATOM     34  C   UNL A   1      43.151  22.560  25.658  1.00  0.00     0.010 A 
ATOM     35  C   UNL A   1      42.664  22.227  28.011  1.00  0.00     0.010 A 
ATOM     36  C   UNL A   1      43.128  23.050  26.974  1.00  0.00    -0.014 A 
BRANCH  36  37
ATOM     37  C   UNL A   1      43.626  24.404  27.316  1.00  0.00     0.031 A 
ATOM     38  C   UNL A   1      42.646  25.451  27.769  1.00  0.00     0.074 A 
ATOM     39  C   UNL A   1      44.924  24.713  27.139  1.00  0.00     0.049 A 
ATOM     40  N   UNL A   1      42.831  26.730  27.963  1.00  0.00    -0.248 NA
ATOM     41  C   UNL A   1      41.261  25.003  27.997  1.00  0.00     0.031 C 
ATOM     42  C   UNL A   1      45.964  23.793  26.674  1.00  0.00     0.029 A 
ATOM     43  N   UNL A   1      45.588  25.901  27.316  1.00  0.00    -0.354 N 
ATOM     44  C   UNL A   1      41.587  27.240  28.309  1.00  0.00     0.074 A 
ATOM     45  C   UNL A   1      40.643  26.147  28.239  1.00  0.00     0.031 C 
ATOM     46  C   UNL A   1      47.137  24.444  26.624  1.00  0.00     0.029 A 
ATOM     47  C   UNL A   1      46.926  25.836  27.008  1.00  0.00     0.049 A 
ATOM     48  H   UNL A   1      45.148  26.722  27.634  1.00  0.00     0.167 HD
ATOM     49  C   UNL A   1      41.263  28.500  28.682  1.00  0.00     0.037 A 
ATOM     50  C   UNL A   1      47.868  26.797  27.026  1.00  0.00     0.037 A 
ATOM     51  C   UNL A   1      42.212  29.574  28.788  1.00  0.00     0.049 A 
ATOM     52  C   UNL A   1      47.481  28.192  27.435  1.00  0.00     0.074 A 
ATOM     53  C   UNL A   1      41.997  30.880  29.190  1.00  0.00     0.029 A 
ATOM     54  N   UNL A   1      43.564  29.458  28.502  1.00  0.00    -0.354 N 
ATOM     55  N   UNL A   1      46.307  28.654  27.794  1.00  0.00    -0.248 NA
ATOM     56  C   UNL A   1      48.550  29.201  27.446  1.00  0.00     0.031 C 
ATOM     57  C   UNL A   1      43.215  31.563  29.120  1.00  0.00     0.029 A 
ATOM     58  C   UNL A   1      44.195  30.671  28.716  1.00  0.00     0.049 A 
ATOM     59  H   UNL A   1      44.008  28.635  28.193  1.00  0.00     0.167 HD
ATOM     60  C   UNL A   1      46.505  29.991  28.113  1.00  0.00     0.074 A 
ATOM     61  C   UNL A   1      47.912  30.266  27.908  1.00  0.00     0.031 C 
ATOM     62  C   UNL A   1      45.604  30.910  28.538  1.00  0.00     0.037 A 
BRANCH  49  63
ATOM     63  C   UNL A   1      39.826  28.774  29.016  1.00  0.00     0.057 A 
ATOM     64  C   UNL A   1      39.335  28.630  30.321  1.00  0.00     0.134 A 
ATOM     65  C   UNL A   1      38.929  29.209  28.033  1.00  0.00     0.134 A 
ATOM     66  F   UNL A   1      40.138  28.201  31.306  1.00  0.00    -0.206 F 
ATOM     67  C   UNL A   1      37.997  28.883  30.629  1.00  0.00     0.040 A 
ATOM     68  C   UNL A   1      37.596  29.492  28.335  1.00  0.00     0.040 A 
ATOM     69  F   UNL A   1      39.334  29.371  26.764  1.00  0.00    -0.206 F 
ATOM     70  C   UNL A   1      37.126  29.323  29.636  1.00  0.00     0.006 A 
ENDBRANCH  49  63
BRANCH  50  71
ATOM     71  C   UNL A   1      49.273  26.478  26.670  1.00  0.00     0.057 A 
ATOM     72  C   UNL A   1      49.745  26.672  25.365  1.00  0.00     0.134 A 
ATOM     73  C   UNL A   1      50.170  25.949  27.605  1.00  0.00     0.134 A 
ATOM     74  F   UNL A   1      48.928  27.160  24.419  1.00  0.00    -0.206 F 
ATOM     75  C   UNL A   1      51.045  26.327  24.997  1.00  0.00     0.040 A 
ATOM     76  C   UNL A   1      51.481  25.622  27.257  1.00  0.00     0.040 A 
ATOM     77  F   UNL A   1      49.783  25.747  28.874  1.00  0.00    -0.206 F 
ATOM     78  C   UNL A   1      51.920  25.802  25.947  1.00  0.00     0.006 A 
ENDBRANCH  50  71
BRANCH  62  79
ATOM     79  C   UNL A   1      46.121  32.276  28.876  1.00  0.00     0.057 A 
ATOM     80  C   UNL A   1      46.155  33.311  27.935  1.00  0.00     0.134 A 
ATOM     81  C   UNL A   1      46.536  32.570  30.182  1.00  0.00     0.134 A 
ATOM     82  F   UNL A   1      45.782  33.088  26.665  1.00  0.00    -0.206 F 
ATOM     83  C   UNL A   1      46.602  34.589  28.276  1.00  0.00     0.040 A 
ATOM     84  C   UNL A   1      46.961  33.849  30.541  1.00  0.00     0.040 A 
ATOM     85  F   UNL A   1      46.518  31.623  31.132  1.00  0.00    -0.206 F 
ATOM     86  C   UNL A   1      46.998  34.861  29.584  1.00  0.00     0.006 A 
ENDBRANCH  62  79
ENDBRANCH  36  37
ENDBRANCH  28  31
ENDBRANCH  26  27
ENDBRANCH  25  26
ENDBRANCH   1  25
TORSDOF 13
ENDMDL
MODEL 3
REMARK VINA RESULT:     -11.9      5.588     10.148
REMARK SMILES C[C@]1(C(=O)NCCCNC(=O)c2ccc(-c3c4nc(c(-c5c(F)cccc5F)c5ccc([nH]5)c(-c5c(F)cccc5F)c5nc(c(-c6c(F)cccc6F)c6ccc3[nH]6)C=C5)C=C4)cc2)COC[C@@H]1NC(=O)[C@H]1C=C[C@@H]([NH3+])C1
REMARK SMILES IDX 6 1 5 2 3 3 4 4 2 6 1 7 66 8 69 9 67 10 68 11 70 12 71 13
REMARK SMILES IDX 72 15 73 16 74 17 78 18 75 19 76 20 77 21 7 25 8 26 9 27
REMARK SMILES IDX 10 28 11 30 12 31 13 32 65 33 14 34 64 35 15 36 16 37 17 38
REMARK SMILES IDX 58 39 18 40 63 41 57 42 59 43 19 44 62 45 56 46 55 47 20 49
REMARK SMILES IDX 46 50 29 51 45 52 30 53 33 54 44 55 60 56 31 57 32 58 43 60
REMARK SMILES IDX 61 61 34 62 21 63 22 64 27 65 23 66 24 67 26 68 28 69 25 70
REMARK SMILES IDX 47 71 48 72 53 73 49 74 50 75 52 76 54 77 51 78 35 79 36 80
REMARK SMILES IDX 41 81 37 82 38 83 40 84 42 85 39 86
REMARK H PARENT 5 5 70 14 77 22 77 23 77 24 9 29 59 48 33 59
REMARK Flexibility Score: inf
ROOT
ATOM      1  C   UNL A   1      36.857  20.686  25.013  1.00  0.00     0.117 C 
ENDROOT
BRANCH   1   2
ATOM      2  N   UNL A   1      37.038  21.617  23.914  1.00  0.00    -0.355 N 
ATOM      3  C   UNL A   1      36.312  22.705  23.536  1.00  0.00     0.230 C 
ATOM      4  O   UNL A   1      36.713  23.311  22.542  1.00  0.00    -0.274 OA
ATOM      5  H   UNL A   1      37.819  21.429  23.344  1.00  0.00     0.163 HD
BRANCH   3   6
ATOM      6  C   UNL A   1      35.076  23.143  24.338  1.00  0.00     0.092 C 
ATOM      7  C   UNL A   1      35.539  23.428  25.783  1.00  0.00     0.026 C 
ATOM      8  C   UNL A   1      34.501  24.427  23.699  1.00  0.00     0.179 C 
ATOM      9  C   UNL A   1      33.918  22.140  24.102  1.00  0.00     0.125 C 
ATOM     10  O   UNL A   1      33.072  24.308  23.681  1.00  0.00    -0.378 OA
ATOM     11  C   UNL A   1      32.767  22.929  23.493  1.00  0.00     0.186 C 
BRANCH   9  12
ATOM     12  N   UNL A   1      33.540  21.195  25.158  1.00  0.00    -0.349 N 
ATOM     13  C   UNL A   1      33.375  19.867  25.329  1.00  0.00     0.227 C 
ATOM     14  H   UNL A   1      33.350  21.676  25.996  1.00  0.00     0.163 HD
ATOM     15  O   UNL A   1      32.996  19.551  26.468  1.00  0.00    -0.274 OA
BRANCH  13  16
ATOM     16  C   UNL A   1      33.633  18.749  24.313  1.00  0.00     0.107 C 
ATOM     17  C   UNL A   1      34.825  17.863  24.363  1.00  0.00    -0.012 C 
ATOM     18  C   UNL A   1      32.463  17.746  24.378  1.00  0.00     0.087 C 
ATOM     19  C   UNL A   1      34.515  16.566  24.274  1.00  0.00     0.033 C 
ATOM     20  C   UNL A   1      33.053  16.350  24.138  1.00  0.00     0.205 C 
BRANCH  20  21
ATOM     21  N   UNL A   1      32.574  15.384  25.108  1.00  0.00    -0.352 N 
ATOM     22  H   UNL A   1      32.238  14.552  24.623  1.00  0.00     0.345 HD
ATOM     23  H   UNL A   1      31.810  15.793  25.648  1.00  0.00     0.345 HD
ATOM     24  H   UNL A   1      33.335  15.126  25.737  1.00  0.00     0.345 HD
ENDBRANCH  20  21
ENDBRANCH  13  16
ENDBRANCH   9  12
ENDBRANCH   3   6
ENDBRANCH   1   2
BRANCH   1  25
ATOM     25  C   UNL A   1      37.992  19.679  25.078  1.00  0.00     0.042 C 
BRANCH  25  26
ATOM     26  C   UNL A   1      39.204  20.210  25.822  1.00  0.00     0.118 C 
BRANCH  26  27
ATOM     27  N   UNL A   1      40.309  19.261  25.838  1.00  0.00    -0.352 N 
ATOM     28  C   UNL A   1      41.641  19.497  26.086  1.00  0.00     0.251 C 
ATOM     29  H   UNL A   1      40.071  18.326  25.644  1.00  0.00     0.163 HD
ATOM     30  O   UNL A   1      42.476  18.626  25.898  1.00  0.00    -0.269 OA
BRANCH  28  31
ATOM     31  C   UNL A   1      42.042  20.833  26.567  1.00  0.00     0.039 A 
ATOM     32  C   UNL A   1      42.444  21.798  25.644  1.00  0.00     0.014 A 
ATOM     33  C   UNL A   1      41.968  21.133  27.930  1.00  0.00     0.014 A 
ATOM     34  C   UNL A   1      42.713  23.095  26.083  1.00  0.00     0.010 A 
ATOM     35  C   UNL A   1      42.145  22.442  28.350  1.00  0.00     0.010 A 
ATOM     36  C   UNL A   1      42.532  23.433  27.434  1.00  0.00    -0.014 A 
BRANCH  36  37
ATOM     37  C   UNL A   1      42.786  24.802  27.941  1.00  0.00     0.031 A 
ATOM     38  C   UNL A   1      44.180  25.183  28.357  1.00  0.00     0.074 A 
ATOM     39  C   UNL A   1      41.764  25.663  28.107  1.00  0.00     0.049 A 
ATOM     40  N   UNL A   1      44.597  26.258  28.972  1.00  0.00    -0.248 NA
ATOM     41  C   UNL A   1      45.242  24.200  28.076  1.00  0.00     0.031 C 
ATOM     42  C   UNL A   1      40.363  25.399  27.772  1.00  0.00     0.029 A 
ATOM     43  N   UNL A   1      41.747  26.936  28.620  1.00  0.00    -0.354 N 
ATOM     44  C   UNL A   1      45.958  26.070  29.173  1.00  0.00     0.074 A 
ATOM     45  C   UNL A   1      46.286  24.754  28.671  1.00  0.00     0.031 C 
ATOM     46  C   UNL A   1      39.628  26.484  28.066  1.00  0.00     0.029 A 
ATOM     47  C   UNL A   1      40.494  27.501  28.652  1.00  0.00     0.049 A 
ATOM     48  H   UNL A   1      42.556  27.401  28.935  1.00  0.00     0.167 HD
ATOM     49  C   UNL A   1      46.862  26.928  29.701  1.00  0.00     0.037 A 
ATOM     50  C   UNL A   1      40.096  28.700  29.114  1.00  0.00     0.037 A 
ATOM     51  C   UNL A   1      46.538  28.250  30.162  1.00  0.00     0.049 A 
ATOM     52  C   UNL A   1      41.118  29.633  29.705  1.00  0.00     0.074 A 
ATOM     53  C   UNL A   1      47.383  29.214  30.683  1.00  0.00     0.029 A 
ATOM     54  N   UNL A   1      45.264  28.797  30.145  1.00  0.00    -0.354 N 
ATOM     55  N   UNL A   1      42.409  29.457  29.857  1.00  0.00    -0.248 NA
ATOM     56  C   UNL A   1      40.630  30.934  30.185  1.00  0.00     0.031 C 
ATOM     57  C   UNL A   1      46.614  30.336  31.007  1.00  0.00     0.029 A 
ATOM     58  C   UNL A   1      45.300  30.086  30.648  1.00  0.00     0.049 A 
ATOM     59  H   UNL A   1      44.456  28.338  29.822  1.00  0.00     0.167 HD
ATOM     60  C   UNL A   1      42.891  30.636  30.409  1.00  0.00     0.074 A 
ATOM     61  C   UNL A   1      41.755  31.522  30.562  1.00  0.00     0.031 C 
ATOM     62  C   UNL A   1      44.160  30.960  30.758  1.00  0.00     0.037 A 
BRANCH  49  63
ATOM     63  C   UNL A   1      48.286  26.464  29.789  1.00  0.00     0.057 A 
ATOM     64  C   UNL A   1      49.206  26.715  28.762  1.00  0.00     0.134 A 
ATOM     65  C   UNL A   1      48.751  25.781  30.919  1.00  0.00     0.134 A 
ATOM     66  F   UNL A   1      48.820  27.349  27.645  1.00  0.00    -0.206 F 
ATOM     67  C   UNL A   1      50.529  26.280  28.844  1.00  0.00     0.040 A 
ATOM     68  C   UNL A   1      50.080  25.366  31.026  1.00  0.00     0.040 A 
ATOM     69  F   UNL A   1      47.924  25.510  31.940  1.00  0.00    -0.206 F 
ATOM     70  C   UNL A   1      50.971  25.610  29.983  1.00  0.00     0.006 A 
ENDBRANCH  49  63
BRANCH  50  71
ATOM     71  C   UNL A   1      38.671  29.106  29.019  1.00  0.00     0.057 A 
ATOM     72  C   UNL A   1      38.142  29.588  27.814  1.00  0.00     0.134 A 
ATOM     73  C   UNL A   1      37.813  29.054  30.123  1.00  0.00     0.134 A 
ATOM     74  F   UNL A   1      38.919  29.679  26.725  1.00  0.00    -0.206 F 
ATOM     75  C   UNL A   1      36.821  30.026  27.718  1.00  0.00     0.040 A 
ATOM     76  C   UNL A   1      36.482  29.466  30.035  1.00  0.00     0.040 A 
ATOM     77  F   UNL A   1      38.256  28.595  31.303  1.00  0.00    -0.206 F 
ATOM     78  C   UNL A   1      35.985  29.964  28.832  1.00  0.00     0.006 A 
ENDBRANCH  50  71
BRANCH  62  79
ATOM     79  C   UNL A   1      44.401  32.347  31.273  1.00  0.00     0.057 A 
ATOM     80  C   UNL A   1      44.372  32.647  32.640  1.00  0.00     0.134 A 
ATOM     81  C   UNL A   1      44.724  33.383  30.387  1.00  0.00     0.134 A 
ATOM     82  F   UNL A   1      44.057  31.700  33.537  1.00  0.00    -0.206 F 
ATOM     83  C   UNL A   1      44.638  33.935  33.107  1.00  0.00     0.040 A 
ATOM     84  C   UNL A   1      45.016  34.668  30.843  1.00  0.00     0.040 A 
ATOM     85  F   UNL A   1      44.778  33.157  29.066  1.00  0.00    -0.206 F 
ATOM     86  C   UNL A   1      44.969  34.947  32.208  1.00  0.00     0.006 A 
ENDBRANCH  62  79
ENDBRANCH  36  37
ENDBRANCH  28  31
ENDBRANCH  26  27
ENDBRANCH  25  26
ENDBRANCH   1  25
TORSDOF 13
ENDMDL
