MODEL 1
REMARK VINA RESULT:     -13.3      0.000      0.000
REMARK SMILES Cc1ccc(-c2cc([C@@H](C)C(=O)NCCCNC(=O)c3ccc(-c4c5nc(c(-c6c(F)cccc6F)c6ccc([nH]6)c(-c6c(F)cccc6F)c6nc(c(-c7c(F)cccc7F)c7ccc4[nH]7)C=C6)C=C5)cc3)ccc2C[C@H]2CCCC2=O)cc1
REMARK SMILES IDX 14 1 13 2 11 3 12 4 9 6 10 7 8 8 6 9 7 10 76 11 75 12 74 13
REMARK SMILES IDX 5 14 1 15 2 16 3 17 85 18 4 19 84 20 77 21 78 22 79 23 82 24
REMARK SMILES IDX 80 25 81 26 83 27 15 28 16 29 17 30 18 31 19 33 20 34 21 35
REMARK SMILES IDX 73 36 22 37 72 38 23 39 24 40 25 41 66 42 26 43 71 44 65 45
REMARK SMILES IDX 67 46 27 47 70 48 64 49 63 50 28 52 54 53 37 54 53 55 38 56
REMARK SMILES IDX 41 57 52 58 68 59 39 60 40 61 51 63 69 64 42 65 29 66 30 67
REMARK SMILES IDX 35 68 31 69 32 70 34 71 36 72 33 73 55 74 56 75 61 76 57 77
REMARK SMILES IDX 58 78 60 79 62 80 59 81 43 82 44 83 49 84 45 85 46 86 48 87
REMARK SMILES IDX 50 88 47 89
REMARK H PARENT 13 5 17 32 67 51 41 62
REMARK Flexibility Score: inf
ROOT
ATOM      1  C   UNL A   1      34.416  29.264  27.591  1.00  0.00     0.117 C 
ENDROOT
BRANCH   1   2
ATOM      2  N   UNL A   1      33.185  28.490  27.605  1.00  0.00    -0.356 N 
ATOM      3  C   UNL A   1      32.317  28.119  26.623  1.00  0.00     0.227 C 
ATOM      4  O   UNL A   1      31.286  27.549  27.003  1.00  0.00    -0.274 OA
ATOM      5  H   UNL A   1      32.929  28.171  28.501  1.00  0.00     0.163 HD
BRANCH   3   6
ATOM      6  C   UNL A   1      32.536  28.366  25.117  1.00  0.00     0.105 C 
ATOM      7  C   UNL A   1      31.564  29.359  24.485  1.00  0.00     0.023 C 
BRANCH   6   8
ATOM      8  C   UNL A   1      32.778  27.091  24.322  1.00  0.00    -0.035 A 
ATOM      9  C   UNL A   1      33.894  24.903  24.108  1.00  0.00    -0.015 A 
ATOM     10  C   UNL A   1      33.698  26.132  24.778  1.00  0.00     0.013 A 
ATOM     11  C   UNL A   1      33.020  24.565  23.050  1.00  0.00    -0.039 A 
ATOM     12  C   UNL A   1      32.177  25.560  22.538  1.00  0.00     0.004 A 
ATOM     13  C   UNL A   1      32.112  26.821  23.129  1.00  0.00     0.005 A 
BRANCH   9  14
ATOM     14  C   UNL A   1      35.089  24.097  24.423  1.00  0.00    -0.018 A 
ATOM     15  C   UNL A   1      38.528  21.728  25.567  1.00  0.00     0.044 C 
ATOM     16  C   UNL A   1      37.330  22.533  25.159  1.00  0.00    -0.051 A 
ATOM     17  C   UNL A   1      36.651  23.284  26.119  1.00  0.00     0.004 A 
ATOM     18  C   UNL A   1      36.879  22.557  23.834  1.00  0.00     0.004 A 
ATOM     19  C   UNL A   1      35.539  24.042  25.756  1.00  0.00     0.009 A 
ATOM     20  C   UNL A   1      35.767  23.329  23.469  1.00  0.00     0.009 A 
ENDBRANCH   9  14
BRANCH  11  21
ATOM     21  C   UNL A   1      32.947  23.180  22.435  1.00  0.00     0.047 C 
BRANCH  21  22
ATOM     22  C   UNL A   1      32.154  22.123  23.218  1.00  0.00     0.060 C 
ATOM     23  C   UNL A   1      32.957  20.972  23.840  1.00  0.00     0.012 C 
ATOM     24  C   UNL A   1      31.418  22.682  24.417  1.00  0.00     0.136 C 
ATOM     25  C   UNL A   1      33.081  21.294  25.325  1.00  0.00     0.009 C 
ATOM     26  C   UNL A   1      31.768  21.962  25.692  1.00  0.00     0.076 C 
ATOM     27  O   UNL A   1      30.592  23.584  24.358  1.00  0.00    -0.299 OA
ENDBRANCH  21  22
ENDBRANCH  11  21
ENDBRANCH   6   8
ENDBRANCH   3   6
ENDBRANCH   1   2
BRANCH   1  28
ATOM     28  C   UNL A   1      34.151  30.758  27.744  1.00  0.00     0.042 C 
BRANCH  28  29
ATOM     29  C   UNL A   1      35.384  31.639  27.640  1.00  0.00     0.118 C 
BRANCH  29  30
ATOM     30  N   UNL A   1      35.947  31.993  28.944  1.00  0.00    -0.352 N 
ATOM     31  C   UNL A   1      36.839  31.283  29.732  1.00  0.00     0.251 C 
ATOM     32  H   UNL A   1      35.649  32.855  29.314  1.00  0.00     0.163 HD
ATOM     33  O   UNL A   1      37.292  31.764  30.756  1.00  0.00    -0.269 OA
BRANCH  31  34
ATOM     34  C   UNL A   1      37.344  29.990  29.218  1.00  0.00     0.039 A 
ATOM     35  C   UNL A   1      37.499  28.955  30.144  1.00  0.00     0.014 A 
ATOM     36  C   UNL A   1      37.944  29.925  27.965  1.00  0.00     0.014 A 
ATOM     37  C   UNL A   1      38.493  28.008  29.925  1.00  0.00     0.010 A 
ATOM     38  C   UNL A   1      39.006  29.055  27.799  1.00  0.00     0.010 A 
ATOM     39  C   UNL A   1      39.331  28.154  28.818  1.00  0.00    -0.014 A 
BRANCH  39  40
ATOM     40  C   UNL A   1      40.655  27.539  28.768  1.00  0.00     0.031 A 
ATOM     41  C   UNL A   1      40.827  26.121  28.398  1.00  0.00     0.074 A 
ATOM     42  C   UNL A   1      41.753  28.273  29.063  1.00  0.00     0.049 A 
ATOM     43  N   UNL A   1      41.770  25.373  28.868  1.00  0.00    -0.248 NA
ATOM     44  C   UNL A   1      39.928  25.419  27.489  1.00  0.00     0.031 C 
ATOM     45  C   UNL A   1      43.147  27.895  28.849  1.00  0.00     0.029 A 
ATOM     46  N   UNL A   1      41.824  29.452  29.817  1.00  0.00    -0.354 N 
ATOM     47  C   UNL A   1      41.771  24.208  28.144  1.00  0.00     0.074 A 
ATOM     48  C   UNL A   1      40.566  24.253  27.345  1.00  0.00     0.031 C 
ATOM     49  C   UNL A   1      43.927  28.632  29.656  1.00  0.00     0.029 A 
ATOM     50  C   UNL A   1      43.053  29.416  30.509  1.00  0.00     0.049 A 
ATOM     51  H   UNL A   1      41.148  30.168  29.856  1.00  0.00     0.167 HD
ATOM     52  C   UNL A   1      42.852  23.380  28.173  1.00  0.00     0.037 A 
ATOM     53  C   UNL A   1      43.126  29.470  31.869  1.00  0.00     0.037 A 
ATOM     54  C   UNL A   1      43.920  23.897  29.014  1.00  0.00     0.049 A 
ATOM     55  C   UNL A   1      43.826  28.290  32.500  1.00  0.00     0.074 A 
ATOM     56  C   UNL A   1      45.058  24.633  28.722  1.00  0.00     0.029 A 
ATOM     57  N   UNL A   1      43.758  23.955  30.393  1.00  0.00    -0.354 N 
ATOM     58  N   UNL A   1      44.036  27.161  31.885  1.00  0.00    -0.248 NA
ATOM     59  C   UNL A   1      44.289  28.265  33.885  1.00  0.00     0.031 C 
ATOM     60  C   UNL A   1      45.571  25.153  29.931  1.00  0.00     0.029 A 
ATOM     61  C   UNL A   1      44.751  24.731  30.960  1.00  0.00     0.049 A 
ATOM     62  H   UNL A   1      43.039  23.506  30.894  1.00  0.00     0.167 HD
ATOM     63  C   UNL A   1      44.577  26.257  32.763  1.00  0.00     0.074 A 
ATOM     64  C   UNL A   1      44.750  27.006  33.991  1.00  0.00     0.031 C 
ATOM     65  C   UNL A   1      44.802  24.961  32.396  1.00  0.00     0.037 A 
BRANCH  52  66
ATOM     66  C   UNL A   1      43.019  22.272  27.171  1.00  0.00     0.057 A 
ATOM     67  C   UNL A   1      42.231  21.108  27.220  1.00  0.00     0.134 A 
ATOM     68  C   UNL A   1      43.993  22.288  26.159  1.00  0.00     0.134 A 
ATOM     69  F   UNL A   1      41.212  20.979  28.079  1.00  0.00    -0.206 F 
ATOM     70  C   UNL A   1      42.467  19.999  26.400  1.00  0.00     0.040 A 
ATOM     71  C   UNL A   1      44.272  21.169  25.362  1.00  0.00     0.040 A 
ATOM     72  F   UNL A   1      44.709  23.394  25.907  1.00  0.00    -0.206 F 
ATOM     73  C   UNL A   1      43.515  20.012  25.491  1.00  0.00     0.006 A 
ENDBRANCH  52  66
BRANCH  53  74
ATOM     74  C   UNL A   1      42.004  30.209  32.498  1.00  0.00     0.057 A 
ATOM     75  C   UNL A   1      40.886  29.490  32.951  1.00  0.00     0.134 A 
ATOM     76  C   UNL A   1      42.164  31.512  32.976  1.00  0.00     0.134 A 
ATOM     77  F   UNL A   1      40.678  28.232  32.532  1.00  0.00    -0.206 F 
ATOM     78  C   UNL A   1      40.020  30.006  33.918  1.00  0.00     0.040 A 
ATOM     79  C   UNL A   1      41.300  32.042  33.940  1.00  0.00     0.040 A 
ATOM     80  F   UNL A   1      43.221  32.249  32.607  1.00  0.00    -0.206 F 
ATOM     81  C   UNL A   1      40.248  31.276  34.440  1.00  0.00     0.006 A 
ENDBRANCH  53  74
BRANCH  65  82
ATOM     82  C   UNL A   1      45.166  23.813  33.306  1.00  0.00     0.057 A 
ATOM     83  C   UNL A   1      46.424  23.637  33.898  1.00  0.00     0.134 A 
ATOM     84  C   UNL A   1      44.172  22.905  33.741  1.00  0.00     0.134 A 
ATOM     85  F   UNL A   1      47.435  24.483  33.663  1.00  0.00    -0.206 F 
ATOM     86  C   UNL A   1      46.689  22.608  34.813  1.00  0.00     0.040 A 
ATOM     87  C   UNL A   1      44.411  21.908  34.693  1.00  0.00     0.040 A 
ATOM     88  F   UNL A   1      42.914  22.960  33.279  1.00  0.00    -0.206 F 
ATOM     89  C   UNL A   1      45.679  21.748  35.224  1.00  0.00     0.006 A 
ENDBRANCH  65  82
ENDBRANCH  39  40
ENDBRANCH  31  34
ENDBRANCH  29  30
ENDBRANCH  28  29
ENDBRANCH   1  28
TORSDOF 14
ENDMDL
MODEL 2
REMARK VINA RESULT:     -13.3      3.779      9.257
REMARK SMILES Cc1ccc(-c2cc([C@@H](C)C(=O)NCCCNC(=O)c3ccc(-c4c5nc(c(-c6c(F)cccc6F)c6ccc([nH]6)c(-c6c(F)cccc6F)c6nc(c(-c7c(F)cccc7F)c7ccc4[nH]7)C=C6)C=C5)cc3)ccc2C[C@H]2CCCC2=O)cc1
REMARK SMILES IDX 14 1 13 2 11 3 12 4 9 6 10 7 8 8 6 9 7 10 76 11 75 12 74 13
REMARK SMILES IDX 5 14 1 15 2 16 3 17 85 18 4 19 84 20 77 21 78 22 79 23 82 24
REMARK SMILES IDX 80 25 81 26 83 27 15 28 16 29 17 30 18 31 19 33 20 34 21 35
REMARK SMILES IDX 73 36 22 37 72 38 23 39 24 40 25 41 66 42 26 43 71 44 65 45
REMARK SMILES IDX 67 46 27 47 70 48 64 49 63 50 28 52 54 53 37 54 53 55 38 56
REMARK SMILES IDX 41 57 52 58 68 59 39 60 40 61 51 63 69 64 42 65 29 66 30 67
REMARK SMILES IDX 35 68 31 69 32 70 34 71 36 72 33 73 55 74 56 75 61 76 57 77
REMARK SMILES IDX 58 78 60 79 62 80 59 81 43 82 44 83 49 84 45 85 46 86 48 87
REMARK SMILES IDX 50 88 47 89
REMARK H PARENT 13 5 17 32 67 51 41 62
REMARK Flexibility Score: inf
ROOT
ATOM      1  C   UNL A   1      38.065  22.434  25.674  1.00  0.00     0.117 C 
ENDROOT
BRANCH   1   2
ATOM      2  N   UNL A   1      37.158  21.381  25.246  1.00  0.00    -0.356 N 
ATOM      3  C   UNL A   1      35.836  21.150  25.481  1.00  0.00     0.227 C 
ATOM      4  O   UNL A   1      35.393  20.076  25.052  1.00  0.00    -0.274 OA
ATOM      5  H   UNL A   1      37.582  20.701  24.674  1.00  0.00     0.163 HD
BRANCH   3   6
ATOM      6  C   UNL A   1      34.895  22.114  26.231  1.00  0.00     0.105 C 
ATOM      7  C   UNL A   1      33.933  21.438  27.205  1.00  0.00     0.023 C 
BRANCH   6   8
ATOM      8  C   UNL A   1      34.278  23.178  25.334  1.00  0.00    -0.035 A 
ATOM      9  C   UNL A   1      33.802  25.554  24.880  1.00  0.00    -0.015 A 
ATOM     10  C   UNL A   1      34.298  24.530  25.717  1.00  0.00     0.013 A 
ATOM     11  C   UNL A   1      33.435  25.222  23.556  1.00  0.00    -0.039 A 
ATOM     12  C   UNL A   1      33.322  23.868  23.215  1.00  0.00     0.004 A 
ATOM     13  C   UNL A   1      33.676  22.868  24.118  1.00  0.00     0.005 A 
BRANCH   9  14
ATOM     14  C   UNL A   1      33.537  26.886  25.455  1.00  0.00    -0.018 A 
ATOM     15  C   UNL A   1      32.682  30.693  27.334  1.00  0.00     0.044 C 
ATOM     16  C   UNL A   1      32.998  29.378  26.684  1.00  0.00    -0.051 A 
ATOM     17  C   UNL A   1      32.351  28.223  27.123  1.00  0.00     0.004 A 
ATOM     18  C   UNL A   1      33.923  29.282  25.636  1.00  0.00     0.004 A 
ATOM     19  C   UNL A   1      32.629  26.995  26.526  1.00  0.00     0.009 A 
ATOM     20  C   UNL A   1      34.193  28.047  25.030  1.00  0.00     0.009 A 
ENDBRANCH   9  14
BRANCH  11  21
ATOM     21  C   UNL A   1      33.151  26.257  22.483  1.00  0.00     0.047 C 
BRANCH  21  22
ATOM     22  C   UNL A   1      31.676  26.618  22.251  1.00  0.00     0.060 C 
ATOM     23  C   UNL A   1      30.628  25.721  22.922  1.00  0.00     0.012 C 
ATOM     24  C   UNL A   1      31.299  27.990  22.766  1.00  0.00     0.136 C 
ATOM     25  C   UNL A   1      30.132  26.487  24.144  1.00  0.00     0.009 C 
ATOM     26  C   UNL A   1      30.134  27.945  23.718  1.00  0.00     0.076 C 
ATOM     27  O   UNL A   1      31.842  29.031  22.416  1.00  0.00    -0.299 OA
ENDBRANCH  21  22
ENDBRANCH  11  21
ENDBRANCH   6   8
ENDBRANCH   3   6
ENDBRANCH   1   2
BRANCH   1  28
ATOM     28  C   UNL A   1      39.392  21.875  26.175  1.00  0.00     0.042 C 
BRANCH  28  29
ATOM     29  C   UNL A   1      40.042  22.674  27.290  1.00  0.00     0.118 C 
BRANCH  29  30
ATOM     30  N   UNL A   1      41.360  23.199  26.926  1.00  0.00    -0.352 N 
ATOM     31  C   UNL A   1      41.757  24.514  26.743  1.00  0.00     0.251 C 
ATOM     32  H   UNL A   1      42.062  22.522  26.793  1.00  0.00     0.163 HD
ATOM     33  O   UNL A   1      42.924  24.794  26.537  1.00  0.00    -0.269 OA
BRANCH  31  34
ATOM     34  C   UNL A   1      40.751  25.579  26.955  1.00  0.00     0.039 A 
ATOM     35  C   UNL A   1      40.930  26.772  26.250  1.00  0.00     0.014 A 
ATOM     36  C   UNL A   1      39.886  25.514  28.042  1.00  0.00     0.014 A 
ATOM     37  C   UNL A   1      40.477  27.957  26.817  1.00  0.00     0.010 A 
ATOM     38  C   UNL A   1      39.535  26.698  28.664  1.00  0.00     0.010 A 
ATOM     39  C   UNL A   1      39.907  27.920  28.091  1.00  0.00    -0.014 A 
BRANCH  39  40
ATOM     40  C   UNL A   1      39.858  29.101  28.948  1.00  0.00     0.031 A 
ATOM     41  C   UNL A   1      38.783  30.102  28.813  1.00  0.00     0.074 A 
ATOM     42  C   UNL A   1      40.812  29.292  29.890  1.00  0.00     0.049 A 
ATOM     43  N   UNL A   1      38.950  31.361  29.053  1.00  0.00    -0.248 NA
ATOM     44  C   UNL A   1      37.436  29.769  28.364  1.00  0.00     0.031 C 
ATOM     45  C   UNL A   1      40.798  30.278  30.967  1.00  0.00     0.029 A 
ATOM     46  N   UNL A   1      42.103  28.748  29.932  1.00  0.00    -0.354 N 
ATOM     47  C   UNL A   1      37.709  31.946  29.055  1.00  0.00     0.074 A 
ATOM     48  C   UNL A   1      36.806  30.933  28.554  1.00  0.00     0.031 C 
ATOM     49  C   UNL A   1      42.056  30.479  31.389  1.00  0.00     0.029 A 
ATOM     50  C   UNL A   1      42.935  29.728  30.512  1.00  0.00     0.049 A 
ATOM     51  H   UNL A   1      42.376  27.855  29.620  1.00  0.00     0.167 HD
ATOM     52  C   UNL A   1      37.529  33.176  29.610  1.00  0.00     0.037 A 
ATOM     53  C   UNL A   1      44.020  30.239  29.864  1.00  0.00     0.037 A 
ATOM     54  C   UNL A   1      38.760  33.716  30.167  1.00  0.00     0.049 A 
ATOM     55  C   UNL A   1      43.987  31.739  29.686  1.00  0.00     0.074 A 
ATOM     56  C   UNL A   1      39.280  33.708  31.452  1.00  0.00     0.029 A 
ATOM     57  N   UNL A   1      39.799  34.098  29.326  1.00  0.00    -0.354 N 
ATOM     58  N   UNL A   1      42.907  32.457  29.806  1.00  0.00    -0.248 NA
ATOM     59  C   UNL A   1      45.148  32.537  29.302  1.00  0.00     0.031 C 
ATOM     60  C   UNL A   1      40.643  34.068  31.381  1.00  0.00     0.029 A 
ATOM     61  C   UNL A   1      40.956  34.301  30.055  1.00  0.00     0.049 A 
ATOM     62  H   UNL A   1      39.721  34.209  28.352  1.00  0.00     0.167 HD
ATOM     63  C   UNL A   1      43.183  33.756  29.463  1.00  0.00     0.074 A 
ATOM     64  C   UNL A   1      44.606  33.763  29.191  1.00  0.00     0.031 C 
ATOM     65  C   UNL A   1      42.195  34.698  29.407  1.00  0.00     0.037 A 
BRANCH  52  66
ATOM     66  C   UNL A   1      36.156  33.711  29.909  1.00  0.00     0.057 A 
ATOM     67  C   UNL A   1      35.304  34.169  28.888  1.00  0.00     0.134 A 
ATOM     68  C   UNL A   1      35.646  33.841  31.211  1.00  0.00     0.134 A 
ATOM     69  F   UNL A   1      35.619  34.039  27.593  1.00  0.00    -0.206 F 
ATOM     70  C   UNL A   1      34.088  34.809  29.147  1.00  0.00     0.040 A 
ATOM     71  C   UNL A   1      34.453  34.523  31.490  1.00  0.00     0.040 A 
ATOM     72  F   UNL A   1      36.289  33.309  32.262  1.00  0.00    -0.206 F 
ATOM     73  C   UNL A   1      33.675  35.022  30.454  1.00  0.00     0.006 A 
ENDBRANCH  52  66
BRANCH  53  74
ATOM     74  C   UNL A   1      44.636  29.298  28.897  1.00  0.00     0.057 A 
ATOM     75  C   UNL A   1      45.538  28.330  29.368  1.00  0.00     0.134 A 
ATOM     76  C   UNL A   1      44.096  29.102  27.622  1.00  0.00     0.134 A 
ATOM     77  F   UNL A   1      46.088  28.459  30.586  1.00  0.00    -0.206 F 
ATOM     78  C   UNL A   1      45.811  27.165  28.650  1.00  0.00     0.040 A 
ATOM     79  C   UNL A   1      44.367  27.942  26.890  1.00  0.00     0.040 A 
ATOM     80  F   UNL A   1      43.210  29.971  27.116  1.00  0.00    -0.206 F 
ATOM     81  C   UNL A   1      45.197  26.954  27.419  1.00  0.00     0.006 A 
ENDBRANCH  53  74
BRANCH  65  82
ATOM     82  C   UNL A   1      42.305  36.089  28.829  1.00  0.00     0.057 A 
ATOM     83  C   UNL A   1      42.944  37.164  29.462  1.00  0.00     0.134 A 
ATOM     84  C   UNL A   1      41.878  36.346  27.504  1.00  0.00     0.134 A 
ATOM     85  F   UNL A   1      43.492  37.038  30.677  1.00  0.00    -0.206 F 
ATOM     86  C   UNL A   1      43.104  38.413  28.845  1.00  0.00     0.040 A 
ATOM     87  C   UNL A   1      42.079  37.571  26.862  1.00  0.00     0.040 A 
ATOM     88  F   UNL A   1      41.267  35.408  26.765  1.00  0.00    -0.206 F 
ATOM     89  C   UNL A   1      42.683  38.617  27.538  1.00  0.00     0.006 A 
ENDBRANCH  65  82
ENDBRANCH  39  40
ENDBRANCH  31  34
ENDBRANCH  29  30
ENDBRANCH  28  29
ENDBRANCH   1  28
TORSDOF 14
ENDMDL
MODEL 3
REMARK VINA RESULT:     -13.2      3.181      8.222
REMARK SMILES Cc1ccc(-c2cc([C@@H](C)C(=O)NCCCNC(=O)c3ccc(-c4c5nc(c(-c6c(F)cccc6F)c6ccc([nH]6)c(-c6c(F)cccc6F)c6nc(c(-c7c(F)cccc7F)c7ccc4[nH]7)C=C6)C=C5)cc3)ccc2C[C@H]2CCCC2=O)cc1
REMARK SMILES IDX 14 1 13 2 11 3 12 4 9 6 10 7 8 8 6 9 7 10 76 11 75 12 74 13
REMARK SMILES IDX 5 14 1 15 2 16 3 17 85 18 4 19 84 20 77 21 78 22 79 23 82 24
REMARK SMILES IDX 80 25 81 26 83 27 15 28 16 29 17 30 18 31 19 33 20 34 21 35
REMARK SMILES IDX 73 36 22 37 72 38 23 39 24 40 25 41 66 42 26 43 71 44 65 45
REMARK SMILES IDX 67 46 27 47 70 48 64 49 63 50 28 52 54 53 37 54 53 55 38 56
REMARK SMILES IDX 41 57 52 58 68 59 39 60 40 61 51 63 69 64 42 65 29 66 30 67
REMARK SMILES IDX 35 68 31 69 32 70 34 71 36 72 33 73 55 74 56 75 61 76 57 77
REMARK SMILES IDX 58 78 60 79 62 80 59 81 43 82 44 83 49 84 45 85 46 86 48 87
REMARK SMILES IDX 50 88 47 89
REMARK H PARENT 13 5 17 32 67 51 41 62
REMARK Flexibility Score: inf
ROOT
ATOM      1  C   UNL A   1      38.116  23.482  25.819  1.00  0.00     0.117 C 
ENDROOT
BRANCH   1   2
ATOM      2  N   UNL A   1      37.330  23.595  24.601  1.00  0.00    -0.356 N 
ATOM      3  C   UNL A   1      36.085  23.159  24.263  1.00  0.00     0.227 C 
ATOM      4  O   UNL A   1      35.759  23.328  23.080  1.00  0.00    -0.274 OA
ATOM      5  H   UNL A   1      37.788  24.084  23.879  1.00  0.00     0.163 HD
BRANCH   3   6
ATOM      6  C   UNL A   1      35.096  22.485  25.234  1.00  0.00     0.105 C 
ATOM      7  C   UNL A   1      34.943  20.977  25.046  1.00  0.00     0.023 C 
BRANCH   6   8
ATOM      8  C   UNL A   1      33.796  23.257  25.410  1.00  0.00    -0.035 A 
ATOM      9  C   UNL A   1      32.624  25.414  25.640  1.00  0.00    -0.015 A 
ATOM     10  C   UNL A   1      33.812  24.655  25.550  1.00  0.00     0.013 A 
ATOM     11  C   UNL A   1      31.390  24.762  25.412  1.00  0.00    -0.039 A 
ATOM     12  C   UNL A   1      31.373  23.362  25.374  1.00  0.00     0.004 A 
ATOM     13  C   UNL A   1      32.555  22.626  25.440  1.00  0.00     0.005 A 
BRANCH   9  14
ATOM     14  C   UNL A   1      32.696  26.806  26.120  1.00  0.00    -0.018 A 
ATOM     15  C   UNL A   1      33.037  30.945  27.348  1.00  0.00     0.044 C 
ATOM     16  C   UNL A   1      32.899  29.514  26.920  1.00  0.00    -0.051 A 
ATOM     17  C   UNL A   1      33.838  28.967  26.045  1.00  0.00     0.004 A 
ATOM     18  C   UNL A   1      31.853  28.707  27.384  1.00  0.00     0.004 A 
ATOM     19  C   UNL A   1      33.728  27.637  25.643  1.00  0.00     0.009 A 
ATOM     20  C   UNL A   1      31.750  27.367  26.986  1.00  0.00     0.009 A 
ENDBRANCH   9  14
BRANCH  11  21
ATOM     21  C   UNL A   1      30.080  25.500  25.211  1.00  0.00     0.047 C 
BRANCH  21  22
ATOM     22  C   UNL A   1      29.848  26.121  23.825  1.00  0.00     0.060 C 
ATOM     23  C   UNL A   1      29.675  27.644  23.766  1.00  0.00     0.012 C 
ATOM     24  C   UNL A   1      30.991  25.892  22.860  1.00  0.00     0.136 C 
ATOM     25  C   UNL A   1      31.004  28.204  23.272  1.00  0.00     0.009 C 
ATOM     26  C   UNL A   1      31.516  27.176  22.277  1.00  0.00     0.076 C 
ATOM     27  O   UNL A   1      31.414  24.786  22.543  1.00  0.00    -0.299 OA
ENDBRANCH  21  22
ENDBRANCH  11  21
ENDBRANCH   6   8
ENDBRANCH   3   6
ENDBRANCH   1   2
BRANCH   1  28
ATOM     28  C   UNL A   1      38.589  22.052  26.062  1.00  0.00     0.042 C 
BRANCH  28  29
ATOM     29  C   UNL A   1      39.994  21.930  26.625  1.00  0.00     0.118 C 
BRANCH  29  30
ATOM     30  N   UNL A   1      40.800  20.920  25.938  1.00  0.00    -0.352 N 
ATOM     31  C   UNL A   1      42.175  20.743  25.950  1.00  0.00     0.251 C 
ATOM     32  H   UNL A   1      40.295  20.276  25.390  1.00  0.00     0.163 HD
ATOM     33  O   UNL A   1      42.689  19.785  25.400  1.00  0.00    -0.269 OA
BRANCH  31  34
ATOM     34  C   UNL A   1      42.987  21.664  26.776  1.00  0.00     0.039 A 
ATOM     35  C   UNL A   1      42.876  21.540  28.163  1.00  0.00     0.014 A 
ATOM     36  C   UNL A   1      43.556  22.796  26.202  1.00  0.00     0.014 A 
ATOM     37  C   UNL A   1      43.056  22.671  28.951  1.00  0.00     0.010 A 
ATOM     38  C   UNL A   1      43.624  23.946  26.967  1.00  0.00     0.010 A 
ATOM     39  C   UNL A   1      43.291  23.897  28.326  1.00  0.00    -0.014 A 
BRANCH  39  40
ATOM     40  C   UNL A   1      43.010  25.167  28.990  1.00  0.00     0.031 A 
ATOM     41  C   UNL A   1      41.806  25.954  28.660  1.00  0.00     0.074 A 
ATOM     42  C   UNL A   1      43.861  25.641  29.929  1.00  0.00     0.049 A 
ATOM     43  N   UNL A   1      41.765  27.244  28.711  1.00  0.00    -0.248 NA
ATOM     44  C   UNL A   1      40.556  25.349  28.212  1.00  0.00     0.031 C 
ATOM     45  C   UNL A   1      43.630  26.758  30.841  1.00  0.00     0.029 A 
ATOM     46  N   UNL A   1      45.214  25.322  30.106  1.00  0.00    -0.354 N 
ATOM     47  C   UNL A   1      40.452  27.619  28.573  1.00  0.00     0.074 A 
ATOM     48  C   UNL A   1      39.747  26.414  28.197  1.00  0.00     0.031 C 
ATOM     49  C   UNL A   1      44.814  27.215  31.278  1.00  0.00     0.029 A 
ATOM     50  C   UNL A   1      45.850  26.495  30.563  1.00  0.00     0.049 A 
ATOM     51  H   UNL A   1      45.638  24.447  29.945  1.00  0.00     0.167 HD
ATOM     52  C   UNL A   1      40.054  28.872  28.926  1.00  0.00     0.037 A 
ATOM     53  C   UNL A   1      46.885  27.073  29.888  1.00  0.00     0.037 A 
ATOM     54  C   UNL A   1      41.151  29.675  29.444  1.00  0.00     0.049 A 
ATOM     55  C   UNL A   1      46.637  28.506  29.482  1.00  0.00     0.074 A 
ATOM     56  C   UNL A   1      41.582  29.936  30.735  1.00  0.00     0.029 A 
ATOM     57  N   UNL A   1      42.171  30.092  28.597  1.00  0.00    -0.354 N 
ATOM     58  N   UNL A   1      45.455  29.053  29.447  1.00  0.00    -0.248 NA
ATOM     59  C   UNL A   1      47.686  29.415  29.028  1.00  0.00     0.031 C 
ATOM     60  C   UNL A   1      42.878  30.495  30.665  1.00  0.00     0.029 A 
ATOM     61  C   UNL A   1      43.235  30.580  29.332  1.00  0.00     0.049 A 
ATOM     62  H   UNL A   1      42.140  30.047  27.614  1.00  0.00     0.167 HD
ATOM     63  C   UNL A   1      45.552  30.316  28.921  1.00  0.00     0.074 A 
ATOM     64  C   UNL A   1      46.972  30.510  28.709  1.00  0.00     0.031 C 
ATOM     65  C   UNL A   1      44.440  31.071  28.682  1.00  0.00     0.037 A 
BRANCH  52  66
ATOM     66  C   UNL A   1      38.599  29.219  29.084  1.00  0.00     0.057 A 
ATOM     67  C   UNL A   1      37.845  29.741  28.018  1.00  0.00     0.134 A 
ATOM     68  C   UNL A   1      37.906  29.101  30.300  1.00  0.00     0.134 A 
ATOM     69  F   UNL A   1      38.346  29.840  26.780  1.00  0.00    -0.206 F 
ATOM     70  C   UNL A   1      36.538  30.214  28.175  1.00  0.00     0.040 A 
ATOM     71  C   UNL A   1      36.614  29.613  30.485  1.00  0.00     0.040 A 
ATOM     72  F   UNL A   1      38.459  28.481  31.353  1.00  0.00    -0.206 F 
ATOM     73  C   UNL A   1      35.930  30.185  29.421  1.00  0.00     0.006 A 
ENDBRANCH  52  66
BRANCH  53  74
ATOM     74  C   UNL A   1      47.696  26.112  29.102  1.00  0.00     0.057 A 
ATOM     75  C   UNL A   1      47.409  25.935  27.738  1.00  0.00     0.134 A 
ATOM     76  C   UNL A   1      48.935  25.655  29.560  1.00  0.00     0.134 A 
ATOM     77  F   UNL A   1      46.237  26.355  27.236  1.00  0.00    -0.206 F 
ATOM     78  C   UNL A   1      48.354  25.421  26.847  1.00  0.00     0.040 A 
ATOM     79  C   UNL A   1      49.886  25.133  28.678  1.00  0.00     0.040 A 
ATOM     80  F   UNL A   1      49.288  25.812  30.843  1.00  0.00    -0.206 F 
ATOM     81  C   UNL A   1      49.611  25.049  27.314  1.00  0.00     0.006 A 
ENDBRANCH  53  74
BRANCH  65  82
ATOM     82  C   UNL A   1      44.374  32.363  27.904  1.00  0.00     0.057 A 
ATOM     83  C   UNL A   1      44.702  32.490  26.547  1.00  0.00     0.134 A 
ATOM     84  C   UNL A   1      43.816  33.523  28.493  1.00  0.00     0.134 A 
ATOM     85  F   UNL A   1      45.142  31.449  25.830  1.00  0.00    -0.206 F 
ATOM     86  C   UNL A   1      44.535  33.691  25.841  1.00  0.00     0.040 A 
ATOM     87  C   UNL A   1      43.597  34.708  27.785  1.00  0.00     0.040 A 
ATOM     88  F   UNL A   1      43.436  33.548  29.779  1.00  0.00    -0.206 F 
ATOM     89  C   UNL A   1      43.969  34.801  26.455  1.00  0.00     0.006 A 
ENDBRANCH  65  82
ENDBRANCH  39  40
ENDBRANCH  31  34
ENDBRANCH  29  30
ENDBRANCH  28  29
ENDBRANCH   1  28
TORSDOF 14
ENDMDL
