MODEL 1
REMARK VINA RESULT:     -12.3      0.000      0.000
REMARK SMILES C[N@H+]1CCO[C@H](CNC(=O)c2ccc(/C=C/C(=O)NCCCNC(=O)c3ccc(-c4c5nc(c(-c6c(F)cccc6F)c6ccc([nH]6)c(-c6c(F)cccc6F)c6nc(c(-c7c(F)cccc7F)c7ccc4[nH]7)C=C6)C=C5)cc3)s2)C1
REMARK SMILES IDX 20 1 19 2 17 3 18 4 16 6 15 7 14 8 11 9 12 10 80 11 13 12
REMARK SMILES IDX 9 13 8 14 10 16 7 17 6 18 1 19 2 20 3 21 81 22 4 24 5 25
REMARK SMILES IDX 21 26 22 27 23 28 24 29 25 31 26 32 27 33 79 34 28 35 78 36
REMARK SMILES IDX 29 37 30 38 31 39 72 40 32 41 77 42 71 43 73 44 33 45 76 46
REMARK SMILES IDX 70 47 69 48 34 50 60 51 43 52 59 53 44 54 47 55 58 56 74 57
REMARK SMILES IDX 45 58 46 59 57 61 75 62 48 63 35 64 36 65 41 66 37 67 38 68
REMARK SMILES IDX 40 69 42 70 39 71 61 72 62 73 67 74 63 75 64 76 66 77 68 78
REMARK SMILES IDX 65 79 49 80 50 81 55 82 51 83 52 84 54 85 56 86 53 87
REMARK H PARENT 19 5 8 15 2 23 23 30 73 49 47 60
REMARK Flexibility Score: inf
ROOT
ATOM      1  C   UNL A   1      31.529  30.755  26.157  1.00  0.00     0.118 C 
ENDROOT
BRANCH   1   2
ATOM      2  N   UNL A   1      30.986  30.450  24.843  1.00  0.00    -0.352 N 
ATOM      3  C   UNL A   1      31.045  29.312  24.098  1.00  0.00     0.244 C 
ATOM      4  O   UNL A   1      30.397  29.240  23.058  1.00  0.00    -0.270 OA
ATOM      5  H   UNL A   1      30.493  31.190  24.422  1.00  0.00     0.163 HD
BRANCH   3   6
ATOM      6  C   UNL A   1      31.802  28.134  24.570  1.00  0.00     0.072 C 
ATOM      7  C   UNL A   1      31.220  27.036  25.072  1.00  0.00     0.024 C 
BRANCH   7   8
ATOM      8  C   UNL A   1      31.945  25.887  25.509  1.00  0.00     0.028 A 
ATOM      9  C   UNL A   1      32.691  23.719  26.481  1.00  0.00     0.092 A 
ATOM     10  C   UNL A   1      33.722  24.399  25.866  1.00  0.00     0.026 A 
ATOM     11  S   UNL A   1      31.212  24.557  26.321  1.00  0.00    -0.131 S 
ATOM     12  C   UNL A   1      33.295  25.643  25.321  1.00  0.00     0.021 A 
BRANCH   9  13
ATOM     13  C   UNL A   1      32.712  22.442  27.169  1.00  0.00     0.261 C 
ATOM     14  N   UNL A   1      32.547  21.292  26.431  1.00  0.00    -0.348 N 
ATOM     15  H   UNL A   1      32.336  20.481  26.947  1.00  0.00     0.163 HD
ATOM     16  O   UNL A   1      32.851  22.328  28.386  1.00  0.00    -0.268 OA
BRANCH  14  17
ATOM     17  C   UNL A   1      32.641  21.117  24.989  1.00  0.00     0.154 C 
BRANCH  17  18
ATOM     18  C   UNL A   1      32.517  19.648  24.523  1.00  0.00     0.192 C 
ATOM     19  C   UNL A   1      32.700  16.627  25.304  1.00  0.00     0.332 C 
ATOM     20  N   UNL A   1      33.687  17.400  24.552  1.00  0.00    -0.333 N 
ATOM     21  C   UNL A   1      33.422  17.360  23.098  1.00  0.00     0.290 C 
ATOM     22  C   UNL A   1      33.734  18.813  24.984  1.00  0.00     0.296 C 
ATOM     23  H   UNL A   1      34.588  16.964  24.745  1.00  0.00     0.348 HD
ATOM     24  C   UNL A   1      32.234  18.228  22.648  1.00  0.00     0.222 C 
ATOM     25  O   UNL A   1      32.370  19.582  23.095  1.00  0.00    -0.365 OA
ENDBRANCH  17  18
ENDBRANCH  14  17
ENDBRANCH   9  13
ENDBRANCH   7   8
ENDBRANCH   3   6
ENDBRANCH   1   2
BRANCH   1  26
ATOM     26  C   UNL A   1      31.381  32.237  26.497  1.00  0.00     0.042 C 
BRANCH  26  27
ATOM     27  C   UNL A   1      32.576  32.815  27.254  1.00  0.00     0.118 C 
BRANCH  27  28
ATOM     28  N   UNL A   1      32.373  34.210  27.619  1.00  0.00    -0.352 N 
ATOM     29  C   UNL A   1      32.984  34.970  28.586  1.00  0.00     0.251 C 
ATOM     30  H   UNL A   1      31.690  34.683  27.091  1.00  0.00     0.163 HD
ATOM     31  O   UNL A   1      32.519  36.068  28.877  1.00  0.00    -0.269 OA
BRANCH  29  32
ATOM     32  C   UNL A   1      34.187  34.474  29.292  1.00  0.00     0.039 A 
ATOM     33  C   UNL A   1      34.032  33.871  30.545  1.00  0.00     0.014 A 
ATOM     34  C   UNL A   1      35.465  34.637  28.750  1.00  0.00     0.014 A 
ATOM     35  C   UNL A   1      35.147  33.369  31.220  1.00  0.00     0.010 A 
ATOM     36  C   UNL A   1      36.568  34.083  29.395  1.00  0.00     0.010 A 
ATOM     37  C   UNL A   1      36.420  33.439  30.633  1.00  0.00    -0.014 A 
BRANCH  37  38
ATOM     38  C   UNL A   1      37.609  32.831  31.284  1.00  0.00     0.031 A 
ATOM     39  C   UNL A   1      38.273  31.627  30.677  1.00  0.00     0.074 A 
ATOM     40  C   UNL A   1      38.042  33.319  32.463  1.00  0.00     0.049 A 
ATOM     41  N   UNL A   1      39.236  30.883  31.158  1.00  0.00    -0.248 NA
ATOM     42  C   UNL A   1      37.774  31.190  29.364  1.00  0.00     0.031 C 
ATOM     43  C   UNL A   1      37.470  34.467  33.167  1.00  0.00     0.029 A 
ATOM     44  N   UNL A   1      39.056  32.896  33.288  1.00  0.00    -0.354 N 
ATOM     45  C   UNL A   1      39.451  29.886  30.216  1.00  0.00     0.074 A 
ATOM     46  C   UNL A   1      38.488  30.093  29.155  1.00  0.00     0.031 C 
ATOM     47  C   UNL A   1      38.147  34.665  34.309  1.00  0.00     0.029 A 
ATOM     48  C   UNL A   1      39.170  33.633  34.441  1.00  0.00     0.049 A 
ATOM     49  H   UNL A   1      39.645  32.137  33.072  1.00  0.00     0.167 HD
ATOM     50  C   UNL A   1      40.378  28.898  30.225  1.00  0.00     0.037 A 
ATOM     51  C   UNL A   1      39.993  33.482  35.496  1.00  0.00     0.037 A 
ATOM     52  C   UNL A   1      41.347  28.705  31.272  1.00  0.00     0.049 A 
ATOM     53  C   UNL A   1      40.982  32.350  35.501  1.00  0.00     0.074 A 
ATOM     54  C   UNL A   1      42.355  27.759  31.351  1.00  0.00     0.029 A 
ATOM     55  N   UNL A   1      41.427  29.472  32.424  1.00  0.00    -0.354 N 
ATOM     56  N   UNL A   1      41.202  31.441  34.583  1.00  0.00    -0.248 NA
ATOM     57  C   UNL A   1      41.835  32.220  36.692  1.00  0.00     0.031 C 
ATOM     58  C   UNL A   1      43.023  27.931  32.566  1.00  0.00     0.029 A 
ATOM     59  C   UNL A   1      42.456  29.008  33.228  1.00  0.00     0.049 A 
ATOM     60  H   UNL A   1      40.842  30.233  32.638  1.00  0.00     0.167 HD
ATOM     61  C   UNL A   1      42.233  30.649  35.073  1.00  0.00     0.074 A 
ATOM     62  C   UNL A   1      42.602  31.191  36.363  1.00  0.00     0.031 C 
ATOM     63  C   UNL A   1      42.818  29.567  34.504  1.00  0.00     0.037 A 
BRANCH  50  64
ATOM     64  C   UNL A   1      40.397  27.954  29.060  1.00  0.00     0.057 A 
ATOM     65  C   UNL A   1      39.614  26.791  29.043  1.00  0.00     0.134 A 
ATOM     66  C   UNL A   1      41.167  28.231  27.923  1.00  0.00     0.134 A 
ATOM     67  F   UNL A   1      38.862  26.464  30.106  1.00  0.00    -0.206 F 
ATOM     68  C   UNL A   1      39.613  25.928  27.947  1.00  0.00     0.040 A 
ATOM     69  C   UNL A   1      41.155  27.387  26.811  1.00  0.00     0.040 A 
ATOM     70  F   UNL A   1      41.933  29.330  27.871  1.00  0.00    -0.206 F 
ATOM     71  C   UNL A   1      40.379  26.229  26.823  1.00  0.00     0.006 A 
ENDBRANCH  50  64
BRANCH  51  72
ATOM     72  C   UNL A   1      39.923  34.425  36.640  1.00  0.00     0.057 A 
ATOM     73  C   UNL A   1      39.141  34.135  37.763  1.00  0.00     0.134 A 
ATOM     74  C   UNL A   1      40.616  35.642  36.633  1.00  0.00     0.134 A 
ATOM     75  F   UNL A   1      38.439  32.994  37.820  1.00  0.00    -0.206 F 
ATOM     76  C   UNL A   1      39.032  35.029  38.830  1.00  0.00     0.040 A 
ATOM     77  C   UNL A   1      40.534  36.535  37.702  1.00  0.00     0.040 A 
ATOM     78  F   UNL A   1      41.387  35.976  35.588  1.00  0.00    -0.206 F 
ATOM     79  C   UNL A   1      39.734  36.233  38.801  1.00  0.00     0.006 A 
ENDBRANCH  51  72
BRANCH  63  80
ATOM     80  C   UNL A   1      43.940  28.919  35.257  1.00  0.00     0.057 A 
ATOM     81  C   UNL A   1      43.706  27.921  36.211  1.00  0.00     0.134 A 
ATOM     82  C   UNL A   1      45.271  29.264  34.991  1.00  0.00     0.134 A 
ATOM     83  F   UNL A   1      42.453  27.558  36.521  1.00  0.00    -0.206 F 
ATOM     84  C   UNL A   1      44.757  27.297  36.884  1.00  0.00     0.040 A 
ATOM     85  C   UNL A   1      46.332  28.631  35.641  1.00  0.00     0.040 A 
ATOM     86  F   UNL A   1      45.562  30.209  34.085  1.00  0.00    -0.206 F 
ATOM     87  C   UNL A   1      46.076  27.647  36.594  1.00  0.00     0.006 A 
ENDBRANCH  63  80
ENDBRANCH  37  38
ENDBRANCH  29  32
ENDBRANCH  27  28
ENDBRANCH  26  27
ENDBRANCH   1  26
TORSDOF 14
ENDMDL
MODEL 2
REMARK VINA RESULT:     -12.1      5.234     10.899
REMARK SMILES C[N@H+]1CCO[C@H](CNC(=O)c2ccc(/C=C/C(=O)NCCCNC(=O)c3ccc(-c4c5nc(c(-c6c(F)cccc6F)c6ccc([nH]6)c(-c6c(F)cccc6F)c6nc(c(-c7c(F)cccc7F)c7ccc4[nH]7)C=C6)C=C5)cc3)s2)C1
REMARK SMILES IDX 20 1 19 2 17 3 18 4 16 6 15 7 14 8 11 9 12 10 80 11 13 12
REMARK SMILES IDX 9 13 8 14 10 16 7 17 6 18 1 19 2 20 3 21 81 22 4 24 5 25
REMARK SMILES IDX 21 26 22 27 23 28 24 29 25 31 26 32 27 33 79 34 28 35 78 36
REMARK SMILES IDX 29 37 30 38 31 39 72 40 32 41 77 42 71 43 73 44 33 45 76 46
REMARK SMILES IDX 70 47 69 48 34 50 60 51 43 52 59 53 44 54 47 55 58 56 74 57
REMARK SMILES IDX 45 58 46 59 57 61 75 62 48 63 35 64 36 65 41 66 37 67 38 68
REMARK SMILES IDX 40 69 42 70 39 71 61 72 62 73 67 74 63 75 64 76 66 77 68 78
REMARK SMILES IDX 65 79 49 80 50 81 55 82 51 83 52 84 54 85 56 86 53 87
REMARK H PARENT 19 5 8 15 2 23 23 30 73 49 47 60
REMARK Flexibility Score: inf
ROOT
ATOM      1  C   UNL A   1      36.791  20.564  24.854  1.00  0.00     0.118 C 
ENDROOT
BRANCH   1   2
ATOM      2  N   UNL A   1      35.480  20.001  25.136  1.00  0.00    -0.352 N 
ATOM      3  C   UNL A   1      34.263  20.598  25.259  1.00  0.00     0.244 C 
ATOM      4  O   UNL A   1      33.259  19.900  25.375  1.00  0.00    -0.270 OA
ATOM      5  H   UNL A   1      35.472  19.024  25.258  1.00  0.00     0.163 HD
BRANCH   3   6
ATOM      6  C   UNL A   1      34.124  22.066  25.162  1.00  0.00     0.072 C 
ATOM      7  C   UNL A   1      33.951  22.715  24.001  1.00  0.00     0.024 C 
BRANCH   7   8
ATOM      8  C   UNL A   1      33.795  24.130  23.904  1.00  0.00     0.028 A 
ATOM      9  C   UNL A   1      33.447  26.483  23.167  1.00  0.00     0.092 A 
ATOM     10  C   UNL A   1      33.657  26.387  24.527  1.00  0.00     0.026 A 
ATOM     11  S   UNL A   1      33.429  24.942  22.430  1.00  0.00    -0.131 S 
ATOM     12  C   UNL A   1      33.867  25.041  24.944  1.00  0.00     0.021 A 
BRANCH   9  13
ATOM     13  C   UNL A   1      33.218  27.661  22.352  1.00  0.00     0.261 C 
ATOM     14  N   UNL A   1      31.925  28.101  22.176  1.00  0.00    -0.348 N 
ATOM     15  H   UNL A   1      31.790  28.746  21.445  1.00  0.00     0.163 HD
ATOM     16  O   UNL A   1      34.118  28.284  21.790  1.00  0.00    -0.268 OA
BRANCH  14  17
ATOM     17  C   UNL A   1      30.732  27.738  22.927  1.00  0.00     0.154 C 
BRANCH  17  18
ATOM     18  C   UNL A   1      29.485  28.581  22.574  1.00  0.00     0.192 C 
ATOM     19  C   UNL A   1      28.337  31.040  21.024  1.00  0.00     0.332 C 
ATOM     20  N   UNL A   1      28.600  30.952  22.460  1.00  0.00    -0.333 N 
ATOM     21  C   UNL A   1      27.428  30.441  23.202  1.00  0.00     0.290 C 
ATOM     22  C   UNL A   1      29.762  30.089  22.761  1.00  0.00     0.296 C 
ATOM     23  H   UNL A   1      28.805  31.904  22.764  1.00  0.00     0.348 HD
ATOM     24  C   UNL A   1      27.189  28.930  23.040  1.00  0.00     0.222 C 
ATOM     25  O   UNL A   1      28.358  28.170  23.368  1.00  0.00    -0.365 OA
ENDBRANCH  17  18
ENDBRANCH  14  17
ENDBRANCH   9  13
ENDBRANCH   7   8
ENDBRANCH   3   6
ENDBRANCH   1   2
BRANCH   1  26
ATOM     26  C   UNL A   1      37.899  19.527  25.031  1.00  0.00     0.042 C 
BRANCH  26  27
ATOM     27  C   UNL A   1      39.110  20.049  25.802  1.00  0.00     0.118 C 
BRANCH  27  28
ATOM     28  N   UNL A   1      40.176  19.060  25.886  1.00  0.00    -0.352 N 
ATOM     29  C   UNL A   1      41.523  19.226  26.098  1.00  0.00     0.251 C 
ATOM     30  H   UNL A   1      39.886  18.126  25.773  1.00  0.00     0.163 HD
ATOM     31  O   UNL A   1      42.284  18.279  25.921  1.00  0.00    -0.269 OA
BRANCH  29  32
ATOM     32  C   UNL A   1      42.068  20.535  26.522  1.00  0.00     0.039 A 
ATOM     33  C   UNL A   1      42.540  21.416  25.543  1.00  0.00     0.014 A 
ATOM     34  C   UNL A   1      42.156  20.881  27.873  1.00  0.00     0.014 A 
ATOM     35  C   UNL A   1      43.033  22.670  25.913  1.00  0.00     0.010 A 
ATOM     36  C   UNL A   1      42.591  22.153  28.237  1.00  0.00     0.010 A 
ATOM     37  C   UNL A   1      43.029  23.062  27.262  1.00  0.00    -0.014 A 
BRANCH  37  38
ATOM     38  C   UNL A   1      43.460  24.422  27.674  1.00  0.00     0.031 A 
ATOM     39  C   UNL A   1      42.438  25.463  28.041  1.00  0.00     0.074 A 
ATOM     40  C   UNL A   1      44.768  24.742  27.645  1.00  0.00     0.049 A 
ATOM     41  N   UNL A   1      42.609  26.733  28.304  1.00  0.00    -0.248 NA
ATOM     42  C   UNL A   1      41.037  25.019  28.101  1.00  0.00     0.031 C 
ATOM     43  C   UNL A   1      45.856  23.831  27.285  1.00  0.00     0.029 A 
ATOM     44  N   UNL A   1      45.405  25.930  27.906  1.00  0.00    -0.354 N 
ATOM     45  C   UNL A   1      41.340  27.243  28.547  1.00  0.00     0.074 A 
ATOM     46  C   UNL A   1      40.405  26.155  28.359  1.00  0.00     0.031 C 
ATOM     47  C   UNL A   1      47.024  24.488  27.359  1.00  0.00     0.029 A 
ATOM     48  C   UNL A   1      46.765  25.876  27.727  1.00  0.00     0.049 A 
ATOM     49  H   UNL A   1      44.931  26.744  28.193  1.00  0.00     0.167 HD
ATOM     50  C   UNL A   1      40.989  28.498  28.913  1.00  0.00     0.037 A 
ATOM     51  C   UNL A   1      47.699  26.842  27.828  1.00  0.00     0.037 A 
ATOM     52  C   UNL A   1      41.923  29.575  29.120  1.00  0.00     0.049 A 
ATOM     53  C   UNL A   1      47.277  28.238  28.192  1.00  0.00     0.074 A 
ATOM     54  C   UNL A   1      41.667  30.871  29.533  1.00  0.00     0.029 A 
ATOM     55  N   UNL A   1      43.292  29.479  28.926  1.00  0.00    -0.354 N 
ATOM     56  N   UNL A   1      46.077  28.695  28.461  1.00  0.00    -0.248 NA
ATOM     57  C   UNL A   1      48.337  29.255  28.260  1.00  0.00     0.031 C 
ATOM     58  C   UNL A   1      42.878  31.570  29.555  1.00  0.00     0.029 A 
ATOM     59  C   UNL A   1      43.892  30.698  29.193  1.00  0.00     0.049 A 
ATOM     60  H   UNL A   1      43.767  28.665  28.642  1.00  0.00     0.167 HD
ATOM     61  C   UNL A   1      46.242  30.042  28.756  1.00  0.00     0.074 A 
ATOM     62  C   UNL A   1      47.657  30.327  28.643  1.00  0.00     0.031 C 
ATOM     63  C   UNL A   1      45.304  30.961  29.087  1.00  0.00     0.037 A 
BRANCH  50  64
ATOM     64  C   UNL A   1      39.531  28.776  29.126  1.00  0.00     0.057 A 
ATOM     65  C   UNL A   1      38.933  28.640  30.387  1.00  0.00     0.134 A 
ATOM     66  C   UNL A   1      38.724  29.230  28.074  1.00  0.00     0.134 A 
ATOM     67  F   UNL A   1      39.648  28.200  31.433  1.00  0.00    -0.206 F 
ATOM     68  C   UNL A   1      37.582  28.925  30.588  1.00  0.00     0.040 A 
ATOM     69  C   UNL A   1      37.377  29.540  28.269  1.00  0.00     0.040 A 
ATOM     70  F   UNL A   1      39.235  29.388  26.844  1.00  0.00    -0.206 F 
ATOM     71  C   UNL A   1      36.801  29.384  29.529  1.00  0.00     0.006 A 
ENDBRANCH  50  64
BRANCH  51  72
ATOM     72  C   UNL A   1      49.129  26.528  27.584  1.00  0.00     0.057 A 
ATOM     73  C   UNL A   1      49.659  26.558  26.290  1.00  0.00     0.134 A 
ATOM     74  C   UNL A   1      49.992  26.174  28.628  1.00  0.00     0.134 A 
ATOM     75  F   UNL A   1      48.878  26.871  25.247  1.00  0.00    -0.206 F 
ATOM     76  C   UNL A   1      50.993  26.226  26.038  1.00  0.00     0.040 A 
ATOM     77  C   UNL A   1      51.332  25.862  28.394  1.00  0.00     0.040 A 
ATOM     78  F   UNL A   1      49.545  26.132  29.892  1.00  0.00    -0.206 F 
ATOM     79  C   UNL A   1      51.833  25.880  27.094  1.00  0.00     0.006 A 
ENDBRANCH  51  72
BRANCH  63  80
ATOM     80  C   UNL A   1      45.780  32.351  29.384  1.00  0.00     0.057 A 
ATOM     81  C   UNL A   1      46.197  32.728  30.667  1.00  0.00     0.134 A 
ATOM     82  C   UNL A   1      45.865  33.309  28.365  1.00  0.00     0.134 A 
ATOM     83  F   UNL A   1      46.125  31.860  31.687  1.00  0.00    -0.206 F 
ATOM     84  C   UNL A   1      46.672  34.014  30.928  1.00  0.00     0.040 A 
ATOM     85  C   UNL A   1      46.360  34.590  28.610  1.00  0.00     0.040 A 
ATOM     86  F   UNL A   1      45.485  33.009  27.115  1.00  0.00    -0.206 F 
ATOM     87  C   UNL A   1      46.761  34.947  29.896  1.00  0.00     0.006 A 
ENDBRANCH  63  80
ENDBRANCH  37  38
ENDBRANCH  29  32
ENDBRANCH  27  28
ENDBRANCH  26  27
ENDBRANCH   1  26
TORSDOF 14
ENDMDL
MODEL 3
REMARK VINA RESULT:     -12.0      4.729     10.080
REMARK SMILES C[N@H+]1CCO[C@H](CNC(=O)c2ccc(/C=C/C(=O)NCCCNC(=O)c3ccc(-c4c5nc(c(-c6c(F)cccc6F)c6ccc([nH]6)c(-c6c(F)cccc6F)c6nc(c(-c7c(F)cccc7F)c7ccc4[nH]7)C=C6)C=C5)cc3)s2)C1
REMARK SMILES IDX 20 1 19 2 17 3 18 4 16 6 15 7 14 8 11 9 12 10 80 11 13 12
REMARK SMILES IDX 9 13 8 14 10 16 7 17 6 18 1 19 2 20 3 21 81 22 4 24 5 25
REMARK SMILES IDX 21 26 22 27 23 28 24 29 25 31 26 32 27 33 79 34 28 35 78 36
REMARK SMILES IDX 29 37 30 38 31 39 72 40 32 41 77 42 71 43 73 44 33 45 76 46
REMARK SMILES IDX 70 47 69 48 34 50 60 51 43 52 59 53 44 54 47 55 58 56 74 57
REMARK SMILES IDX 45 58 46 59 57 61 75 62 48 63 35 64 36 65 41 66 37 67 38 68
REMARK SMILES IDX 40 69 42 70 39 71 61 72 62 73 67 74 63 75 64 76 66 77 68 78
REMARK SMILES IDX 65 79 49 80 50 81 55 82 51 83 52 84 54 85 56 86 53 87
REMARK H PARENT 19 5 8 15 2 23 23 30 73 49 47 60
REMARK Flexibility Score: inf
ROOT
ATOM      1  C   UNL A   1      37.467  20.689  24.687  1.00  0.00     0.118 C 
ENDROOT
BRANCH   1   2
ATOM      2  N   UNL A   1      38.060  21.948  25.109  1.00  0.00    -0.352 N 
ATOM      3  C   UNL A   1      37.491  23.066  25.637  1.00  0.00     0.244 C 
ATOM      4  O   UNL A   1      38.212  23.974  26.043  1.00  0.00    -0.270 OA
ATOM      5  H   UNL A   1      39.036  21.999  24.996  1.00  0.00     0.163 HD
BRANCH   3   6
ATOM      6  C   UNL A   1      36.026  23.164  25.811  1.00  0.00     0.072 C 
ATOM      7  C   UNL A   1      35.159  23.131  24.790  1.00  0.00     0.024 C 
BRANCH   7   8
ATOM      8  C   UNL A   1      33.744  23.204  24.953  1.00  0.00     0.028 A 
ATOM      9  C   UNL A   1      31.413  23.603  25.735  1.00  0.00     0.092 A 
ATOM     10  C   UNL A   1      31.453  22.951  24.520  1.00  0.00     0.026 A 
ATOM     11  S   UNL A   1      32.983  23.987  26.286  1.00  0.00    -0.131 S 
ATOM     12  C   UNL A   1      32.786  22.715  24.080  1.00  0.00     0.021 A 
BRANCH   9  13
ATOM     13  C   UNL A   1      30.266  24.004  26.527  1.00  0.00     0.261 C 
ATOM     14  N   UNL A   1      29.672  25.218  26.259  1.00  0.00    -0.348 N 
ATOM     15  H   UNL A   1      29.060  25.554  26.953  1.00  0.00     0.163 HD
ATOM     16  O   UNL A   1      29.801  23.327  27.443  1.00  0.00    -0.268 OA
BRANCH  14  17
ATOM     17  C   UNL A   1      29.830  26.068  25.089  1.00  0.00     0.154 C 
BRANCH  17  18
ATOM     18  C   UNL A   1      30.970  27.105  25.213  1.00  0.00     0.192 C 
ATOM     19  C   UNL A   1      33.601  27.944  26.677  1.00  0.00     0.332 C 
ATOM     20  N   UNL A   1      32.268  28.511  26.874  1.00  0.00    -0.333 N 
ATOM     21  C   UNL A   1      32.012  29.644  25.959  1.00  0.00     0.290 C 
ATOM     22  C   UNL A   1      31.201  27.504  26.688  1.00  0.00     0.296 C 
ATOM     23  H   UNL A   1      32.246  28.843  27.839  1.00  0.00     0.348 HD
ATOM     24  C   UNL A   1      31.743  29.228  24.502  1.00  0.00     0.222 C 
ATOM     25  O   UNL A   1      30.686  28.265  24.413  1.00  0.00    -0.365 OA
ENDBRANCH  17  18
ENDBRANCH  14  17
ENDBRANCH   9  13
ENDBRANCH   7   8
ENDBRANCH   3   6
ENDBRANCH   1   2
BRANCH   1  26
ATOM     26  C   UNL A   1      38.423  19.517  24.899  1.00  0.00     0.042 C 
BRANCH  26  27
ATOM     27  C   UNL A   1      39.378  19.710  26.076  1.00  0.00     0.118 C 
BRANCH  27  28
ATOM     28  N   UNL A   1      40.669  19.077  25.846  1.00  0.00    -0.352 N 
ATOM     29  C   UNL A   1      41.936  19.605  25.893  1.00  0.00     0.251 C 
ATOM     30  H   UNL A   1      40.628  18.119  25.621  1.00  0.00     0.163 HD
ATOM     31  O   UNL A   1      42.881  18.954  25.458  1.00  0.00    -0.269 OA
BRANCH  29  32
ATOM     32  C   UNL A   1      42.173  20.956  26.449  1.00  0.00     0.039 A 
ATOM     33  C   UNL A   1      42.191  21.119  27.839  1.00  0.00     0.014 A 
ATOM     34  C   UNL A   1      42.334  22.066  25.615  1.00  0.00     0.014 A 
ATOM     35  C   UNL A   1      42.441  22.378  28.390  1.00  0.00     0.010 A 
ATOM     36  C   UNL A   1      42.643  23.309  26.164  1.00  0.00     0.010 A 
ATOM     37  C   UNL A   1      42.705  23.476  27.556  1.00  0.00    -0.014 A 
BRANCH  37  38
ATOM     38  C   UNL A   1      43.065  24.805  28.114  1.00  0.00     0.031 A 
ATOM     39  C   UNL A   1      41.999  25.836  28.365  1.00  0.00     0.074 A 
ATOM     40  C   UNL A   1      44.361  25.109  28.323  1.00  0.00     0.049 A 
ATOM     41  N   UNL A   1      42.127  27.086  28.727  1.00  0.00    -0.248 NA
ATOM     42  C   UNL A   1      40.606  25.407  28.163  1.00  0.00     0.031 C 
ATOM     43  C   UNL A   1      45.490  24.206  28.097  1.00  0.00     0.029 A 
ATOM     44  N   UNL A   1      44.948  26.272  28.756  1.00  0.00    -0.354 N 
ATOM     45  C   UNL A   1      40.838  27.598  28.784  1.00  0.00     0.074 A 
ATOM     46  C   UNL A   1      39.943  26.535  28.378  1.00  0.00     0.031 C 
ATOM     47  C   UNL A   1      46.631  24.843  28.405  1.00  0.00     0.029 A 
ATOM     48  C   UNL A   1      46.319  26.211  28.805  1.00  0.00     0.049 A 
ATOM     49  H   UNL A   1      44.435  27.074  29.008  1.00  0.00     0.167 HD
ATOM     50  C   UNL A   1      40.434  28.835  29.160  1.00  0.00     0.037 A 
ATOM     51  C   UNL A   1      47.225  27.157  29.118  1.00  0.00     0.037 A 
ATOM     52  C   UNL A   1      41.323  29.886  29.582  1.00  0.00     0.049 A 
ATOM     53  C   UNL A   1      46.752  28.535  29.487  1.00  0.00     0.074 A 
ATOM     54  C   UNL A   1      41.006  31.159  30.022  1.00  0.00     0.029 A 
ATOM     55  N   UNL A   1      42.705  29.783  29.615  1.00  0.00    -0.354 N 
ATOM     56  N   UNL A   1      45.526  28.991  29.578  1.00  0.00    -0.248 NA
ATOM     57  C   UNL A   1      47.789  29.533  29.792  1.00  0.00     0.031 C 
ATOM     58  C   UNL A   1      42.198  31.840  30.288  1.00  0.00     0.029 A 
ATOM     59  C   UNL A   1      43.256  30.978  30.050  1.00  0.00     0.049 A 
ATOM     60  H   UNL A   1      43.219  28.981  29.367  1.00  0.00     0.167 HD
ATOM     61  C   UNL A   1      45.644  30.317  29.975  1.00  0.00     0.074 A 
ATOM     62  C   UNL A   1      47.058  30.589  30.118  1.00  0.00     0.031 C 
ATOM     63  C   UNL A   1      44.665  31.228  30.198  1.00  0.00     0.037 A 
BRANCH  50  64
ATOM     64  C   UNL A   1      38.961  29.119  29.141  1.00  0.00     0.057 A 
ATOM     65  C   UNL A   1      38.180  29.028  30.302  1.00  0.00     0.134 A 
ATOM     66  C   UNL A   1      38.324  29.534  27.965  1.00  0.00     0.134 A 
ATOM     67  F   UNL A   1      38.729  28.626  31.459  1.00  0.00    -0.206 F 
ATOM     68  C   UNL A   1      36.816  29.318  30.288  1.00  0.00     0.040 A 
ATOM     69  C   UNL A   1      36.964  29.850  27.944  1.00  0.00     0.040 A 
ATOM     70  F   UNL A   1      39.014  29.649  26.821  1.00  0.00    -0.206 F 
ATOM     71  C   UNL A   1      36.205  29.739  29.108  1.00  0.00     0.006 A 
ENDBRANCH  50  64
BRANCH  51  72
ATOM     72  C   UNL A   1      48.675  26.839  29.099  1.00  0.00     0.057 A 
ATOM     73  C   UNL A   1      49.441  27.052  27.947  1.00  0.00     0.134 A 
ATOM     74  C   UNL A   1      49.324  26.300  30.216  1.00  0.00     0.134 A 
ATOM     75  F   UNL A   1      48.872  27.548  26.840  1.00  0.00    -0.206 F 
ATOM     76  C   UNL A   1      50.797  26.721  27.899  1.00  0.00     0.040 A 
ATOM     77  C   UNL A   1      50.684  25.986  30.190  1.00  0.00     0.040 A 
ATOM     78  F   UNL A   1      48.646  26.077  31.351  1.00  0.00    -0.206 F 
ATOM     79  C   UNL A   1      51.422  26.189  29.026  1.00  0.00     0.006 A 
ENDBRANCH  51  72
BRANCH  63  80
ATOM     80  C   UNL A   1      45.089  32.592  30.651  1.00  0.00     0.057 A 
ATOM     81  C   UNL A   1      45.312  33.634  29.742  1.00  0.00     0.134 A 
ATOM     82  C   UNL A   1      45.230  32.879  32.015  1.00  0.00     0.134 A 
ATOM     83  F   UNL A   1      45.207  33.417  28.422  1.00  0.00    -0.206 F 
ATOM     84  C   UNL A   1      45.672  34.911  30.172  1.00  0.00     0.040 A 
ATOM     85  C   UNL A   1      45.568  34.158  32.459  1.00  0.00     0.040 A 
ATOM     86  F   UNL A   1      45.026  31.926  32.936  1.00  0.00    -0.206 F 
ATOM     87  C   UNL A   1      45.794  35.178  31.536  1.00  0.00     0.006 A 
ENDBRANCH  63  80
ENDBRANCH  37  38
ENDBRANCH  29  32
ENDBRANCH  27  28
ENDBRANCH  26  27
ENDBRANCH   1  26
TORSDOF 14
ENDMDL
