MODEL 1
REMARK VINA RESULT:     -11.1      0.000      0.000
REMARK SMILES CC#CC[C@H](C(=O)NCCCNC(=O)c1ccc(-c2c3nc(c(-c4c(F)cccc4F)c4ccc([nH]4)c(-c4c(F)cccc4F)c4nc(c(-c5c(F)cccc5F)c5ccc2[nH]5)C=C4)C=C3)cc1)c1cccc(Br)c1
REMARK SMILES IDX 10 1 9 2 8 3 6 4 7 5 5 7 4 8 3 9 1 10 2 11 69 12 70 13 75 14
REMARK SMILES IDX 71 15 73 16 72 17 74 18 11 19 12 20 13 21 14 23 15 24 16 25
REMARK SMILES IDX 68 26 17 27 67 28 18 29 19 30 20 31 61 32 21 33 66 34 60 35
REMARK SMILES IDX 62 36 22 37 65 38 59 39 58 40 23 42 49 43 32 44 48 45 33 46
REMARK SMILES IDX 36 47 47 48 63 49 34 50 35 51 46 53 64 54 37 55 24 56 25 57
REMARK SMILES IDX 30 58 26 59 27 60 29 61 31 62 28 63 50 64 51 65 56 66 52 67
REMARK SMILES IDX 53 68 55 69 57 70 54 71 38 72 39 73 44 74 40 75 41 76 43 77
REMARK SMILES IDX 45 78 42 79
REMARK H PARENT 8 6 12 22 62 41 36 52
REMARK Flexibility Score: inf
ROOT
ATOM      1  C   UNL A   1      31.388  31.769  26.518  1.00  0.00     0.042 C 
ENDROOT
BRANCH   1   2
ATOM      2  C   UNL A   1      31.567  30.305  26.183  1.00  0.00     0.117 C 
BRANCH   2   3
ATOM      3  N   UNL A   1      32.516  30.053  25.109  1.00  0.00    -0.355 N 
ATOM      4  C   UNL A   1      32.490  29.097  24.133  1.00  0.00     0.228 C 
ATOM      5  O   UNL A   1      33.296  29.220  23.205  1.00  0.00    -0.274 OA
ATOM      6  H   UNL A   1      33.290  30.661  25.081  1.00  0.00     0.163 HD
BRANCH   4   7
ATOM      7  C   UNL A   1      31.585  27.859  24.212  1.00  0.00     0.120 C 
BRANCH   7   8
ATOM      8  C   UNL A   1      30.642  27.978  22.953  1.00  0.00     0.107 C 
BRANCH   8   9
ATOM      9  C   UNL A   1      29.663  29.127  23.136  1.00  0.00    -0.102 C 
ATOM     10  C   UNL A   1      27.844  31.259  23.474  1.00  0.00     0.107 C 
ATOM     11  C   UNL A   1      28.823  30.111  23.291  1.00  0.00    -0.107 C 
ENDBRANCH   8   9
ENDBRANCH   7   8
BRANCH   7  12
ATOM     12  C   UNL A   1      32.340  26.540  24.517  1.00  0.00    -0.034 A 
ATOM     13  C   UNL A   1      33.370  26.516  25.480  1.00  0.00     0.004 A 
ATOM     14  C   UNL A   1      32.149  25.372  23.760  1.00  0.00     0.020 A 
ATOM     15  C   UNL A   1      34.333  25.499  25.479  1.00  0.00     0.001 A 
ATOM     16  C   UNL A   1      33.126  24.370  23.742  1.00  0.00     0.018 A 
ATOM     17  C   UNL A   1      34.242  24.452  24.568  1.00  0.00     0.016 A 
ATOM     18  Br  UNL A   1      32.994  22.954  22.493  1.00  0.00    -0.051 Br
ENDBRANCH   7  12
ENDBRANCH   4   7
ENDBRANCH   2   3
ENDBRANCH   1   2
BRANCH   1  19
ATOM     19  C   UNL A   1      32.675  32.464  26.916  1.00  0.00     0.118 C 
BRANCH  19  20
ATOM     20  N   UNL A   1      32.468  33.812  27.437  1.00  0.00    -0.352 N 
ATOM     21  C   UNL A   1      33.092  34.489  28.455  1.00  0.00     0.251 C 
ATOM     22  H   UNL A   1      31.760  34.321  26.981  1.00  0.00     0.163 HD
ATOM     23  O   UNL A   1      32.638  35.570  28.831  1.00  0.00    -0.269 OA
BRANCH  21  24
ATOM     24  C   UNL A   1      34.280  33.920  29.126  1.00  0.00     0.039 A 
ATOM     25  C   UNL A   1      34.102  32.941  30.106  1.00  0.00     0.014 A 
ATOM     26  C   UNL A   1      35.569  34.344  28.798  1.00  0.00     0.014 A 
ATOM     27  C   UNL A   1      35.218  32.336  30.690  1.00  0.00     0.010 A 
ATOM     28  C   UNL A   1      36.671  33.647  29.275  1.00  0.00     0.010 A 
ATOM     29  C   UNL A   1      36.512  32.648  30.242  1.00  0.00    -0.014 A 
BRANCH  29  30
ATOM     30  C   UNL A   1      37.705  31.952  30.787  1.00  0.00     0.031 A 
ATOM     31  C   UNL A   1      38.225  32.293  32.159  1.00  0.00     0.074 A 
ATOM     32  C   UNL A   1      38.351  31.046  30.027  1.00  0.00     0.049 A 
ATOM     33  N   UNL A   1      39.254  31.797  32.800  1.00  0.00    -0.248 NA
ATOM     34  C   UNL A   1      37.518  33.352  32.897  1.00  0.00     0.031 C 
ATOM     35  C   UNL A   1      37.989  30.679  28.655  1.00  0.00     0.029 A 
ATOM     36  N   UNL A   1      39.444  30.264  30.301  1.00  0.00    -0.354 N 
ATOM     37  C   UNL A   1      39.319  32.489  34.003  1.00  0.00     0.074 A 
ATOM     38  C   UNL A   1      38.278  33.492  33.971  1.00  0.00     0.031 C 
ATOM     39  C   UNL A   1      38.811  29.707  28.230  1.00  0.00     0.029 A 
ATOM     40  C   UNL A   1      39.781  29.411  29.278  1.00  0.00     0.049 A 
ATOM     41  H   UNL A   1      39.940  30.311  31.151  1.00  0.00     0.167 HD
ATOM     42  C   UNL A   1      40.145  32.286  35.057  1.00  0.00     0.037 A 
ATOM     43  C   UNL A   1      40.756  28.488  29.199  1.00  0.00     0.037 A 
ATOM     44  C   UNL A   1      41.170  31.277  35.092  1.00  0.00     0.049 A 
ATOM     45  C   UNL A   1      41.663  28.282  30.381  1.00  0.00     0.074 A 
ATOM     46  C   UNL A   1      42.030  30.954  36.127  1.00  0.00     0.029 A 
ATOM     47  N   UNL A   1      41.478  30.428  34.039  1.00  0.00    -0.354 N 
ATOM     48  N   UNL A   1      41.664  28.891  31.542  1.00  0.00    -0.248 NA
ATOM     49  C   UNL A   1      42.697  27.248  30.242  1.00  0.00     0.031 C 
ATOM     50  C   UNL A   1      42.892  29.946  35.681  1.00  0.00     0.029 A 
ATOM     51  C   UNL A   1      42.529  29.596  34.391  1.00  0.00     0.049 A 
ATOM     52  H   UNL A   1      41.017  30.418  33.169  1.00  0.00     0.167 HD
ATOM     53  C   UNL A   1      42.675  28.294  32.283  1.00  0.00     0.074 A 
ATOM     54  C   UNL A   1      43.250  27.262  31.446  1.00  0.00     0.031 C 
ATOM     55  C   UNL A   1      43.092  28.575  33.544  1.00  0.00     0.037 A 
BRANCH  42  56
ATOM     56  C   UNL A   1      39.963  33.174  36.256  1.00  0.00     0.057 A 
ATOM     57  C   UNL A   1      40.679  34.370  36.410  1.00  0.00     0.134 A 
ATOM     58  C   UNL A   1      39.054  32.836  37.268  1.00  0.00     0.134 A 
ATOM     59  F   UNL A   1      41.576  34.748  35.486  1.00  0.00    -0.206 F 
ATOM     60  C   UNL A   1      40.528  35.176  37.539  1.00  0.00     0.040 A 
ATOM     61  C   UNL A   1      38.869  33.652  38.386  1.00  0.00     0.040 A 
ATOM     62  F   UNL A   1      38.331  31.710  37.187  1.00  0.00    -0.206 F 
ATOM     63  C   UNL A   1      39.614  34.821  38.529  1.00  0.00     0.006 A 
ENDBRANCH  42  56
BRANCH  43  64
ATOM     64  C   UNL A   1      40.898  27.657  27.976  1.00  0.00     0.057 A 
ATOM     65  C   UNL A   1      40.255  26.418  27.869  1.00  0.00     0.134 A 
ATOM     66  C   UNL A   1      41.680  28.073  26.892  1.00  0.00     0.134 A 
ATOM     67  F   UNL A   1      39.505  25.956  28.880  1.00  0.00    -0.206 F 
ATOM     68  C   UNL A   1      40.401  25.612  26.737  1.00  0.00     0.040 A 
ATOM     69  C   UNL A   1      41.812  27.291  25.743  1.00  0.00     0.040 A 
ATOM     70  F   UNL A   1      42.313  29.254  26.927  1.00  0.00    -0.206 F 
ATOM     71  C   UNL A   1      41.179  26.052  25.669  1.00  0.00     0.006 A 
ENDBRANCH  43  64
BRANCH  55  72
ATOM     72  C   UNL A   1      44.199  27.724  34.098  1.00  0.00     0.057 A 
ATOM     73  C   UNL A   1      45.545  28.101  34.011  1.00  0.00     0.134 A 
ATOM     74  C   UNL A   1      43.910  26.507  34.731  1.00  0.00     0.134 A 
ATOM     75  F   UNL A   1      45.892  29.249  33.408  1.00  0.00    -0.206 F 
ATOM     76  C   UNL A   1      46.566  27.279  34.492  1.00  0.00     0.040 A 
ATOM     77  C   UNL A   1      44.920  25.693  35.246  1.00  0.00     0.040 A 
ATOM     78  F   UNL A   1      42.642  26.090  34.861  1.00  0.00    -0.206 F 
ATOM     79  C   UNL A   1      46.254  26.073  35.115  1.00  0.00     0.006 A 
ENDBRANCH  55  72
ENDBRANCH  29  30
ENDBRANCH  21  24
ENDBRANCH  19  20
ENDBRANCH   1  19
TORSDOF 13
ENDMDL
MODEL 2
REMARK VINA RESULT:     -11.0      4.852      8.591
REMARK SMILES CC#CC[C@H](C(=O)NCCCNC(=O)c1ccc(-c2c3nc(c(-c4c(F)cccc4F)c4ccc([nH]4)c(-c4c(F)cccc4F)c4nc(c(-c5c(F)cccc5F)c5ccc2[nH]5)C=C4)C=C3)cc1)c1cccc(Br)c1
REMARK SMILES IDX 10 1 9 2 8 3 6 4 7 5 5 7 4 8 3 9 1 10 2 11 69 12 70 13 75 14
REMARK SMILES IDX 71 15 73 16 72 17 74 18 11 19 12 20 13 21 14 23 15 24 16 25
REMARK SMILES IDX 68 26 17 27 67 28 18 29 19 30 20 31 61 32 21 33 66 34 60 35
REMARK SMILES IDX 62 36 22 37 65 38 59 39 58 40 23 42 49 43 32 44 48 45 33 46
REMARK SMILES IDX 36 47 47 48 63 49 34 50 35 51 46 53 64 54 37 55 24 56 25 57
REMARK SMILES IDX 30 58 26 59 27 60 29 61 31 62 28 63 50 64 51 65 56 66 52 67
REMARK SMILES IDX 53 68 55 69 57 70 54 71 38 72 39 73 44 74 40 75 41 76 43 77
REMARK SMILES IDX 45 78 42 79
REMARK H PARENT 8 6 12 22 62 41 36 52
REMARK Flexibility Score: inf
ROOT
ATOM      1  C   UNL A   1      33.386  28.956  27.069  1.00  0.00     0.042 C 
ENDROOT
BRANCH   1   2
ATOM      2  C   UNL A   1      32.851  29.901  26.016  1.00  0.00     0.117 C 
BRANCH   2   3
ATOM      3  N   UNL A   1      33.264  29.573  24.660  1.00  0.00    -0.355 N 
ATOM      4  C   UNL A   1      32.578  28.915  23.678  1.00  0.00     0.228 C 
ATOM      5  O   UNL A   1      33.057  28.949  22.540  1.00  0.00    -0.274 OA
ATOM      6  H   UNL A   1      34.170  29.870  24.413  1.00  0.00     0.163 HD
BRANCH   4   7
ATOM      7  C   UNL A   1      31.324  28.076  23.965  1.00  0.00     0.120 C 
BRANCH   7   8
ATOM      8  C   UNL A   1      30.412  28.283  22.696  1.00  0.00     0.107 C 
BRANCH   8   9
ATOM      9  C   UNL A   1      29.447  29.437  22.923  1.00  0.00    -0.102 C 
ATOM     10  C   UNL A   1      27.657  31.578  23.345  1.00  0.00     0.107 C 
ATOM     11  C   UNL A   1      28.621  30.425  23.118  1.00  0.00    -0.107 C 
ENDBRANCH   8   9
ENDBRANCH   7   8
BRANCH   7  12
ATOM     12  C   UNL A   1      31.623  26.655  24.506  1.00  0.00    -0.034 A 
ATOM     13  C   UNL A   1      30.664  25.973  25.284  1.00  0.00     0.004 A 
ATOM     14  C   UNL A   1      32.888  26.055  24.386  1.00  0.00     0.020 A 
ATOM     15  C   UNL A   1      31.038  24.917  26.125  1.00  0.00     0.001 A 
ATOM     16  C   UNL A   1      33.266  25.016  25.245  1.00  0.00     0.018 A 
ATOM     17  C   UNL A   1      32.356  24.474  26.146  1.00  0.00     0.016 A 
ATOM     18  Br  UNL A   1      35.065  24.428  25.270  1.00  0.00    -0.051 Br
ENDBRANCH   7  12
ENDBRANCH   4   7
ENDBRANCH   2   3
ENDBRANCH   1   2
BRANCH   1  19
ATOM     19  C   UNL A   1      34.831  29.219  27.447  1.00  0.00     0.118 C 
BRANCH  19  20
ATOM     20  N   UNL A   1      34.976  30.117  28.588  1.00  0.00    -0.352 N 
ATOM     21  C   UNL A   1      36.047  30.359  29.413  1.00  0.00     0.251 C 
ATOM     22  H   UNL A   1      34.169  30.637  28.804  1.00  0.00     0.163 HD
ATOM     23  O   UNL A   1      35.890  31.046  30.422  1.00  0.00    -0.269 OA
BRANCH  21  24
ATOM     24  C   UNL A   1      37.374  29.779  29.120  1.00  0.00     0.039 A 
ATOM     25  C   UNL A   1      37.879  29.861  27.820  1.00  0.00     0.014 A 
ATOM     26  C   UNL A   1      38.127  29.154  30.115  1.00  0.00     0.014 A 
ATOM     27  C   UNL A   1      39.166  29.391  27.546  1.00  0.00     0.010 A 
ATOM     28  C   UNL A   1      39.452  28.815  29.874  1.00  0.00     0.010 A 
ATOM     29  C   UNL A   1      39.983  28.910  28.583  1.00  0.00    -0.014 A 
BRANCH  29  30
ATOM     30  C   UNL A   1      41.384  28.489  28.328  1.00  0.00     0.031 A 
ATOM     31  C   UNL A   1      41.700  27.054  28.000  1.00  0.00     0.074 A 
ATOM     32  C   UNL A   1      42.379  29.391  28.439  1.00  0.00     0.049 A 
ATOM     33  N   UNL A   1      42.860  26.498  27.753  1.00  0.00    -0.248 NA
ATOM     34  C   UNL A   1      40.571  26.109  27.980  1.00  0.00     0.031 C 
ATOM     35  C   UNL A   1      42.211  30.795  28.819  1.00  0.00     0.029 A 
ATOM     36  N   UNL A   1      43.729  29.262  28.237  1.00  0.00    -0.354 N 
ATOM     37  C   UNL A   1      42.598  25.147  27.559  1.00  0.00     0.074 A 
ATOM     38  C   UNL A   1      41.185  24.951  27.795  1.00  0.00     0.031 C 
ATOM     39  C   UNL A   1      43.404  31.409  28.770  1.00  0.00     0.029 A 
ATOM     40  C   UNL A   1      44.425  30.436  28.397  1.00  0.00     0.049 A 
ATOM     41  H   UNL A   1      44.160  28.408  27.999  1.00  0.00     0.167 HD
ATOM     42  C   UNL A   1      43.448  24.162  27.182  1.00  0.00     0.037 A 
ATOM     43  C   UNL A   1      45.736  30.700  28.251  1.00  0.00     0.037 A 
ATOM     44  C   UNL A   1      44.851  24.363  26.933  1.00  0.00     0.049 A 
ATOM     45  C   UNL A   1      46.660  29.590  27.833  1.00  0.00     0.074 A 
ATOM     46  C   UNL A   1      45.791  23.445  26.500  1.00  0.00     0.029 A 
ATOM     47  N   UNL A   1      45.518  25.567  27.100  1.00  0.00    -0.354 N 
ATOM     48  N   UNL A   1      46.386  28.333  27.578  1.00  0.00    -0.248 NA
ATOM     49  C   UNL A   1      48.077  29.942  27.671  1.00  0.00     0.031 C 
ATOM     50  C   UNL A   1      47.036  24.082  26.455  1.00  0.00     0.029 A 
ATOM     51  C   UNL A   1      46.862  25.412  26.800  1.00  0.00     0.049 A 
ATOM     52  H   UNL A   1      45.097  26.410  27.389  1.00  0.00     0.167 HD
ATOM     53  C   UNL A   1      47.588  27.752  27.196  1.00  0.00     0.074 A 
ATOM     54  C   UNL A   1      48.587  28.800  27.233  1.00  0.00     0.031 C 
ATOM     55  C   UNL A   1      47.844  26.466  26.845  1.00  0.00     0.037 A 
BRANCH  42  56
ATOM     56  C   UNL A   1      42.872  22.783  27.013  1.00  0.00     0.057 A 
ATOM     57  C   UNL A   1      42.643  22.225  25.747  1.00  0.00     0.134 A 
ATOM     58  C   UNL A   1      42.550  21.999  28.128  1.00  0.00     0.134 A 
ATOM     59  F   UNL A   1      42.915  22.926  24.636  1.00  0.00    -0.206 F 
ATOM     60  C   UNL A   1      42.081  20.956  25.596  1.00  0.00     0.040 A 
ATOM     61  C   UNL A   1      42.019  20.715  27.989  1.00  0.00     0.040 A 
ATOM     62  F   UNL A   1      42.746  22.465  29.370  1.00  0.00    -0.206 F 
ATOM     63  C   UNL A   1      41.774  20.194  26.720  1.00  0.00     0.006 A 
ENDBRANCH  42  56
BRANCH  43  64
ATOM     64  C   UNL A   1      46.246  32.080  28.453  1.00  0.00     0.057 A 
ATOM     65  C   UNL A   1      46.593  32.540  29.729  1.00  0.00     0.134 A 
ATOM     66  C   UNL A   1      46.393  32.972  27.385  1.00  0.00     0.134 A 
ATOM     67  F   UNL A   1      46.458  31.739  30.796  1.00  0.00    -0.206 F 
ATOM     68  C   UNL A   1      47.046  33.844  29.939  1.00  0.00     0.040 A 
ATOM     69  C   UNL A   1      46.873  34.269  27.576  1.00  0.00     0.040 A 
ATOM     70  F   UNL A   1      46.089  32.590  26.136  1.00  0.00    -0.206 F 
ATOM     71  C   UNL A   1      47.192  34.710  28.859  1.00  0.00     0.006 A 
ENDBRANCH  43  64
BRANCH  55  72
ATOM     72  C   UNL A   1      49.253  26.140  26.440  1.00  0.00     0.057 A 
ATOM     73  C   UNL A   1      50.170  25.564  27.329  1.00  0.00     0.134 A 
ATOM     74  C   UNL A   1      49.698  26.407  25.138  1.00  0.00     0.134 A 
ATOM     75  F   UNL A   1      49.813  25.293  28.594  1.00  0.00    -0.206 F 
ATOM     76  C   UNL A   1      51.490  25.307  26.951  1.00  0.00     0.040 A 
ATOM     77  C   UNL A   1      51.005  26.122  24.740  1.00  0.00     0.040 A 
ATOM     78  F   UNL A   1      48.869  26.945  24.231  1.00  0.00    -0.206 F 
ATOM     79  C   UNL A   1      51.908  25.583  25.651  1.00  0.00     0.006 A 
ENDBRANCH  55  72
ENDBRANCH  29  30
ENDBRANCH  21  24
ENDBRANCH  19  20
ENDBRANCH   1  19
TORSDOF 13
ENDMDL
MODEL 3
REMARK VINA RESULT:     -11.0      5.468     11.448
REMARK SMILES CC#CC[C@H](C(=O)NCCCNC(=O)c1ccc(-c2c3nc(c(-c4c(F)cccc4F)c4ccc([nH]4)c(-c4c(F)cccc4F)c4nc(c(-c5c(F)cccc5F)c5ccc2[nH]5)C=C4)C=C3)cc1)c1cccc(Br)c1
REMARK SMILES IDX 10 1 9 2 8 3 6 4 7 5 5 7 4 8 3 9 1 10 2 11 69 12 70 13 75 14
REMARK SMILES IDX 71 15 73 16 72 17 74 18 11 19 12 20 13 21 14 23 15 24 16 25
REMARK SMILES IDX 68 26 17 27 67 28 18 29 19 30 20 31 61 32 21 33 66 34 60 35
REMARK SMILES IDX 62 36 22 37 65 38 59 39 58 40 23 42 49 43 32 44 48 45 33 46
REMARK SMILES IDX 36 47 47 48 63 49 34 50 35 51 46 53 64 54 37 55 24 56 25 57
REMARK SMILES IDX 30 58 26 59 27 60 29 61 31 62 28 63 50 64 51 65 56 66 52 67
REMARK SMILES IDX 53 68 55 69 57 70 54 71 38 72 39 73 44 74 40 75 41 76 43 77
REMARK SMILES IDX 45 78 42 79
REMARK H PARENT 8 6 12 22 62 41 36 52
REMARK Flexibility Score: inf
ROOT
ATOM      1  C   UNL A   1      45.674  20.611  25.325  1.00  0.00     0.042 C 
ENDROOT
BRANCH   1   2
ATOM      2  C   UNL A   1      45.933  22.008  25.844  1.00  0.00     0.117 C 
BRANCH   2   3
ATOM      3  N   UNL A   1      46.255  22.976  24.807  1.00  0.00    -0.355 N 
ATOM      4  C   UNL A   1      46.763  24.239  24.925  1.00  0.00     0.228 C 
ATOM      5  O   UNL A   1      47.153  24.786  23.889  1.00  0.00    -0.274 OA
ATOM      6  H   UNL A   1      46.082  22.677  23.885  1.00  0.00     0.163 HD
BRANCH   4   7
ATOM      7  C   UNL A   1      46.763  25.009  26.254  1.00  0.00     0.120 C 
BRANCH   7   8
ATOM      8  C   UNL A   1      48.248  24.900  26.773  1.00  0.00     0.107 C 
BRANCH   8   9
ATOM      9  C   UNL A   1      49.168  25.765  25.925  1.00  0.00    -0.102 C 
ATOM     10  C   UNL A   1      50.874  27.373  24.353  1.00  0.00     0.107 C 
ATOM     11  C   UNL A   1      49.955  26.508  25.200  1.00  0.00    -0.107 C 
ENDBRANCH   8   9
ENDBRANCH   7   8
BRANCH   7  12
ATOM     12  C   UNL A   1      46.042  26.380  26.193  1.00  0.00    -0.034 A 
ATOM     13  C   UNL A   1      46.573  27.495  26.875  1.00  0.00     0.004 A 
ATOM     14  C   UNL A   1      44.777  26.539  25.602  1.00  0.00     0.020 A 
ATOM     15  C   UNL A   1      45.765  28.593  27.197  1.00  0.00     0.001 A 
ATOM     16  C   UNL A   1      43.964  27.624  25.947  1.00  0.00     0.018 A 
ATOM     17  C   UNL A   1      44.439  28.631  26.779  1.00  0.00     0.016 A 
ATOM     18  Br  UNL A   1      42.159  27.661  25.377  1.00  0.00    -0.051 Br
ENDBRANCH   7  12
ENDBRANCH   4   7
ENDBRANCH   2   3
ENDBRANCH   1   2
BRANCH   1  19
ATOM     19  C   UNL A   1      44.574  20.542  24.284  1.00  0.00     0.118 C 
BRANCH  19  20
ATOM     20  N   UNL A   1      43.419  19.761  24.713  1.00  0.00    -0.352 N 
ATOM     21  C   UNL A   1      42.475  20.006  25.680  1.00  0.00     0.251 C 
ATOM     22  H   UNL A   1      43.295  18.914  24.227  1.00  0.00     0.163 HD
ATOM     23  O   UNL A   1      41.675  19.120  25.983  1.00  0.00    -0.269 OA
BRANCH  21  24
ATOM     24  C   UNL A   1      42.430  21.305  26.382  1.00  0.00     0.039 A 
ATOM     25  C   UNL A   1      42.338  21.321  27.776  1.00  0.00     0.014 A 
ATOM     26  C   UNL A   1      42.479  22.510  25.679  1.00  0.00     0.014 A 
ATOM     27  C   UNL A   1      42.378  22.539  28.459  1.00  0.00     0.010 A 
ATOM     28  C   UNL A   1      42.657  23.706  26.362  1.00  0.00     0.010 A 
ATOM     29  C   UNL A   1      42.590  23.740  27.760  1.00  0.00    -0.014 A 
BRANCH  29  30
ATOM     30  C   UNL A   1      42.723  25.034  28.475  1.00  0.00     0.031 A 
ATOM     31  C   UNL A   1      44.024  25.410  29.133  1.00  0.00     0.074 A 
ATOM     32  C   UNL A   1      41.656  25.851  28.574  1.00  0.00     0.049 A 
ATOM     33  N   UNL A   1      44.328  26.492  29.806  1.00  0.00    -0.248 NA
ATOM     34  C   UNL A   1      45.120  24.430  29.055  1.00  0.00     0.031 C 
ATOM     35  C   UNL A   1      40.320  25.569  28.041  1.00  0.00     0.029 A 
ATOM     36  N   UNL A   1      41.526  27.087  29.153  1.00  0.00    -0.354 N 
ATOM     37  C   UNL A   1      45.638  26.315  30.235  1.00  0.00     0.074 A 
ATOM     38  C   UNL A   1      46.045  24.993  29.816  1.00  0.00     0.031 C 
ATOM     39  C   UNL A   1      39.524  26.624  28.271  1.00  0.00     0.029 A 
ATOM     40  C   UNL A   1      40.277  27.638  29.001  1.00  0.00     0.049 A 
ATOM     41  H   UNL A   1      42.260  27.537  29.632  1.00  0.00     0.167 HD
ATOM     42  C   UNL A   1      46.445  27.187  30.886  1.00  0.00     0.037 A 
ATOM     43  C   UNL A   1      39.796  28.829  29.399  1.00  0.00     0.037 A 
ATOM     44  C   UNL A   1      46.041  28.508  31.287  1.00  0.00     0.049 A 
ATOM     45  C   UNL A   1      40.709  29.780  30.122  1.00  0.00     0.074 A 
ATOM     46  C   UNL A   1      46.793  29.490  31.909  1.00  0.00     0.029 A 
ATOM     47  N   UNL A   1      44.769  29.033  31.112  1.00  0.00    -0.354 N 
ATOM     48  N   UNL A   1      41.969  29.630  30.453  1.00  0.00    -0.248 NA
ATOM     49  C   UNL A   1      40.133  31.073  30.515  1.00  0.00     0.031 C 
ATOM     50  C   UNL A   1      45.962  30.588  32.155  1.00  0.00     0.029 A 
ATOM     51  C   UNL A   1      44.708  30.316  31.632  1.00  0.00     0.049 A 
ATOM     52  H   UNL A   1      44.019  28.562  30.680  1.00  0.00     0.167 HD
ATOM     53  C   UNL A   1      42.345  30.819  31.064  1.00  0.00     0.074 A 
ATOM     54  C   UNL A   1      41.185  31.686  31.037  1.00  0.00     0.031 C 
ATOM     55  C   UNL A   1      43.543  31.164  31.600  1.00  0.00     0.037 A 
BRANCH  42  56
ATOM     56  C   UNL A   1      47.844  26.732  31.194  1.00  0.00     0.057 A 
ATOM     57  C   UNL A   1      48.160  26.058  32.383  1.00  0.00     0.134 A 
ATOM     58  C   UNL A   1      48.889  26.962  30.290  1.00  0.00     0.134 A 
ATOM     59  F   UNL A   1      47.211  25.817  33.300  1.00  0.00    -0.206 F 
ATOM     60  C   UNL A   1      49.466  25.664  32.678  1.00  0.00     0.040 A 
ATOM     61  C   UNL A   1      50.193  26.542  30.558  1.00  0.00     0.040 A 
ATOM     62  F   UNL A   1      48.661  27.596  29.130  1.00  0.00    -0.206 F 
ATOM     63  C   UNL A   1      50.487  25.900  31.760  1.00  0.00     0.006 A 
ENDBRANCH  42  56
BRANCH  43  64
ATOM     64  C   UNL A   1      38.396  29.211  29.082  1.00  0.00     0.057 A 
ATOM     65  C   UNL A   1      38.037  29.630  27.795  1.00  0.00     0.134 A 
ATOM     66  C   UNL A   1      37.387  29.173  30.052  1.00  0.00     0.134 A 
ATOM     67  F   UNL A   1      38.961  29.704  26.827  1.00  0.00    -0.206 F 
ATOM     68  C   UNL A   1      36.731  30.020  27.490  1.00  0.00     0.040 A 
ATOM     69  C   UNL A   1      36.072  29.532  29.753  1.00  0.00     0.040 A 
ATOM     70  F   UNL A   1      37.662  28.770  31.301  1.00  0.00    -0.206 F 
ATOM     71  C   UNL A   1      35.743  29.966  28.470  1.00  0.00     0.006 A 
ENDBRANCH  43  64
BRANCH  55  72
ATOM     72  C   UNL A   1      43.660  32.551  32.165  1.00  0.00     0.057 A 
ATOM     73  C   UNL A   1      43.389  32.834  33.509  1.00  0.00     0.134 A 
ATOM     74  C   UNL A   1      44.053  33.620  31.348  1.00  0.00     0.134 A 
ATOM     75  F   UNL A   1      42.997  31.859  34.344  1.00  0.00    -0.206 F 
ATOM     76  C   UNL A   1      43.459  34.136  34.010  1.00  0.00     0.040 A 
ATOM     77  C   UNL A   1      44.161  34.920  31.846  1.00  0.00     0.040 A 
ATOM     78  F   UNL A   1      44.342  33.419  30.053  1.00  0.00    -0.206 F 
ATOM     79  C   UNL A   1      43.850  35.182  33.177  1.00  0.00     0.006 A 
ENDBRANCH  55  72
ENDBRANCH  29  30
ENDBRANCH  21  24
ENDBRANCH  19  20
ENDBRANCH   1  19
TORSDOF 13
ENDMDL
