MODEL 1
REMARK VINA RESULT:     -11.0      0.000      0.000
REMARK SMILES O=C(NCCCNC(=O)[C@H]1CC2=c3ccccc3=N[C@H]2[C@@H](c2ccccc2)[NH2+]1)c1ccc(-c2c3nc(c(-c4c(F)cccc4F)c4ccc([nH]4)c(-c4c(F)cccc4F)c4nc(c(-c5c(F)cccc5F)c5ccc2[nH]5)C=C4)C=C3)cc1
REMARK SMILES IDX 4 1 3 2 1 3 2 4 29 6 30 7 82 8 31 9 81 10 32 11 33 12 34 13
REMARK SMILES IDX 75 14 35 15 80 16 74 17 76 18 36 19 79 20 73 21 72 22 37 24
REMARK SMILES IDX 63 25 46 26 62 27 47 28 50 29 61 30 77 31 48 32 49 33 60 35
REMARK SMILES IDX 78 36 51 37 38 38 39 39 44 40 40 41 41 42 43 43 45 44 42 45
REMARK SMILES IDX 64 46 65 47 70 48 66 49 67 50 69 51 71 52 68 53 52 54 53 55
REMARK SMILES IDX 58 56 54 57 55 58 57 59 59 60 56 61 5 62 6 63 7 64 8 65 9 67
REMARK SMILES IDX 10 68 11 69 28 70 12 71 21 72 13 75 20 76 14 77 18 78 19 79
REMARK SMILES IDX 15 80 17 81 16 82 22 83 23 84 27 85 24 86 26 87 25 88
REMARK H PARENT 3 5 76 23 50 34 7 66 28 73 28 74
REMARK Flexibility Score: inf
ROOT
ATOM      1  C   UNL A   1      34.477  32.390  28.335  1.00  0.00     0.118 C 
ENDROOT
BRANCH   1   2
ATOM      2  N   UNL A   1      33.962  31.051  28.096  1.00  0.00    -0.352 N 
ATOM      3  O   UNL A   1      34.052  28.937  27.340  1.00  0.00    -0.269 OA
ATOM      4  C   UNL A   1      34.640  29.887  27.858  1.00  0.00     0.251 C 
ATOM      5  H   UNL A   1      32.980  30.970  28.108  1.00  0.00     0.163 HD
BRANCH   4   6
ATOM      6  C   UNL A   1      36.061  29.742  28.240  1.00  0.00     0.039 A 
ATOM      7  C   UNL A   1      37.047  29.966  27.273  1.00  0.00     0.014 A 
ATOM      8  C   UNL A   1      36.416  29.247  29.498  1.00  0.00     0.014 A 
ATOM      9  C   UNL A   1      38.385  29.682  27.560  1.00  0.00     0.010 A 
ATOM     10  C   UNL A   1      37.755  29.017  29.803  1.00  0.00     0.010 A 
ATOM     11  C   UNL A   1      38.745  29.190  28.823  1.00  0.00    -0.014 A 
BRANCH  11  12
ATOM     12  C   UNL A   1      40.119  28.705  29.100  1.00  0.00     0.031 A 
ATOM     13  C   UNL A   1      41.088  29.626  29.792  1.00  0.00     0.074 A 
ATOM     14  C   UNL A   1      40.513  27.482  28.699  1.00  0.00     0.049 A 
ATOM     15  N   UNL A   1      42.373  29.480  29.998  1.00  0.00    -0.248 NA
ATOM     16  C   UNL A   1      40.542  30.899  30.294  1.00  0.00     0.031 C 
ATOM     17  C   UNL A   1      39.671  26.498  28.021  1.00  0.00     0.029 A 
ATOM     18  N   UNL A   1      41.738  26.872  28.789  1.00  0.00    -0.354 N 
ATOM     19  C   UNL A   1      42.791  30.654  30.611  1.00  0.00     0.074 A 
ATOM     20  C   UNL A   1      41.634  31.514  30.723  1.00  0.00     0.031 C 
ATOM     21  C   UNL A   1      40.405  25.404  27.754  1.00  0.00     0.029 A 
ATOM     22  C   UNL A   1      41.775  25.627  28.208  1.00  0.00     0.049 A 
ATOM     23  H   UNL A   1      42.516  27.285  29.228  1.00  0.00     0.167 HD
ATOM     24  C   UNL A   1      44.027  30.983  31.054  1.00  0.00     0.037 A 
ATOM     25  C   UNL A   1      42.806  24.777  28.046  1.00  0.00     0.037 A 
ATOM     26  C   UNL A   1      45.163  30.104  31.000  1.00  0.00     0.049 A 
ATOM     27  C   UNL A   1      44.171  25.166  28.548  1.00  0.00     0.074 A 
ATOM     28  C   UNL A   1      46.439  30.311  31.493  1.00  0.00     0.029 A 
ATOM     29  N   UNL A   1      45.153  28.844  30.424  1.00  0.00    -0.354 N 
ATOM     30  N   UNL A   1      44.545  26.262  29.161  1.00  0.00    -0.248 NA
ATOM     31  C   UNL A   1      45.257  24.199  28.332  1.00  0.00     0.031 C 
ATOM     32  C   UNL A   1      47.211  29.185  31.188  1.00  0.00     0.029 A 
ATOM     33  C   UNL A   1      46.406  28.267  30.533  1.00  0.00     0.049 A 
ATOM     34  H   UNL A   1      44.371  28.421  30.000  1.00  0.00     0.167 HD
ATOM     35  C   UNL A   1      45.901  26.107  29.425  1.00  0.00     0.074 A 
ATOM     36  C   UNL A   1      46.280  24.806  28.916  1.00  0.00     0.031 C 
ATOM     37  C   UNL A   1      46.756  26.963  30.035  1.00  0.00     0.037 A 
BRANCH  24  38
ATOM     38  C   UNL A   1      44.215  32.352  31.636  1.00  0.00     0.057 A 
ATOM     39  C   UNL A   1      44.065  32.566  33.011  1.00  0.00     0.134 A 
ATOM     40  C   UNL A   1      44.514  33.462  30.837  1.00  0.00     0.134 A 
ATOM     41  F   UNL A   1      43.775  31.545  33.832  1.00  0.00    -0.206 F 
ATOM     42  C   UNL A   1      44.206  33.836  33.572  1.00  0.00     0.040 A 
ATOM     43  C   UNL A   1      44.680  34.734  31.388  1.00  0.00     0.040 A 
ATOM     44  F   UNL A   1      44.684  33.321  29.514  1.00  0.00    -0.206 F 
ATOM     45  C   UNL A   1      44.519  34.924  32.760  1.00  0.00     0.006 A 
ENDBRANCH  24  38
BRANCH  25  46
ATOM     46  C   UNL A   1      42.602  23.471  27.370  1.00  0.00     0.057 A 
ATOM     47  C   UNL A   1      42.773  23.328  25.989  1.00  0.00     0.134 A 
ATOM     48  C   UNL A   1      42.269  22.326  28.103  1.00  0.00     0.134 A 
ATOM     49  F   UNL A   1      43.092  24.388  25.232  1.00  0.00    -0.206 F 
ATOM     50  C   UNL A   1      42.621  22.092  25.359  1.00  0.00     0.040 A 
ATOM     51  C   UNL A   1      42.134  21.080  27.490  1.00  0.00     0.040 A 
ATOM     52  F   UNL A   1      42.115  22.398  29.433  1.00  0.00    -0.206 F 
ATOM     53  C   UNL A   1      42.309  20.961  26.112  1.00  0.00     0.006 A 
ENDBRANCH  25  46
BRANCH  37  54
ATOM     54  C   UNL A   1      48.170  26.504  30.216  1.00  0.00     0.057 A 
ATOM     55  C   UNL A   1      49.130  26.750  29.227  1.00  0.00     0.134 A 
ATOM     56  C   UNL A   1      48.570  25.784  31.347  1.00  0.00     0.134 A 
ATOM     57  F   UNL A   1      48.806  27.429  28.116  1.00  0.00    -0.206 F 
ATOM     58  C   UNL A   1      50.441  26.289  29.355  1.00  0.00     0.040 A 
ATOM     59  C   UNL A   1      49.882  25.335  31.497  1.00  0.00     0.040 A 
ATOM     60  F   UNL A   1      47.697  25.530  32.336  1.00  0.00    -0.206 F 
ATOM     61  C   UNL A   1      50.820  25.582  30.494  1.00  0.00     0.006 A 
ENDBRANCH  37  54
ENDBRANCH  11  12
ENDBRANCH   4   6
ENDBRANCH   1   2
BRANCH   1  62
ATOM     62  C   UNL A   1      34.779  32.620  29.820  1.00  0.00     0.042 C 
BRANCH  62  63
ATOM     63  C   UNL A   1      34.588  34.075  30.263  1.00  0.00     0.118 C 
BRANCH  63  64
ATOM     64  N   UNL A   1      34.045  34.126  31.603  1.00  0.00    -0.351 N 
ATOM     65  C   UNL A   1      34.318  33.320  32.663  1.00  0.00     0.278 C 
ATOM     66  H   UNL A   1      33.389  34.841  31.769  1.00  0.00     0.163 HD
ATOM     67  O   UNL A   1      33.349  32.972  33.347  1.00  0.00    -0.268 OA
BRANCH  65  68
ATOM     68  C   UNL A   1      35.757  33.005  33.119  1.00  0.00     0.277 C 
ATOM     69  C   UNL A   1      36.451  31.702  32.658  1.00  0.00     0.109 C 
ATOM     70  N   UNL A   1      36.582  34.222  32.875  1.00  0.00    -0.327 N 
ATOM     71  C   UNL A   1      37.750  31.562  33.406  1.00  0.00    -0.024 C 
ATOM     72  C   UNL A   1      38.016  34.080  33.289  1.00  0.00     0.243 C 
ATOM     73  H   UNL A   1      36.172  34.997  33.398  1.00  0.00     0.347 HD
ATOM     74  H   UNL A   1      36.580  34.384  31.868  1.00  0.00     0.347 HD
ATOM     75  C   UNL A   1      38.670  30.606  33.472  1.00  0.00     0.002 A 
ATOM     76  C   UNL A   1      38.224  32.788  34.143  1.00  0.00     0.196 C 
ATOM     77  C   UNL A   1      38.855  29.317  32.887  1.00  0.00     0.010 A 
ATOM     78  C   UNL A   1      39.745  31.248  34.266  1.00  0.00     0.066 A 
ATOM     79  N   UNL A   1      39.607  32.499  34.588  1.00  0.00    -0.270 NA
ATOM     80  C   UNL A   1      39.980  28.638  33.171  1.00  0.00     0.001 A 
ATOM     81  C   UNL A   1      40.910  30.406  34.601  1.00  0.00     0.028 A 
ATOM     82  C   UNL A   1      40.983  29.169  34.083  1.00  0.00     0.002 A 
BRANCH  72  83
ATOM     83  C   UNL A   1      38.896  34.356  32.063  1.00  0.00     0.012 A 
ATOM     84  C   UNL A   1      38.274  34.352  30.796  1.00  0.00     0.010 A 
ATOM     85  C   UNL A   1      40.283  34.536  32.097  1.00  0.00     0.010 A 
ATOM     86  C   UNL A   1      39.011  34.507  29.619  1.00  0.00     0.001 A 
ATOM     87  C   UNL A   1      41.024  34.697  30.921  1.00  0.00     0.001 A 
ATOM     88  C   UNL A   1      40.389  34.677  29.683  1.00  0.00     0.000 A 
ENDBRANCH  72  83
ENDBRANCH  65  68
ENDBRANCH  63  64
ENDBRANCH  62  63
ENDBRANCH   1  62
TORSDOF 11
ENDMDL
MODEL 2
REMARK VINA RESULT:     -10.9      1.005      1.903
REMARK SMILES O=C(NCCCNC(=O)[C@H]1CC2=c3ccccc3=N[C@H]2[C@@H](c2ccccc2)[NH2+]1)c1ccc(-c2c3nc(c(-c4c(F)cccc4F)c4ccc([nH]4)c(-c4c(F)cccc4F)c4nc(c(-c5c(F)cccc5F)c5ccc2[nH]5)C=C4)C=C3)cc1
REMARK SMILES IDX 4 1 3 2 1 3 2 4 29 6 30 7 82 8 31 9 81 10 32 11 33 12 34 13
REMARK SMILES IDX 75 14 35 15 80 16 74 17 76 18 36 19 79 20 73 21 72 22 37 24
REMARK SMILES IDX 63 25 46 26 62 27 47 28 50 29 61 30 77 31 48 32 49 33 60 35
REMARK SMILES IDX 78 36 51 37 38 38 39 39 44 40 40 41 41 42 43 43 45 44 42 45
REMARK SMILES IDX 64 46 65 47 70 48 66 49 67 50 69 51 71 52 68 53 52 54 53 55
REMARK SMILES IDX 58 56 54 57 55 58 57 59 59 60 56 61 5 62 6 63 7 64 8 65 9 67
REMARK SMILES IDX 10 68 11 69 28 70 12 71 21 72 13 75 20 76 14 77 18 78 19 79
REMARK SMILES IDX 15 80 17 81 16 82 22 83 23 84 27 85 24 86 26 87 25 88
REMARK H PARENT 3 5 76 23 50 34 7 66 28 73 28 74
REMARK Flexibility Score: inf
ROOT
ATOM      1  C   UNL A   1      35.625  32.628  30.427  1.00  0.00     0.118 C 
ENDROOT
BRANCH   1   2
ATOM      2  N   UNL A   1      34.698  31.887  29.587  1.00  0.00    -0.352 N 
ATOM      3  O   UNL A   1      34.094  30.671  27.797  1.00  0.00    -0.269 OA
ATOM      4  C   UNL A   1      34.953  30.933  28.640  1.00  0.00     0.251 C 
ATOM      5  H   UNL A   1      33.746  32.103  29.719  1.00  0.00     0.163 HD
BRANCH   4   6
ATOM      6  C   UNL A   1      36.230  30.189  28.633  1.00  0.00     0.039 A 
ATOM      7  C   UNL A   1      36.595  29.460  29.769  1.00  0.00     0.014 A 
ATOM      8  C   UNL A   1      37.131  30.327  27.572  1.00  0.00     0.014 A 
ATOM      9  C   UNL A   1      37.863  28.880  29.851  1.00  0.00     0.010 A 
ATOM     10  C   UNL A   1      38.374  29.702  27.630  1.00  0.00     0.010 A 
ATOM     11  C   UNL A   1      38.767  29.012  28.787  1.00  0.00    -0.014 A 
BRANCH  11  12
ATOM     12  C   UNL A   1      40.179  28.573  28.913  1.00  0.00     0.031 A 
ATOM     13  C   UNL A   1      41.206  29.562  29.399  1.00  0.00     0.074 A 
ATOM     14  C   UNL A   1      40.550  27.331  28.553  1.00  0.00     0.049 A 
ATOM     15  N   UNL A   1      42.509  29.454  29.441  1.00  0.00    -0.248 NA
ATOM     16  C   UNL A   1      40.695  30.859  29.876  1.00  0.00     0.031 C 
ATOM     17  C   UNL A   1      39.653  26.283  28.067  1.00  0.00     0.029 A 
ATOM     18  N   UNL A   1      41.793  26.751  28.521  1.00  0.00    -0.354 N 
ATOM     19  C   UNL A   1      42.973  30.679  29.906  1.00  0.00     0.074 A 
ATOM     20  C   UNL A   1      41.817  31.524  30.108  1.00  0.00     0.031 C 
ATOM     21  C   UNL A   1      40.375  25.186  27.784  1.00  0.00     0.029 A 
ATOM     22  C   UNL A   1      41.787  25.467  28.033  1.00  0.00     0.049 A 
ATOM     23  H   UNL A   1      42.610  27.210  28.821  1.00  0.00     0.167 HD
ATOM     24  C   UNL A   1      44.247  31.062  30.154  1.00  0.00     0.037 A 
ATOM     25  C   UNL A   1      42.810  24.625  27.796  1.00  0.00     0.037 A 
ATOM     26  C   UNL A   1      45.390  30.202  30.012  1.00  0.00     0.049 A 
ATOM     27  C   UNL A   1      44.218  25.075  28.081  1.00  0.00     0.074 A 
ATOM     28  C   UNL A   1      46.714  30.468  30.313  1.00  0.00     0.029 A 
ATOM     29  N   UNL A   1      45.339  28.902  29.536  1.00  0.00    -0.354 N 
ATOM     30  N   UNL A   1      44.640  26.221  28.556  1.00  0.00    -0.248 NA
ATOM     31  C   UNL A   1      45.293  24.114  27.792  1.00  0.00     0.031 C 
ATOM     32  C   UNL A   1      47.469  29.336  29.989  1.00  0.00     0.029 A 
ATOM     33  C   UNL A   1      46.610  28.357  29.518  1.00  0.00     0.049 A 
ATOM     34  H   UNL A   1      44.519  28.434  29.252  1.00  0.00     0.167 HD
ATOM     35  C   UNL A   1      46.022  26.111  28.647  1.00  0.00     0.074 A 
ATOM     36  C   UNL A   1      46.366  24.781  28.188  1.00  0.00     0.031 C 
ATOM     37  C   UNL A   1      46.926  27.025  29.073  1.00  0.00     0.037 A 
BRANCH  24  38
ATOM     38  C   UNL A   1      44.472  32.475  30.603  1.00  0.00     0.057 A 
ATOM     39  C   UNL A   1      44.683  33.493  29.666  1.00  0.00     0.134 A 
ATOM     40  C   UNL A   1      44.509  32.825  31.958  1.00  0.00     0.134 A 
ATOM     41  F   UNL A   1      44.664  33.224  28.351  1.00  0.00    -0.206 F 
ATOM     42  C   UNL A   1      44.923  34.810  30.060  1.00  0.00     0.040 A 
ATOM     43  C   UNL A   1      44.726  34.142  32.365  1.00  0.00     0.040 A 
ATOM     44  F   UNL A   1      44.300  31.898  32.905  1.00  0.00    -0.206 F 
ATOM     45  C   UNL A   1      44.940  35.138  31.414  1.00  0.00     0.006 A 
ENDBRANCH  24  38
BRANCH  25  46
ATOM     46  C   UNL A   1      42.555  23.269  27.251  1.00  0.00     0.057 A 
ATOM     47  C   UNL A   1      42.669  22.996  25.883  1.00  0.00     0.134 A 
ATOM     48  C   UNL A   1      42.228  22.203  28.096  1.00  0.00     0.134 A 
ATOM     49  F   UNL A   1      42.979  23.976  25.021  1.00  0.00    -0.206 F 
ATOM     50  C   UNL A   1      42.469  21.712  25.375  1.00  0.00     0.040 A 
ATOM     51  C   UNL A   1      42.045  20.909  27.606  1.00  0.00     0.040 A 
ATOM     52  F   UNL A   1      42.127  22.398  29.420  1.00  0.00    -0.206 F 
ATOM     53  C   UNL A   1      42.164  20.662  26.239  1.00  0.00     0.006 A 
ENDBRANCH  25  46
BRANCH  37  54
ATOM     54  C   UNL A   1      48.365  26.606  29.096  1.00  0.00     0.057 A 
ATOM     55  C   UNL A   1      48.901  25.967  30.221  1.00  0.00     0.134 A 
ATOM     56  C   UNL A   1      49.225  26.873  28.026  1.00  0.00     0.134 A 
ATOM     57  F   UNL A   1      48.128  25.690  31.281  1.00  0.00    -0.206 F 
ATOM     58  C   UNL A   1      50.250  25.613  30.281  1.00  0.00     0.040 A 
ATOM     59  C   UNL A   1      50.571  26.506  28.066  1.00  0.00     0.040 A 
ATOM     60  F   UNL A   1      48.765  27.471  26.915  1.00  0.00    -0.206 F 
ATOM     61  C   UNL A   1      51.087  25.879  29.200  1.00  0.00     0.006 A 
ENDBRANCH  37  54
ENDBRANCH  11  12
ENDBRANCH   4   6
ENDBRANCH   1   2
BRANCH   1  62
ATOM     62  C   UNL A   1      34.894  33.640  31.315  1.00  0.00     0.042 C 
BRANCH  62  63
ATOM     63  C   UNL A   1      34.504  33.080  32.687  1.00  0.00     0.118 C 
BRANCH  63  64
ATOM     64  N   UNL A   1      34.916  33.986  33.737  1.00  0.00    -0.351 N 
ATOM     65  C   UNL A   1      35.816  33.780  34.734  1.00  0.00     0.278 C 
ATOM     66  H   UNL A   1      34.485  34.871  33.727  1.00  0.00     0.163 HD
ATOM     67  O   UNL A   1      35.499  34.203  35.851  1.00  0.00    -0.268 OA
BRANCH  65  68
ATOM     68  C   UNL A   1      37.234  33.231  34.473  1.00  0.00     0.277 C 
ATOM     69  C   UNL A   1      37.422  31.872  33.760  1.00  0.00     0.109 C 
ATOM     70  N   UNL A   1      38.033  34.328  33.858  1.00  0.00    -0.327 N 
ATOM     71  C   UNL A   1      38.879  31.499  33.820  1.00  0.00    -0.024 C 
ATOM     72  C   UNL A   1      39.454  33.953  33.560  1.00  0.00     0.243 C 
ATOM     73  H   UNL A   1      38.039  35.120  34.501  1.00  0.00     0.347 HD
ATOM     74  H   UNL A   1      37.594  34.550  32.965  1.00  0.00     0.347 HD
ATOM     75  C   UNL A   1      39.562  30.416  33.463  1.00  0.00     0.002 A 
ATOM     76  C   UNL A   1      39.826  32.594  34.236  1.00  0.00     0.196 C 
ATOM     77  C   UNL A   1      39.251  29.153  32.876  1.00  0.00     0.010 A 
ATOM     78  C   UNL A   1      40.968  30.844  33.658  1.00  0.00     0.066 A 
ATOM     79  N   UNL A   1      41.193  32.080  33.992  1.00  0.00    -0.270 NA
ATOM     80  C   UNL A   1      40.258  28.301  32.613  1.00  0.00     0.001 A 
ATOM     81  C   UNL A   1      42.007  29.822  33.425  1.00  0.00     0.028 A 
ATOM     82  C   UNL A   1      41.637  28.623  32.948  1.00  0.00     0.002 A 
BRANCH  72  83
ATOM     83  C   UNL A   1      39.701  34.174  32.062  1.00  0.00     0.012 A 
ATOM     84  C   UNL A   1      40.993  34.577  31.663  1.00  0.00     0.010 A 
ATOM     85  C   UNL A   1      38.721  34.080  31.067  1.00  0.00     0.010 A 
ATOM     86  C   UNL A   1      41.285  34.886  30.332  1.00  0.00     0.001 A 
ATOM     87  C   UNL A   1      39.011  34.384  29.732  1.00  0.00     0.001 A 
ATOM     88  C   UNL A   1      40.290  34.791  29.365  1.00  0.00     0.000 A 
ENDBRANCH  72  83
ENDBRANCH  65  68
ENDBRANCH  63  64
ENDBRANCH  62  63
ENDBRANCH   1  62
TORSDOF 11
ENDMDL
MODEL 3
REMARK VINA RESULT:     -10.6      3.416     10.197
REMARK SMILES O=C(NCCCNC(=O)[C@H]1CC2=c3ccccc3=N[C@H]2[C@@H](c2ccccc2)[NH2+]1)c1ccc(-c2c3nc(c(-c4c(F)cccc4F)c4ccc([nH]4)c(-c4c(F)cccc4F)c4nc(c(-c5c(F)cccc5F)c5ccc2[nH]5)C=C4)C=C3)cc1
REMARK SMILES IDX 4 1 3 2 1 3 2 4 29 6 30 7 82 8 31 9 81 10 32 11 33 12 34 13
REMARK SMILES IDX 75 14 35 15 80 16 74 17 76 18 36 19 79 20 73 21 72 22 37 24
REMARK SMILES IDX 63 25 46 26 62 27 47 28 50 29 61 30 77 31 48 32 49 33 60 35
REMARK SMILES IDX 78 36 51 37 38 38 39 39 44 40 40 41 41 42 43 43 45 44 42 45
REMARK SMILES IDX 64 46 65 47 70 48 66 49 67 50 69 51 71 52 68 53 52 54 53 55
REMARK SMILES IDX 58 56 54 57 55 58 57 59 59 60 56 61 5 62 6 63 7 64 8 65 9 67
REMARK SMILES IDX 10 68 11 69 28 70 12 71 21 72 13 75 20 76 14 77 18 78 19 79
REMARK SMILES IDX 15 80 17 81 16 82 22 83 23 84 27 85 24 86 26 87 25 88
REMARK H PARENT 3 5 76 23 50 34 7 66 28 73 28 74
REMARK Flexibility Score: inf
ROOT
ATOM      1  C   UNL A   1      42.460  22.971  26.111  1.00  0.00     0.118 C 
ENDROOT
BRANCH   1   2
ATOM      2  N   UNL A   1      41.103  22.588  25.754  1.00  0.00    -0.352 N 
ATOM      3  O   UNL A   1      38.888  22.395  26.077  1.00  0.00    -0.269 OA
ATOM      4  C   UNL A   1      39.911  23.063  26.229  1.00  0.00     0.251 C 
ATOM      5  H   UNL A   1      41.031  21.883  25.069  1.00  0.00     0.163 HD
BRANCH   4   6
ATOM      6  C   UNL A   1      39.827  24.380  26.895  1.00  0.00     0.039 A 
ATOM      7  C   UNL A   1      40.448  25.481  26.297  1.00  0.00     0.014 A 
ATOM      8  C   UNL A   1      39.266  24.502  28.170  1.00  0.00     0.014 A 
ATOM      9  C   UNL A   1      40.522  26.699  26.978  1.00  0.00     0.010 A 
ATOM     10  C   UNL A   1      39.289  25.730  28.826  1.00  0.00     0.010 A 
ATOM     11  C   UNL A   1      39.956  26.825  28.255  1.00  0.00    -0.014 A 
BRANCH  11  12
ATOM     12  C   UNL A   1      40.175  28.038  29.081  1.00  0.00     0.031 A 
ATOM     13  C   UNL A   1      41.405  28.114  29.946  1.00  0.00     0.074 A 
ATOM     14  C   UNL A   1      39.270  29.033  29.100  1.00  0.00     0.049 A 
ATOM     15  N   UNL A   1      41.727  28.995  30.860  1.00  0.00    -0.248 NA
ATOM     16  C   UNL A   1      42.394  27.035  29.780  1.00  0.00     0.031 C 
ATOM     17  C   UNL A   1      38.040  29.078  28.310  1.00  0.00     0.029 A 
ATOM     18  N   UNL A   1      39.241  30.192  29.834  1.00  0.00    -0.354 N 
ATOM     19  C   UNL A   1      42.927  28.553  31.402  1.00  0.00     0.074 A 
ATOM     20  C   UNL A   1      43.267  27.314  30.737  1.00  0.00     0.031 C 
ATOM     21  C   UNL A   1      37.374  30.208  28.602  1.00  0.00     0.029 A 
ATOM     22  C   UNL A   1      38.111  30.945  29.625  1.00  0.00     0.049 A 
ATOM     23  H   UNL A   1      39.960  30.458  30.450  1.00  0.00     0.167 HD
ATOM     24  C   UNL A   1      43.687  29.133  32.361  1.00  0.00     0.037 A 
ATOM     25  C   UNL A   1      37.712  32.089  30.212  1.00  0.00     0.037 A 
ATOM     26  C   UNL A   1      43.381  30.395  32.978  1.00  0.00     0.049 A 
ATOM     27  C   UNL A   1      38.575  32.714  31.275  1.00  0.00     0.074 A 
ATOM     28  C   UNL A   1      44.125  31.107  33.902  1.00  0.00     0.029 A 
ATOM     29  N   UNL A   1      42.239  31.136  32.723  1.00  0.00    -0.354 N 
ATOM     30  N   UNL A   1      39.726  32.307  31.751  1.00  0.00    -0.248 NA
ATOM     31  C   UNL A   1      38.079  33.958  31.884  1.00  0.00     0.031 C 
ATOM     32  C   UNL A   1      43.416  32.268  34.228  1.00  0.00     0.029 A 
ATOM     33  C   UNL A   1      42.248  32.291  33.484  1.00  0.00     0.049 A 
ATOM     34  H   UNL A   1      41.526  30.880  32.093  1.00  0.00     0.167 HD
ATOM     35  C   UNL A   1      40.104  33.255  32.696  1.00  0.00     0.074 A 
ATOM     36  C   UNL A   1      39.064  34.263  32.716  1.00  0.00     0.031 C 
ATOM     37  C   UNL A   1      41.211  33.289  33.475  1.00  0.00     0.037 A 
BRANCH  24  38
ATOM     38  C   UNL A   1      44.922  28.406  32.803  1.00  0.00     0.057 A 
ATOM     39  C   UNL A   1      44.869  27.499  33.868  1.00  0.00     0.134 A 
ATOM     40  C   UNL A   1      46.165  28.622  32.197  1.00  0.00     0.134 A 
ATOM     41  F   UNL A   1      43.709  27.249  34.494  1.00  0.00    -0.206 F 
ATOM     42  C   UNL A   1      46.010  26.832  34.316  1.00  0.00     0.040 A 
ATOM     43  C   UNL A   1      47.309  27.944  32.621  1.00  0.00     0.040 A 
ATOM     44  F   UNL A   1      46.279  29.468  31.162  1.00  0.00    -0.206 F 
ATOM     45  C   UNL A   1      47.234  27.051  33.688  1.00  0.00     0.006 A 
ENDBRANCH  24  38
BRANCH  25  46
ATOM     46  C   UNL A   1      36.429  32.724  29.821  1.00  0.00     0.057 A 
ATOM     47  C   UNL A   1      35.256  32.517  30.555  1.00  0.00     0.134 A 
ATOM     48  C   UNL A   1      36.358  33.588  28.722  1.00  0.00     0.134 A 
ATOM     49  F   UNL A   1      35.258  31.699  31.619  1.00  0.00    -0.206 F 
ATOM     50  C   UNL A   1      34.058  33.146  30.212  1.00  0.00     0.040 A 
ATOM     51  C   UNL A   1      35.174  34.241  28.379  1.00  0.00     0.040 A 
ATOM     52  F   UNL A   1      37.456  33.844  27.994  1.00  0.00    -0.206 F 
ATOM     53  C   UNL A   1      34.017  34.018  29.126  1.00  0.00     0.006 A 
ENDBRANCH  25  46
BRANCH  37  54
ATOM     54  C   UNL A   1      41.371  34.469  34.385  1.00  0.00     0.057 A 
ATOM     55  C   UNL A   1      42.060  35.610  33.955  1.00  0.00     0.134 A 
ATOM     56  C   UNL A   1      40.882  34.457  35.696  1.00  0.00     0.134 A 
ATOM     57  F   UNL A   1      42.558  35.678  32.712  1.00  0.00    -0.206 F 
ATOM     58  C   UNL A   1      42.262  36.699  34.804  1.00  0.00     0.040 A 
ATOM     59  C   UNL A   1      41.060  35.548  36.547  1.00  0.00     0.040 A 
ATOM     60  F   UNL A   1      40.201  33.397  36.159  1.00  0.00    -0.206 F 
ATOM     61  C   UNL A   1      41.758  36.671  36.102  1.00  0.00     0.006 A 
ENDBRANCH  37  54
ENDBRANCH  11  12
ENDBRANCH   4   6
ENDBRANCH   1   2
BRANCH   1  62
ATOM     62  C   UNL A   1      43.469  22.514  25.052  1.00  0.00     0.042 C 
BRANCH  62  63
ATOM     63  C   UNL A   1      44.710  21.837  25.644  1.00  0.00     0.118 C 
BRANCH  63  64
ATOM     64  N   UNL A   1      45.905  22.301  24.974  1.00  0.00    -0.351 N 
ATOM     65  C   UNL A   1      46.243  23.569  24.618  1.00  0.00     0.278 C 
ATOM     66  H   UNL A   1      46.562  21.605  24.746  1.00  0.00     0.163 HD
ATOM     67  O   UNL A   1      46.758  23.702  23.502  1.00  0.00    -0.268 OA
BRANCH  65  68
ATOM     68  C   UNL A   1      46.178  24.754  25.602  1.00  0.00     0.277 C 
ATOM     69  C   UNL A   1      44.921  25.654  25.654  1.00  0.00     0.109 C 
ATOM     70  N   UNL A   1      46.588  24.248  26.942  1.00  0.00    -0.327 N 
ATOM     71  C   UNL A   1      45.212  26.831  26.546  1.00  0.00    -0.024 C 
ATOM     72  C   UNL A   1      46.594  25.297  28.014  1.00  0.00     0.243 C 
ATOM     73  H   UNL A   1      47.529  23.862  26.865  1.00  0.00     0.347 HD
ATOM     74  H   UNL A   1      45.899  23.549  27.218  1.00  0.00     0.347 HD
ATOM     75  C   UNL A   1      44.539  27.934  26.854  1.00  0.00     0.002 A 
ATOM     76  C   UNL A   1      46.450  26.725  27.398  1.00  0.00     0.196 C 
ATOM     77  C   UNL A   1      43.275  28.498  26.503  1.00  0.00     0.010 A 
ATOM     78  C   UNL A   1      45.373  28.531  27.924  1.00  0.00     0.066 A 
ATOM     79  N   UNL A   1      46.401  27.859  28.349  1.00  0.00    -0.270 NA
ATOM     80  C   UNL A   1      42.907  29.656  27.078  1.00  0.00     0.001 A 
ATOM     81  C   UNL A   1      44.940  29.844  28.444  1.00  0.00     0.028 A 
ATOM     82  C   UNL A   1      43.778  30.358  28.010  1.00  0.00     0.002 A 
BRANCH  72  83
ATOM     83  C   UNL A   1      45.661  24.833  29.140  1.00  0.00     0.012 A 
ATOM     84  C   UNL A   1      45.992  25.205  30.460  1.00  0.00     0.010 A 
ATOM     85  C   UNL A   1      44.547  24.004  28.966  1.00  0.00     0.010 A 
ATOM     86  C   UNL A   1      45.249  24.755  31.555  1.00  0.00     0.001 A 
ATOM     87  C   UNL A   1      43.798  23.555  30.059  1.00  0.00     0.001 A 
ATOM     88  C   UNL A   1      44.151  23.926  31.353  1.00  0.00     0.000 A 
ENDBRANCH  72  83
ENDBRANCH  65  68
ENDBRANCH  63  64
ENDBRANCH  62  63
ENDBRANCH   1  62
TORSDOF 11
ENDMDL
