MODEL 1
REMARK VINA RESULT:     -12.1      0.000      0.000
REMARK SMILES CC[N@@H+](C)Cc1cc2c(cc1Cl)C=C(C(=O)NCCCNC(=O)c1ccc(-c3c4nc(c(-c5c(F)cccc5F)c5ccc([nH]5)c(-c5c(F)cccc5F)c5nc(c(-c6c(F)cccc6F)c6ccc3[nH]6)C=C5)C=C4)cc1)[C@@H](C(F)(F)F)O2
REMARK SMILES IDX 18 1 17 2 15 3 16 4 14 6 6 7 7 8 11 9 8 10 10 11 12 12 9 13
REMARK SMILES IDX 83 14 13 15 78 16 5 17 3 18 4 19 2 21 1 22 79 23 80 24 81 25
REMARK SMILES IDX 82 26 19 27 20 28 21 29 22 30 23 32 24 33 25 34 77 35 26 36
REMARK SMILES IDX 76 37 27 38 28 39 29 40 70 41 30 42 75 43 69 44 71 45 31 46
REMARK SMILES IDX 74 47 68 48 67 49 32 51 58 52 41 53 57 54 42 55 45 56 56 57
REMARK SMILES IDX 72 58 43 59 44 60 55 62 73 63 46 64 33 65 34 66 39 67 35 68
REMARK SMILES IDX 36 69 38 70 40 71 37 72 59 73 60 74 65 75 61 76 62 77 64 78
REMARK SMILES IDX 66 79 63 80 47 81 48 82 53 83 49 84 50 85 52 86 54 87 51 88
REMARK H PARENT 17 5 3 20 21 31 71 50 45 61
REMARK Flexibility Score: inf
ROOT
ATOM      1  C   UNL A   1      36.422  20.717  25.170  1.00  0.00     0.118 C 
ENDROOT
BRANCH   1   2
ATOM      2  N   UNL A   1      35.310  19.787  25.046  1.00  0.00    -0.352 N 
ATOM      3  C   UNL A   1      33.970  19.857  24.876  1.00  0.00     0.251 C 
ATOM      4  O   UNL A   1      33.385  18.770  24.869  1.00  0.00    -0.270 OA
ATOM      5  H   UNL A   1      35.616  18.853  25.102  1.00  0.00     0.163 HD
BRANCH   3   6
ATOM      6  C   UNL A   1      33.193  21.117  24.693  1.00  0.00     0.067 C 
ATOM      7  C   UNL A   1      31.465  25.530  22.981  1.00  0.00     0.029 A 
ATOM      8  C   UNL A   1      31.144  24.693  24.063  1.00  0.00     0.058 A 
ATOM      9  C   UNL A   1      32.314  25.017  21.986  1.00  0.00     0.050 A 
ATOM     10  C   UNL A   1      31.746  23.449  24.209  1.00  0.00     0.128 A 
ATOM     11  C   UNL A   1      32.911  23.757  22.133  1.00  0.00     0.033 A 
ATOM     12  Cl  UNL A   1      32.653  25.876  20.525  1.00  0.00    -0.084 Cl
ATOM     13  C   UNL A   1      32.654  22.983  23.266  1.00  0.00     0.019 A 
ATOM     14  O   UNL A   1      31.383  22.721  25.304  1.00  0.00    -0.475 OA
ATOM     15  C   UNL A   1      33.308  21.700  23.485  1.00  0.00     0.025 C 
ATOM     16  C   UNL A   1      32.367  21.760  25.773  1.00  0.00     0.314 C 
BRANCH   7  17
ATOM     17  C   UNL A   1      30.905  26.941  22.979  1.00  0.00     0.300 C 
BRANCH  17  18
ATOM     18  N   UNL A   1      31.748  27.992  23.586  1.00  0.00    -0.334 N 
ATOM     19  C   UNL A   1      30.997  28.857  24.493  1.00  0.00     0.333 C 
ATOM     20  H   UNL A   1      32.430  27.452  24.120  1.00  0.00     0.348 HD
BRANCH  18  21
ATOM     21  C   UNL A   1      32.548  28.798  22.654  1.00  0.00     0.258 C 
ATOM     22  C   UNL A   1      34.044  28.530  22.752  1.00  0.00     0.071 C 
ENDBRANCH  18  21
ENDBRANCH  17  18
ENDBRANCH   7  17
BRANCH  16  23
ATOM     23  C   UNL A   1      33.213  22.418  26.882  1.00  0.00     0.429 C 
ATOM     24  F   UNL A   1      32.452  23.283  27.599  1.00  0.00    -0.167 F 
ATOM     25  F   UNL A   1      33.708  21.520  27.766  1.00  0.00    -0.167 F 
ATOM     26  F   UNL A   1      34.265  23.112  26.395  1.00  0.00    -0.167 F 
ENDBRANCH  16  23
ENDBRANCH   3   6
ENDBRANCH   1   2
BRANCH   1  27
ATOM     27  C   UNL A   1      37.746  20.069  24.800  1.00  0.00     0.042 C 
BRANCH  27  28
ATOM     28  C   UNL A   1      38.871  20.474  25.744  1.00  0.00     0.118 C 
BRANCH  28  29
ATOM     29  N   UNL A   1      39.924  19.460  25.811  1.00  0.00    -0.352 N 
ATOM     30  C   UNL A   1      41.265  19.584  26.082  1.00  0.00     0.251 C 
ATOM     31  H   UNL A   1      39.622  18.541  25.635  1.00  0.00     0.163 HD
ATOM     32  O   UNL A   1      42.023  18.647  25.855  1.00  0.00    -0.269 OA
BRANCH  30  33
ATOM     33  C   UNL A   1      41.796  20.850  26.624  1.00  0.00     0.039 A 
ATOM     34  C   UNL A   1      41.874  21.043  28.002  1.00  0.00     0.014 A 
ATOM     35  C   UNL A   1      42.216  21.856  25.749  1.00  0.00     0.014 A 
ATOM     36  C   UNL A   1      42.166  22.304  28.502  1.00  0.00     0.010 A 
ATOM     37  C   UNL A   1      42.622  23.091  26.260  1.00  0.00     0.010 A 
ATOM     38  C   UNL A   1      42.543  23.344  27.638  1.00  0.00    -0.014 A 
BRANCH  38  39
ATOM     39  C   UNL A   1      42.834  24.683  28.212  1.00  0.00     0.031 A 
ATOM     40  C   UNL A   1      44.251  25.119  28.466  1.00  0.00     0.074 A 
ATOM     41  C   UNL A   1      41.816  25.538  28.423  1.00  0.00     0.049 A 
ATOM     42  N   UNL A   1      44.694  26.268  28.915  1.00  0.00    -0.248 NA
ATOM     43  C   UNL A   1      45.312  24.139  28.189  1.00  0.00     0.031 C 
ATOM     44  C   UNL A   1      40.401  25.238  28.192  1.00  0.00     0.029 A 
ATOM     45  N   UNL A   1      41.814  26.845  28.833  1.00  0.00    -0.354 N 
ATOM     46  C   UNL A   1      46.075  26.136  29.004  1.00  0.00     0.074 A 
ATOM     47  C   UNL A   1      46.396  24.789  28.585  1.00  0.00     0.031 C 
ATOM     48  C   UNL A   1      39.679  26.351  28.379  1.00  0.00     0.029 A 
ATOM     49  C   UNL A   1      40.566  27.421  28.819  1.00  0.00     0.049 A 
ATOM     50  H   UNL A   1      42.628  27.326  29.111  1.00  0.00     0.167 HD
ATOM     51  C   UNL A   1      46.992  27.056  29.391  1.00  0.00     0.037 A 
ATOM     52  C   UNL A   1      40.179  28.669  29.133  1.00  0.00     0.037 A 
ATOM     53  C   UNL A   1      46.669  28.405  29.779  1.00  0.00     0.049 A 
ATOM     54  C   UNL A   1      41.209  29.650  29.610  1.00  0.00     0.074 A 
ATOM     55  C   UNL A   1      47.527  29.426  30.152  1.00  0.00     0.029 A 
ATOM     56  N   UNL A   1      45.384  28.921  29.845  1.00  0.00    -0.354 N 
ATOM     57  N   UNL A   1      42.510  29.512  29.687  1.00  0.00    -0.248 NA
ATOM     58  C   UNL A   1      40.708  30.952  30.068  1.00  0.00     0.031 C 
ATOM     59  C   UNL A   1      46.755  30.545  30.486  1.00  0.00     0.029 A 
ATOM     60  C   UNL A   1      45.421  30.235  30.281  1.00  0.00     0.049 A 
ATOM     61  H   UNL A   1      44.565  28.425  29.615  1.00  0.00     0.167 HD
ATOM     62  C   UNL A   1      42.987  30.713  30.190  1.00  0.00     0.074 A 
ATOM     63  C   UNL A   1      41.836  31.574  30.380  1.00  0.00     0.031 C 
ATOM     64  C   UNL A   1      44.263  31.071  30.475  1.00  0.00     0.037 A 
BRANCH  51  65
ATOM     65  C   UNL A   1      48.426  26.613  29.447  1.00  0.00     0.057 A 
ATOM     66  C   UNL A   1      49.276  26.821  28.353  1.00  0.00     0.134 A 
ATOM     67  C   UNL A   1      48.972  25.990  30.577  1.00  0.00     0.134 A 
ATOM     68  F   UNL A   1      48.817  27.407  27.236  1.00  0.00    -0.206 F 
ATOM     69  C   UNL A   1      50.616  26.435  28.384  1.00  0.00     0.040 A 
ATOM     70  C   UNL A   1      50.319  25.624  30.630  1.00  0.00     0.040 A 
ATOM     71  F   UNL A   1      48.218  25.777  31.666  1.00  0.00    -0.206 F 
ATOM     72  C   UNL A   1      51.145  25.843  29.529  1.00  0.00     0.006 A 
ENDBRANCH  51  65
BRANCH  52  73
ATOM     73  C   UNL A   1      38.754  29.058  29.008  1.00  0.00     0.057 A 
ATOM     74  C   UNL A   1      37.874  28.984  30.094  1.00  0.00     0.134 A 
ATOM     75  C   UNL A   1      38.238  29.506  27.788  1.00  0.00     0.134 A 
ATOM     76  F   UNL A   1      38.309  28.557  31.289  1.00  0.00    -0.206 F 
ATOM     77  C   UNL A   1      36.527  29.324  29.967  1.00  0.00     0.040 A 
ATOM     78  C   UNL A   1      36.899  29.874  27.652  1.00  0.00     0.040 A 
ATOM     79  F   UNL A   1      39.037  29.616  26.716  1.00  0.00    -0.206 F 
ATOM     80  C   UNL A   1      36.038  29.776  28.744  1.00  0.00     0.006 A 
ENDBRANCH  52  73
BRANCH  64  81
ATOM     81  C   UNL A   1      44.468  32.459  31.004  1.00  0.00     0.057 A 
ATOM     82  C   UNL A   1      44.651  33.537  30.130  1.00  0.00     0.134 A 
ATOM     83  C   UNL A   1      44.482  32.728  32.378  1.00  0.00     0.134 A 
ATOM     84  F   UNL A   1      44.652  33.345  28.802  1.00  0.00    -0.206 F 
ATOM     85  C   UNL A   1      44.836  34.836  30.604  1.00  0.00     0.040 A 
ATOM     86  C   UNL A   1      44.643  34.026  32.865  1.00  0.00     0.040 A 
ATOM     87  F   UNL A   1      44.293  31.739  33.266  1.00  0.00    -0.206 F 
ATOM     88  C   UNL A   1      44.824  35.084  31.975  1.00  0.00     0.006 A 
ENDBRANCH  64  81
ENDBRANCH  38  39
ENDBRANCH  30  33
ENDBRANCH  28  29
ENDBRANCH  27  28
ENDBRANCH   1  27
TORSDOF 14
ENDMDL
MODEL 2
REMARK VINA RESULT:     -12.0      1.992      2.588
REMARK SMILES CC[N@@H+](C)Cc1cc2c(cc1Cl)C=C(C(=O)NCCCNC(=O)c1ccc(-c3c4nc(c(-c5c(F)cccc5F)c5ccc([nH]5)c(-c5c(F)cccc5F)c5nc(c(-c6c(F)cccc6F)c6ccc3[nH]6)C=C5)C=C4)cc1)[C@@H](C(F)(F)F)O2
REMARK SMILES IDX 18 1 17 2 15 3 16 4 14 6 6 7 7 8 11 9 8 10 10 11 12 12 9 13
REMARK SMILES IDX 83 14 13 15 78 16 5 17 3 18 4 19 2 21 1 22 79 23 80 24 81 25
REMARK SMILES IDX 82 26 19 27 20 28 21 29 22 30 23 32 24 33 25 34 77 35 26 36
REMARK SMILES IDX 76 37 27 38 28 39 29 40 70 41 30 42 75 43 69 44 71 45 31 46
REMARK SMILES IDX 74 47 68 48 67 49 32 51 58 52 41 53 57 54 42 55 45 56 56 57
REMARK SMILES IDX 72 58 43 59 44 60 55 62 73 63 46 64 33 65 34 66 39 67 35 68
REMARK SMILES IDX 36 69 38 70 40 71 37 72 59 73 60 74 65 75 61 76 62 77 64 78
REMARK SMILES IDX 66 79 63 80 47 81 48 82 53 83 49 84 50 85 52 86 54 87 51 88
REMARK H PARENT 17 5 3 20 21 31 71 50 45 61
REMARK Flexibility Score: inf
ROOT
ATOM      1  C   UNL A   1      37.049  20.798  24.669  1.00  0.00     0.118 C 
ENDROOT
BRANCH   1   2
ATOM      2  N   UNL A   1      35.947  20.905  25.614  1.00  0.00    -0.352 N 
ATOM      3  C   UNL A   1      34.922  21.754  25.853  1.00  0.00     0.251 C 
ATOM      4  O   UNL A   1      34.223  21.470  26.829  1.00  0.00    -0.270 OA
ATOM      5  H   UNL A   1      35.949  20.156  26.253  1.00  0.00     0.163 HD
BRANCH   3   6
ATOM      6  C   UNL A   1      34.594  22.956  25.033  1.00  0.00     0.067 C 
ATOM      7  C   UNL A   1      33.170  27.553  23.539  1.00  0.00     0.029 A 
ATOM      8  C   UNL A   1      33.601  26.387  22.883  1.00  0.00     0.058 A 
ATOM      9  C   UNL A   1      33.319  27.612  24.935  1.00  0.00     0.050 A 
ATOM     10  C   UNL A   1      34.041  25.282  23.601  1.00  0.00     0.128 A 
ATOM     11  C   UNL A   1      33.773  26.497  25.655  1.00  0.00     0.033 A 
ATOM     12  Cl  UNL A   1      32.986  29.044  25.842  1.00  0.00    -0.084 Cl
ATOM     13  C   UNL A   1      34.103  25.315  24.989  1.00  0.00     0.019 A 
ATOM     14  O   UNL A   1      34.418  24.193  22.873  1.00  0.00    -0.475 OA
ATOM     15  C   UNL A   1      34.513  24.117  25.709  1.00  0.00     0.025 C 
ATOM     16  C   UNL A   1      34.311  22.914  23.556  1.00  0.00     0.314 C 
BRANCH   7  17
ATOM     17  C   UNL A   1      32.539  28.651  22.702  1.00  0.00     0.300 C 
BRANCH  17  18
ATOM     18  N   UNL A   1      31.073  28.593  22.525  1.00  0.00    -0.334 N 
ATOM     19  C   UNL A   1      30.365  29.504  23.422  1.00  0.00     0.333 C 
ATOM     20  H   UNL A   1      30.951  28.905  21.561  1.00  0.00     0.348 HD
BRANCH  18  21
ATOM     21  C   UNL A   1      30.468  27.255  22.571  1.00  0.00     0.258 C 
ATOM     22  C   UNL A   1      29.569  27.039  23.782  1.00  0.00     0.071 C 
ENDBRANCH  18  21
ENDBRANCH  17  18
ENDBRANCH   7  17
BRANCH  16  23
ATOM     23  C   UNL A   1      32.949  22.280  23.211  1.00  0.00     0.429 C 
ATOM     24  F   UNL A   1      31.976  22.803  23.999  1.00  0.00    -0.167 F 
ATOM     25  F   UNL A   1      32.570  22.513  21.932  1.00  0.00    -0.167 F 
ATOM     26  F   UNL A   1      32.935  20.940  23.387  1.00  0.00    -0.167 F 
ENDBRANCH  16  23
ENDBRANCH   3   6
ENDBRANCH   1   2
BRANCH   1  27
ATOM     27  C   UNL A   1      37.980  19.647  25.014  1.00  0.00     0.042 C 
BRANCH  27  28
ATOM     28  C   UNL A   1      39.208  20.111  25.787  1.00  0.00     0.118 C 
BRANCH  28  29
ATOM     29  N   UNL A   1      40.210  19.052  25.914  1.00  0.00    -0.352 N 
ATOM     30  C   UNL A   1      41.569  19.127  26.102  1.00  0.00     0.251 C 
ATOM     31  H   UNL A   1      39.851  18.138  25.857  1.00  0.00     0.163 HD
ATOM     32  O   UNL A   1      42.264  18.129  25.943  1.00  0.00    -0.269 OA
BRANCH  30  33
ATOM     33  C   UNL A   1      42.194  20.412  26.472  1.00  0.00     0.039 A 
ATOM     34  C   UNL A   1      42.210  20.825  27.803  1.00  0.00     0.014 A 
ATOM     35  C   UNL A   1      42.766  21.214  25.481  1.00  0.00     0.014 A 
ATOM     36  C   UNL A   1      42.599  22.119  28.114  1.00  0.00     0.010 A 
ATOM     37  C   UNL A   1      43.266  22.476  25.817  1.00  0.00     0.010 A 
ATOM     38  C   UNL A   1      43.132  22.961  27.127  1.00  0.00    -0.014 A 
BRANCH  38  39
ATOM     39  C   UNL A   1      43.524  24.345  27.498  1.00  0.00     0.031 A 
ATOM     40  C   UNL A   1      44.939  24.820  27.310  1.00  0.00     0.074 A 
ATOM     41  C   UNL A   1      42.576  25.200  27.927  1.00  0.00     0.049 A 
ATOM     42  N   UNL A   1      45.449  26.006  27.532  1.00  0.00    -0.248 NA
ATOM     43  C   UNL A   1      45.913  23.836  26.813  1.00  0.00     0.031 C 
ATOM     44  C   UNL A   1      41.165  24.862  28.128  1.00  0.00     0.029 A 
ATOM     45  N   UNL A   1      42.643  26.535  28.227  1.00  0.00    -0.354 N 
ATOM     46  C   UNL A   1      46.802  25.901  27.236  1.00  0.00     0.074 A 
ATOM     47  C   UNL A   1      47.041  24.531  26.840  1.00  0.00     0.031 C 
ATOM     48  C   UNL A   1      40.485  25.976  28.431  1.00  0.00     0.029 A 
ATOM     49  C   UNL A   1      41.422  27.089  28.526  1.00  0.00     0.049 A 
ATOM     50  H   UNL A   1      43.484  27.047  28.229  1.00  0.00     0.167 HD
ATOM     51  C   UNL A   1      47.758  26.862  27.282  1.00  0.00     0.037 A 
ATOM     52  C   UNL A   1      41.094  28.352  28.848  1.00  0.00     0.037 A 
ATOM     53  C   UNL A   1      47.509  28.233  27.648  1.00  0.00     0.049 A 
ATOM     54  C   UNL A   1      42.180  29.382  28.943  1.00  0.00     0.074 A 
ATOM     55  C   UNL A   1      48.400  29.292  27.690  1.00  0.00     0.029 A 
ATOM     56  N   UNL A   1      46.276  28.734  28.038  1.00  0.00    -0.354 N 
ATOM     57  N   UNL A   1      43.454  29.270  28.658  1.00  0.00    -0.248 NA
ATOM     58  C   UNL A   1      41.782  30.709  29.430  1.00  0.00     0.031 C 
ATOM     59  C   UNL A   1      47.714  30.423  28.149  1.00  0.00     0.029 A 
ATOM     60  C   UNL A   1      46.387  30.078  28.352  1.00  0.00     0.049 A 
ATOM     61  H   UNL A   1      45.444  28.209  28.085  1.00  0.00     0.167 HD
ATOM     62  C   UNL A   1      44.011  30.513  28.920  1.00  0.00     0.074 A 
ATOM     63  C   UNL A   1      42.929  31.370  29.366  1.00  0.00     0.031 C 
ATOM     64  C   UNL A   1      45.302  30.910  28.806  1.00  0.00     0.037 A 
BRANCH  51  65
ATOM     65  C   UNL A   1      49.164  26.446  26.961  1.00  0.00     0.057 A 
ATOM     66  C   UNL A   1      49.683  26.629  25.672  1.00  0.00     0.134 A 
ATOM     67  C   UNL A   1      50.010  25.871  27.919  1.00  0.00     0.134 A 
ATOM     68  F   UNL A   1      48.926  27.169  24.705  1.00  0.00    -0.206 F 
ATOM     69  C   UNL A   1      50.991  26.267  25.351  1.00  0.00     0.040 A 
ATOM     70  C   UNL A   1      51.331  25.529  27.617  1.00  0.00     0.040 A 
ATOM     71  F   UNL A   1      49.584  25.683  29.177  1.00  0.00    -0.206 F 
ATOM     72  C   UNL A   1      51.824  25.724  26.328  1.00  0.00     0.006 A 
ENDBRANCH  51  65
BRANCH  52  73
ATOM     73  C   UNL A   1      39.678  28.711  29.103  1.00  0.00     0.057 A 
ATOM     74  C   UNL A   1      39.108  28.591  30.376  1.00  0.00     0.134 A 
ATOM     75  C   UNL A   1      38.858  29.174  28.069  1.00  0.00     0.134 A 
ATOM     76  F   UNL A   1      39.843  28.147  31.407  1.00  0.00    -0.206 F 
ATOM     77  C   UNL A   1      37.768  28.901  30.609  1.00  0.00     0.040 A 
ATOM     78  C   UNL A   1      37.523  29.513  28.292  1.00  0.00     0.040 A 
ATOM     79  F   UNL A   1      39.352  29.327  26.832  1.00  0.00    -0.206 F 
ATOM     80  C   UNL A   1      36.973  29.369  29.565  1.00  0.00     0.006 A 
ENDBRANCH  52  73
BRANCH  64  81
ATOM     81  C   UNL A   1      45.598  32.338  29.156  1.00  0.00     0.057 A 
ATOM     82  C   UNL A   1      45.991  32.689  30.453  1.00  0.00     0.134 A 
ATOM     83  C   UNL A   1      45.497  33.363  28.208  1.00  0.00     0.134 A 
ATOM     84  F   UNL A   1      46.102  31.754  31.408  1.00  0.00    -0.206 F 
ATOM     85  C   UNL A   1      46.276  34.011  30.794  1.00  0.00     0.040 A 
ATOM     86  C   UNL A   1      45.803  34.686  28.530  1.00  0.00     0.040 A 
ATOM     87  F   UNL A   1      45.144  33.087  26.943  1.00  0.00    -0.206 F 
ATOM     88  C   UNL A   1      46.191  35.013  29.829  1.00  0.00     0.006 A 
ENDBRANCH  64  81
ENDBRANCH  38  39
ENDBRANCH  30  33
ENDBRANCH  28  29
ENDBRANCH  27  28
ENDBRANCH   1  27
TORSDOF 14
ENDMDL
MODEL 3
REMARK VINA RESULT:     -12.0      4.451      9.534
REMARK SMILES CC[N@@H+](C)Cc1cc2c(cc1Cl)C=C(C(=O)NCCCNC(=O)c1ccc(-c3c4nc(c(-c5c(F)cccc5F)c5ccc([nH]5)c(-c5c(F)cccc5F)c5nc(c(-c6c(F)cccc6F)c6ccc3[nH]6)C=C5)C=C4)cc1)[C@@H](C(F)(F)F)O2
REMARK SMILES IDX 18 1 17 2 15 3 16 4 14 6 6 7 7 8 11 9 8 10 10 11 12 12 9 13
REMARK SMILES IDX 83 14 13 15 78 16 5 17 3 18 4 19 2 21 1 22 79 23 80 24 81 25
REMARK SMILES IDX 82 26 19 27 20 28 21 29 22 30 23 32 24 33 25 34 77 35 26 36
REMARK SMILES IDX 76 37 27 38 28 39 29 40 70 41 30 42 75 43 69 44 71 45 31 46
REMARK SMILES IDX 74 47 68 48 67 49 32 51 58 52 41 53 57 54 42 55 45 56 56 57
REMARK SMILES IDX 72 58 43 59 44 60 55 62 73 63 46 64 33 65 34 66 39 67 35 68
REMARK SMILES IDX 36 69 38 70 40 71 37 72 59 73 60 74 65 75 61 76 62 77 64 78
REMARK SMILES IDX 66 79 63 80 47 81 48 82 53 83 49 84 50 85 52 86 54 87 51 88
REMARK H PARENT 17 5 3 20 21 31 71 50 45 61
REMARK Flexibility Score: inf
ROOT
ATOM      1  C   UNL A   1      31.638  30.575  26.452  1.00  0.00     0.118 C 
ENDROOT
BRANCH   1   2
ATOM      2  N   UNL A   1      31.675  30.114  25.073  1.00  0.00    -0.352 N 
ATOM      3  C   UNL A   1      31.832  28.938  24.423  1.00  0.00     0.251 C 
ATOM      4  O   UNL A   1      31.840  29.018  23.191  1.00  0.00    -0.270 OA
ATOM      5  H   UNL A   1      31.554  30.859  24.441  1.00  0.00     0.163 HD
BRANCH   3   6
ATOM      6  C   UNL A   1      31.975  27.607  25.079  1.00  0.00     0.067 C 
ATOM      7  C   UNL A   1      33.632  23.062  26.494  1.00  0.00     0.029 A 
ATOM      8  C   UNL A   1      32.505  23.845  26.799  1.00  0.00     0.058 A 
ATOM      9  C   UNL A   1      34.686  23.676  25.797  1.00  0.00     0.050 A 
ATOM     10  C   UNL A   1      32.384  25.143  26.317  1.00  0.00     0.128 A 
ATOM     11  C   UNL A   1      34.563  24.990  25.321  1.00  0.00     0.033 A 
ATOM     12  Cl  UNL A   1      36.192  22.880  25.506  1.00  0.00    -0.084 Cl
ATOM     13  C   UNL A   1      33.393  25.716  25.552  1.00  0.00     0.019 A 
ATOM     14  O   UNL A   1      31.243  25.813  26.651  1.00  0.00    -0.475 OA
ATOM     15  C   UNL A   1      33.202  27.057  25.016  1.00  0.00     0.025 C 
ATOM     16  C   UNL A   1      30.841  26.864  25.732  1.00  0.00     0.314 C 
BRANCH   7  17
ATOM     17  C   UNL A   1      33.617  21.601  26.903  1.00  0.00     0.300 C 
BRANCH  17  18
ATOM     18  N   UNL A   1      33.102  20.637  25.909  1.00  0.00    -0.334 N 
ATOM     19  C   UNL A   1      34.164  20.060  25.086  1.00  0.00     0.333 C 
ATOM     20  H   UNL A   1      32.694  19.907  26.495  1.00  0.00     0.348 HD
BRANCH  18  21
ATOM     21  C   UNL A   1      31.997  21.108  25.063  1.00  0.00     0.258 C 
ATOM     22  C   UNL A   1      32.407  21.363  23.618  1.00  0.00     0.071 C 
ENDBRANCH  18  21
ENDBRANCH  17  18
ENDBRANCH   7  17
BRANCH  16  23
ATOM     23  C   UNL A   1      29.829  26.283  24.725  1.00  0.00     0.429 C 
ATOM     24  F   UNL A   1      28.837  25.630  25.383  1.00  0.00    -0.167 F 
ATOM     25  F   UNL A   1      29.227  27.236  23.975  1.00  0.00    -0.167 F 
ATOM     26  F   UNL A   1      30.391  25.404  23.866  1.00  0.00    -0.167 F 
ENDBRANCH  16  23
ENDBRANCH   3   6
ENDBRANCH   1   2
BRANCH   1  27
ATOM     27  C   UNL A   1      31.505  32.087  26.539  1.00  0.00     0.042 C 
BRANCH  27  28
ATOM     28  C   UNL A   1      32.694  32.731  27.241  1.00  0.00     0.118 C 
BRANCH  28  29
ATOM     29  N   UNL A   1      32.433  34.126  27.596  1.00  0.00    -0.352 N 
ATOM     30  C   UNL A   1      32.988  34.917  28.573  1.00  0.00     0.251 C 
ATOM     31  H   UNL A   1      31.751  34.570  27.044  1.00  0.00     0.163 HD
ATOM     32  O   UNL A   1      32.463  35.988  28.863  1.00  0.00    -0.269 OA
BRANCH  30  33
ATOM     33  C   UNL A   1      34.200  34.470  29.286  1.00  0.00     0.039 A 
ATOM     34  C   UNL A   1      35.459  34.677  28.726  1.00  0.00     0.014 A 
ATOM     35  C   UNL A   1      34.078  33.834  30.525  1.00  0.00     0.014 A 
ATOM     36  C   UNL A   1      36.569  34.066  29.291  1.00  0.00     0.010 A 
ATOM     37  C   UNL A   1      35.216  33.320  31.153  1.00  0.00     0.010 A 
ATOM     38  C   UNL A   1      36.463  33.381  30.511  1.00  0.00    -0.014 A 
BRANCH  38  39
ATOM     39  C   UNL A   1      37.672  32.729  31.075  1.00  0.00     0.031 A 
ATOM     40  C   UNL A   1      38.219  33.151  32.412  1.00  0.00     0.074 A 
ATOM     41  C   UNL A   1      38.226  31.694  30.414  1.00  0.00     0.049 A 
ATOM     42  N   UNL A   1      39.235  32.661  33.081  1.00  0.00    -0.248 NA
ATOM     43  C   UNL A   1      37.547  34.272  33.086  1.00  0.00     0.031 C 
ATOM     44  C   UNL A   1      37.769  31.179  29.121  1.00  0.00     0.029 A 
ATOM     45  N   UNL A   1      39.259  30.862  30.757  1.00  0.00    -0.354 N 
ATOM     46  C   UNL A   1      39.341  33.433  34.231  1.00  0.00     0.074 A 
ATOM     47  C   UNL A   1      38.303  34.438  34.161  1.00  0.00     0.031 C 
ATOM     48  C   UNL A   1      38.459  30.070  28.822  1.00  0.00     0.029 A 
ATOM     49  C   UNL A   1      39.458  29.841  29.859  1.00  0.00     0.049 A 
ATOM     50  H   UNL A   1      39.805  30.984  31.567  1.00  0.00     0.167 HD
ATOM     51  C   UNL A   1      40.218  33.309  35.257  1.00  0.00     0.037 A 
ATOM     52  C   UNL A   1      40.350  28.837  29.867  1.00  0.00     0.037 A 
ATOM     53  C   UNL A   1      41.231  32.288  35.337  1.00  0.00     0.049 A 
ATOM     54  C   UNL A   1      41.344  28.757  30.988  1.00  0.00     0.074 A 
ATOM     55  C   UNL A   1      42.145  32.054  36.350  1.00  0.00     0.029 A 
ATOM     56  N   UNL A   1      41.464  31.331  34.361  1.00  0.00    -0.354 N 
ATOM     57  N   UNL A   1      41.431  29.491  32.070  1.00  0.00    -0.248 NA
ATOM     58  C   UNL A   1      42.379  27.721  30.872  1.00  0.00     0.031 C 
ATOM     59  C   UNL A   1      42.959  30.982  35.965  1.00  0.00     0.029 A 
ATOM     60  C   UNL A   1      42.526  30.522  34.732  1.00  0.00     0.049 A 
ATOM     61  H   UNL A   1      40.949  31.240  33.526  1.00  0.00     0.167 HD
ATOM     62  C   UNL A   1      42.523  29.001  32.771  1.00  0.00     0.074 A 
ATOM     63  C   UNL A   1      43.052  27.892  32.001  1.00  0.00     0.031 C 
ATOM     64  C   UNL A   1      43.045  29.432  33.946  1.00  0.00     0.037 A 
BRANCH  51  65
ATOM     65  C   UNL A   1      40.138  34.331  36.355  1.00  0.00     0.057 A 
ATOM     66  C   UNL A   1      40.861  35.528  36.265  1.00  0.00     0.134 A 
ATOM     67  C   UNL A   1      39.345  34.142  37.495  1.00  0.00     0.134 A 
ATOM     68  F   UNL A   1      41.644  35.772  35.204  1.00  0.00    -0.206 F 
ATOM     69  C   UNL A   1      40.791  36.501  37.262  1.00  0.00     0.040 A 
ATOM     70  C   UNL A   1      39.246  35.121  38.487  1.00  0.00     0.040 A 
ATOM     71  F   UNL A   1      38.612  33.026  37.636  1.00  0.00    -0.206 F 
ATOM     72  C   UNL A   1      39.974  36.304  38.373  1.00  0.00     0.006 A 
ENDBRANCH  51  65
BRANCH  52  73
ATOM     73  C   UNL A   1      40.344  27.829  28.780  1.00  0.00     0.057 A 
ATOM     74  C   UNL A   1      41.064  28.024  27.594  1.00  0.00     0.134 A 
ATOM     75  C   UNL A   1      39.606  26.647  28.900  1.00  0.00     0.134 A 
ATOM     76  F   UNL A   1      41.787  29.140  27.417  1.00  0.00    -0.206 F 
ATOM     77  C   UNL A   1      41.035  27.088  26.560  1.00  0.00     0.040 A 
ATOM     78  C   UNL A   1      39.588  25.690  27.885  1.00  0.00     0.040 A 
ATOM     79  F   UNL A   1      38.912  26.396  30.020  1.00  0.00    -0.206 F 
ATOM     80  C   UNL A   1      40.299  25.914  26.707  1.00  0.00     0.006 A 
ENDBRANCH  52  73
BRANCH  64  81
ATOM     81  C   UNL A   1      44.236  28.684  34.465  1.00  0.00     0.057 A 
ATOM     82  C   UNL A   1      44.072  27.547  35.266  1.00  0.00     0.134 A 
ATOM     83  C   UNL A   1      45.544  29.087  34.170  1.00  0.00     0.134 A 
ATOM     84  F   UNL A   1      42.845  27.111  35.588  1.00  0.00    -0.206 F 
ATOM     85  C   UNL A   1      45.169  26.835  35.752  1.00  0.00     0.040 A 
ATOM     86  C   UNL A   1      46.649  28.370  34.630  1.00  0.00     0.040 A 
ATOM     87  F   UNL A   1      45.765  30.157  33.391  1.00  0.00    -0.206 F 
ATOM     88  C   UNL A   1      46.462  27.242  35.427  1.00  0.00     0.006 A 
ENDBRANCH  64  81
ENDBRANCH  38  39
ENDBRANCH  30  33
ENDBRANCH  28  29
ENDBRANCH  27  28
ENDBRANCH   1  27
TORSDOF 14
ENDMDL
