MODEL 1
REMARK VINA RESULT:     -13.1      0.000      0.000
REMARK SMILES Cc1cccc(CC(=O)N2CCCC[C@@H]2C(=O)NCCCNC(=O)c2ccc(-c3c4nc(c(-c5c(F)cccc5F)c5ccc([nH]5)c(-c5c(F)cccc5F)c5nc(c(-c6c(F)cccc6F)c6ccc3[nH]6)C=C5)C=C4)cc2)c1
REMARK SMILES IDX 19 1 18 2 16 3 17 4 15 6 10 7 11 8 12 9 14 10 13 11 8 12
REMARK SMILES IDX 9 13 7 14 6 15 1 16 2 17 3 18 79 19 4 20 5 21 20 22 21 23
REMARK SMILES IDX 22 24 23 25 24 27 25 28 26 29 78 30 27 31 77 32 28 33 29 34
REMARK SMILES IDX 30 35 71 36 31 37 76 38 70 39 72 40 32 41 75 42 69 43 68 44
REMARK SMILES IDX 33 46 59 47 42 48 58 49 43 50 46 51 57 52 73 53 44 54 45 55
REMARK SMILES IDX 56 57 74 58 47 59 34 60 35 61 40 62 36 63 37 64 39 65 41 66
REMARK SMILES IDX 38 67 60 68 61 69 66 70 62 71 63 72 65 73 67 74 64 75 48 76
REMARK SMILES IDX 49 77 54 78 50 79 51 80 53 81 55 82 52 83
REMARK H PARENT 18 5 22 26 72 45 46 56
REMARK Flexibility Score: inf
ROOT
ATOM      1  C   UNL A   1      31.833  29.905  25.834  1.00  0.00     0.117 C 
ENDROOT
BRANCH   1   2
ATOM      2  N   UNL A   1      32.756  29.812  24.711  1.00  0.00    -0.354 N 
ATOM      3  C   UNL A   1      33.046  28.760  23.886  1.00  0.00     0.242 C 
ATOM      4  O   UNL A   1      34.010  28.891  23.123  1.00  0.00    -0.273 OA
ATOM      5  H   UNL A   1      33.252  30.639  24.515  1.00  0.00     0.163 HD
BRANCH   3   6
ATOM      6  C   UNL A   1      32.400  27.364  24.079  1.00  0.00     0.174 C 
ATOM      7  N   UNL A   1      30.927  27.284  23.912  1.00  0.00    -0.330 N 
ATOM      8  C   UNL A   1      30.210  26.288  24.704  1.00  0.00     0.120 C 
ATOM      9  C   UNL A   1      30.608  26.279  26.166  1.00  0.00     0.022 C 
ATOM     10  C   UNL A   1      32.889  27.019  25.518  1.00  0.00     0.035 C 
ATOM     11  C   UNL A   1      32.089  25.980  26.278  1.00  0.00     0.004 C 
BRANCH   7  12
ATOM     12  C   UNL A   1      30.199  27.799  22.839  1.00  0.00     0.227 C 
ATOM     13  O   UNL A   1      30.724  27.874  21.719  1.00  0.00    -0.275 OA
BRANCH  12  14
ATOM     14  C   UNL A   1      28.836  28.434  23.055  1.00  0.00     0.135 C 
BRANCH  14  15
ATOM     15  C   UNL A   1      28.714  29.912  22.833  1.00  0.00    -0.038 A 
ATOM     16  C   UNL A   1      27.815  32.243  19.955  1.00  0.00     0.044 C 
ATOM     17  C   UNL A   1      28.208  31.757  21.317  1.00  0.00    -0.051 A 
ATOM     18  C   UNL A   1      28.619  32.660  22.299  1.00  0.00     0.003 A 
ATOM     19  C   UNL A   1      28.264  30.386  21.591  1.00  0.00     0.007 A 
ATOM     20  C   UNL A   1      29.017  32.196  23.551  1.00  0.00     0.001 A 
ATOM     21  C   UNL A   1      29.032  30.833  23.835  1.00  0.00     0.004 A 
ENDBRANCH  14  15
ENDBRANCH  12  14
ENDBRANCH   7  12
ENDBRANCH   3   6
ENDBRANCH   1   2
BRANCH   1  22
ATOM     22  C   UNL A   1      32.340  30.851  26.910  1.00  0.00     0.042 C 
BRANCH  22  23
ATOM     23  C   UNL A   1      33.716  30.464  27.422  1.00  0.00     0.118 C 
BRANCH  23  24
ATOM     24  N   UNL A   1      34.310  31.430  28.338  1.00  0.00    -0.352 N 
ATOM     25  C   UNL A   1      35.471  31.339  29.094  1.00  0.00     0.251 C 
ATOM     26  H   UNL A   1      33.814  32.274  28.437  1.00  0.00     0.163 HD
ATOM     27  O   UNL A   1      35.785  32.247  29.836  1.00  0.00    -0.269 OA
BRANCH  25  28
ATOM     28  C   UNL A   1      36.405  30.201  28.877  1.00  0.00     0.039 A 
ATOM     29  C   UNL A   1      36.643  29.344  29.960  1.00  0.00     0.014 A 
ATOM     30  C   UNL A   1      37.184  30.099  27.729  1.00  0.00     0.014 A 
ATOM     31  C   UNL A   1      37.814  28.592  29.994  1.00  0.00     0.010 A 
ATOM     32  C   UNL A   1      38.399  29.454  27.805  1.00  0.00     0.010 A 
ATOM     33  C   UNL A   1      38.743  28.761  28.968  1.00  0.00    -0.014 A 
BRANCH  33  34
ATOM     34  C   UNL A   1      40.147  28.395  29.098  1.00  0.00     0.031 A 
ATOM     35  C   UNL A   1      40.652  27.126  28.555  1.00  0.00     0.074 A 
ATOM     36  C   UNL A   1      40.999  29.280  29.659  1.00  0.00     0.049 A 
ATOM     37  N   UNL A   1      41.676  26.496  29.019  1.00  0.00    -0.248 NA
ATOM     38  C   UNL A   1      39.989  26.435  27.459  1.00  0.00     0.031 C 
ATOM     39  C   UNL A   1      42.458  29.255  29.644  1.00  0.00     0.029 A 
ATOM     40  N   UNL A   1      40.685  30.301  30.553  1.00  0.00    -0.354 N 
ATOM     41  C   UNL A   1      41.977  25.486  28.133  1.00  0.00     0.074 A 
ATOM     42  C   UNL A   1      40.855  25.446  27.222  1.00  0.00     0.031 C 
ATOM     43  C   UNL A   1      42.907  29.992  30.672  1.00  0.00     0.029 A 
ATOM     44  C   UNL A   1      41.751  30.400  31.455  1.00  0.00     0.049 A 
ATOM     45  H   UNL A   1      39.868  30.850  30.550  1.00  0.00     0.167 HD
ATOM     46  C   UNL A   1      43.208  24.895  28.178  1.00  0.00     0.037 A 
ATOM     47  C   UNL A   1      41.612  30.271  32.805  1.00  0.00     0.037 A 
ATOM     48  C   UNL A   1      44.017  25.445  29.267  1.00  0.00     0.049 A 
ATOM     49  C   UNL A   1      42.433  29.124  33.346  1.00  0.00     0.074 A 
ATOM     50  C   UNL A   1      44.984  26.439  29.289  1.00  0.00     0.029 A 
ATOM     51  N   UNL A   1      43.660  25.218  30.593  1.00  0.00    -0.354 N 
ATOM     52  N   UNL A   1      42.946  28.188  32.596  1.00  0.00    -0.248 NA
ATOM     53  C   UNL A   1      42.683  28.902  34.768  1.00  0.00     0.031 C 
ATOM     54  C   UNL A   1      45.154  26.860  30.630  1.00  0.00     0.029 A 
ATOM     55  C   UNL A   1      44.311  26.108  31.430  1.00  0.00     0.049 A 
ATOM     56  H   UNL A   1      43.031  24.523  30.893  1.00  0.00     0.167 HD
ATOM     57  C   UNL A   1      43.531  27.240  33.387  1.00  0.00     0.074 A 
ATOM     58  C   UNL A   1      43.362  27.741  34.738  1.00  0.00     0.031 C 
ATOM     59  C   UNL A   1      44.077  26.104  32.866  1.00  0.00     0.037 A 
BRANCH  46  60
ATOM     60  C   UNL A   1      43.775  24.092  27.025  1.00  0.00     0.057 A 
ATOM     61  C   UNL A   1      44.519  24.714  26.002  1.00  0.00     0.134 A 
ATOM     62  C   UNL A   1      43.564  22.717  26.822  1.00  0.00     0.134 A 
ATOM     63  F   UNL A   1      44.936  25.982  26.104  1.00  0.00    -0.206 F 
ATOM     64  C   UNL A   1      44.878  24.062  24.814  1.00  0.00     0.040 A 
ATOM     65  C   UNL A   1      43.863  22.065  25.616  1.00  0.00     0.040 A 
ATOM     66  F   UNL A   1      43.110  21.929  27.806  1.00  0.00    -0.206 F 
ATOM     67  C   UNL A   1      44.507  22.746  24.595  1.00  0.00     0.006 A 
ENDBRANCH  46  60
BRANCH  47  68
ATOM     68  C   UNL A   1      40.273  30.663  33.317  1.00  0.00     0.057 A 
ATOM     69  C   UNL A   1      39.986  32.031  33.472  1.00  0.00     0.134 A 
ATOM     70  C   UNL A   1      39.185  29.784  33.259  1.00  0.00     0.134 A 
ATOM     71  F   UNL A   1      40.984  32.925  33.539  1.00  0.00    -0.206 F 
ATOM     72  C   UNL A   1      38.677  32.516  33.441  1.00  0.00     0.040 A 
ATOM     73  C   UNL A   1      37.869  30.259  33.237  1.00  0.00     0.040 A 
ATOM     74  F   UNL A   1      39.379  28.472  33.070  1.00  0.00    -0.206 F 
ATOM     75  C   UNL A   1      37.614  31.630  33.288  1.00  0.00     0.006 A 
ENDBRANCH  47  68
BRANCH  59  76
ATOM     76  C   UNL A   1      44.513  24.925  33.685  1.00  0.00     0.057 A 
ATOM     77  C   UNL A   1      43.627  24.123  34.420  1.00  0.00     0.134 A 
ATOM     78  C   UNL A   1      45.846  24.473  33.634  1.00  0.00     0.134 A 
ATOM     79  F   UNL A   1      42.314  24.388  34.460  1.00  0.00    -0.206 F 
ATOM     80  C   UNL A   1      44.050  22.980  35.107  1.00  0.00     0.040 A 
ATOM     81  C   UNL A   1      46.271  23.306  34.276  1.00  0.00     0.040 A 
ATOM     82  F   UNL A   1      46.785  25.136  32.942  1.00  0.00    -0.206 F 
ATOM     83  C   UNL A   1      45.374  22.562  35.028  1.00  0.00     0.006 A 
ENDBRANCH  59  76
ENDBRANCH  33  34
ENDBRANCH  25  28
ENDBRANCH  23  24
ENDBRANCH  22  23
ENDBRANCH   1  22
TORSDOF 13
ENDMDL
MODEL 2
REMARK VINA RESULT:     -12.9      4.343      9.345
REMARK SMILES Cc1cccc(CC(=O)N2CCCC[C@@H]2C(=O)NCCCNC(=O)c2ccc(-c3c4nc(c(-c5c(F)cccc5F)c5ccc([nH]5)c(-c5c(F)cccc5F)c5nc(c(-c6c(F)cccc6F)c6ccc3[nH]6)C=C5)C=C4)cc2)c1
REMARK SMILES IDX 19 1 18 2 16 3 17 4 15 6 10 7 11 8 12 9 14 10 13 11 8 12
REMARK SMILES IDX 9 13 7 14 6 15 1 16 2 17 3 18 79 19 4 20 5 21 20 22 21 23
REMARK SMILES IDX 22 24 23 25 24 27 25 28 26 29 78 30 27 31 77 32 28 33 29 34
REMARK SMILES IDX 30 35 71 36 31 37 76 38 70 39 72 40 32 41 75 42 69 43 68 44
REMARK SMILES IDX 33 46 59 47 42 48 58 49 43 50 46 51 57 52 73 53 44 54 45 55
REMARK SMILES IDX 56 57 74 58 47 59 34 60 35 61 40 62 36 63 37 64 39 65 41 66
REMARK SMILES IDX 38 67 60 68 61 69 66 70 62 71 63 72 65 73 67 74 64 75 48 76
REMARK SMILES IDX 49 77 54 78 50 79 51 80 53 81 55 82 52 83
REMARK H PARENT 18 5 22 26 72 45 46 56
REMARK Flexibility Score: inf
ROOT
ATOM      1  C   UNL A   1      37.676  21.575  25.137  1.00  0.00     0.117 C 
ENDROOT
BRANCH   1   2
ATOM      2  N   UNL A   1      36.604  21.557  26.123  1.00  0.00    -0.354 N 
ATOM      3  C   UNL A   1      35.254  21.404  25.963  1.00  0.00     0.242 C 
ATOM      4  O   UNL A   1      34.541  21.615  26.951  1.00  0.00    -0.273 OA
ATOM      5  H   UNL A   1      36.898  21.676  27.055  1.00  0.00     0.163 HD
BRANCH   3   6
ATOM      6  C   UNL A   1      34.606  21.258  24.562  1.00  0.00     0.174 C 
ATOM      7  N   UNL A   1      34.110  22.504  23.926  1.00  0.00    -0.330 N 
ATOM      8  C   UNL A   1      32.954  22.397  23.040  1.00  0.00     0.120 C 
ATOM      9  C   UNL A   1      31.821  21.578  23.623  1.00  0.00     0.022 C 
ATOM     10  C   UNL A   1      33.485  20.221  24.873  1.00  0.00     0.035 C 
ATOM     11  C   UNL A   1      32.316  20.174  23.909  1.00  0.00     0.004 C 
BRANCH   7  12
ATOM     12  C   UNL A   1      34.826  23.695  23.796  1.00  0.00     0.227 C 
ATOM     13  O   UNL A   1      35.611  23.840  22.849  1.00  0.00    -0.275 OA
BRANCH  12  14
ATOM     14  C   UNL A   1      34.796  24.746  24.893  1.00  0.00     0.135 C 
BRANCH  14  15
ATOM     15  C   UNL A   1      33.681  25.749  24.864  1.00  0.00    -0.038 A 
ATOM     16  C   UNL A   1      31.939  28.066  27.338  1.00  0.00     0.044 C 
ATOM     17  C   UNL A   1      32.301  27.367  26.063  1.00  0.00    -0.051 A 
ATOM     18  C   UNL A   1      31.509  27.516  24.924  1.00  0.00     0.003 A 
ATOM     19  C   UNL A   1      33.381  26.478  26.026  1.00  0.00     0.007 A 
ATOM     20  C   UNL A   1      31.833  26.833  23.754  1.00  0.00     0.001 A 
ATOM     21  C   UNL A   1      32.933  25.981  23.707  1.00  0.00     0.004 A 
ENDBRANCH  14  15
ENDBRANCH  12  14
ENDBRANCH   7  12
ENDBRANCH   3   6
ENDBRANCH   1   2
BRANCH   1  22
ATOM     22  C   UNL A   1      39.047  21.621  25.791  1.00  0.00     0.042 C 
BRANCH  22  23
ATOM     23  C   UNL A   1      39.309  22.938  26.500  1.00  0.00     0.118 C 
BRANCH  23  24
ATOM     24  N   UNL A   1      40.721  23.267  26.656  1.00  0.00    -0.352 N 
ATOM     25  C   UNL A   1      41.328  24.500  26.850  1.00  0.00     0.251 C 
ATOM     26  H   UNL A   1      41.336  22.501  26.617  1.00  0.00     0.163 HD
ATOM     27  O   UNL A   1      42.538  24.577  26.920  1.00  0.00    -0.269 OA
BRANCH  25  28
ATOM     28  C   UNL A   1      40.491  25.700  27.125  1.00  0.00     0.039 A 
ATOM     29  C   UNL A   1      40.760  26.860  26.386  1.00  0.00     0.014 A 
ATOM     30  C   UNL A   1      39.623  25.756  28.211  1.00  0.00     0.014 A 
ATOM     31  C   UNL A   1      40.383  28.100  26.896  1.00  0.00     0.010 A 
ATOM     32  C   UNL A   1      39.352  26.981  28.782  1.00  0.00     0.010 A 
ATOM     33  C   UNL A   1      39.796  28.148  28.160  1.00  0.00    -0.014 A 
BRANCH  33  34
ATOM     34  C   UNL A   1      39.764  29.355  28.976  1.00  0.00     0.031 A 
ATOM     35  C   UNL A   1      38.697  30.352  28.808  1.00  0.00     0.074 A 
ATOM     36  C   UNL A   1      40.689  29.507  29.947  1.00  0.00     0.049 A 
ATOM     37  N   UNL A   1      38.828  31.606  29.079  1.00  0.00    -0.248 NA
ATOM     38  C   UNL A   1      37.394  30.008  28.260  1.00  0.00     0.031 C 
ATOM     39  C   UNL A   1      40.689  30.470  31.043  1.00  0.00     0.029 A 
ATOM     40  N   UNL A   1      41.952  28.923  30.006  1.00  0.00    -0.354 N 
ATOM     41  C   UNL A   1      37.577  32.177  29.013  1.00  0.00     0.074 A 
ATOM     42  C   UNL A   1      36.735  31.157  28.429  1.00  0.00     0.031 C 
ATOM     43  C   UNL A   1      41.950  30.621  31.478  1.00  0.00     0.029 A 
ATOM     44  C   UNL A   1      42.813  29.864  30.584  1.00  0.00     0.049 A 
ATOM     45  H   UNL A   1      42.194  28.020  29.700  1.00  0.00     0.167 HD
ATOM     46  C   UNL A   1      37.361  33.393  29.595  1.00  0.00     0.037 A 
ATOM     47  C   UNL A   1      43.942  30.328  29.977  1.00  0.00     0.037 A 
ATOM     48  C   UNL A   1      38.594  33.926  30.177  1.00  0.00     0.049 A 
ATOM     49  C   UNL A   1      43.895  31.824  29.775  1.00  0.00     0.074 A 
ATOM     50  C   UNL A   1      39.096  33.893  31.469  1.00  0.00     0.029 A 
ATOM     51  N   UNL A   1      39.652  34.306  29.356  1.00  0.00    -0.354 N 
ATOM     52  N   UNL A   1      42.802  32.530  29.869  1.00  0.00    -0.248 NA
ATOM     53  C   UNL A   1      45.050  32.629  29.386  1.00  0.00     0.031 C 
ATOM     54  C   UNL A   1      40.481  34.184  31.412  1.00  0.00     0.029 A 
ATOM     55  C   UNL A   1      40.820  34.419  30.091  1.00  0.00     0.049 A 
ATOM     56  H   UNL A   1      39.580  34.469  28.388  1.00  0.00     0.167 HD
ATOM     57  C   UNL A   1      43.066  33.825  29.522  1.00  0.00     0.074 A 
ATOM     58  C   UNL A   1      44.491  33.845  29.250  1.00  0.00     0.031 C 
ATOM     59  C   UNL A   1      42.082  34.767  29.455  1.00  0.00     0.037 A 
BRANCH  46  60
ATOM     60  C   UNL A   1      35.976  33.905  29.935  1.00  0.00     0.057 A 
ATOM     61  C   UNL A   1      35.108  34.377  28.929  1.00  0.00     0.134 A 
ATOM     62  C   UNL A   1      35.462  34.031  31.238  1.00  0.00     0.134 A 
ATOM     63  F   UNL A   1      35.373  34.203  27.629  1.00  0.00    -0.206 F 
ATOM     64  C   UNL A   1      33.913  35.056  29.208  1.00  0.00     0.040 A 
ATOM     65  C   UNL A   1      34.300  34.759  31.537  1.00  0.00     0.040 A 
ATOM     66  F   UNL A   1      36.032  33.404  32.276  1.00  0.00    -0.206 F 
ATOM     67  C   UNL A   1      33.529  35.294  30.517  1.00  0.00     0.006 A 
ENDBRANCH  46  60
BRANCH  47  68
ATOM     68  C   UNL A   1      44.555  29.368  29.022  1.00  0.00     0.057 A 
ATOM     69  C   UNL A   1      45.405  28.367  29.526  1.00  0.00     0.134 A 
ATOM     70  C   UNL A   1      44.018  29.167  27.745  1.00  0.00     0.134 A 
ATOM     71  F   UNL A   1      45.956  28.501  30.742  1.00  0.00    -0.206 F 
ATOM     72  C   UNL A   1      45.607  27.163  28.847  1.00  0.00     0.040 A 
ATOM     73  C   UNL A   1      44.222  27.969  27.053  1.00  0.00     0.040 A 
ATOM     74  F   UNL A   1      43.167  30.057  27.217  1.00  0.00    -0.206 F 
ATOM     75  C   UNL A   1      44.986  26.948  27.620  1.00  0.00     0.006 A 
ENDBRANCH  47  68
BRANCH  59  76
ATOM     76  C   UNL A   1      42.258  36.131  28.854  1.00  0.00     0.057 A 
ATOM     77  C   UNL A   1      42.935  37.178  29.495  1.00  0.00     0.134 A 
ATOM     78  C   UNL A   1      41.867  36.381  27.524  1.00  0.00     0.134 A 
ATOM     79  F   UNL A   1      43.449  37.028  30.724  1.00  0.00    -0.206 F 
ATOM     80  C   UNL A   1      43.158  38.413  28.876  1.00  0.00     0.040 A 
ATOM     81  C   UNL A   1      42.126  37.594  26.878  1.00  0.00     0.040 A 
ATOM     82  F   UNL A   1      41.235  35.450  26.792  1.00  0.00    -0.206 F 
ATOM     83  C   UNL A   1      42.762  38.620  27.560  1.00  0.00     0.006 A 
ENDBRANCH  59  76
ENDBRANCH  33  34
ENDBRANCH  25  28
ENDBRANCH  23  24
ENDBRANCH  22  23
ENDBRANCH   1  22
TORSDOF 13
ENDMDL
MODEL 3
REMARK VINA RESULT:     -12.8      1.826      3.961
REMARK SMILES Cc1cccc(CC(=O)N2CCCC[C@@H]2C(=O)NCCCNC(=O)c2ccc(-c3c4nc(c(-c5c(F)cccc5F)c5ccc([nH]5)c(-c5c(F)cccc5F)c5nc(c(-c6c(F)cccc6F)c6ccc3[nH]6)C=C5)C=C4)cc2)c1
REMARK SMILES IDX 19 1 18 2 16 3 17 4 15 6 10 7 11 8 12 9 14 10 13 11 8 12
REMARK SMILES IDX 9 13 7 14 6 15 1 16 2 17 3 18 79 19 4 20 5 21 20 22 21 23
REMARK SMILES IDX 22 24 23 25 24 27 25 28 26 29 78 30 27 31 77 32 28 33 29 34
REMARK SMILES IDX 30 35 71 36 31 37 76 38 70 39 72 40 32 41 75 42 69 43 68 44
REMARK SMILES IDX 33 46 59 47 42 48 58 49 43 50 46 51 57 52 73 53 44 54 45 55
REMARK SMILES IDX 56 57 74 58 47 59 34 60 35 61 40 62 36 63 37 64 39 65 41 66
REMARK SMILES IDX 38 67 60 68 61 69 66 70 62 71 63 72 65 73 67 74 64 75 48 76
REMARK SMILES IDX 49 77 54 78 50 79 51 80 53 81 55 82 52 83
REMARK H PARENT 18 5 22 26 72 45 46 56
REMARK Flexibility Score: inf
ROOT
ATOM      1  C   UNL A   1      32.796  30.629  26.533  1.00  0.00     0.117 C 
ENDROOT
BRANCH   1   2
ATOM      2  N   UNL A   1      33.272  30.024  25.297  1.00  0.00    -0.354 N 
ATOM      3  C   UNL A   1      32.703  29.072  24.498  1.00  0.00     0.242 C 
ATOM      4  O   UNL A   1      33.406  28.595  23.599  1.00  0.00    -0.273 OA
ATOM      5  H   UNL A   1      34.147  30.354  24.986  1.00  0.00     0.163 HD
BRANCH   3   6
ATOM      6  C   UNL A   1      31.353  28.400  24.858  1.00  0.00     0.174 C 
ATOM      7  N   UNL A   1      31.400  26.961  25.216  1.00  0.00    -0.330 N 
ATOM      8  C   UNL A   1      30.234  26.144  24.890  1.00  0.00     0.120 C 
ATOM      9  C   UNL A   1      29.726  26.353  23.478  1.00  0.00     0.022 C 
ATOM     10  C   UNL A   1      30.531  28.701  23.568  1.00  0.00     0.035 C 
ATOM     11  C   UNL A   1      29.338  27.806  23.298  1.00  0.00     0.004 C 
BRANCH   7  12
ATOM     12  C   UNL A   1      32.274  26.377  26.134  1.00  0.00     0.227 C 
ATOM     13  O   UNL A   1      33.005  27.096  26.828  1.00  0.00    -0.275 OA
BRANCH  12  14
ATOM     14  C   UNL A   1      32.471  24.871  26.173  1.00  0.00     0.135 C 
BRANCH  14  15
ATOM     15  C   UNL A   1      33.498  24.280  25.253  1.00  0.00    -0.038 A 
ATOM     16  C   UNL A   1      37.260  23.670  25.284  1.00  0.00     0.044 C 
ATOM     17  C   UNL A   1      35.830  23.694  24.835  1.00  0.00    -0.051 A 
ATOM     18  C   UNL A   1      35.493  23.338  23.528  1.00  0.00     0.003 A 
ATOM     19  C   UNL A   1      34.828  24.168  25.688  1.00  0.00     0.007 A 
ATOM     20  C   UNL A   1      34.165  23.399  23.109  1.00  0.00     0.001 A 
ATOM     21  C   UNL A   1      33.164  23.832  23.973  1.00  0.00     0.004 A 
ENDBRANCH  14  15
ENDBRANCH  12  14
ENDBRANCH   7  12
ENDBRANCH   3   6
ENDBRANCH   1   2
BRANCH   1  22
ATOM     22  C   UNL A   1      33.774  30.426  27.679  1.00  0.00     0.042 C 
BRANCH  22  23
ATOM     23  C   UNL A   1      35.104  31.117  27.437  1.00  0.00     0.118 C 
BRANCH  23  24
ATOM     24  N   UNL A   1      35.707  31.697  28.631  1.00  0.00    -0.352 N 
ATOM     25  C   UNL A   1      36.627  31.150  29.514  1.00  0.00     0.251 C 
ATOM     26  H   UNL A   1      35.418  32.613  28.843  1.00  0.00     0.163 HD
ATOM     27  O   UNL A   1      36.987  31.785  30.485  1.00  0.00    -0.269 OA
BRANCH  25  28
ATOM     28  C   UNL A   1      37.285  29.855  29.188  1.00  0.00     0.039 A 
ATOM     29  C   UNL A   1      37.485  28.949  30.238  1.00  0.00     0.014 A 
ATOM     30  C   UNL A   1      37.878  29.624  27.951  1.00  0.00     0.014 A 
ATOM     31  C   UNL A   1      38.481  27.982  30.127  1.00  0.00     0.010 A 
ATOM     32  C   UNL A   1      38.943  28.753  27.876  1.00  0.00     0.010 A 
ATOM     33  C   UNL A   1      39.288  27.985  28.990  1.00  0.00    -0.014 A 
BRANCH  33  34
ATOM     34  C   UNL A   1      40.598  27.350  28.943  1.00  0.00     0.031 A 
ATOM     35  C   UNL A   1      40.738  25.931  28.587  1.00  0.00     0.074 A 
ATOM     36  C   UNL A   1      41.695  28.108  29.156  1.00  0.00     0.049 A 
ATOM     37  N   UNL A   1      41.707  25.177  28.982  1.00  0.00    -0.248 NA
ATOM     38  C   UNL A   1      39.744  25.232  27.787  1.00  0.00     0.031 C 
ATOM     39  C   UNL A   1      43.088  27.765  28.890  1.00  0.00     0.029 A 
ATOM     40  N   UNL A   1      41.768  29.304  29.866  1.00  0.00    -0.354 N 
ATOM     41  C   UNL A   1      41.625  23.996  28.279  1.00  0.00     0.074 A 
ATOM     42  C   UNL A   1      40.347  24.053  27.606  1.00  0.00     0.031 C 
ATOM     43  C   UNL A   1      43.871  28.544  29.653  1.00  0.00     0.029 A 
ATOM     44  C   UNL A   1      43.000  29.314  30.529  1.00  0.00     0.049 A 
ATOM     45  H   UNL A   1      41.082  30.009  29.896  1.00  0.00     0.167 HD
ATOM     46  C   UNL A   1      42.709  23.168  28.226  1.00  0.00     0.037 A 
ATOM     47  C   UNL A   1      43.131  29.439  31.880  1.00  0.00     0.037 A 
ATOM     48  C   UNL A   1      43.817  23.698  29.022  1.00  0.00     0.049 A 
ATOM     49  C   UNL A   1      43.827  28.244  32.489  1.00  0.00     0.074 A 
ATOM     50  C   UNL A   1      44.930  24.449  28.673  1.00  0.00     0.029 A 
ATOM     51  N   UNL A   1      43.715  23.772  30.408  1.00  0.00    -0.354 N 
ATOM     52  N   UNL A   1      43.992  27.111  31.865  1.00  0.00    -0.248 NA
ATOM     53  C   UNL A   1      44.329  28.206  33.860  1.00  0.00     0.031 C 
ATOM     54  C   UNL A   1      45.455  25.035  29.851  1.00  0.00     0.029 A 
ATOM     55  C   UNL A   1      44.679  24.623  30.921  1.00  0.00     0.049 A 
ATOM     56  H   UNL A   1      43.050  23.288  30.949  1.00  0.00     0.167 HD
ATOM     57  C   UNL A   1      44.551  26.200  32.716  1.00  0.00     0.074 A 
ATOM     58  C   UNL A   1      44.766  26.937  33.946  1.00  0.00     0.031 C 
ATOM     59  C   UNL A   1      44.759  24.903  32.347  1.00  0.00     0.037 A 
BRANCH  46  60
ATOM     60  C   UNL A   1      42.864  22.085  27.177  1.00  0.00     0.057 A 
ATOM     61  C   UNL A   1      42.111  20.895  27.243  1.00  0.00     0.134 A 
ATOM     62  C   UNL A   1      43.790  22.117  26.119  1.00  0.00     0.134 A 
ATOM     63  F   UNL A   1      41.088  20.753  28.095  1.00  0.00    -0.206 F 
ATOM     64  C   UNL A   1      42.369  19.782  26.431  1.00  0.00     0.040 A 
ATOM     65  C   UNL A   1      44.101  20.994  25.338  1.00  0.00     0.040 A 
ATOM     66  F   UNL A   1      44.393  23.257  25.756  1.00  0.00    -0.206 F 
ATOM     67  C   UNL A   1      43.401  19.810  25.508  1.00  0.00     0.006 A 
ENDBRANCH  46  60
BRANCH  47  68
ATOM     68  C   UNL A   1      42.025  30.190  32.529  1.00  0.00     0.057 A 
ATOM     69  C   UNL A   1      42.052  31.595  32.491  1.00  0.00     0.134 A 
ATOM     70  C   UNL A   1      40.794  29.581  32.803  1.00  0.00     0.134 A 
ATOM     71  F   UNL A   1      43.202  32.240  32.239  1.00  0.00    -0.206 F 
ATOM     72  C   UNL A   1      40.886  32.356  32.592  1.00  0.00     0.040 A 
ATOM     73  C   UNL A   1      39.621  30.336  32.915  1.00  0.00     0.040 A 
ATOM     74  F   UNL A   1      40.682  28.246  32.813  1.00  0.00    -0.206 F 
ATOM     75  C   UNL A   1      39.659  31.723  32.771  1.00  0.00     0.006 A 
ENDBRANCH  47  68
BRANCH  59  76
ATOM     76  C   UNL A   1      45.139  23.806  33.298  1.00  0.00     0.057 A 
ATOM     77  C   UNL A   1      46.418  23.673  33.856  1.00  0.00     0.134 A 
ATOM     78  C   UNL A   1      44.161  22.922  33.796  1.00  0.00     0.134 A 
ATOM     79  F   UNL A   1      47.409  24.521  33.542  1.00  0.00    -0.206 F 
ATOM     80  C   UNL A   1      46.721  22.690  34.805  1.00  0.00     0.040 A 
ATOM     81  C   UNL A   1      44.439  21.968  34.778  1.00  0.00     0.040 A 
ATOM     82  F   UNL A   1      42.892  22.965  33.363  1.00  0.00    -0.206 F 
ATOM     83  C   UNL A   1      45.727  21.840  35.276  1.00  0.00     0.006 A 
ENDBRANCH  59  76
ENDBRANCH  33  34
ENDBRANCH  25  28
ENDBRANCH  23  24
ENDBRANCH  22  23
ENDBRANCH   1  22
TORSDOF 13
ENDMDL
