MODEL 1
REMARK VINA RESULT:     -11.2      0.000      0.000
REMARK SMILES CC[C@@](C)(NS(=O)(=O)c1ccc(F)c(F)c1)C(=O)NCCCNC(=O)c1ccc(-c2c3nc(c(-c4c(F)cccc4F)c4ccc([nH]4)c(-c4c(F)cccc4F)c4nc(c(-c5c(F)cccc5F)c5ccc2[nH]5)C=C4)C=C3)cc1
REMARK SMILES IDX 20 1 19 2 17 3 18 4 3 6 4 7 2 8 1 9 5 10 6 12 7 13 8 14 9 15
REMARK SMILES IDX 10 16 16 17 11 18 14 19 12 20 15 21 13 22 21 23 22 24 23 25
REMARK SMILES IDX 24 26 25 28 26 29 27 30 79 31 28 32 78 33 29 34 30 35 31 36
REMARK SMILES IDX 72 37 32 38 77 39 71 40 73 41 33 42 76 43 70 44 69 45 34 47
REMARK SMILES IDX 60 48 43 49 59 50 44 51 47 52 58 53 74 54 45 55 46 56 57 58
REMARK SMILES IDX 75 59 48 60 35 61 36 62 41 63 37 64 38 65 40 66 42 67 39 68
REMARK SMILES IDX 61 69 62 70 67 71 63 72 64 73 66 74 68 75 65 76 49 77 50 78
REMARK SMILES IDX 55 79 51 80 52 81 54 82 56 83 53 84
REMARK H PARENT 19 5 5 11 23 27 73 46 47 57
REMARK Flexibility Score: inf
ROOT
ATOM      1  C   UNL A   1      37.433  21.228  25.137  1.00  0.00     0.117 C 
ENDROOT
BRANCH   1   2
ATOM      2  N   UNL A   1      36.987  21.906  23.919  1.00  0.00    -0.354 N 
ATOM      3  C   UNL A   1      36.187  22.975  23.622  1.00  0.00     0.241 C 
ATOM      4  O   UNL A   1      36.493  23.519  22.550  1.00  0.00    -0.273 OA
ATOM      5  H   UNL A   1      37.356  21.486  23.108  1.00  0.00     0.163 HD
BRANCH   3   6
ATOM      6  C   UNL A   1      34.902  23.433  24.373  1.00  0.00     0.108 C 
ATOM      7  C   UNL A   1      35.211  23.937  25.783  1.00  0.00     0.040 C 
BRANCH   6   8
ATOM      8  C   UNL A   1      34.171  24.617  23.598  1.00  0.00     0.030 C 
ATOM      9  C   UNL A   1      33.957  25.969  24.253  1.00  0.00     0.006 C 
ENDBRANCH   6   8
BRANCH   6  10
ATOM     10  N   UNL A   1      33.784  22.443  24.358  1.00  0.00    -0.196 NA
ATOM     11  H   UNL A   1      33.901  21.961  23.467  1.00  0.00     0.142 HD
BRANCH  10  12
ATOM     12  S   UNL A   1      33.376  21.238  25.399  1.00  0.00     0.241 S 
ATOM     13  O   UNL A   1      34.278  21.283  26.518  1.00  0.00    -0.207 OA
ATOM     14  O   UNL A   1      31.955  21.444  25.603  1.00  0.00    -0.207 OA
BRANCH  12  15
ATOM     15  C   UNL A   1      33.497  19.652  24.601  1.00  0.00     0.085 A 
ATOM     16  C   UNL A   1      34.620  18.865  24.904  1.00  0.00     0.025 A 
ATOM     17  C   UNL A   1      32.553  19.158  23.706  1.00  0.00     0.064 A 
ATOM     18  C   UNL A   1      34.829  17.646  24.249  1.00  0.00     0.044 A 
ATOM     19  C   UNL A   1      32.807  17.986  22.998  1.00  0.00     0.160 A 
ATOM     20  C   UNL A   1      33.939  17.233  23.266  1.00  0.00     0.158 A 
ATOM     21  F   UNL A   1      31.965  17.616  22.023  1.00  0.00    -0.204 F 
ATOM     22  F   UNL A   1      34.189  16.116  22.571  1.00  0.00    -0.204 F 
ENDBRANCH  12  15
ENDBRANCH  10  12
ENDBRANCH   6  10
ENDBRANCH   3   6
ENDBRANCH   1   2
BRANCH   1  23
ATOM     23  C   UNL A   1      38.420  20.047  25.017  1.00  0.00     0.042 C 
BRANCH  23  24
ATOM     24  C   UNL A   1      39.275  19.626  26.214  1.00  0.00     0.118 C 
BRANCH  24  25
ATOM     25  N   UNL A   1      40.532  18.996  25.851  1.00  0.00    -0.352 N 
ATOM     26  C   UNL A   1      41.816  19.494  25.902  1.00  0.00     0.251 C 
ATOM     27  H   UNL A   1      40.455  18.073  25.519  1.00  0.00     0.163 HD
ATOM     28  O   UNL A   1      42.743  18.804  25.478  1.00  0.00    -0.269 OA
BRANCH  26  29
ATOM     29  C   UNL A   1      42.120  20.854  26.420  1.00  0.00     0.039 A 
ATOM     30  C   UNL A   1      42.042  21.066  27.802  1.00  0.00     0.014 A 
ATOM     31  C   UNL A   1      42.370  21.939  25.577  1.00  0.00     0.014 A 
ATOM     32  C   UNL A   1      42.253  22.344  28.337  1.00  0.00     0.010 A 
ATOM     33  C   UNL A   1      42.616  23.216  26.119  1.00  0.00     0.010 A 
ATOM     34  C   UNL A   1      42.562  23.435  27.506  1.00  0.00    -0.014 A 
BRANCH  34  35
ATOM     35  C   UNL A   1      42.829  24.781  28.105  1.00  0.00     0.031 A 
ATOM     36  C   UNL A   1      44.219  25.200  28.515  1.00  0.00     0.074 A 
ATOM     37  C   UNL A   1      41.814  25.654  28.274  1.00  0.00     0.049 A 
ATOM     38  N   UNL A   1      44.629  26.347  29.004  1.00  0.00    -0.248 NA
ATOM     39  C   UNL A   1      45.286  24.201  28.367  1.00  0.00     0.031 C 
ATOM     40  C   UNL A   1      40.412  25.388  27.950  1.00  0.00     0.029 A 
ATOM     41  N   UNL A   1      41.802  26.943  28.756  1.00  0.00    -0.354 N 
ATOM     42  C   UNL A   1      45.996  26.209  29.219  1.00  0.00     0.074 A 
ATOM     43  C   UNL A   1      46.336  24.849  28.853  1.00  0.00     0.031 C 
ATOM     44  C   UNL A   1      39.684  26.485  28.214  1.00  0.00     0.029 A 
ATOM     45  C   UNL A   1      40.555  27.522  28.759  1.00  0.00     0.049 A 
ATOM     46  H   UNL A   1      42.612  27.407  29.069  1.00  0.00     0.167 HD
ATOM     47  C   UNL A   1      46.890  27.129  29.661  1.00  0.00     0.037 A 
ATOM     48  C   UNL A   1      40.150  28.746  29.156  1.00  0.00     0.037 A 
ATOM     49  C   UNL A   1      46.565  28.487  30.023  1.00  0.00     0.049 A 
ATOM     50  C   UNL A   1      41.156  29.737  29.678  1.00  0.00     0.074 A 
ATOM     51  C   UNL A   1      47.420  29.498  30.434  1.00  0.00     0.029 A 
ATOM     52  N   UNL A   1      45.287  29.023  30.033  1.00  0.00    -0.354 N 
ATOM     53  N   UNL A   1      42.454  29.609  29.805  1.00  0.00    -0.248 NA
ATOM     54  C   UNL A   1      40.639  31.046  30.105  1.00  0.00     0.031 C 
ATOM     55  C   UNL A   1      46.654  30.624  30.748  1.00  0.00     0.029 A 
ATOM     56  C   UNL A   1      45.327  30.339  30.473  1.00  0.00     0.049 A 
ATOM     57  H   UNL A   1      44.470  28.541  29.767  1.00  0.00     0.167 HD
ATOM     58  C   UNL A   1      42.910  30.828  30.294  1.00  0.00     0.074 A 
ATOM     59  C   UNL A   1      41.754  31.687  30.428  1.00  0.00     0.031 C 
ATOM     60  C   UNL A   1      44.178  31.198  30.602  1.00  0.00     0.037 A 
BRANCH  47  61
ATOM     61  C   UNL A   1      48.327  26.700  29.785  1.00  0.00     0.057 A 
ATOM     62  C   UNL A   1      48.811  26.059  30.934  1.00  0.00     0.134 A 
ATOM     63  C   UNL A   1      49.222  26.874  28.721  1.00  0.00     0.134 A 
ATOM     64  F   UNL A   1      48.010  25.861  31.991  1.00  0.00    -0.206 F 
ATOM     65  C   UNL A   1      50.138  25.636  31.030  1.00  0.00     0.040 A 
ATOM     66  C   UNL A   1      50.544  26.427  28.794  1.00  0.00     0.040 A 
ATOM     67  F   UNL A   1      48.822  27.463  27.584  1.00  0.00    -0.206 F 
ATOM     68  C   UNL A   1      51.007  25.813  29.955  1.00  0.00     0.006 A 
ENDBRANCH  47  61
BRANCH  48  69
ATOM     69  C   UNL A   1      38.712  29.117  29.070  1.00  0.00     0.057 A 
ATOM     70  C   UNL A   1      38.153  29.592  27.878  1.00  0.00     0.134 A 
ATOM     71  C   UNL A   1      37.870  29.028  30.186  1.00  0.00     0.134 A 
ATOM     72  F   UNL A   1      38.913  29.725  26.781  1.00  0.00    -0.206 F 
ATOM     73  C   UNL A   1      36.814  29.984  27.803  1.00  0.00     0.040 A 
ATOM     74  C   UNL A   1      36.523  29.388  30.116  1.00  0.00     0.040 A 
ATOM     75  F   UNL A   1      38.343  28.578  31.358  1.00  0.00    -0.206 F 
ATOM     76  C   UNL A   1      35.995  29.877  28.923  1.00  0.00     0.006 A 
ENDBRANCH  48  69
BRANCH  60  77
ATOM     77  C   UNL A   1      44.394  32.607  31.079  1.00  0.00     0.057 A 
ATOM     78  C   UNL A   1      44.636  33.665  30.194  1.00  0.00     0.134 A 
ATOM     79  C   UNL A   1      44.321  32.917  32.444  1.00  0.00     0.134 A 
ATOM     80  F   UNL A   1      44.730  33.440  28.874  1.00  0.00    -0.206 F 
ATOM     81  C   UNL A   1      44.824  34.972  30.649  1.00  0.00     0.040 A 
ATOM     82  C   UNL A   1      44.479  34.224  32.910  1.00  0.00     0.040 A 
ATOM     83  F   UNL A   1      44.083  31.955  33.349  1.00  0.00    -0.206 F 
ATOM     84  C   UNL A   1      44.738  35.256  32.010  1.00  0.00     0.006 A 
ENDBRANCH  60  77
ENDBRANCH  34  35
ENDBRANCH  26  29
ENDBRANCH  24  25
ENDBRANCH  23  24
ENDBRANCH   1  23
TORSDOF 14
ENDMDL
MODEL 2
REMARK VINA RESULT:     -11.1      2.490      7.391
REMARK SMILES CC[C@@](C)(NS(=O)(=O)c1ccc(F)c(F)c1)C(=O)NCCCNC(=O)c1ccc(-c2c3nc(c(-c4c(F)cccc4F)c4ccc([nH]4)c(-c4c(F)cccc4F)c4nc(c(-c5c(F)cccc5F)c5ccc2[nH]5)C=C4)C=C3)cc1
REMARK SMILES IDX 20 1 19 2 17 3 18 4 3 6 4 7 2 8 1 9 5 10 6 12 7 13 8 14 9 15
REMARK SMILES IDX 10 16 16 17 11 18 14 19 12 20 15 21 13 22 21 23 22 24 23 25
REMARK SMILES IDX 24 26 25 28 26 29 27 30 79 31 28 32 78 33 29 34 30 35 31 36
REMARK SMILES IDX 72 37 32 38 77 39 71 40 73 41 33 42 76 43 70 44 69 45 34 47
REMARK SMILES IDX 60 48 43 49 59 50 44 51 47 52 58 53 74 54 45 55 46 56 57 58
REMARK SMILES IDX 75 59 48 60 35 61 36 62 41 63 37 64 38 65 40 66 42 67 39 68
REMARK SMILES IDX 61 69 62 70 67 71 63 72 64 73 66 74 68 75 65 76 49 77 50 78
REMARK SMILES IDX 55 79 51 80 52 81 54 82 56 83 53 84
REMARK H PARENT 19 5 5 11 23 27 73 46 47 57
REMARK Flexibility Score: inf
ROOT
ATOM      1  C   UNL A   1      33.044  27.076  24.623  1.00  0.00     0.117 C 
ENDROOT
BRANCH   1   2
ATOM      2  N   UNL A   1      33.811  25.946  24.098  1.00  0.00    -0.354 N 
ATOM      3  C   UNL A   1      33.524  24.768  23.464  1.00  0.00     0.241 C 
ATOM      4  O   UNL A   1      34.453  24.374  22.743  1.00  0.00    -0.273 OA
ATOM      5  H   UNL A   1      34.779  26.064  24.234  1.00  0.00     0.163 HD
BRANCH   3   6
ATOM      6  C   UNL A   1      32.286  23.851  23.688  1.00  0.00     0.108 C 
ATOM      7  C   UNL A   1      30.977  24.560  23.341  1.00  0.00     0.040 C 
BRANCH   6   8
ATOM      8  C   UNL A   1      32.367  22.541  22.786  1.00  0.00     0.030 C 
ATOM      9  C   UNL A   1      32.426  21.159  23.411  1.00  0.00     0.006 C 
ENDBRANCH   6   8
BRANCH   6  10
ATOM     10  N   UNL A   1      32.234  23.189  25.025  1.00  0.00    -0.196 NA
ATOM     11  H   UNL A   1      32.309  22.195  24.805  1.00  0.00     0.142 HD
BRANCH  10  12
ATOM     12  S   UNL A   1      33.167  23.360  26.368  1.00  0.00     0.241 S 
ATOM     13  O   UNL A   1      33.233  24.758  26.696  1.00  0.00    -0.207 OA
ATOM     14  O   UNL A   1      32.577  22.420  27.302  1.00  0.00    -0.207 OA
BRANCH  12  15
ATOM     15  C   UNL A   1      34.809  22.740  26.073  1.00  0.00     0.085 A 
ATOM     16  C   UNL A   1      35.860  23.672  26.087  1.00  0.00     0.025 A 
ATOM     17  C   UNL A   1      35.103  21.401  25.832  1.00  0.00     0.064 A 
ATOM     18  C   UNL A   1      37.165  23.275  25.777  1.00  0.00     0.044 A 
ATOM     19  C   UNL A   1      36.387  21.026  25.443  1.00  0.00     0.160 A 
ATOM     20  C   UNL A   1      37.414  21.957  25.414  1.00  0.00     0.158 A 
ATOM     21  F   UNL A   1      36.610  19.763  25.056  1.00  0.00    -0.204 F 
ATOM     22  F   UNL A   1      38.643  21.597  25.023  1.00  0.00    -0.204 F 
ENDBRANCH  12  15
ENDBRANCH  10  12
ENDBRANCH   6  10
ENDBRANCH   3   6
ENDBRANCH   1   2
BRANCH   1  23
ATOM     23  C   UNL A   1      33.795  28.230  25.321  1.00  0.00     0.042 C 
BRANCH  23  24
ATOM     24  C   UNL A   1      33.845  28.313  26.849  1.00  0.00     0.118 C 
BRANCH  24  25
ATOM     25  N   UNL A   1      33.623  29.647  27.377  1.00  0.00    -0.352 N 
ATOM     26  C   UNL A   1      34.477  30.476  28.071  1.00  0.00     0.251 C 
ATOM     27  H   UNL A   1      32.725  30.016  27.213  1.00  0.00     0.163 HD
ATOM     28  O   UNL A   1      34.058  31.554  28.488  1.00  0.00    -0.269 OA
BRANCH  26  29
ATOM     29  C   UNL A   1      35.884  30.097  28.365  1.00  0.00     0.039 A 
ATOM     30  C   UNL A   1      36.826  30.202  27.334  1.00  0.00     0.014 A 
ATOM     31  C   UNL A   1      36.272  29.543  29.588  1.00  0.00     0.014 A 
ATOM     32  C   UNL A   1      38.151  29.795  27.539  1.00  0.00     0.010 A 
ATOM     33  C   UNL A   1      37.612  29.167  29.803  1.00  0.00     0.010 A 
ATOM     34  C   UNL A   1      38.570  29.289  28.781  1.00  0.00    -0.014 A 
BRANCH  34  35
ATOM     35  C   UNL A   1      40.002  28.904  28.990  1.00  0.00     0.031 A 
ATOM     36  C   UNL A   1      40.975  29.829  29.679  1.00  0.00     0.074 A 
ATOM     37  C   UNL A   1      40.442  27.700  28.569  1.00  0.00     0.049 A 
ATOM     38  N   UNL A   1      42.237  29.629  29.981  1.00  0.00    -0.248 NA
ATOM     39  C   UNL A   1      40.471  31.152  30.071  1.00  0.00     0.031 C 
ATOM     40  C   UNL A   1      39.630  26.707  27.865  1.00  0.00     0.029 A 
ATOM     41  N   UNL A   1      41.677  27.103  28.674  1.00  0.00    -0.354 N 
ATOM     42  C   UNL A   1      42.674  30.795  30.599  1.00  0.00     0.074 A 
ATOM     43  C   UNL A   1      41.556  31.716  30.583  1.00  0.00     0.031 C 
ATOM     44  C   UNL A   1      40.377  25.616  27.628  1.00  0.00     0.029 A 
ATOM     45  C   UNL A   1      41.730  25.842  28.128  1.00  0.00     0.049 A 
ATOM     46  H   UNL A   1      42.450  27.538  29.100  1.00  0.00     0.167 HD
ATOM     47  C   UNL A   1      43.886  31.071  31.146  1.00  0.00     0.037 A 
ATOM     48  C   UNL A   1      42.748  24.962  28.034  1.00  0.00     0.037 A 
ATOM     49  C   UNL A   1      45.005  30.161  31.172  1.00  0.00     0.049 A 
ATOM     50  C   UNL A   1      44.094  25.306  28.615  1.00  0.00     0.074 A 
ATOM     51  C   UNL A   1      46.251  30.345  31.749  1.00  0.00     0.029 A 
ATOM     52  N   UNL A   1      45.022  28.905  30.588  1.00  0.00    -0.354 N 
ATOM     53  N   UNL A   1      44.466  26.385  29.258  1.00  0.00    -0.248 NA
ATOM     54  C   UNL A   1      45.160  24.304  28.463  1.00  0.00     0.031 C 
ATOM     55  C   UNL A   1      47.040  29.226  31.464  1.00  0.00     0.029 A 
ATOM     56  C   UNL A   1      46.266  28.316  30.763  1.00  0.00     0.049 A 
ATOM     57  H   UNL A   1      44.262  28.490  30.117  1.00  0.00     0.167 HD
ATOM     58  C   UNL A   1      45.794  26.179  29.614  1.00  0.00     0.074 A 
ATOM     59  C   UNL A   1      46.160  24.866  29.128  1.00  0.00     0.031 C 
ATOM     60  C   UNL A   1      46.631  27.007  30.285  1.00  0.00     0.037 A 
BRANCH  47  61
ATOM     61  C   UNL A   1      44.076  32.428  31.766  1.00  0.00     0.057 A 
ATOM     62  C   UNL A   1      43.816  32.665  33.123  1.00  0.00     0.134 A 
ATOM     63  C   UNL A   1      44.583  33.497  31.014  1.00  0.00     0.134 A 
ATOM     64  F   UNL A   1      43.329  31.687  33.902  1.00  0.00    -0.206 F 
ATOM     65  C   UNL A   1      44.024  33.919  33.700  1.00  0.00     0.040 A 
ATOM     66  C   UNL A   1      44.823  34.748  31.587  1.00  0.00     0.040 A 
ATOM     67  F   UNL A   1      44.871  33.338  29.713  1.00  0.00    -0.206 F 
ATOM     68  C   UNL A   1      44.536  34.964  32.933  1.00  0.00     0.006 A 
ENDBRANCH  47  61
BRANCH  48  69
ATOM     69  C   UNL A   1      42.538  23.650  27.364  1.00  0.00     0.057 A 
ATOM     70  C   UNL A   1      42.188  22.508  28.093  1.00  0.00     0.134 A 
ATOM     71  C   UNL A   1      42.708  23.505  25.981  1.00  0.00     0.134 A 
ATOM     72  F   UNL A   1      42.036  22.577  29.424  1.00  0.00    -0.206 F 
ATOM     73  C   UNL A   1      42.033  21.265  27.476  1.00  0.00     0.040 A 
ATOM     74  C   UNL A   1      42.526  22.274  25.348  1.00  0.00     0.040 A 
ATOM     75  F   UNL A   1      43.041  24.561  25.224  1.00  0.00    -0.206 F 
ATOM     76  C   UNL A   1      42.197  21.147  26.098  1.00  0.00     0.006 A 
ENDBRANCH  48  69
BRANCH  60  77
ATOM     77  C   UNL A   1      48.020  26.507  30.572  1.00  0.00     0.057 A 
ATOM     78  C   UNL A   1      49.090  26.734  29.697  1.00  0.00     0.134 A 
ATOM     79  C   UNL A   1      48.299  25.820  31.761  1.00  0.00     0.134 A 
ATOM     80  F   UNL A   1      48.894  27.375  28.534  1.00  0.00    -0.206 F 
ATOM     81  C   UNL A   1      50.378  26.273  29.980  1.00  0.00     0.040 A 
ATOM     82  C   UNL A   1      49.587  25.379  32.069  1.00  0.00     0.040 A 
ATOM     83  F   UNL A   1      47.324  25.574  32.651  1.00  0.00    -0.206 F 
ATOM     84  C   UNL A   1      50.631  25.600  31.173  1.00  0.00     0.006 A 
ENDBRANCH  60  77
ENDBRANCH  34  35
ENDBRANCH  26  29
ENDBRANCH  24  25
ENDBRANCH  23  24
ENDBRANCH   1  23
TORSDOF 14
ENDMDL
MODEL 3
REMARK VINA RESULT:     -11.1      2.577      7.452
REMARK SMILES CC[C@@](C)(NS(=O)(=O)c1ccc(F)c(F)c1)C(=O)NCCCNC(=O)c1ccc(-c2c3nc(c(-c4c(F)cccc4F)c4ccc([nH]4)c(-c4c(F)cccc4F)c4nc(c(-c5c(F)cccc5F)c5ccc2[nH]5)C=C4)C=C3)cc1
REMARK SMILES IDX 20 1 19 2 17 3 18 4 3 6 4 7 2 8 1 9 5 10 6 12 7 13 8 14 9 15
REMARK SMILES IDX 10 16 16 17 11 18 14 19 12 20 15 21 13 22 21 23 22 24 23 25
REMARK SMILES IDX 24 26 25 28 26 29 27 30 79 31 28 32 78 33 29 34 30 35 31 36
REMARK SMILES IDX 72 37 32 38 77 39 71 40 73 41 33 42 76 43 70 44 69 45 34 47
REMARK SMILES IDX 60 48 43 49 59 50 44 51 47 52 58 53 74 54 45 55 46 56 57 58
REMARK SMILES IDX 75 59 48 60 35 61 36 62 41 63 37 64 38 65 40 66 42 67 39 68
REMARK SMILES IDX 61 69 62 70 67 71 63 72 64 73 66 74 68 75 65 76 49 77 50 78
REMARK SMILES IDX 55 79 51 80 52 81 54 82 56 83 53 84
REMARK H PARENT 19 5 5 11 23 27 73 46 47 57
REMARK Flexibility Score: inf
ROOT
ATOM      1  C   UNL A   1      32.921  27.051  24.490  1.00  0.00     0.117 C 
ENDROOT
BRANCH   1   2
ATOM      2  N   UNL A   1      33.757  25.964  23.980  1.00  0.00    -0.354 N 
ATOM      3  C   UNL A   1      33.544  24.758  23.370  1.00  0.00     0.241 C 
ATOM      4  O   UNL A   1      34.492  24.411  22.650  1.00  0.00    -0.273 OA
ATOM      5  H   UNL A   1      34.716  26.147  24.107  1.00  0.00     0.163 HD
BRANCH   3   6
ATOM      6  C   UNL A   1      32.370  23.766  23.622  1.00  0.00     0.108 C 
ATOM      7  C   UNL A   1      31.011  24.396  23.316  1.00  0.00     0.040 C 
BRANCH   6   8
ATOM      8  C   UNL A   1      32.505  22.469  22.707  1.00  0.00     0.030 C 
ATOM      9  C   UNL A   1      32.255  21.082  23.271  1.00  0.00     0.006 C 
ENDBRANCH   6   8
BRANCH   6  10
ATOM     10  N   UNL A   1      32.396  23.093  24.954  1.00  0.00    -0.196 NA
ATOM     11  H   UNL A   1      32.468  22.102  24.723  1.00  0.00     0.142 HD
BRANCH  10  12
ATOM     12  S   UNL A   1      33.398  23.263  26.246  1.00  0.00     0.241 S 
ATOM     13  O   UNL A   1      33.434  24.654  26.610  1.00  0.00    -0.207 OA
ATOM     14  O   UNL A   1      32.896  22.279  27.186  1.00  0.00    -0.207 OA
BRANCH  12  15
ATOM     15  C   UNL A   1      35.041  22.711  25.842  1.00  0.00     0.085 A 
ATOM     16  C   UNL A   1      35.183  21.384  25.405  1.00  0.00     0.025 A 
ATOM     17  C   UNL A   1      36.175  23.513  25.936  1.00  0.00     0.064 A 
ATOM     18  C   UNL A   1      36.453  20.852  25.154  1.00  0.00     0.044 A 
ATOM     19  C   UNL A   1      37.440  22.956  25.765  1.00  0.00     0.160 A 
ATOM     20  C   UNL A   1      37.581  21.633  25.377  1.00  0.00     0.158 A 
ATOM     21  F   UNL A   1      38.523  23.703  26.022  1.00  0.00    -0.204 F 
ATOM     22  F   UNL A   1      38.799  21.096  25.231  1.00  0.00    -0.204 F 
ENDBRANCH  12  15
ENDBRANCH  10  12
ENDBRANCH   6  10
ENDBRANCH   3   6
ENDBRANCH   1   2
BRANCH   1  23
ATOM     23  C   UNL A   1      33.600  28.330  25.024  1.00  0.00     0.042 C 
BRANCH  23  24
ATOM     24  C   UNL A   1      34.053  28.418  26.484  1.00  0.00     0.118 C 
BRANCH  24  25
ATOM     25  N   UNL A   1      33.778  29.697  27.113  1.00  0.00    -0.352 N 
ATOM     26  C   UNL A   1      34.574  30.469  27.931  1.00  0.00     0.251 C 
ATOM     27  H   UNL A   1      32.886  30.070  26.926  1.00  0.00     0.163 HD
ATOM     28  O   UNL A   1      34.113  31.502  28.414  1.00  0.00    -0.269 OA
BRANCH  26  29
ATOM     29  C   UNL A   1      35.966  30.079  28.279  1.00  0.00     0.039 A 
ATOM     30  C   UNL A   1      36.955  30.217  27.298  1.00  0.00     0.014 A 
ATOM     31  C   UNL A   1      36.296  29.486  29.500  1.00  0.00     0.014 A 
ATOM     32  C   UNL A   1      38.270  29.802  27.551  1.00  0.00     0.010 A 
ATOM     33  C   UNL A   1      37.624  29.102  29.766  1.00  0.00     0.010 A 
ATOM     34  C   UNL A   1      38.630  29.255  28.795  1.00  0.00    -0.014 A 
BRANCH  34  35
ATOM     35  C   UNL A   1      40.050  28.862  29.059  1.00  0.00     0.031 A 
ATOM     36  C   UNL A   1      40.588  27.517  28.640  1.00  0.00     0.074 A 
ATOM     37  C   UNL A   1      40.883  29.729  29.672  1.00  0.00     0.049 A 
ATOM     38  N   UNL A   1      41.805  27.039  28.751  1.00  0.00    -0.248 NA
ATOM     39  C   UNL A   1      39.634  26.581  28.028  1.00  0.00     0.031 C 
ATOM     40  C   UNL A   1      40.507  31.057  30.158  1.00  0.00     0.029 A 
ATOM     41  N   UNL A   1      42.218  29.628  29.988  1.00  0.00    -0.354 N 
ATOM     42  C   UNL A   1      41.765  25.754  28.221  1.00  0.00     0.074 A 
ATOM     43  C   UNL A   1      40.391  25.509  27.835  1.00  0.00     0.031 C 
ATOM     44  C   UNL A   1      41.588  31.656  30.683  1.00  0.00     0.029 A 
ATOM     45  C   UNL A   1      42.728  30.746  30.606  1.00  0.00     0.049 A 
ATOM     46  H   UNL A   1      42.759  28.829  29.790  1.00  0.00     0.167 HD
ATOM     47  C   UNL A   1      42.777  24.865  28.053  1.00  0.00     0.037 A 
ATOM     48  C   UNL A   1      43.968  31.016  31.063  1.00  0.00     0.037 A 
ATOM     49  C   UNL A   1      44.150  25.100  28.429  1.00  0.00     0.049 A 
ATOM     50  C   UNL A   1      45.066  29.999  30.899  1.00  0.00     0.074 A 
ATOM     51  C   UNL A   1      45.246  24.270  28.249  1.00  0.00     0.029 A 
ATOM     52  N   UNL A   1      44.617  26.235  29.072  1.00  0.00    -0.354 N 
ATOM     53  N   UNL A   1      45.023  28.819  30.330  1.00  0.00    -0.248 NA
ATOM     54  C   UNL A   1      46.389  30.356  31.433  1.00  0.00     0.031 C 
ATOM     55  C   UNL A   1      46.361  24.878  28.833  1.00  0.00     0.029 A 
ATOM     56  C   UNL A   1      45.976  26.115  29.323  1.00  0.00     0.049 A 
ATOM     57  H   UNL A   1      44.064  27.014  29.314  1.00  0.00     0.167 HD
ATOM     58  C   UNL A   1      46.314  28.309  30.411  1.00  0.00     0.074 A 
ATOM     59  C   UNL A   1      47.121  29.312  31.070  1.00  0.00     0.031 C 
ATOM     60  C   UNL A   1      46.783  27.115  29.974  1.00  0.00     0.037 A 
BRANCH  47  61
ATOM     61  C   UNL A   1      42.441  23.537  27.432  1.00  0.00     0.057 A 
ATOM     62  C   UNL A   1      42.550  23.316  26.052  1.00  0.00     0.134 A 
ATOM     63  C   UNL A   1      42.063  22.448  28.230  1.00  0.00     0.134 A 
ATOM     64  F   UNL A   1      42.906  24.314  25.230  1.00  0.00    -0.206 F 
ATOM     65  C   UNL A   1      42.266  22.071  25.487  1.00  0.00     0.040 A 
ATOM     66  C   UNL A   1      41.805  21.191  27.678  1.00  0.00     0.040 A 
ATOM     67  F   UNL A   1      41.956  22.582  29.560  1.00  0.00    -0.206 F 
ATOM     68  C   UNL A   1      41.899  21.002  26.301  1.00  0.00     0.006 A 
ENDBRANCH  47  61
BRANCH  48  69
ATOM     69  C   UNL A   1      44.251  32.319  31.721  1.00  0.00     0.057 A 
ATOM     70  C   UNL A   1      44.133  32.476  33.107  1.00  0.00     0.134 A 
ATOM     71  C   UNL A   1      44.622  33.445  30.976  1.00  0.00     0.134 A 
ATOM     72  F   UNL A   1      43.756  31.442  33.874  1.00  0.00    -0.206 F 
ATOM     73  C   UNL A   1      44.354  33.708  33.726  1.00  0.00     0.040 A 
ATOM     74  C   UNL A   1      44.875  34.675  31.585  1.00  0.00     0.040 A 
ATOM     75  F   UNL A   1      44.754  33.362  29.643  1.00  0.00    -0.206 F 
ATOM     76  C   UNL A   1      44.732  34.811  32.964  1.00  0.00     0.006 A 
ENDBRANCH  48  69
BRANCH  60  77
ATOM     77  C   UNL A   1      48.249  26.836  30.157  1.00  0.00     0.057 A 
ATOM     78  C   UNL A   1      48.739  26.114  31.254  1.00  0.00     0.134 A 
ATOM     79  C   UNL A   1      49.182  27.264  29.203  1.00  0.00     0.134 A 
ATOM     80  F   UNL A   1      47.905  25.683  32.213  1.00  0.00    -0.206 F 
ATOM     81  C   UNL A   1      50.103  25.853  31.407  1.00  0.00     0.040 A 
ATOM     82  C   UNL A   1      50.543  26.984  29.330  1.00  0.00     0.040 A 
ATOM     83  F   UNL A   1      48.783  27.953  28.123  1.00  0.00    -0.206 F 
ATOM     84  C   UNL A   1      51.008  26.282  30.440  1.00  0.00     0.006 A 
ENDBRANCH  60  77
ENDBRANCH  34  35
ENDBRANCH  26  29
ENDBRANCH  24  25
ENDBRANCH  23  24
ENDBRANCH   1  23
TORSDOF 14
ENDMDL
