MODEL 1
REMARK VINA RESULT:     -13.6      0.000      0.000
REMARK SMILES Cc1ccc(C(=O)NC2CC2)cc1NC(=O)[C@@H]1[C@@H](C(=O)NCCCNC(=O)c2ccc(-c3c4nc(c(-c5c(F)cccc5F)c5ccc([nH]5)c(-c5c(F)cccc5F)c5nc(c(-c6c(F)cccc6F)c6ccc3[nH]6)C=C5)C=C4)cc2)[C@H]2C=C[C@@H]1C2
REMARK SMILES IDX 22 1 21 2 19 3 20 4 18 6 17 7 85 8 82 9 84 10 86 11 83 12
REMARK SMILES IDX 15 13 14 14 16 16 13 17 1 18 2 19 3 20 4 21 12 22 5 23 6 24
REMARK SMILES IDX 7 25 8 26 9 28 10 29 11 30 23 31 24 32 25 33 26 34 27 36
REMARK SMILES IDX 28 37 29 38 81 39 30 40 80 41 31 42 32 43 33 44 74 45 34 46
REMARK SMILES IDX 79 47 73 48 75 49 35 50 78 51 72 52 71 53 36 55 62 56 45 57
REMARK SMILES IDX 61 58 46 59 49 60 60 61 76 62 47 63 48 64 59 66 77 67 50 68
REMARK SMILES IDX 37 69 38 70 43 71 39 72 40 73 42 74 44 75 41 76 63 77 64 78
REMARK SMILES IDX 69 79 65 80 66 81 68 82 70 83 67 84 51 85 52 86 57 87 53 88
REMARK SMILES IDX 54 89 56 90 58 91 55 92
REMARK H PARENT 21 5 14 15 8 27 25 35 75 54 49 65
REMARK Flexibility Score: inf
ROOT
ATOM      1  C   UNL A   1      32.395  30.450  26.667  1.00  0.00     0.117 C 
ENDROOT
BRANCH   1   2
ATOM      2  N   UNL A   1      32.891  29.994  25.382  1.00  0.00    -0.356 N 
ATOM      3  C   UNL A   1      32.463  29.061  24.498  1.00  0.00     0.224 C 
ATOM      4  O   UNL A   1      33.179  28.915  23.499  1.00  0.00    -0.275 OA
ATOM      5  H   UNL A   1      33.709  30.458  25.093  1.00  0.00     0.163 HD
BRANCH   3   6
ATOM      6  C   UNL A   1      31.257  28.145  24.689  1.00  0.00     0.098 C 
ATOM      7  C   UNL A   1      31.774  26.664  24.901  1.00  0.00     0.099 C 
ATOM      8  C   UNL A   1      30.821  25.832  24.004  1.00  0.00     0.025 C 
ATOM      9  C   UNL A   1      30.214  27.943  23.570  1.00  0.00     0.025 C 
ATOM     10  C   UNL A   1      31.191  26.108  22.569  1.00  0.00    -0.027 C 
ATOM     11  C   UNL A   1      29.533  26.657  24.061  1.00  0.00     0.017 C 
ATOM     12  C   UNL A   1      30.845  27.377  22.313  1.00  0.00    -0.027 C 
BRANCH   7  13
ATOM     13  C   UNL A   1      31.772  26.145  26.328  1.00  0.00     0.228 C 
ATOM     14  N   UNL A   1      32.108  24.838  26.606  1.00  0.00    -0.326 N 
ATOM     15  H   UNL A   1      32.012  24.598  27.557  1.00  0.00     0.169 HD
ATOM     16  O   UNL A   1      31.377  26.845  27.264  1.00  0.00    -0.274 OA
BRANCH  14  17
ATOM     17  C   UNL A   1      32.564  23.771  25.793  1.00  0.00     0.044 A 
ATOM     18  C   UNL A   1      30.427  22.413  26.294  1.00  0.00     0.046 C 
ATOM     19  C   UNL A   1      31.733  22.655  25.585  1.00  0.00    -0.027 A 
ATOM     20  C   UNL A   1      32.143  21.666  24.673  1.00  0.00     0.006 A 
ATOM     21  C   UNL A   1      33.351  21.777  23.983  1.00  0.00     0.014 A 
ATOM     22  C   UNL A   1      33.837  23.781  25.194  1.00  0.00     0.040 A 
ATOM     23  C   UNL A   1      34.230  22.836  24.239  1.00  0.00     0.041 A 
BRANCH  23  24
ATOM     24  C   UNL A   1      35.521  22.843  23.473  1.00  0.00     0.251 C 
ATOM     25  O   UNL A   1      35.559  23.428  22.387  1.00  0.00    -0.269 OA
ATOM     26  N   UNL A   1      36.698  22.272  23.909  1.00  0.00    -0.349 N 
ATOM     27  H   UNL A   1      37.454  22.378  23.286  1.00  0.00     0.164 HD
BRANCH  26  28
ATOM     28  C   UNL A   1      37.014  21.561  25.092  1.00  0.00     0.082 C 
ATOM     29  C   UNL A   1      37.760  20.257  25.001  1.00  0.00     0.027 C 
ATOM     30  C   UNL A   1      38.418  21.453  25.619  1.00  0.00     0.027 C 
ENDBRANCH  26  28
ENDBRANCH  23  24
ENDBRANCH  14  17
ENDBRANCH   7  13
ENDBRANCH   3   6
ENDBRANCH   1   2
BRANCH   1  31
ATOM     31  C   UNL A   1      33.342  31.437  27.334  1.00  0.00     0.042 C 
BRANCH  31  32
ATOM     32  C   UNL A   1      34.668  30.787  27.703  1.00  0.00     0.118 C 
BRANCH  32  33
ATOM     33  N   UNL A   1      35.442  31.532  28.694  1.00  0.00    -0.352 N 
ATOM     34  C   UNL A   1      36.576  31.150  29.399  1.00  0.00     0.251 C 
ATOM     35  H   UNL A   1      35.113  32.439  28.889  1.00  0.00     0.163 HD
ATOM     36  O   UNL A   1      37.089  31.912  30.196  1.00  0.00    -0.269 OA
BRANCH  34  37
ATOM     37  C   UNL A   1      37.229  29.858  29.067  1.00  0.00     0.039 A 
ATOM     38  C   UNL A   1      37.455  28.953  30.109  1.00  0.00     0.014 A 
ATOM     39  C   UNL A   1      37.814  29.657  27.821  1.00  0.00     0.014 A 
ATOM     40  C   UNL A   1      38.479  28.018  29.983  1.00  0.00     0.010 A 
ATOM     41  C   UNL A   1      38.900  28.812  27.732  1.00  0.00     0.010 A 
ATOM     42  C   UNL A   1      39.273  28.044  28.836  1.00  0.00    -0.014 A 
BRANCH  42  43
ATOM     43  C   UNL A   1      40.579  27.400  28.765  1.00  0.00     0.031 A 
ATOM     44  C   UNL A   1      40.690  25.970  28.428  1.00  0.00     0.074 A 
ATOM     45  C   UNL A   1      41.698  28.132  28.968  1.00  0.00     0.049 A 
ATOM     46  N   UNL A   1      41.626  25.200  28.873  1.00  0.00    -0.248 NA
ATOM     47  C   UNL A   1      39.727  25.281  27.574  1.00  0.00     0.031 C 
ATOM     48  C   UNL A   1      43.078  27.718  28.739  1.00  0.00     0.029 A 
ATOM     49  N   UNL A   1      41.807  29.366  29.624  1.00  0.00    -0.354 N 
ATOM     50  C   UNL A   1      41.548  24.017  28.180  1.00  0.00     0.074 A 
ATOM     51  C   UNL A   1      40.315  24.089  27.428  1.00  0.00     0.031 C 
ATOM     52  C   UNL A   1      43.890  28.496  29.471  1.00  0.00     0.029 A 
ATOM     53  C   UNL A   1      43.050  29.351  30.292  1.00  0.00     0.049 A 
ATOM     54  H   UNL A   1      41.148  30.097  29.620  1.00  0.00     0.167 HD
ATOM     55  C   UNL A   1      42.593  23.146  28.193  1.00  0.00     0.037 A 
ATOM     56  C   UNL A   1      43.126  29.455  31.650  1.00  0.00     0.037 A 
ATOM     57  C   UNL A   1      43.707  23.647  28.986  1.00  0.00     0.049 A 
ATOM     58  C   UNL A   1      43.746  28.251  32.320  1.00  0.00     0.074 A 
ATOM     59  C   UNL A   1      44.844  24.358  28.640  1.00  0.00     0.029 A 
ATOM     60  N   UNL A   1      43.578  23.757  30.365  1.00  0.00    -0.354 N 
ATOM     61  N   UNL A   1      43.910  27.098  31.733  1.00  0.00    -0.248 NA
ATOM     62  C   UNL A   1      44.190  28.233  33.713  1.00  0.00     0.031 C 
ATOM     63  C   UNL A   1      45.363  24.958  29.811  1.00  0.00     0.029 A 
ATOM     64  C   UNL A   1      44.559  24.589  30.874  1.00  0.00     0.049 A 
ATOM     65  H   UNL A   1      42.888  23.309  30.904  1.00  0.00     0.167 HD
ATOM     66  C   UNL A   1      44.416  26.194  32.629  1.00  0.00     0.074 A 
ATOM     67  C   UNL A   1      44.601  26.958  33.849  1.00  0.00     0.031 C 
ATOM     68  C   UNL A   1      44.624  24.887  32.296  1.00  0.00     0.037 A 
BRANCH  55  69
ATOM     69  C   UNL A   1      42.677  22.010  27.212  1.00  0.00     0.057 A 
ATOM     70  C   UNL A   1      41.857  20.874  27.329  1.00  0.00     0.134 A 
ATOM     71  C   UNL A   1      43.606  21.968  26.158  1.00  0.00     0.134 A 
ATOM     72  F   UNL A   1      40.879  20.802  28.240  1.00  0.00    -0.206 F 
ATOM     73  C   UNL A   1      42.020  19.739  26.526  1.00  0.00     0.040 A 
ATOM     74  C   UNL A   1      43.813  20.822  25.378  1.00  0.00     0.040 A 
ATOM     75  F   UNL A   1      44.348  23.042  25.850  1.00  0.00    -0.206 F 
ATOM     76  C   UNL A   1      43.025  19.695  25.570  1.00  0.00     0.006 A 
ENDBRANCH  55  69
BRANCH  56  77
ATOM     77  C   UNL A   1      42.057  30.306  32.232  1.00  0.00     0.057 A 
ATOM     78  C   UNL A   1      42.206  31.704  32.171  1.00  0.00     0.134 A 
ATOM     79  C   UNL A   1      40.773  29.813  32.475  1.00  0.00     0.134 A 
ATOM     80  F   UNL A   1      43.414  32.243  31.941  1.00  0.00    -0.206 F 
ATOM     81  C   UNL A   1      41.110  32.568  32.231  1.00  0.00     0.040 A 
ATOM     82  C   UNL A   1      39.668  30.671  32.547  1.00  0.00     0.040 A 
ATOM     83  F   UNL A   1      40.547  28.493  32.530  1.00  0.00    -0.206 F 
ATOM     84  C   UNL A   1      39.830  32.047  32.383  1.00  0.00     0.006 A 
ENDBRANCH  56  77
BRANCH  68  85
ATOM     85  C   UNL A   1      44.983  23.780  33.250  1.00  0.00     0.057 A 
ATOM     86  C   UNL A   1      46.253  23.617  33.820  1.00  0.00     0.134 A 
ATOM     87  C   UNL A   1      43.980  22.920  33.751  1.00  0.00     0.134 A 
ATOM     88  F   UNL A   1      47.271  24.430  33.504  1.00  0.00    -0.206 F 
ATOM     89  C   UNL A   1      46.518  22.639  34.787  1.00  0.00     0.040 A 
ATOM     90  C   UNL A   1      44.221  21.975  34.751  1.00  0.00     0.040 A 
ATOM     91  F   UNL A   1      42.717  22.978  33.303  1.00  0.00    -0.206 F 
ATOM     92  C   UNL A   1      45.499  21.823  35.267  1.00  0.00     0.006 A 
ENDBRANCH  68  85
ENDBRANCH  42  43
ENDBRANCH  34  37
ENDBRANCH  32  33
ENDBRANCH  31  32
ENDBRANCH   1  31
TORSDOF 14
ENDMDL
MODEL 2
REMARK VINA RESULT:     -13.6      2.156      2.927
REMARK SMILES Cc1ccc(C(=O)NC2CC2)cc1NC(=O)[C@@H]1[C@@H](C(=O)NCCCNC(=O)c2ccc(-c3c4nc(c(-c5c(F)cccc5F)c5ccc([nH]5)c(-c5c(F)cccc5F)c5nc(c(-c6c(F)cccc6F)c6ccc3[nH]6)C=C5)C=C4)cc2)[C@H]2C=C[C@@H]1C2
REMARK SMILES IDX 22 1 21 2 19 3 20 4 18 6 17 7 85 8 82 9 84 10 86 11 83 12
REMARK SMILES IDX 15 13 14 14 16 16 13 17 1 18 2 19 3 20 4 21 12 22 5 23 6 24
REMARK SMILES IDX 7 25 8 26 9 28 10 29 11 30 23 31 24 32 25 33 26 34 27 36
REMARK SMILES IDX 28 37 29 38 81 39 30 40 80 41 31 42 32 43 33 44 74 45 34 46
REMARK SMILES IDX 79 47 73 48 75 49 35 50 78 51 72 52 71 53 36 55 62 56 45 57
REMARK SMILES IDX 61 58 46 59 49 60 60 61 76 62 47 63 48 64 59 66 77 67 50 68
REMARK SMILES IDX 37 69 38 70 43 71 39 72 40 73 42 74 44 75 41 76 63 77 64 78
REMARK SMILES IDX 69 79 65 80 66 81 68 82 70 83 67 84 51 85 52 86 57 87 53 88
REMARK SMILES IDX 54 89 56 90 58 91 55 92
REMARK H PARENT 21 5 14 15 8 27 25 35 75 54 49 65
REMARK Flexibility Score: inf
ROOT
ATOM      1  C   UNL A   1      32.006  29.265  25.925  1.00  0.00     0.117 C 
ENDROOT
BRANCH   1   2
ATOM      2  N   UNL A   1      32.962  28.174  25.886  1.00  0.00    -0.356 N 
ATOM      3  C   UNL A   1      32.864  26.862  25.566  1.00  0.00     0.224 C 
ATOM      4  O   UNL A   1      33.909  26.210  25.688  1.00  0.00    -0.275 OA
ATOM      5  H   UNL A   1      33.872  28.444  26.148  1.00  0.00     0.163 HD
BRANCH   3   6
ATOM      6  C   UNL A   1      31.578  26.139  25.173  1.00  0.00     0.098 C 
ATOM      7  C   UNL A   1      31.855  24.581  25.167  1.00  0.00     0.099 C 
ATOM      8  C   UNL A   1      31.164  24.111  23.859  1.00  0.00     0.025 C 
ATOM      9  C   UNL A   1      30.935  26.337  23.785  1.00  0.00     0.025 C 
ATOM     10  C   UNL A   1      32.000  24.599  22.704  1.00  0.00    -0.027 C 
ATOM     11  C   UNL A   1      30.012  25.111  23.734  1.00  0.00     0.017 C 
ATOM     12  C   UNL A   1      31.879  25.933  22.668  1.00  0.00    -0.027 C 
BRANCH   7  13
ATOM     13  C   UNL A   1      31.345  23.798  26.364  1.00  0.00     0.228 C 
ATOM     14  N   UNL A   1      31.711  22.484  26.559  1.00  0.00    -0.326 N 
ATOM     15  H   UNL A   1      31.271  22.061  27.333  1.00  0.00     0.169 HD
ATOM     16  O   UNL A   1      30.514  24.282  27.138  1.00  0.00    -0.274 OA
BRANCH  14  17
ATOM     17  C   UNL A   1      32.597  21.623  25.867  1.00  0.00     0.044 A 
ATOM     18  C   UNL A   1      34.640  22.876  26.824  1.00  0.00     0.046 C 
ATOM     19  C   UNL A   1      33.985  21.761  26.053  1.00  0.00    -0.027 A 
ATOM     20  C   UNL A   1      34.844  20.817  25.463  1.00  0.00     0.006 A 
ATOM     21  C   UNL A   1      34.343  19.760  24.702  1.00  0.00     0.014 A 
ATOM     22  C   UNL A   1      32.134  20.635  24.978  1.00  0.00     0.040 A 
ATOM     23  C   UNL A   1      32.972  19.655  24.435  1.00  0.00     0.041 A 
BRANCH  23  24
ATOM     24  C   UNL A   1      32.539  18.504  23.575  1.00  0.00     0.251 C 
ATOM     25  O   UNL A   1      32.245  18.726  22.396  1.00  0.00    -0.269 OA
ATOM     26  N   UNL A   1      32.476  17.190  23.990  1.00  0.00    -0.349 N 
ATOM     27  H   UNL A   1      32.181  16.559  23.293  1.00  0.00     0.164 HD
BRANCH  26  28
ATOM     28  C   UNL A   1      32.762  16.586  25.239  1.00  0.00     0.082 C 
ATOM     29  C   UNL A   1      32.722  15.088  25.368  1.00  0.00     0.027 C 
ATOM     30  C   UNL A   1      34.026  15.813  25.492  1.00  0.00     0.027 C 
ENDBRANCH  26  28
ENDBRANCH  23  24
ENDBRANCH  14  17
ENDBRANCH   7  13
ENDBRANCH   3   6
ENDBRANCH   1   2
BRANCH   1  31
ATOM     31  C   UNL A   1      32.378  30.323  26.954  1.00  0.00     0.042 C 
BRANCH  31  32
ATOM     32  C   UNL A   1      33.884  30.410  27.155  1.00  0.00     0.118 C 
BRANCH  32  33
ATOM     33  N   UNL A   1      34.290  31.291  28.249  1.00  0.00    -0.352 N 
ATOM     34  C   UNL A   1      35.349  31.166  29.139  1.00  0.00     0.251 C 
ATOM     35  H   UNL A   1      33.730  32.092  28.372  1.00  0.00     0.163 HD
ATOM     36  O   UNL A   1      35.531  32.008  29.997  1.00  0.00    -0.269 OA
BRANCH  34  37
ATOM     37  C   UNL A   1      36.330  30.070  28.940  1.00  0.00     0.039 A 
ATOM     38  C   UNL A   1      36.643  29.265  30.040  1.00  0.00     0.014 A 
ATOM     39  C   UNL A   1      37.091  29.998  27.778  1.00  0.00     0.014 A 
ATOM     40  C   UNL A   1      37.870  28.608  30.072  1.00  0.00     0.010 A 
ATOM     41  C   UNL A   1      38.352  29.445  27.848  1.00  0.00     0.010 A 
ATOM     42  C   UNL A   1      38.766  28.810  29.021  1.00  0.00    -0.014 A 
BRANCH  42  43
ATOM     43  C   UNL A   1      40.187  28.507  29.125  1.00  0.00     0.031 A 
ATOM     44  C   UNL A   1      40.731  27.263  28.549  1.00  0.00     0.074 A 
ATOM     45  C   UNL A   1      41.019  29.392  29.718  1.00  0.00     0.049 A 
ATOM     46  N   UNL A   1      41.745  26.632  29.037  1.00  0.00    -0.248 NA
ATOM     47  C   UNL A   1      40.147  26.613  27.380  1.00  0.00     0.031 C 
ATOM     48  C   UNL A   1      42.478  29.360  29.734  1.00  0.00     0.029 A 
ATOM     49  N   UNL A   1      40.683  30.419  30.611  1.00  0.00    -0.354 N 
ATOM     50  C   UNL A   1      42.105  25.669  28.126  1.00  0.00     0.074 A 
ATOM     51  C   UNL A   1      41.046  25.653  27.141  1.00  0.00     0.031 C 
ATOM     52  C   UNL A   1      42.915  30.092  30.770  1.00  0.00     0.029 A 
ATOM     53  C   UNL A   1      41.750  30.513  31.529  1.00  0.00     0.049 A 
ATOM     54  H   UNL A   1      39.864  30.966  30.600  1.00  0.00     0.167 HD
ATOM     55  C   UNL A   1      43.325  25.072  28.206  1.00  0.00     0.037 A 
ATOM     56  C   UNL A   1      41.560  30.293  32.861  1.00  0.00     0.037 A 
ATOM     57  C   UNL A   1      44.111  25.594  29.316  1.00  0.00     0.049 A 
ATOM     58  C   UNL A   1      42.351  29.126  33.406  1.00  0.00     0.074 A 
ATOM     59  C   UNL A   1      45.061  26.599  29.384  1.00  0.00     0.029 A 
ATOM     60  N   UNL A   1      43.722  25.330  30.623  1.00  0.00    -0.354 N 
ATOM     61  N   UNL A   1      42.914  28.219  32.658  1.00  0.00    -0.248 NA
ATOM     62  C   UNL A   1      42.537  28.863  34.833  1.00  0.00     0.031 C 
ATOM     63  C   UNL A   1      45.192  26.991  30.738  1.00  0.00     0.029 A 
ATOM     64  C   UNL A   1      44.344  26.204  31.495  1.00  0.00     0.049 A 
ATOM     65  H   UNL A   1      43.093  24.622  30.891  1.00  0.00     0.167 HD
ATOM     66  C   UNL A   1      43.479  27.255  33.451  1.00  0.00     0.074 A 
ATOM     67  C   UNL A   1      43.241  27.716  34.806  1.00  0.00     0.031 C 
ATOM     68  C   UNL A   1      44.081  26.149  32.924  1.00  0.00     0.037 A 
BRANCH  55  69
ATOM     69  C   UNL A   1      43.876  24.260  27.067  1.00  0.00     0.057 A 
ATOM     70  C   UNL A   1      44.628  24.852  26.037  1.00  0.00     0.134 A 
ATOM     71  C   UNL A   1      43.633  22.885  26.913  1.00  0.00     0.134 A 
ATOM     72  F   UNL A   1      44.998  26.138  26.084  1.00  0.00    -0.206 F 
ATOM     73  C   UNL A   1      45.020  24.152  24.890  1.00  0.00     0.040 A 
ATOM     74  C   UNL A   1      43.976  22.183  25.749  1.00  0.00     0.040 A 
ATOM     75  F   UNL A   1      43.052  22.174  27.890  1.00  0.00    -0.206 F 
ATOM     76  C   UNL A   1      44.663  22.822  24.725  1.00  0.00     0.006 A 
ENDBRANCH  55  69
BRANCH  56  77
ATOM     77  C   UNL A   1      40.220  30.718  33.339  1.00  0.00     0.057 A 
ATOM     78  C   UNL A   1      39.965  32.095  33.482  1.00  0.00     0.134 A 
ATOM     79  C   UNL A   1      39.112  29.870  33.279  1.00  0.00     0.134 A 
ATOM     80  F   UNL A   1      40.986  32.965  33.547  1.00  0.00    -0.206 F 
ATOM     81  C   UNL A   1      38.669  32.616  33.447  1.00  0.00     0.040 A 
ATOM     82  C   UNL A   1      37.808  30.380  33.253  1.00  0.00     0.040 A 
ATOM     83  F   UNL A   1      39.271  28.548  33.125  1.00  0.00    -0.206 F 
ATOM     84  C   UNL A   1      37.586  31.757  33.295  1.00  0.00     0.006 A 
ENDBRANCH  56  77
BRANCH  68  85
ATOM     85  C   UNL A   1      44.550  24.948  33.699  1.00  0.00     0.057 A 
ATOM     86  C   UNL A   1      43.694  24.056  34.360  1.00  0.00     0.134 A 
ATOM     87  C   UNL A   1      45.910  24.565  33.662  1.00  0.00     0.134 A 
ATOM     88  F   UNL A   1      42.369  24.251  34.387  1.00  0.00    -0.206 F 
ATOM     89  C   UNL A   1      44.163  22.890  34.979  1.00  0.00     0.040 A 
ATOM     90  C   UNL A   1      46.381  23.380  34.232  1.00  0.00     0.040 A 
ATOM     91  F   UNL A   1      46.836  25.320  33.049  1.00  0.00    -0.206 F 
ATOM     92  C   UNL A   1      45.506  22.540  34.904  1.00  0.00     0.006 A 
ENDBRANCH  68  85
ENDBRANCH  42  43
ENDBRANCH  34  37
ENDBRANCH  32  33
ENDBRANCH  31  32
ENDBRANCH   1  31
TORSDOF 14
ENDMDL
MODEL 3
REMARK VINA RESULT:     -13.5      3.298      9.413
REMARK SMILES Cc1ccc(C(=O)NC2CC2)cc1NC(=O)[C@@H]1[C@@H](C(=O)NCCCNC(=O)c2ccc(-c3c4nc(c(-c5c(F)cccc5F)c5ccc([nH]5)c(-c5c(F)cccc5F)c5nc(c(-c6c(F)cccc6F)c6ccc3[nH]6)C=C5)C=C4)cc2)[C@H]2C=C[C@@H]1C2
REMARK SMILES IDX 22 1 21 2 19 3 20 4 18 6 17 7 85 8 82 9 84 10 86 11 83 12
REMARK SMILES IDX 15 13 14 14 16 16 13 17 1 18 2 19 3 20 4 21 12 22 5 23 6 24
REMARK SMILES IDX 7 25 8 26 9 28 10 29 11 30 23 31 24 32 25 33 26 34 27 36
REMARK SMILES IDX 28 37 29 38 81 39 30 40 80 41 31 42 32 43 33 44 74 45 34 46
REMARK SMILES IDX 79 47 73 48 75 49 35 50 78 51 72 52 71 53 36 55 62 56 45 57
REMARK SMILES IDX 61 58 46 59 49 60 60 61 76 62 47 63 48 64 59 66 77 67 50 68
REMARK SMILES IDX 37 69 38 70 43 71 39 72 40 73 42 74 44 75 41 76 63 77 64 78
REMARK SMILES IDX 69 79 65 80 66 81 68 82 70 83 67 84 51 85 52 86 57 87 53 88
REMARK SMILES IDX 54 89 56 90 58 91 55 92
REMARK H PARENT 21 5 14 15 8 27 25 35 75 54 49 65
REMARK Flexibility Score: inf
ROOT
ATOM      1  C   UNL A   1      37.545  21.402  25.142  1.00  0.00     0.117 C 
ENDROOT
BRANCH   1   2
ATOM      2  N   UNL A   1      36.451  21.538  26.087  1.00  0.00    -0.356 N 
ATOM      3  C   UNL A   1      35.106  21.607  25.948  1.00  0.00     0.224 C 
ATOM      4  O   UNL A   1      34.475  21.764  27.002  1.00  0.00    -0.275 OA
ATOM      5  H   UNL A   1      36.750  21.593  27.023  1.00  0.00     0.163 HD
BRANCH   3   6
ATOM      6  C   UNL A   1      34.349  21.601  24.622  1.00  0.00     0.098 C 
ATOM      7  C   UNL A   1      33.808  23.062  24.342  1.00  0.00     0.099 C 
ATOM      8  C   UNL A   1      32.356  22.807  23.858  1.00  0.00     0.025 C 
ATOM      9  C   UNL A   1      33.068  20.763  24.430  1.00  0.00     0.025 C 
ATOM     10  C   UNL A   1      31.547  22.381  25.057  1.00  0.00    -0.027 C 
ATOM     11  C   UNL A   1      32.484  21.440  23.182  1.00  0.00     0.017 C 
ATOM     12  C   UNL A   1      31.984  21.165  25.412  1.00  0.00    -0.027 C 
BRANCH   7  13
ATOM     13  C   UNL A   1      34.583  23.887  23.329  1.00  0.00     0.228 C 
ATOM     14  N   UNL A   1      34.131  25.126  22.931  1.00  0.00    -0.326 N 
ATOM     15  H   UNL A   1      34.681  25.541  22.227  1.00  0.00     0.169 HD
ATOM     16  O   UNL A   1      35.581  23.433  22.763  1.00  0.00    -0.274 OA
BRANCH  14  17
ATOM     17  C   UNL A   1      33.030  25.921  23.336  1.00  0.00     0.044 A 
ATOM     18  C   UNL A   1      32.091  25.929  20.932  1.00  0.00     0.046 C 
ATOM     19  C   UNL A   1      32.024  26.237  22.404  1.00  0.00    -0.027 A 
ATOM     20  C   UNL A   1      30.876  26.914  22.851  1.00  0.00     0.006 A 
ATOM     21  C   UNL A   1      30.725  27.273  24.191  1.00  0.00     0.014 A 
ATOM     22  C   UNL A   1      32.914  26.423  24.645  1.00  0.00     0.040 A 
ATOM     23  C   UNL A   1      31.751  27.043  25.116  1.00  0.00     0.041 A 
BRANCH  23  24
ATOM     24  C   UNL A   1      31.506  27.502  26.524  1.00  0.00     0.251 C 
ATOM     25  O   UNL A   1      30.992  26.712  27.321  1.00  0.00    -0.269 OA
ATOM     26  N   UNL A   1      31.850  28.742  27.019  1.00  0.00    -0.349 N 
ATOM     27  H   UNL A   1      31.627  28.875  27.970  1.00  0.00     0.164 HD
BRANCH  26  28
ATOM     28  C   UNL A   1      32.468  29.860  26.405  1.00  0.00     0.082 C 
ATOM     29  C   UNL A   1      31.844  31.222  26.537  1.00  0.00     0.027 C 
ATOM     30  C   UNL A   1      33.159  30.936  27.194  1.00  0.00     0.027 C 
ENDBRANCH  26  28
ENDBRANCH  23  24
ENDBRANCH  14  17
ENDBRANCH   7  13
ENDBRANCH   3   6
ENDBRANCH   1   2
BRANCH   1  31
ATOM     31  C   UNL A   1      38.905  21.528  25.812  1.00  0.00     0.042 C 
BRANCH  31  32
ATOM     32  C   UNL A   1      39.190  22.959  26.248  1.00  0.00     0.118 C 
BRANCH  32  33
ATOM     33  N   UNL A   1      40.598  23.225  26.535  1.00  0.00    -0.352 N 
ATOM     34  C   UNL A   1      41.215  24.412  26.910  1.00  0.00     0.251 C 
ATOM     35  H   UNL A   1      41.198  22.449  26.451  1.00  0.00     0.163 HD
ATOM     36  O   UNL A   1      42.414  24.445  27.105  1.00  0.00    -0.269 OA
BRANCH  34  37
ATOM     37  C   UNL A   1      40.372  25.599  27.201  1.00  0.00     0.039 A 
ATOM     38  C   UNL A   1      40.632  26.776  26.491  1.00  0.00     0.014 A 
ATOM     39  C   UNL A   1      39.526  25.617  28.305  1.00  0.00     0.014 A 
ATOM     40  C   UNL A   1      40.273  27.999  27.051  1.00  0.00     0.010 A 
ATOM     41  C   UNL A   1      39.267  26.825  28.919  1.00  0.00     0.010 A 
ATOM     42  C   UNL A   1      39.703  28.011  28.325  1.00  0.00    -0.014 A 
BRANCH  42  43
ATOM     43  C   UNL A   1      39.650  29.207  29.155  1.00  0.00     0.031 A 
ATOM     44  C   UNL A   1      38.594  30.215  28.950  1.00  0.00     0.074 A 
ATOM     45  C   UNL A   1      40.552  29.373  30.149  1.00  0.00     0.049 A 
ATOM     46  N   UNL A   1      38.755  31.476  29.172  1.00  0.00    -0.248 NA
ATOM     47  C   UNL A   1      37.267  29.877  28.445  1.00  0.00     0.031 C 
ATOM     48  C   UNL A   1      40.534  30.385  31.199  1.00  0.00     0.029 A 
ATOM     49  N   UNL A   1      41.800  28.750  30.286  1.00  0.00    -0.354 N 
ATOM     50  C   UNL A   1      37.516  32.066  29.097  1.00  0.00     0.074 A 
ATOM     51  C   UNL A   1      36.631  31.045  28.581  1.00  0.00     0.031 C 
ATOM     52  C   UNL A   1      41.777  30.527  31.684  1.00  0.00     0.029 A 
ATOM     53  C   UNL A   1      42.657  29.704  30.874  1.00  0.00     0.049 A 
ATOM     54  H   UNL A   1      42.033  27.829  30.023  1.00  0.00     0.167 HD
ATOM     55  C   UNL A   1      37.320  33.313  29.605  1.00  0.00     0.037 A 
ATOM     56  C   UNL A   1      43.773  30.148  30.227  1.00  0.00     0.037 A 
ATOM     57  C   UNL A   1      38.536  33.854  30.197  1.00  0.00     0.049 A 
ATOM     58  C   UNL A   1      43.761  31.631  29.939  1.00  0.00     0.074 A 
ATOM     59  C   UNL A   1      39.013  33.852  31.497  1.00  0.00     0.029 A 
ATOM     60  N   UNL A   1      39.613  34.185  29.383  1.00  0.00    -0.354 N 
ATOM     61  N   UNL A   1      42.692  32.374  30.003  1.00  0.00    -0.248 NA
ATOM     62  C   UNL A   1      44.939  32.388  29.516  1.00  0.00     0.031 C 
ATOM     63  C   UNL A   1      40.403  34.114  31.458  1.00  0.00     0.029 A 
ATOM     64  C   UNL A   1      40.765  34.305  30.137  1.00  0.00     0.049 A 
ATOM     65  H   UNL A   1      39.563  34.314  28.409  1.00  0.00     0.167 HD
ATOM     66  C   UNL A   1      42.993  33.650  29.604  1.00  0.00     0.074 A 
ATOM     67  C   UNL A   1      44.419  33.616  29.335  1.00  0.00     0.031 C 
ATOM     68  C   UNL A   1      42.039  34.621  29.512  1.00  0.00     0.037 A 
BRANCH  55  69
ATOM     69  C   UNL A   1      35.937  33.859  29.828  1.00  0.00     0.057 A 
ATOM     70  C   UNL A   1      35.136  34.292  28.756  1.00  0.00     0.134 A 
ATOM     71  C   UNL A   1      35.373  34.033  31.102  1.00  0.00     0.134 A 
ATOM     72  F   UNL A   1      35.512  34.125  27.483  1.00  0.00    -0.206 F 
ATOM     73  C   UNL A   1      33.912  34.945  28.945  1.00  0.00     0.040 A 
ATOM     74  C   UNL A   1      34.172  34.727  31.309  1.00  0.00     0.040 A 
ATOM     75  F   UNL A   1      35.969  33.533  32.195  1.00  0.00    -0.206 F 
ATOM     76  C   UNL A   1      33.443  35.198  30.225  1.00  0.00     0.006 A 
ENDBRANCH  55  69
BRANCH  56  77
ATOM     77  C   UNL A   1      44.403  29.112  29.369  1.00  0.00     0.057 A 
ATOM     78  C   UNL A   1      45.224  28.145  29.980  1.00  0.00     0.134 A 
ATOM     79  C   UNL A   1      43.924  28.823  28.089  1.00  0.00     0.134 A 
ATOM     80  F   UNL A   1      45.718  28.360  31.209  1.00  0.00    -0.206 F 
ATOM     81  C   UNL A   1      45.460  26.899  29.394  1.00  0.00     0.040 A 
ATOM     82  C   UNL A   1      44.162  27.581  27.488  1.00  0.00     0.040 A 
ATOM     83  F   UNL A   1      43.123  29.686  27.449  1.00  0.00    -0.206 F 
ATOM     84  C   UNL A   1      44.896  26.601  28.158  1.00  0.00     0.006 A 
ENDBRANCH  56  77
BRANCH  68  85
ATOM     85  C   UNL A   1      42.225  35.984  28.901  1.00  0.00     0.057 A 
ATOM     86  C   UNL A   1      42.967  37.015  29.493  1.00  0.00     0.134 A 
ATOM     87  C   UNL A   1      41.775  36.241  27.586  1.00  0.00     0.134 A 
ATOM     88  F   UNL A   1      43.532  36.865  30.699  1.00  0.00    -0.206 F 
ATOM     89  C   UNL A   1      43.207  38.232  28.843  1.00  0.00     0.040 A 
ATOM     90  C   UNL A   1      42.051  37.431  26.909  1.00  0.00     0.040 A 
ATOM     91  F   UNL A   1      41.066  35.334  26.897  1.00  0.00    -0.206 F 
ATOM     92  C   UNL A   1      42.762  38.439  27.542  1.00  0.00     0.006 A 
ENDBRANCH  68  85
ENDBRANCH  42  43
ENDBRANCH  34  37
ENDBRANCH  32  33
ENDBRANCH  31  32
ENDBRANCH   1  31
TORSDOF 14
ENDMDL
