MODEL 1
REMARK VINA RESULT:     -10.1      0.000      0.000
REMARK SMILES O=C(C[C@H](c1ccsc1)n1cccc1)NCCCNC(=O)c1ccc(-c2c3nc(c(-c4c(F)cccc4F)c4ccc([nH]4)c(-c4c(F)cccc4F)c4nc(c(-c5c(F)cccc5F)c5ccc2[nH]5)C=C4)C=C3)cc1
REMARK SMILES IDX 17 1 16 2 15 3 1 4 2 5 3 7 4 8 10 9 11 10 14 11 12 12 13 13
REMARK SMILES IDX 5 14 6 15 9 16 7 17 8 18 18 19 19 20 20 21 21 23 22 24 23 25
REMARK SMILES IDX 75 26 24 27 74 28 25 29 26 30 27 31 68 32 28 33 73 34 67 35
REMARK SMILES IDX 69 36 29 37 72 38 66 39 65 40 30 42 56 43 39 44 55 45 40 46
REMARK SMILES IDX 43 47 54 48 70 49 41 50 42 51 53 53 71 54 44 55 31 56 32 57
REMARK SMILES IDX 37 58 33 59 34 60 36 61 38 62 35 63 57 64 58 65 63 66 59 67
REMARK SMILES IDX 60 68 62 69 64 70 61 71 45 72 46 73 51 74 47 75 48 76 50 77
REMARK SMILES IDX 52 78 49 79
REMARK H PARENT 15 6 19 22 69 41 43 52
REMARK Flexibility Score: inf
ROOT
ATOM      1  C   UNL A   1      36.204  33.690  28.554  1.00  0.00     0.042 C 
ENDROOT
BRANCH   1   2
ATOM      2  C   UNL A   1      35.036  33.949  29.507  1.00  0.00     0.117 C 
BRANCH   2   3
ATOM      3  N   UNL A   1      35.437  34.204  30.883  1.00  0.00    -0.356 N 
ATOM      4  O   UNL A   1      34.316  32.406  31.744  1.00  0.00    -0.275 OA
ATOM      5  C   UNL A   1      35.124  33.321  31.891  1.00  0.00     0.222 C 
ATOM      6  H   UNL A   1      35.939  35.024  31.096  1.00  0.00     0.163 HD
BRANCH   5   7
ATOM      7  C   UNL A   1      35.808  33.542  33.226  1.00  0.00     0.130 C 
BRANCH   7   8
ATOM      8  C   UNL A   1      36.815  32.461  33.642  1.00  0.00     0.127 C 
BRANCH   8   9
ATOM      9  N   UNL A   1      37.933  32.391  32.673  1.00  0.00    -0.346 N 
ATOM     10  C   UNL A   1      38.242  31.271  31.931  1.00  0.00     0.086 A 
ATOM     11  C   UNL A   1      38.806  33.394  32.325  1.00  0.00     0.086 A 
ATOM     12  C   UNL A   1      39.319  31.569  31.122  1.00  0.00     0.019 A 
ATOM     13  C   UNL A   1      39.678  32.909  31.377  1.00  0.00     0.019 A 
ENDBRANCH   8   9
BRANCH   8  14
ATOM     14  C   UNL A   1      37.318  32.542  35.071  1.00  0.00    -0.014 A 
ATOM     15  C   UNL A   1      38.005  31.497  35.782  1.00  0.00     0.017 A 
ATOM     16  C   UNL A   1      37.190  33.664  35.875  1.00  0.00     0.070 A 
ATOM     17  C   UNL A   1      38.324  31.849  37.074  1.00  0.00     0.065 A 
ATOM     18  S   UNL A   1      37.852  33.449  37.436  1.00  0.00    -0.152 S 
ENDBRANCH   8  14
ENDBRANCH   7   8
ENDBRANCH   5   7
ENDBRANCH   2   3
ENDBRANCH   1   2
BRANCH   1  19
ATOM     19  C   UNL A   1      36.840  32.318  28.739  1.00  0.00     0.118 C 
BRANCH  19  20
ATOM     20  N   UNL A   1      35.894  31.232  28.512  1.00  0.00    -0.352 N 
ATOM     21  C   UNL A   1      36.129  29.935  28.121  1.00  0.00     0.251 C 
ATOM     22  H   UNL A   1      34.948  31.461  28.662  1.00  0.00     0.163 HD
ATOM     23  O   UNL A   1      35.214  29.261  27.669  1.00  0.00    -0.269 OA
BRANCH  21  24
ATOM     24  C   UNL A   1      37.481  29.349  28.232  1.00  0.00     0.039 A 
ATOM     25  C   UNL A   1      37.807  28.622  29.384  1.00  0.00     0.014 A 
ATOM     26  C   UNL A   1      38.446  29.582  27.248  1.00  0.00     0.014 A 
ATOM     27  C   UNL A   1      39.080  28.081  29.516  1.00  0.00     0.010 A 
ATOM     28  C   UNL A   1      39.693  28.992  27.342  1.00  0.00     0.010 A 
ATOM     29  C   UNL A   1      40.010  28.255  28.484  1.00  0.00    -0.014 A 
BRANCH  29  30
ATOM     30  C   UNL A   1      41.341  27.632  28.595  1.00  0.00     0.031 A 
ATOM     31  C   UNL A   1      41.323  26.171  28.126  1.00  0.00     0.074 A 
ATOM     32  C   UNL A   1      42.321  28.439  29.105  1.00  0.00     0.049 A 
ATOM     33  N   UNL A   1      41.938  25.133  28.604  1.00  0.00    -0.248 NA
ATOM     34  C   UNL A   1      40.408  25.785  27.017  1.00  0.00     0.031 C 
ATOM     35  C   UNL A   1      42.136  29.869  29.448  1.00  0.00     0.029 A 
ATOM     36  N   UNL A   1      43.647  28.257  29.439  1.00  0.00    -0.354 N 
ATOM     37  C   UNL A   1      41.637  24.030  27.770  1.00  0.00     0.074 A 
ATOM     38  C   UNL A   1      40.585  24.465  26.901  1.00  0.00     0.031 C 
ATOM     39  C   UNL A   1      43.254  30.387  29.998  1.00  0.00     0.029 A 
ATOM     40  C   UNL A   1      44.269  29.361  30.084  1.00  0.00     0.049 A 
ATOM     41  H   UNL A   1      44.127  27.421  29.244  1.00  0.00     0.167 HD
ATOM     42  C   UNL A   1      42.387  22.885  27.750  1.00  0.00     0.037 A 
ATOM     43  C   UNL A   1      45.487  29.420  30.710  1.00  0.00     0.037 A 
ATOM     44  C   UNL A   1      43.492  23.031  28.637  1.00  0.00     0.049 A 
ATOM     45  C   UNL A   1      46.078  28.092  30.508  1.00  0.00     0.074 A 
ATOM     46  C   UNL A   1      43.600  23.030  30.002  1.00  0.00     0.029 A 
ATOM     47  N   UNL A   1      44.628  23.584  28.094  1.00  0.00    -0.354 N 
ATOM     48  N   UNL A   1      46.571  27.658  29.388  1.00  0.00    -0.248 NA
ATOM     49  C   UNL A   1      45.994  27.122  31.607  1.00  0.00     0.031 C 
ATOM     50  C   UNL A   1      44.572  24.022  30.248  1.00  0.00     0.029 A 
ATOM     51  C   UNL A   1      45.173  24.410  29.044  1.00  0.00     0.049 A 
ATOM     52  H   UNL A   1      44.983  23.419  27.191  1.00  0.00     0.167 HD
ATOM     53  C   UNL A   1      46.535  26.295  29.564  1.00  0.00     0.074 A 
ATOM     54  C   UNL A   1      46.498  26.058  30.990  1.00  0.00     0.031 C 
ATOM     55  C   UNL A   1      46.001  25.506  28.598  1.00  0.00     0.037 A 
BRANCH  42  56
ATOM     56  C   UNL A   1      42.445  21.701  26.820  1.00  0.00     0.057 A 
ATOM     57  C   UNL A   1      41.792  20.506  27.219  1.00  0.00     0.134 A 
ATOM     58  C   UNL A   1      43.361  21.564  25.774  1.00  0.00     0.134 A 
ATOM     59  F   UNL A   1      40.850  20.520  28.177  1.00  0.00    -0.206 F 
ATOM     60  C   UNL A   1      42.133  19.249  26.714  1.00  0.00     0.040 A 
ATOM     61  C   UNL A   1      43.675  20.310  25.224  1.00  0.00     0.040 A 
ATOM     62  F   UNL A   1      44.052  22.611  25.308  1.00  0.00    -0.206 F 
ATOM     63  C   UNL A   1      43.097  19.147  25.724  1.00  0.00     0.006 A 
ENDBRANCH  42  56
BRANCH  43  64
ATOM     64  C   UNL A   1      46.245  30.369  31.614  1.00  0.00     0.057 A 
ATOM     65  C   UNL A   1      47.509  30.914  31.374  1.00  0.00     0.134 A 
ATOM     66  C   UNL A   1      45.649  30.830  32.822  1.00  0.00     0.134 A 
ATOM     67  F   UNL A   1      48.276  30.484  30.367  1.00  0.00    -0.206 F 
ATOM     68  C   UNL A   1      48.067  31.922  32.190  1.00  0.00     0.040 A 
ATOM     69  C   UNL A   1      46.169  31.856  33.618  1.00  0.00     0.040 A 
ATOM     70  F   UNL A   1      44.515  30.303  33.302  1.00  0.00    -0.206 F 
ATOM     71  C   UNL A   1      47.380  32.425  33.291  1.00  0.00     0.006 A 
ENDBRANCH  43  64
BRANCH  55  72
ATOM     72  C   UNL A   1      46.022  26.123  27.210  1.00  0.00     0.057 A 
ATOM     73  C   UNL A   1      47.243  26.362  26.566  1.00  0.00     0.134 A 
ATOM     74  C   UNL A   1      44.888  26.610  26.542  1.00  0.00     0.134 A 
ATOM     75  F   UNL A   1      48.387  25.923  27.112  1.00  0.00    -0.206 F 
ATOM     76  C   UNL A   1      47.330  27.064  25.355  1.00  0.00     0.040 A 
ATOM     77  C   UNL A   1      44.952  27.307  25.328  1.00  0.00     0.040 A 
ATOM     78  F   UNL A   1      43.673  26.441  27.053  1.00  0.00    -0.206 F 
ATOM     79  C   UNL A   1      46.182  27.546  24.733  1.00  0.00     0.006 A 
ENDBRANCH  55  72
ENDBRANCH  29  30
ENDBRANCH  21  24
ENDBRANCH  19  20
ENDBRANCH   1  19
TORSDOF 13
ENDMDL
MODEL 2
REMARK VINA RESULT:     -10.0      4.507      9.307
REMARK SMILES O=C(C[C@H](c1ccsc1)n1cccc1)NCCCNC(=O)c1ccc(-c2c3nc(c(-c4c(F)cccc4F)c4ccc([nH]4)c(-c4c(F)cccc4F)c4nc(c(-c5c(F)cccc5F)c5ccc2[nH]5)C=C4)C=C3)cc1
REMARK SMILES IDX 17 1 16 2 15 3 1 4 2 5 3 7 4 8 10 9 11 10 14 11 12 12 13 13
REMARK SMILES IDX 5 14 6 15 9 16 7 17 8 18 18 19 19 20 20 21 21 23 22 24 23 25
REMARK SMILES IDX 75 26 24 27 74 28 25 29 26 30 27 31 68 32 28 33 73 34 67 35
REMARK SMILES IDX 69 36 29 37 72 38 66 39 65 40 30 42 56 43 39 44 55 45 40 46
REMARK SMILES IDX 43 47 54 48 70 49 41 50 42 51 53 53 71 54 44 55 31 56 32 57
REMARK SMILES IDX 37 58 33 59 34 60 36 61 38 62 35 63 57 64 58 65 63 66 59 67
REMARK SMILES IDX 60 68 62 69 64 70 61 71 45 72 46 73 51 74 47 75 48 76 50 77
REMARK SMILES IDX 52 78 49 79
REMARK H PARENT 15 6 19 22 69 41 43 52
REMARK Flexibility Score: inf
ROOT
ATOM      1  C   UNL A   1      38.633  19.983  24.763  1.00  0.00     0.042 C 
ENDROOT
BRANCH   1   2
ATOM      2  C   UNL A   1      37.123  20.216  24.828  1.00  0.00     0.117 C 
BRANCH   2   3
ATOM      3  N   UNL A   1      36.746  21.542  25.299  1.00  0.00    -0.356 N 
ATOM      4  O   UNL A   1      36.777  22.496  23.220  1.00  0.00    -0.275 OA
ATOM      5  C   UNL A   1      36.490  22.564  24.414  1.00  0.00     0.222 C 
ATOM      6  H   UNL A   1      36.673  21.709  26.266  1.00  0.00     0.163 HD
BRANCH   5   7
ATOM      7  C   UNL A   1      35.854  23.816  24.986  1.00  0.00     0.130 C 
BRANCH   7   8
ATOM      8  C   UNL A   1      34.368  24.014  24.655  1.00  0.00     0.127 C 
BRANCH   8   9
ATOM      9  N   UNL A   1      33.517  23.522  25.762  1.00  0.00    -0.346 N 
ATOM     10  C   UNL A   1      32.140  23.491  25.721  1.00  0.00     0.086 A 
ATOM     11  C   UNL A   1      33.925  22.997  26.965  1.00  0.00     0.086 A 
ATOM     12  C   UNL A   1      31.681  22.954  26.906  1.00  0.00     0.019 A 
ATOM     13  C   UNL A   1      32.811  22.649  27.694  1.00  0.00     0.019 A 
ENDBRANCH   8   9
BRANCH   8  14
ATOM     14  C   UNL A   1      33.970  25.413  24.223  1.00  0.00    -0.014 A 
ATOM     15  C   UNL A   1      33.957  26.582  25.062  1.00  0.00     0.017 A 
ATOM     16  C   UNL A   1      33.579  25.745  22.935  1.00  0.00     0.070 A 
ATOM     17  C   UNL A   1      33.530  27.711  24.401  1.00  0.00     0.065 A 
ATOM     18  S   UNL A   1      33.188  27.399  22.758  1.00  0.00    -0.152 S 
ENDBRANCH   8  14
ENDBRANCH   7   8
ENDBRANCH   5   7
ENDBRANCH   2   3
ENDBRANCH   1   2
BRANCH   1  19
ATOM     19  C   UNL A   1      39.266  19.751  26.129  1.00  0.00     0.118 C 
BRANCH  19  20
ATOM     20  N   UNL A   1      40.458  18.914  26.054  1.00  0.00    -0.352 N 
ATOM     21  C   UNL A   1      41.783  19.279  26.010  1.00  0.00     0.251 C 
ATOM     22  H   UNL A   1      40.289  17.944  26.033  1.00  0.00     0.163 HD
ATOM     23  O   UNL A   1      42.622  18.478  25.625  1.00  0.00    -0.269 OA
BRANCH  21  24
ATOM     24  C   UNL A   1      42.202  20.638  26.415  1.00  0.00     0.039 A 
ATOM     25  C   UNL A   1      42.622  21.535  25.426  1.00  0.00     0.014 A 
ATOM     26  C   UNL A   1      42.258  20.997  27.765  1.00  0.00     0.014 A 
ATOM     27  C   UNL A   1      43.039  22.810  25.789  1.00  0.00     0.010 A 
ATOM     28  C   UNL A   1      42.610  22.284  28.129  1.00  0.00     0.010 A 
ATOM     29  C   UNL A   1      43.013  23.183  27.139  1.00  0.00    -0.014 A 
BRANCH  29  30
ATOM     30  C   UNL A   1      43.399  24.552  27.521  1.00  0.00     0.031 A 
ATOM     31  C   UNL A   1      42.171  25.449  27.726  1.00  0.00     0.074 A 
ATOM     32  C   UNL A   1      44.746  24.778  27.598  1.00  0.00     0.049 A 
ATOM     33  N   UNL A   1      41.986  26.695  27.416  1.00  0.00    -0.248 NA
ATOM     34  C   UNL A   1      40.924  24.845  28.271  1.00  0.00     0.031 C 
ATOM     35  C   UNL A   1      45.783  23.736  27.415  1.00  0.00     0.029 A 
ATOM     36  N   UNL A   1      45.527  25.888  27.841  1.00  0.00    -0.354 N 
ATOM     37  C   UNL A   1      40.701  27.070  27.877  1.00  0.00     0.074 A 
ATOM     38  C   UNL A   1      40.049  25.856  28.265  1.00  0.00     0.031 C 
ATOM     39  C   UNL A   1      47.023  24.265  27.474  1.00  0.00     0.029 A 
ATOM     40  C   UNL A   1      46.927  25.693  27.687  1.00  0.00     0.049 A 
ATOM     41  H   UNL A   1      45.142  26.755  28.103  1.00  0.00     0.167 HD
ATOM     42  C   UNL A   1      40.324  28.374  28.054  1.00  0.00     0.037 A 
ATOM     43  C   UNL A   1      47.931  26.625  27.657  1.00  0.00     0.037 A 
ATOM     44  C   UNL A   1      41.426  29.227  27.756  1.00  0.00     0.049 A 
ATOM     45  C   UNL A   1      47.260  27.908  27.903  1.00  0.00     0.074 A 
ATOM     46  C   UNL A   1      42.024  29.601  26.582  1.00  0.00     0.029 A 
ATOM     47  N   UNL A   1      42.272  29.505  28.803  1.00  0.00    -0.354 N 
ATOM     48  N   UNL A   1      46.803  28.301  29.053  1.00  0.00    -0.248 NA
ATOM     49  C   UNL A   1      46.956  28.763  26.748  1.00  0.00     0.031 C 
ATOM     50  C   UNL A   1      43.394  29.636  26.918  1.00  0.00     0.029 A 
ATOM     51  C   UNL A   1      43.548  29.515  28.305  1.00  0.00     0.049 A 
ATOM     52  H   UNL A   1      42.008  29.665  29.738  1.00  0.00     0.167 HD
ATOM     53  C   UNL A   1      45.887  29.259  28.688  1.00  0.00     0.074 A 
ATOM     54  C   UNL A   1      46.258  29.711  27.366  1.00  0.00     0.031 C 
ATOM     55  C   UNL A   1      44.635  29.227  29.212  1.00  0.00     0.037 A 
BRANCH  42  56
ATOM     56  C   UNL A   1      39.155  29.030  28.743  1.00  0.00     0.057 A 
ATOM     57  C   UNL A   1      38.968  28.778  30.126  1.00  0.00     0.134 A 
ATOM     58  C   UNL A   1      38.057  29.580  28.078  1.00  0.00     0.134 A 
ATOM     59  F   UNL A   1      39.969  28.302  30.884  1.00  0.00    -0.206 F 
ATOM     60  C   UNL A   1      37.733  28.925  30.764  1.00  0.00     0.040 A 
ATOM     61  C   UNL A   1      36.825  29.780  28.722  1.00  0.00     0.040 A 
ATOM     62  F   UNL A   1      38.098  29.858  26.769  1.00  0.00    -0.206 F 
ATOM     63  C   UNL A   1      36.647  29.409  30.052  1.00  0.00     0.006 A 
ENDBRANCH  42  56
BRANCH  43  64
ATOM     64  C   UNL A   1      49.402  26.687  27.307  1.00  0.00     0.057 A 
ATOM     65  C   UNL A   1      50.436  27.133  28.135  1.00  0.00     0.134 A 
ATOM     66  C   UNL A   1      49.855  26.214  26.042  1.00  0.00     0.134 A 
ATOM     67  F   UNL A   1      50.185  27.746  29.297  1.00  0.00    -0.206 F 
ATOM     68  C   UNL A   1      51.798  26.997  27.789  1.00  0.00     0.040 A 
ATOM     69  C   UNL A   1      51.198  26.035  25.700  1.00  0.00     0.040 A 
ATOM     70  F   UNL A   1      49.005  25.897  25.057  1.00  0.00    -0.206 F 
ATOM     71  C   UNL A   1      52.184  26.410  26.588  1.00  0.00     0.006 A 
ENDBRANCH  43  64
BRANCH  55  72
ATOM     72  C   UNL A   1      44.538  28.509  30.547  1.00  0.00     0.057 A 
ATOM     73  C   UNL A   1      45.181  29.035  31.675  1.00  0.00     0.134 A 
ATOM     74  C   UNL A   1      43.945  27.250  30.729  1.00  0.00     0.134 A 
ATOM     75  F   UNL A   1      45.767  30.241  31.613  1.00  0.00    -0.206 F 
ATOM     76  C   UNL A   1      45.252  28.341  32.891  1.00  0.00     0.040 A 
ATOM     77  C   UNL A   1      43.998  26.544  31.938  1.00  0.00     0.040 A 
ATOM     78  F   UNL A   1      43.302  26.650  29.731  1.00  0.00    -0.206 F 
ATOM     79  C   UNL A   1      44.665  27.086  33.026  1.00  0.00     0.006 A 
ENDBRANCH  55  72
ENDBRANCH  29  30
ENDBRANCH  21  24
ENDBRANCH  19  20
ENDBRANCH   1  19
TORSDOF 13
ENDMDL
MODEL 3
REMARK VINA RESULT:      -9.9      3.852      6.516
REMARK SMILES O=C(C[C@H](c1ccsc1)n1cccc1)NCCCNC(=O)c1ccc(-c2c3nc(c(-c4c(F)cccc4F)c4ccc([nH]4)c(-c4c(F)cccc4F)c4nc(c(-c5c(F)cccc5F)c5ccc2[nH]5)C=C4)C=C3)cc1
REMARK SMILES IDX 17 1 16 2 15 3 1 4 2 5 3 7 4 8 10 9 11 10 14 11 12 12 13 13
REMARK SMILES IDX 5 14 6 15 9 16 7 17 8 18 18 19 19 20 20 21 21 23 22 24 23 25
REMARK SMILES IDX 75 26 24 27 74 28 25 29 26 30 27 31 68 32 28 33 73 34 67 35
REMARK SMILES IDX 69 36 29 37 72 38 66 39 65 40 30 42 56 43 39 44 55 45 40 46
REMARK SMILES IDX 43 47 54 48 70 49 41 50 42 51 53 53 71 54 44 55 31 56 32 57
REMARK SMILES IDX 37 58 33 59 34 60 36 61 38 62 35 63 57 64 58 65 63 66 59 67
REMARK SMILES IDX 60 68 62 69 64 70 61 71 45 72 46 73 51 74 47 75 48 76 50 77
REMARK SMILES IDX 52 78 49 79
REMARK H PARENT 15 6 19 22 69 41 43 52
REMARK Flexibility Score: inf
ROOT
ATOM      1  C   UNL A   1      33.702  28.009  26.427  1.00  0.00     0.042 C 
ENDROOT
BRANCH   1   2
ATOM      2  C   UNL A   1      33.247  27.955  24.968  1.00  0.00     0.117 C 
BRANCH   2   3
ATOM      3  N   UNL A   1      33.179  26.609  24.416  1.00  0.00    -0.356 N 
ATOM      4  O   UNL A   1      33.623  27.262  22.269  1.00  0.00    -0.275 OA
ATOM      5  C   UNL A   1      33.494  26.363  23.098  1.00  0.00     0.222 C 
ATOM      6  H   UNL A   1      32.902  25.862  24.995  1.00  0.00     0.163 HD
BRANCH   5   7
ATOM      7  C   UNL A   1      33.647  24.910  22.695  1.00  0.00     0.130 C 
BRANCH   7   8
ATOM      8  C   UNL A   1      33.758  23.910  23.853  1.00  0.00     0.127 C 
BRANCH   8   9
ATOM      9  N   UNL A   1      33.084  22.636  23.508  1.00  0.00    -0.346 N 
ATOM     10  C   UNL A   1      32.516  22.373  22.279  1.00  0.00     0.086 A 
ATOM     11  C   UNL A   1      32.940  21.521  24.298  1.00  0.00     0.086 A 
ATOM     12  C   UNL A   1      32.005  21.092  22.303  1.00  0.00     0.019 A 
ATOM     13  C   UNL A   1      32.267  20.558  23.582  1.00  0.00     0.019 A 
ENDBRANCH   8   9
BRANCH   8  14
ATOM     14  C   UNL A   1      35.157  23.674  24.390  1.00  0.00    -0.014 A 
ATOM     15  C   UNL A   1      36.223  23.001  23.696  1.00  0.00     0.017 A 
ATOM     16  C   UNL A   1      35.592  24.103  25.634  1.00  0.00     0.070 A 
ATOM     17  C   UNL A   1      37.377  22.918  24.441  1.00  0.00     0.065 A 
ATOM     18  S   UNL A   1      37.217  23.686  25.957  1.00  0.00    -0.152 S 
ENDBRANCH   8  14
ENDBRANCH   7   8
ENDBRANCH   5   7
ENDBRANCH   2   3
ENDBRANCH   1   2
BRANCH   1  19
ATOM     19  C   UNL A   1      35.142  28.480  26.592  1.00  0.00     0.118 C 
BRANCH  19  20
ATOM     20  N   UNL A   1      35.230  29.775  27.254  1.00  0.00    -0.352 N 
ATOM     21  C   UNL A   1      36.173  30.243  28.140  1.00  0.00     0.251 C 
ATOM     22  H   UNL A   1      34.510  30.409  27.034  1.00  0.00     0.163 HD
ATOM     23  O   UNL A   1      35.922  31.214  28.838  1.00  0.00    -0.269 OA
BRANCH  21  24
ATOM     24  C   UNL A   1      37.485  29.574  28.263  1.00  0.00     0.039 A 
ATOM     25  C   UNL A   1      38.431  29.756  27.246  1.00  0.00     0.014 A 
ATOM     26  C   UNL A   1      37.752  28.711  29.329  1.00  0.00     0.014 A 
ATOM     27  C   UNL A   1      39.663  29.120  27.334  1.00  0.00     0.010 A 
ATOM     28  C   UNL A   1      38.999  28.126  29.457  1.00  0.00     0.010 A 
ATOM     29  C   UNL A   1      39.946  28.322  28.450  1.00  0.00    -0.014 A 
BRANCH  29  30
ATOM     30  C   UNL A   1      41.273  27.694  28.575  1.00  0.00     0.031 A 
ATOM     31  C   UNL A   1      41.252  26.231  28.113  1.00  0.00     0.074 A 
ATOM     32  C   UNL A   1      42.252  28.498  29.090  1.00  0.00     0.049 A 
ATOM     33  N   UNL A   1      41.857  25.192  28.600  1.00  0.00    -0.248 NA
ATOM     34  C   UNL A   1      40.345  25.844  26.997  1.00  0.00     0.031 C 
ATOM     35  C   UNL A   1      42.071  29.930  29.426  1.00  0.00     0.029 A 
ATOM     36  N   UNL A   1      43.574  28.311  29.436  1.00  0.00    -0.354 N 
ATOM     37  C   UNL A   1      41.558  24.087  27.768  1.00  0.00     0.074 A 
ATOM     38  C   UNL A   1      40.516  24.523  26.888  1.00  0.00     0.031 C 
ATOM     39  C   UNL A   1      43.187  30.445  29.983  1.00  0.00     0.029 A 
ATOM     40  C   UNL A   1      44.196  29.414  30.082  1.00  0.00     0.049 A 
ATOM     41  H   UNL A   1      44.053  27.472  29.249  1.00  0.00     0.167 HD
ATOM     42  C   UNL A   1      42.304  22.938  27.759  1.00  0.00     0.037 A 
ATOM     43  C   UNL A   1      45.409  29.471  30.718  1.00  0.00     0.037 A 
ATOM     44  C   UNL A   1      43.402  23.083  28.654  1.00  0.00     0.049 A 
ATOM     45  C   UNL A   1      45.996  28.139  30.527  1.00  0.00     0.074 A 
ATOM     46  C   UNL A   1      43.497  23.087  30.020  1.00  0.00     0.029 A 
ATOM     47  N   UNL A   1      44.545  23.628  28.120  1.00  0.00    -0.354 N 
ATOM     48  N   UNL A   1      46.496  27.698  29.413  1.00  0.00    -0.248 NA
ATOM     49  C   UNL A   1      45.897  27.174  31.629  1.00  0.00     0.031 C 
ATOM     50  C   UNL A   1      44.472  24.075  30.271  1.00  0.00     0.029 A 
ATOM     51  C   UNL A   1      45.086  24.455  29.070  1.00  0.00     0.049 A 
ATOM     52  H   UNL A   1      44.907  23.457  27.220  1.00  0.00     0.167 HD
ATOM     53  C   UNL A   1      46.452  26.336  29.594  1.00  0.00     0.074 A 
ATOM     54  C   UNL A   1      46.402  26.106  31.020  1.00  0.00     0.031 C 
ATOM     55  C   UNL A   1      45.923  25.546  28.627  1.00  0.00     0.037 A 
BRANCH  42  56
ATOM     56  C   UNL A   1      42.364  21.750  26.834  1.00  0.00     0.057 A 
ATOM     57  C   UNL A   1      41.747  20.544  27.257  1.00  0.00     0.134 A 
ATOM     58  C   UNL A   1      43.255  21.626  25.767  1.00  0.00     0.134 A 
ATOM     59  F   UNL A   1      40.830  20.543  28.238  1.00  0.00    -0.206 F 
ATOM     60  C   UNL A   1      42.103  19.291  26.750  1.00  0.00     0.040 A 
ATOM     61  C   UNL A   1      43.583  20.377  25.215  1.00  0.00     0.040 A 
ATOM     62  F   UNL A   1      43.911  22.685  25.277  1.00  0.00    -0.206 F 
ATOM     63  C   UNL A   1      43.043  19.204  25.736  1.00  0.00     0.006 A 
ENDBRANCH  42  56
BRANCH  43  64
ATOM     64  C   UNL A   1      46.164  30.419  31.624  1.00  0.00     0.057 A 
ATOM     65  C   UNL A   1      46.063  30.496  33.016  1.00  0.00     0.134 A 
ATOM     66  C   UNL A   1      47.123  31.318  31.076  1.00  0.00     0.134 A 
ATOM     67  F   UNL A   1      45.112  29.835  33.686  1.00  0.00    -0.206 F 
ATOM     68  C   UNL A   1      46.928  31.293  33.796  1.00  0.00     0.040 A 
ATOM     69  C   UNL A   1      48.014  32.082  31.836  1.00  0.00     0.040 A 
ATOM     70  F   UNL A   1      47.249  31.504  29.756  1.00  0.00    -0.206 F 
ATOM     71  C   UNL A   1      47.933  32.056  33.211  1.00  0.00     0.006 A 
ENDBRANCH  43  64
BRANCH  55  72
ATOM     72  C   UNL A   1      45.958  26.156  27.236  1.00  0.00     0.057 A 
ATOM     73  C   UNL A   1      47.186  26.382  26.599  1.00  0.00     0.134 A 
ATOM     74  C   UNL A   1      44.833  26.651  26.559  1.00  0.00     0.134 A 
ATOM     75  F   UNL A   1      48.322  25.935  27.156  1.00  0.00    -0.206 F 
ATOM     76  C   UNL A   1      47.287  27.078  25.387  1.00  0.00     0.040 A 
ATOM     77  C   UNL A   1      44.912  27.342  25.342  1.00  0.00     0.040 A 
ATOM     78  F   UNL A   1      43.613  26.494  27.062  1.00  0.00    -0.206 F 
ATOM     79  C   UNL A   1      46.147  27.568  24.755  1.00  0.00     0.006 A 
ENDBRANCH  55  72
ENDBRANCH  29  30
ENDBRANCH  21  24
ENDBRANCH  19  20
ENDBRANCH   1  19
TORSDOF 13
ENDMDL
