MODEL 1
REMARK VINA RESULT:     -13.2      0.000      0.000
REMARK SMILES Cc1c(C(=O)NCCCNC(=O)c2ccc(-c3c4nc(c(-c5c(F)cccc5F)c5ccc([nH]5)c(-c5c(F)cccc5F)c5nc(c(-c6c(F)cccc6F)c6ccc3[nH]6)C=C5)C=C4)cc2)ccc2c1N[C@@H](c1ccc(S(=O)(=O)N3CCOCC3)cc1)[C@@H]1CC=C[C@H]21
REMARK SMILES IDX 7 1 6 2 4 3 5 4 3 6 1 7 2 8 70 9 67 10 69 11 71 12 68 13
REMARK SMILES IDX 92 14 72 15 88 17 91 18 89 19 90 20 73 21 74 22 87 23 75 24
REMARK SMILES IDX 86 25 76 26 77 27 78 28 79 29 80 30 81 31 85 32 82 33 84 34
REMARK SMILES IDX 83 35 8 36 9 37 10 38 11 39 12 41 13 42 14 43 66 44 15 45
REMARK SMILES IDX 65 46 16 47 17 48 18 49 59 50 19 51 64 52 58 53 60 54 20 55
REMARK SMILES IDX 63 56 57 57 56 58 21 60 47 61 30 62 46 63 31 64 34 65 45 66
REMARK SMILES IDX 61 67 32 68 33 69 44 71 62 72 35 73 22 74 23 75 28 76 24 77
REMARK SMILES IDX 25 78 27 79 29 80 26 81 48 82 49 83 54 84 50 85 51 86 53 87
REMARK SMILES IDX 55 88 52 89 36 90 37 91 42 92 38 93 39 94 41 95 43 96 40 97
REMARK H PARENT 6 5 71 16 10 40 60 59 34 70
REMARK Flexibility Score: inf
ROOT
ATOM      1  C   UNL A   1      43.169  21.723  25.687  1.00  0.00     0.118 C 
ENDROOT
BRANCH   1   2
ATOM      2  N   UNL A   1      42.755  22.258  26.975  1.00  0.00    -0.352 N 
ATOM      3  C   UNL A   1      41.499  22.390  27.522  1.00  0.00     0.251 C 
ATOM      4  O   UNL A   1      41.396  22.844  28.661  1.00  0.00    -0.269 OA
ATOM      5  H   UNL A   1      43.490  22.578  27.546  1.00  0.00     0.163 HD
BRANCH   3   6
ATOM      6  C   UNL A   1      40.275  22.087  26.740  1.00  0.00     0.044 A 
ATOM      7  C   UNL A   1      39.376  24.480  26.702  1.00  0.00     0.047 C 
ATOM      8  C   UNL A   1      39.223  22.990  26.537  1.00  0.00    -0.015 A 
ATOM      9  C   UNL A   1      37.994  22.495  26.066  1.00  0.00     0.042 A 
ATOM     10  C   UNL A   1      40.198  20.804  26.180  1.00  0.00     0.014 A 
ATOM     11  C   UNL A   1      37.950  21.257  25.416  1.00  0.00    -0.017 A 
ATOM     12  N   UNL A   1      36.862  23.283  26.173  1.00  0.00    -0.377 N 
ATOM     13  C   UNL A   1      39.065  20.413  25.469  1.00  0.00     0.007 A 
ATOM     14  C   UNL A   1      36.750  20.890  24.582  1.00  0.00     0.049 C 
ATOM     15  C   UNL A   1      35.557  22.730  25.848  1.00  0.00     0.114 C 
ATOM     16  H   UNL A   1      36.940  24.219  26.468  1.00  0.00     0.161 HD
ATOM     17  C   UNL A   1      35.647  21.981  24.497  1.00  0.00     0.031 C 
ATOM     18  C   UNL A   1      35.968  19.693  25.056  1.00  0.00    -0.023 C 
ATOM     19  C   UNL A   1      34.402  21.155  24.125  1.00  0.00     0.034 C 
ATOM     20  C   UNL A   1      34.665  19.840  24.790  1.00  0.00    -0.030 C 
BRANCH  15  21
ATOM     21  C   UNL A   1      34.545  23.871  25.901  1.00  0.00    -0.025 A 
ATOM     22  C   UNL A   1      33.284  23.763  26.528  1.00  0.00     0.007 A 
ATOM     23  C   UNL A   1      34.845  25.066  25.245  1.00  0.00     0.007 A 
ATOM     24  C   UNL A   1      32.363  24.815  26.502  1.00  0.00     0.022 A 
ATOM     25  C   UNL A   1      33.951  26.128  25.262  1.00  0.00     0.022 A 
ATOM     26  C   UNL A   1      32.711  26.010  25.878  1.00  0.00     0.082 A 
BRANCH  26  27
ATOM     27  S   UNL A   1      31.560  27.366  25.902  1.00  0.00     0.243 S 
ATOM     28  O   UNL A   1      30.454  26.939  26.740  1.00  0.00    -0.207 OA
ATOM     29  O   UNL A   1      32.329  28.550  26.200  1.00  0.00    -0.207 OA
BRANCH  27  30
ATOM     30  N   UNL A   1      31.003  27.496  24.327  1.00  0.00    -0.193 NA
ATOM     31  C   UNL A   1      31.754  28.210  23.275  1.00  0.00     0.131 C 
ATOM     32  C   UNL A   1      29.686  26.971  23.923  1.00  0.00     0.131 C 
ATOM     33  C   UNL A   1      30.855  29.179  22.488  1.00  0.00     0.177 C 
ATOM     34  C   UNL A   1      28.885  28.052  23.195  1.00  0.00     0.177 C 
ATOM     35  O   UNL A   1      29.615  28.586  22.081  1.00  0.00    -0.379 OA
ENDBRANCH  27  30
ENDBRANCH  26  27
ENDBRANCH  15  21
ENDBRANCH   3   6
ENDBRANCH   1   2
BRANCH   1  36
ATOM     36  C   UNL A   1      43.435  22.768  24.619  1.00  0.00     0.042 C 
BRANCH  36  37
ATOM     37  C   UNL A   1      43.377  24.200  25.133  1.00  0.00     0.118 C 
BRANCH  37  38
ATOM     38  N   UNL A   1      44.517  25.018  24.730  1.00  0.00    -0.352 N 
ATOM     39  C   UNL A   1      45.025  26.193  25.232  1.00  0.00     0.251 C 
ATOM     40  H   UNL A   1      45.013  24.663  23.957  1.00  0.00     0.163 HD
ATOM     41  O   UNL A   1      45.928  26.767  24.628  1.00  0.00    -0.269 OA
BRANCH  39  42
ATOM     42  C   UNL A   1      44.474  26.801  26.462  1.00  0.00     0.039 A 
ATOM     43  C   UNL A   1      44.552  28.188  26.628  1.00  0.00     0.014 A 
ATOM     44  C   UNL A   1      43.909  26.019  27.467  1.00  0.00     0.014 A 
ATOM     45  C   UNL A   1      43.984  28.792  27.754  1.00  0.00     0.010 A 
ATOM     46  C   UNL A   1      43.248  26.623  28.529  1.00  0.00     0.010 A 
ATOM     47  C   UNL A   1      43.289  28.015  28.693  1.00  0.00    -0.014 A 
BRANCH  47  48
ATOM     48  C   UNL A   1      42.641  28.612  29.886  1.00  0.00     0.031 A 
ATOM     49  C   UNL A   1      41.284  29.250  29.752  1.00  0.00     0.074 A 
ATOM     50  C   UNL A   1      43.300  28.662  31.060  1.00  0.00     0.049 A 
ATOM     51  N   UNL A   1      40.601  29.940  30.628  1.00  0.00    -0.248 NA
ATOM     52  C   UNL A   1      40.628  29.127  28.440  1.00  0.00     0.031 C 
ATOM     53  C   UNL A   1      44.637  28.119  31.309  1.00  0.00     0.029 A 
ATOM     54  N   UNL A   1      42.935  29.213  32.262  1.00  0.00    -0.354 N 
ATOM     55  C   UNL A   1      39.449  30.349  29.967  1.00  0.00     0.074 A 
ATOM     56  C   UNL A   1      39.557  29.888  28.601  1.00  0.00     0.031 C 
ATOM     57  C   UNL A   1      44.971  28.347  32.590  1.00  0.00     0.029 A 
ATOM     58  C   UNL A   1      43.890  29.080  33.241  1.00  0.00     0.049 A 
ATOM     59  H   UNL A   1      42.072  29.661  32.409  1.00  0.00     0.167 HD
ATOM     60  C   UNL A   1      38.381  31.019  30.459  1.00  0.00     0.037 A 
ATOM     61  C   UNL A   1      43.891  29.509  34.517  1.00  0.00     0.037 A 
ATOM     62  C   UNL A   1      38.259  31.447  31.826  1.00  0.00     0.049 A 
ATOM     63  C   UNL A   1      42.697  30.261  35.038  1.00  0.00     0.074 A 
ATOM     64  C   UNL A   1      37.196  32.084  32.442  1.00  0.00     0.029 A 
ATOM     65  N   UNL A   1      39.238  31.274  32.793  1.00  0.00    -0.354 N 
ATOM     66  N   UNL A   1      41.590  30.591  34.418  1.00  0.00    -0.248 NA
ATOM     67  C   UNL A   1      42.755  30.699  36.441  1.00  0.00     0.031 C 
ATOM     68  C   UNL A   1      37.544  32.323  33.777  1.00  0.00     0.029 A 
ATOM     69  C   UNL A   1      38.810  31.804  33.999  1.00  0.00     0.049 A 
ATOM     70  H   UNL A   1      40.108  30.838  32.643  1.00  0.00     0.167 HD
ATOM     71  C   UNL A   1      40.808  31.247  35.360  1.00  0.00     0.074 A 
ATOM     72  C   UNL A   1      41.563  31.257  36.597  1.00  0.00     0.031 C 
ATOM     73  C   UNL A   1      39.575  31.792  35.218  1.00  0.00     0.037 A 
BRANCH  60  74
ATOM     74  C   UNL A   1      37.261  31.313  29.504  1.00  0.00     0.057 A 
ATOM     75  C   UNL A   1      36.276  30.357  29.235  1.00  0.00     0.134 A 
ATOM     76  C   UNL A   1      37.152  32.553  28.858  1.00  0.00     0.134 A 
ATOM     77  F   UNL A   1      36.321  29.148  29.816  1.00  0.00    -0.206 F 
ATOM     78  C   UNL A   1      35.217  30.625  28.365  1.00  0.00     0.040 A 
ATOM     79  C   UNL A   1      36.083  32.844  28.010  1.00  0.00     0.040 A 
ATOM     80  F   UNL A   1      38.054  33.520  29.087  1.00  0.00    -0.206 F 
ATOM     81  C   UNL A   1      35.113  31.876  27.758  1.00  0.00     0.006 A 
ENDBRANCH  60  74
BRANCH  61  82
ATOM     82  C   UNL A   1      45.042  29.217  35.406  1.00  0.00     0.057 A 
ATOM     83  C   UNL A   1      46.140  30.079  35.497  1.00  0.00     0.134 A 
ATOM     84  C   UNL A   1      45.048  28.074  36.216  1.00  0.00     0.134 A 
ATOM     85  F   UNL A   1      46.196  31.186  34.745  1.00  0.00    -0.206 F 
ATOM     86  C   UNL A   1      47.203  29.817  36.365  1.00  0.00     0.040 A 
ATOM     87  C   UNL A   1      46.093  27.811  37.103  1.00  0.00     0.040 A 
ATOM     88  F   UNL A   1      44.013  27.221  36.186  1.00  0.00    -0.206 F 
ATOM     89  C   UNL A   1      47.176  28.684  37.177  1.00  0.00     0.006 A 
ENDBRANCH  61  82
BRANCH  73  90
ATOM     90  C   UNL A   1      38.960  32.410  36.438  1.00  0.00     0.057 A 
ATOM     91  C   UNL A   1      38.053  31.685  37.221  1.00  0.00     0.134 A 
ATOM     92  C   UNL A   1      39.244  33.726  36.822  1.00  0.00     0.134 A 
ATOM     93  F   UNL A   1      37.735  30.421  36.903  1.00  0.00    -0.206 F 
ATOM     94  C   UNL A   1      37.449  32.249  38.345  1.00  0.00     0.040 A 
ATOM     95  C   UNL A   1      38.664  34.293  37.958  1.00  0.00     0.040 A 
ATOM     96  F   UNL A   1      40.116  34.466  36.121  1.00  0.00    -0.206 F 
ATOM     97  C   UNL A   1      37.759  33.556  38.719  1.00  0.00     0.006 A 
ENDBRANCH  73  90
ENDBRANCH  47  48
ENDBRANCH  39  42
ENDBRANCH  37  38
ENDBRANCH  36  37
ENDBRANCH   1  36
TORSDOF 13
ENDMDL
MODEL 2
REMARK VINA RESULT:     -13.1      3.846      8.313
REMARK SMILES Cc1c(C(=O)NCCCNC(=O)c2ccc(-c3c4nc(c(-c5c(F)cccc5F)c5ccc([nH]5)c(-c5c(F)cccc5F)c5nc(c(-c6c(F)cccc6F)c6ccc3[nH]6)C=C5)C=C4)cc2)ccc2c1N[C@@H](c1ccc(S(=O)(=O)N3CCOCC3)cc1)[C@@H]1CC=C[C@H]21
REMARK SMILES IDX 7 1 6 2 4 3 5 4 3 6 1 7 2 8 70 9 67 10 69 11 71 12 68 13
REMARK SMILES IDX 92 14 72 15 88 17 91 18 89 19 90 20 73 21 74 22 87 23 75 24
REMARK SMILES IDX 86 25 76 26 77 27 78 28 79 29 80 30 81 31 85 32 82 33 84 34
REMARK SMILES IDX 83 35 8 36 9 37 10 38 11 39 12 41 13 42 14 43 66 44 15 45
REMARK SMILES IDX 65 46 16 47 17 48 18 49 59 50 19 51 64 52 58 53 60 54 20 55
REMARK SMILES IDX 63 56 57 57 56 58 21 60 47 61 30 62 46 63 31 64 34 65 45 66
REMARK SMILES IDX 61 67 32 68 33 69 44 71 62 72 35 73 22 74 23 75 28 76 24 77
REMARK SMILES IDX 25 78 27 79 29 80 26 81 48 82 49 83 54 84 50 85 51 86 53 87
REMARK SMILES IDX 55 88 52 89 36 90 37 91 42 92 38 93 39 94 41 95 43 96 40 97
REMARK H PARENT 6 5 71 16 10 40 60 59 34 70
REMARK Flexibility Score: inf
ROOT
ATOM      1  C   UNL A   1      34.737  22.588  23.908  1.00  0.00     0.118 C 
ENDROOT
BRANCH   1   2
ATOM      2  N   UNL A   1      33.877  22.273  25.039  1.00  0.00    -0.352 N 
ATOM      3  C   UNL A   1      32.749  22.909  25.505  1.00  0.00     0.251 C 
ATOM      4  O   UNL A   1      32.158  22.430  26.472  1.00  0.00    -0.269 OA
ATOM      5  H   UNL A   1      34.147  21.479  25.555  1.00  0.00     0.163 HD
BRANCH   3   6
ATOM      6  C   UNL A   1      32.289  24.196  24.928  1.00  0.00     0.044 A 
ATOM      7  C   UNL A   1      34.072  25.648  26.047  1.00  0.00     0.047 C 
ATOM      8  C   UNL A   1      32.763  25.453  25.324  1.00  0.00    -0.015 A 
ATOM      9  C   UNL A   1      32.035  26.595  24.947  1.00  0.00     0.042 A 
ATOM     10  C   UNL A   1      31.316  24.114  23.922  1.00  0.00     0.014 A 
ATOM     11  C   UNL A   1      31.141  26.524  23.873  1.00  0.00    -0.017 A 
ATOM     12  N   UNL A   1      32.281  27.797  25.589  1.00  0.00    -0.377 N 
ATOM     13  C   UNL A   1      30.790  25.272  23.355  1.00  0.00     0.007 A 
ATOM     14  C   UNL A   1      30.652  27.790  23.220  1.00  0.00     0.049 C 
ATOM     15  C   UNL A   1      31.427  28.946  25.335  1.00  0.00     0.114 C 
ATOM     16  H   UNL A   1      33.036  27.874  26.217  1.00  0.00     0.161 HD
ATOM     17  C   UNL A   1      31.235  29.105  23.807  1.00  0.00     0.031 C 
ATOM     18  C   UNL A   1      29.169  28.039  23.311  1.00  0.00    -0.023 C 
ATOM     19  C   UNL A   1      30.178  30.143  23.388  1.00  0.00     0.034 C 
ATOM     20  C   UNL A   1      28.910  29.349  23.393  1.00  0.00    -0.030 C 
BRANCH  15  21
ATOM     21  C   UNL A   1      32.043  30.147  26.047  1.00  0.00    -0.025 A 
ATOM     22  C   UNL A   1      33.336  30.133  26.617  1.00  0.00     0.007 A 
ATOM     23  C   UNL A   1      31.275  31.302  26.204  1.00  0.00     0.007 A 
ATOM     24  C   UNL A   1      33.839  31.237  27.312  1.00  0.00     0.022 A 
ATOM     25  C   UNL A   1      31.794  32.415  26.851  1.00  0.00     0.022 A 
ATOM     26  C   UNL A   1      33.064  32.390  27.413  1.00  0.00     0.082 A 
BRANCH  26  27
ATOM     27  S   UNL A   1      33.734  33.812  28.245  1.00  0.00     0.243 S 
ATOM     28  O   UNL A   1      34.418  34.588  27.227  1.00  0.00    -0.207 OA
ATOM     29  O   UNL A   1      32.661  34.366  29.034  1.00  0.00    -0.207 OA
BRANCH  27  30
ATOM     30  N   UNL A   1      34.886  33.201  29.298  1.00  0.00    -0.193 NA
ATOM     31  C   UNL A   1      34.569  32.823  30.690  1.00  0.00     0.131 C 
ATOM     32  C   UNL A   1      36.304  33.083  28.915  1.00  0.00     0.131 C 
ATOM     33  C   UNL A   1      35.587  33.403  31.686  1.00  0.00     0.177 C 
ATOM     34  C   UNL A   1      37.195  33.742  29.969  1.00  0.00     0.177 C 
ATOM     35  O   UNL A   1      36.946  33.206  31.277  1.00  0.00    -0.379 OA
ENDBRANCH  27  30
ENDBRANCH  26  27
ENDBRANCH  15  21
ENDBRANCH   3   6
ENDBRANCH   1   2
BRANCH   1  36
ATOM     36  C   UNL A   1      36.162  22.080  24.031  1.00  0.00     0.042 C 
BRANCH  36  37
ATOM     37  C   UNL A   1      36.493  21.504  25.401  1.00  0.00     0.118 C 
BRANCH  37  38
ATOM     38  N   UNL A   1      37.481  20.430  25.367  1.00  0.00    -0.352 N 
ATOM     39  C   UNL A   1      38.832  20.419  25.622  1.00  0.00     0.251 C 
ATOM     40  H   UNL A   1      37.112  19.554  25.115  1.00  0.00     0.163 HD
ATOM     41  O   UNL A   1      39.481  19.402  25.392  1.00  0.00    -0.269 OA
BRANCH  39  42
ATOM     42  C   UNL A   1      39.525  21.624  26.126  1.00  0.00     0.039 A 
ATOM     43  C   UNL A   1      40.814  21.494  26.656  1.00  0.00     0.014 A 
ATOM     44  C   UNL A   1      38.910  22.874  26.112  1.00  0.00     0.014 A 
ATOM     45  C   UNL A   1      41.513  22.628  27.083  1.00  0.00     0.010 A 
ATOM     46  C   UNL A   1      39.641  24.012  26.431  1.00  0.00     0.010 A 
ATOM     47  C   UNL A   1      40.945  23.902  26.933  1.00  0.00    -0.014 A 
BRANCH  47  48
ATOM     48  C   UNL A   1      41.660  25.137  27.340  1.00  0.00     0.031 A 
ATOM     49  C   UNL A   1      40.969  26.133  28.232  1.00  0.00     0.074 A 
ATOM     50  C   UNL A   1      42.882  25.405  26.843  1.00  0.00     0.049 A 
ATOM     51  N   UNL A   1      41.355  27.327  28.599  1.00  0.00    -0.248 NA
ATOM     52  C   UNL A   1      39.645  25.745  28.748  1.00  0.00     0.031 C 
ATOM     53  C   UNL A   1      43.641  24.543  25.935  1.00  0.00     0.029 A 
ATOM     54  N   UNL A   1      43.695  26.496  27.022  1.00  0.00    -0.354 N 
ATOM     55  C   UNL A   1      40.316  27.838  29.367  1.00  0.00     0.074 A 
ATOM     56  C   UNL A   1      39.258  26.854  29.358  1.00  0.00     0.031 C 
ATOM     57  C   UNL A   1      44.817  25.128  25.653  1.00  0.00     0.029 A 
ATOM     58  C   UNL A   1      44.880  26.420  26.331  1.00  0.00     0.049 A 
ATOM     59  H   UNL A   1      43.452  27.260  27.592  1.00  0.00     0.167 HD
ATOM     60  C   UNL A   1      40.259  29.007  30.047  1.00  0.00     0.037 A 
ATOM     61  C   UNL A   1      45.896  27.298  26.250  1.00  0.00     0.037 A 
ATOM     62  C   UNL A   1      41.327  29.970  30.084  1.00  0.00     0.049 A 
ATOM     63  C   UNL A   1      45.805  28.596  27.006  1.00  0.00     0.074 A 
ATOM     64  C   UNL A   1      41.394  31.160  30.786  1.00  0.00     0.029 A 
ATOM     65  N   UNL A   1      42.519  29.846  29.388  1.00  0.00    -0.354 N 
ATOM     66  N   UNL A   1      44.841  29.041  27.774  1.00  0.00    -0.248 NA
ATOM     67  C   UNL A   1      46.949  29.511  26.883  1.00  0.00     0.031 C 
ATOM     68  C   UNL A   1      42.618  31.772  30.492  1.00  0.00     0.029 A 
ATOM     69  C   UNL A   1      43.326  30.945  29.633  1.00  0.00     0.049 A 
ATOM     70  H   UNL A   1      42.758  29.088  28.806  1.00  0.00     0.167 HD
ATOM     71  C   UNL A   1      45.273  30.273  28.250  1.00  0.00     0.074 A 
ATOM     72  C   UNL A   1      46.591  30.497  27.693  1.00  0.00     0.031 C 
ATOM     73  C   UNL A   1      44.638  31.141  29.075  1.00  0.00     0.037 A 
BRANCH  60  74
ATOM     74  C   UNL A   1      39.000  29.290  30.812  1.00  0.00     0.057 A 
ATOM     75  C   UNL A   1      37.850  29.747  30.159  1.00  0.00     0.134 A 
ATOM     76  C   UNL A   1      38.923  29.098  32.199  1.00  0.00     0.134 A 
ATOM     77  F   UNL A   1      37.854  29.957  28.834  1.00  0.00    -0.206 F 
ATOM     78  C   UNL A   1      36.665  29.993  30.857  1.00  0.00     0.040 A 
ATOM     79  C   UNL A   1      37.738  29.312  32.902  1.00  0.00     0.040 A 
ATOM     80  F   UNL A   1      39.986  28.643  32.881  1.00  0.00    -0.206 F 
ATOM     81  C   UNL A   1      36.604  29.766  32.231  1.00  0.00     0.006 A 
ENDBRANCH  60  74
BRANCH  61  82
ATOM     82  C   UNL A   1      47.104  26.978  25.450  1.00  0.00     0.057 A 
ATOM     83  C   UNL A   1      47.261  27.438  24.138  1.00  0.00     0.134 A 
ATOM     84  C   UNL A   1      48.149  26.226  26.002  1.00  0.00     0.134 A 
ATOM     85  F   UNL A   1      46.295  28.157  23.551  1.00  0.00    -0.206 F 
ATOM     86  C   UNL A   1      48.418  27.164  23.403  1.00  0.00     0.040 A 
ATOM     87  C   UNL A   1      49.318  25.964  25.287  1.00  0.00     0.040 A 
ATOM     88  F   UNL A   1      48.062  25.776  27.262  1.00  0.00    -0.206 F 
ATOM     89  C   UNL A   1      49.453  26.432  23.982  1.00  0.00     0.006 A 
ENDBRANCH  61  82
BRANCH  73  90
ATOM     90  C   UNL A   1      45.378  32.391  29.446  1.00  0.00     0.057 A 
ATOM     91  C   UNL A   1      45.241  33.554  28.678  1.00  0.00     0.134 A 
ATOM     92  C   UNL A   1      46.244  32.437  30.546  1.00  0.00     0.134 A 
ATOM     93  F   UNL A   1      44.431  33.573  27.608  1.00  0.00    -0.206 F 
ATOM     94  C   UNL A   1      45.940  34.719  28.990  1.00  0.00     0.040 A 
ATOM     95  C   UNL A   1      46.930  33.604  30.882  1.00  0.00     0.040 A 
ATOM     96  F   UNL A   1      46.406  31.360  31.329  1.00  0.00    -0.206 F 
ATOM     97  C   UNL A   1      46.784  34.748  30.099  1.00  0.00     0.006 A 
ENDBRANCH  73  90
ENDBRANCH  47  48
ENDBRANCH  39  42
ENDBRANCH  37  38
ENDBRANCH  36  37
ENDBRANCH   1  36
TORSDOF 13
ENDMDL
MODEL 3
REMARK VINA RESULT:     -13.0      1.030      5.979
REMARK SMILES Cc1c(C(=O)NCCCNC(=O)c2ccc(-c3c4nc(c(-c5c(F)cccc5F)c5ccc([nH]5)c(-c5c(F)cccc5F)c5nc(c(-c6c(F)cccc6F)c6ccc3[nH]6)C=C5)C=C4)cc2)ccc2c1N[C@@H](c1ccc(S(=O)(=O)N3CCOCC3)cc1)[C@@H]1CC=C[C@H]21
REMARK SMILES IDX 7 1 6 2 4 3 5 4 3 6 1 7 2 8 70 9 67 10 69 11 71 12 68 13
REMARK SMILES IDX 92 14 72 15 88 17 91 18 89 19 90 20 73 21 74 22 87 23 75 24
REMARK SMILES IDX 86 25 76 26 77 27 78 28 79 29 80 30 81 31 85 32 82 33 84 34
REMARK SMILES IDX 83 35 8 36 9 37 10 38 11 39 12 41 13 42 14 43 66 44 15 45
REMARK SMILES IDX 65 46 16 47 17 48 18 49 59 50 19 51 64 52 58 53 60 54 20 55
REMARK SMILES IDX 63 56 57 57 56 58 21 60 47 61 30 62 46 63 31 64 34 65 45 66
REMARK SMILES IDX 61 67 32 68 33 69 44 71 62 72 35 73 22 74 23 75 28 76 24 77
REMARK SMILES IDX 25 78 27 79 29 80 26 81 48 82 49 83 54 84 50 85 51 86 53 87
REMARK SMILES IDX 55 88 52 89 36 90 37 91 42 92 38 93 39 94 41 95 43 96 40 97
REMARK H PARENT 6 5 71 16 10 40 60 59 34 70
REMARK Flexibility Score: inf
ROOT
ATOM      1  C   UNL A   1      42.602  22.639  25.358  1.00  0.00     0.118 C 
ENDROOT
BRANCH   1   2
ATOM      2  N   UNL A   1      42.337  22.266  26.739  1.00  0.00    -0.352 N 
ATOM      3  C   UNL A   1      41.202  21.749  27.321  1.00  0.00     0.251 C 
ATOM      4  O   UNL A   1      41.227  21.472  28.519  1.00  0.00    -0.269 OA
ATOM      5  H   UNL A   1      43.090  22.408  27.357  1.00  0.00     0.163 HD
BRANCH   3   6
ATOM      6  C   UNL A   1      39.936  21.606  26.561  1.00  0.00     0.044 A 
ATOM      7  C   UNL A   1      39.273  24.073  26.672  1.00  0.00     0.047 C 
ATOM      8  C   UNL A   1      38.972  22.614  26.435  1.00  0.00    -0.015 A 
ATOM      9  C   UNL A   1      37.690  22.265  25.975  1.00  0.00     0.042 A 
ATOM     10  C   UNL A   1      39.722  20.368  25.938  1.00  0.00     0.014 A 
ATOM     11  C   UNL A   1      37.510  21.073  25.265  1.00  0.00    -0.017 A 
ATOM     12  N   UNL A   1      36.642  23.150  26.155  1.00  0.00    -0.377 N 
ATOM     13  C   UNL A   1      38.540  20.126  25.241  1.00  0.00     0.007 A 
ATOM     14  C   UNL A   1      36.261  20.869  24.448  1.00  0.00     0.049 C 
ATOM     15  C   UNL A   1      35.282  22.742  25.842  1.00  0.00     0.114 C 
ATOM     16  H   UNL A   1      36.817  24.058  26.496  1.00  0.00     0.161 HD
ATOM     17  C   UNL A   1      35.267  22.063  24.451  1.00  0.00     0.031 C 
ATOM     18  C   UNL A   1      35.379  19.728  24.883  1.00  0.00    -0.023 C 
ATOM     19  C   UNL A   1      33.939  21.380  24.074  1.00  0.00     0.034 C 
ATOM     20  C   UNL A   1      34.090  20.012  24.663  1.00  0.00    -0.030 C 
BRANCH  15  21
ATOM     21  C   UNL A   1      34.387  23.970  25.982  1.00  0.00    -0.025 A 
ATOM     22  C   UNL A   1      33.105  23.933  26.574  1.00  0.00     0.007 A 
ATOM     23  C   UNL A   1      34.822  25.184  25.447  1.00  0.00     0.007 A 
ATOM     24  C   UNL A   1      32.294  25.071  26.630  1.00  0.00     0.022 A 
ATOM     25  C   UNL A   1      34.036  26.325  25.547  1.00  0.00     0.022 A 
ATOM     26  C   UNL A   1      32.775  26.277  26.126  1.00  0.00     0.082 A 
BRANCH  26  27
ATOM     27  S   UNL A   1      31.763  27.734  26.256  1.00  0.00     0.243 S 
ATOM     28  O   UNL A   1      30.824  27.477  27.333  1.00  0.00    -0.207 OA
ATOM     29  O   UNL A   1      32.667  28.858  26.285  1.00  0.00    -0.207 OA
BRANCH  27  30
ATOM     30  N   UNL A   1      30.904  27.800  24.819  1.00  0.00    -0.193 NA
ATOM     31  C   UNL A   1      30.408  26.591  24.131  1.00  0.00     0.131 C 
ATOM     32  C   UNL A   1      30.666  29.073  24.114  1.00  0.00     0.131 C 
ATOM     33  C   UNL A   1      30.748  26.605  22.631  1.00  0.00     0.177 C 
ATOM     34  C   UNL A   1      31.091  28.957  22.650  1.00  0.00     0.177 C 
ATOM     35  O   UNL A   1      30.442  27.854  22.000  1.00  0.00    -0.379 OA
ENDBRANCH  27  30
ENDBRANCH  26  27
ENDBRANCH  15  21
ENDBRANCH   3   6
ENDBRANCH   1   2
BRANCH   1  36
ATOM     36  C   UNL A   1      42.713  24.133  25.112  1.00  0.00     0.042 C 
BRANCH  36  37
ATOM     37  C   UNL A   1      44.087  24.575  24.627  1.00  0.00     0.118 C 
BRANCH  37  38
ATOM     38  N   UNL A   1      45.194  23.987  25.374  1.00  0.00    -0.352 N 
ATOM     39  C   UNL A   1      45.661  24.211  26.647  1.00  0.00     0.251 C 
ATOM     40  H   UNL A   1      45.699  23.306  24.874  1.00  0.00     0.163 HD
ATOM     41  O   UNL A   1      46.708  23.679  27.008  1.00  0.00    -0.269 OA
BRANCH  39  42
ATOM     42  C   UNL A   1      44.949  25.115  27.576  1.00  0.00     0.039 A 
ATOM     43  C   UNL A   1      44.044  24.571  28.494  1.00  0.00     0.014 A 
ATOM     44  C   UNL A   1      45.140  26.494  27.533  1.00  0.00     0.014 A 
ATOM     45  C   UNL A   1      43.405  25.400  29.421  1.00  0.00     0.010 A 
ATOM     46  C   UNL A   1      44.594  27.303  28.522  1.00  0.00     0.010 A 
ATOM     47  C   UNL A   1      43.709  26.768  29.470  1.00  0.00    -0.014 A 
BRANCH  47  48
ATOM     48  C   UNL A   1      43.083  27.681  30.457  1.00  0.00     0.031 A 
ATOM     49  C   UNL A   1      43.672  27.797  31.837  1.00  0.00     0.074 A 
ATOM     50  C   UNL A   1      41.947  28.334  30.148  1.00  0.00     0.049 A 
ATOM     51  N   UNL A   1      43.211  28.428  32.886  1.00  0.00    -0.248 NA
ATOM     52  C   UNL A   1      44.928  27.068  32.079  1.00  0.00     0.031 C 
ATOM     53  C   UNL A   1      41.253  28.273  28.859  1.00  0.00     0.029 A 
ATOM     54  N   UNL A   1      41.165  29.168  30.907  1.00  0.00    -0.354 N 
ATOM     55  C   UNL A   1      44.108  28.155  33.912  1.00  0.00     0.074 A 
ATOM     56  C   UNL A   1      45.099  27.249  33.379  1.00  0.00     0.031 C 
ATOM     57  C   UNL A   1      40.160  29.053  28.912  1.00  0.00     0.029 A 
ATOM     58  C   UNL A   1      40.057  29.639  30.244  1.00  0.00     0.049 A 
ATOM     59  H   UNL A   1      41.378  29.405  31.838  1.00  0.00     0.167 HD
ATOM     60  C   UNL A   1      44.124  28.640  35.176  1.00  0.00     0.037 A 
ATOM     61  C   UNL A   1      39.070  30.447  30.671  1.00  0.00     0.037 A 
ATOM     62  C   UNL A   1      43.157  29.569  35.695  1.00  0.00     0.049 A 
ATOM     63  C   UNL A   1      39.104  30.964  32.083  1.00  0.00     0.074 A 
ATOM     64  C   UNL A   1      43.114  30.165  36.942  1.00  0.00     0.029 A 
ATOM     65  N   UNL A   1      42.063  30.039  34.986  1.00  0.00    -0.354 N 
ATOM     66  N   UNL A   1      39.988  30.744  33.026  1.00  0.00    -0.248 NA
ATOM     67  C   UNL A   1      38.000  31.848  32.489  1.00  0.00     0.031 C 
ATOM     68  C   UNL A   1      41.974  30.976  36.998  1.00  0.00     0.029 A 
ATOM     69  C   UNL A   1      41.328  30.910  35.773  1.00  0.00     0.049 A 
ATOM     70  H   UNL A   1      41.841  29.791  34.059  1.00  0.00     0.167 HD
ATOM     71  C   UNL A   1      39.566  31.482  34.124  1.00  0.00     0.074 A 
ATOM     72  C   UNL A   1      38.353  32.167  33.726  1.00  0.00     0.031 C 
ATOM     73  C   UNL A   1      40.130  31.587  35.352  1.00  0.00     0.037 A 
BRANCH  60  74
ATOM     74  C   UNL A   1      45.236  28.175  36.069  1.00  0.00     0.057 A 
ATOM     75  C   UNL A   1      46.445  28.877  36.136  1.00  0.00     0.134 A 
ATOM     76  C   UNL A   1      45.104  27.036  36.876  1.00  0.00     0.134 A 
ATOM     77  F   UNL A   1      46.641  29.974  35.388  1.00  0.00    -0.206 F 
ATOM     78  C   UNL A   1      47.480  28.468  36.980  1.00  0.00     0.040 A 
ATOM     79  C   UNL A   1      46.119  26.634  37.745  1.00  0.00     0.040 A 
ATOM     80  F   UNL A   1      43.963  26.330  36.872  1.00  0.00    -0.206 F 
ATOM     81  C   UNL A   1      47.314  27.349  37.795  1.00  0.00     0.006 A 
ENDBRANCH  60  74
BRANCH  61  82
ATOM     82  C   UNL A   1      37.976  30.847  29.751  1.00  0.00     0.057 A 
ATOM     83  C   UNL A   1      36.931  29.975  29.427  1.00  0.00     0.134 A 
ATOM     84  C   UNL A   1      37.940  32.134  29.201  1.00  0.00     0.134 A 
ATOM     85  F   UNL A   1      36.912  28.728  29.916  1.00  0.00    -0.206 F 
ATOM     86  C   UNL A   1      35.885  30.371  28.589  1.00  0.00     0.040 A 
ATOM     87  C   UNL A   1      36.889  32.550  28.381  1.00  0.00     0.040 A 
ATOM     88  F   UNL A   1      38.903  33.019  29.493  1.00  0.00    -0.206 F 
ATOM     89  C   UNL A   1      35.859  31.665  28.071  1.00  0.00     0.006 A 
ENDBRANCH  61  82
BRANCH  73  90
ATOM     90  C   UNL A   1      39.457  32.499  36.333  1.00  0.00     0.057 A 
ATOM     91  C   UNL A   1      38.343  32.063  37.062  1.00  0.00     0.134 A 
ATOM     92  C   UNL A   1      39.895  33.813  36.539  1.00  0.00     0.134 A 
ATOM     93  F   UNL A   1      37.872  30.816  36.905  1.00  0.00    -0.206 F 
ATOM     94  C   UNL A   1      37.687  32.903  37.960  1.00  0.00     0.040 A 
ATOM     95  C   UNL A   1      39.260  34.655  37.453  1.00  0.00     0.040 A 
ATOM     96  F   UNL A   1      40.965  34.284  35.883  1.00  0.00    -0.206 F 
ATOM     97  C   UNL A   1      38.149  34.203  38.162  1.00  0.00     0.006 A 
ENDBRANCH  73  90
ENDBRANCH  47  48
ENDBRANCH  39  42
ENDBRANCH  37  38
ENDBRANCH  36  37
ENDBRANCH   1  36
TORSDOF 13
ENDMDL
