MODEL 1
REMARK VINA RESULT:     -12.7      0.000      0.000
REMARK SMILES O=C(CSc1nc(O)cc(=O)[nH]1)Nc1cccc(C(=O)NCCCNC(=O)c2ccc(-c3c4nc(c(-c5c(F)cccc5F)c5ccc([nH]5)c(-c5c(F)cccc5F)c5nc(c(-c6c(F)cccc6F)c6ccc3[nH]6)C=C5)C=C4)cc2)c1
REMARK SMILES IDX 19 1 20 2 21 3 18 5 14 6 15 7 82 8 16 9 17 10 13 11 1 12
REMARK SMILES IDX 2 13 3 15 4 16 5 17 6 18 12 19 7 20 10 21 9 23 11 24 8 25
REMARK SMILES IDX 22 27 23 28 24 29 25 30 26 31 27 33 28 34 29 35 81 36 30 37
REMARK SMILES IDX 80 38 31 39 32 40 33 41 74 42 34 43 79 44 73 45 75 46 35 47
REMARK SMILES IDX 78 48 72 49 71 50 36 52 62 53 45 54 61 55 46 56 49 57 60 58
REMARK SMILES IDX 76 59 47 60 48 61 59 63 77 64 50 65 37 66 38 67 43 68 39 69
REMARK SMILES IDX 40 70 42 71 44 72 41 73 63 74 64 75 69 76 65 77 66 78 68 79
REMARK SMILES IDX 70 80 67 81 51 82 52 83 57 84 53 85 54 86 56 87 58 88 55 89
REMARK H PARENT 21 4 13 14 12 22 8 26 25 32 75 51 49 62
REMARK Flexibility Score: inf
ROOT
ATOM      1  C   UNL A   1      32.295  29.195  24.326  1.00  0.00     0.251 C 
ATOM      2  O   UNL A   1      33.173  29.110  23.468  1.00  0.00    -0.269 OA
ATOM      3  N   UNL A   1      32.469  30.103  25.349  1.00  0.00    -0.352 N 
ATOM      4  H   UNL A   1      33.296  30.632  25.271  1.00  0.00     0.163 HD
ENDROOT
BRANCH   1   5
ATOM      5  C   UNL A   1      31.137  28.261  24.270  1.00  0.00     0.041 A 
ATOM      6  C   UNL A   1      30.262  26.018  24.489  1.00  0.00     0.041 A 
ATOM      7  C   UNL A   1      29.145  26.385  23.735  1.00  0.00     0.026 A 
ATOM      8  C   UNL A   1      31.166  27.005  24.871  1.00  0.00     0.040 A 
ATOM      9  C   UNL A   1      28.987  27.708  23.312  1.00  0.00     0.003 A 
ATOM     10  C   UNL A   1      30.005  28.634  23.539  1.00  0.00     0.014 A 
BRANCH   6  11
ATOM     11  N   UNL A   1      30.497  24.644  24.720  1.00  0.00    -0.325 N 
ATOM     12  O   UNL A   1      31.132  24.632  26.967  1.00  0.00    -0.274 OA
ATOM     13  C   UNL A   1      30.973  24.062  25.890  1.00  0.00     0.234 C 
ATOM     14  H   UNL A   1      30.302  24.033  23.974  1.00  0.00     0.169 HD
BRANCH  13  15
ATOM     15  C   UNL A   1      31.400  22.610  25.735  1.00  0.00     0.178 C 
BRANCH  15  16
ATOM     16  S   UNL A   1      31.995  22.240  24.062  1.00  0.00    -0.078 SA
BRANCH  16  17
ATOM     17  C   UNL A   1      32.221  20.527  24.239  1.00  0.00     0.172 A 
ATOM     18  N   UNL A   1      32.379  19.974  25.392  1.00  0.00    -0.189 NA
ATOM     19  N   UNL A   1      32.228  19.871  23.053  1.00  0.00    -0.301 N 
ATOM     20  C   UNL A   1      32.582  18.622  25.374  1.00  0.00     0.218 A 
ATOM     21  C   UNL A   1      32.407  18.525  22.985  1.00  0.00     0.255 A 
ATOM     22  H   UNL A   1      32.101  20.382  22.221  1.00  0.00     0.172 HD
ATOM     23  C   UNL A   1      32.608  17.862  24.277  1.00  0.00     0.139 A 
ATOM     24  O   UNL A   1      32.415  17.914  21.927  1.00  0.00    -0.269 OA
BRANCH  20  25
ATOM     25  O   UNL A   1      32.787  18.040  26.597  1.00  0.00    -0.493 OA
ATOM     26  H   UNL A   1      32.430  17.194  26.779  1.00  0.00     0.295 HD
ENDBRANCH  20  25
ENDBRANCH  16  17
ENDBRANCH  15  16
ENDBRANCH  13  15
ENDBRANCH   6  11
ENDBRANCH   1   5
BRANCH   3  27
ATOM     27  C   UNL A   1      31.670  30.437  26.525  1.00  0.00     0.118 C 
BRANCH  27  28
ATOM     28  C   UNL A   1      31.452  31.926  26.729  1.00  0.00     0.042 C 
BRANCH  28  29
ATOM     29  C   UNL A   1      32.712  32.714  27.034  1.00  0.00     0.118 C 
BRANCH  29  30
ATOM     30  N   UNL A   1      32.439  34.074  27.485  1.00  0.00    -0.352 N 
ATOM     31  C   UNL A   1      33.002  34.824  28.490  1.00  0.00     0.251 C 
ATOM     32  H   UNL A   1      31.728  34.534  26.983  1.00  0.00     0.163 HD
ATOM     33  O   UNL A   1      32.482  35.888  28.814  1.00  0.00    -0.269 OA
BRANCH  31  34
ATOM     34  C   UNL A   1      34.211  34.357  29.202  1.00  0.00     0.039 A 
ATOM     35  C   UNL A   1      34.063  33.642  30.395  1.00  0.00     0.014 A 
ATOM     36  C   UNL A   1      35.489  34.637  28.719  1.00  0.00     0.014 A 
ATOM     37  C   UNL A   1      35.192  33.142  31.052  1.00  0.00     0.010 A 
ATOM     38  C   UNL A   1      36.601  34.047  29.308  1.00  0.00     0.010 A 
ATOM     39  C   UNL A   1      36.468  33.299  30.487  1.00  0.00    -0.014 A 
BRANCH  39  40
ATOM     40  C   UNL A   1      37.678  32.705  31.111  1.00  0.00     0.031 A 
ATOM     41  C   UNL A   1      38.329  31.497  30.492  1.00  0.00     0.074 A 
ATOM     42  C   UNL A   1      38.141  33.200  32.276  1.00  0.00     0.049 A 
ATOM     43  N   UNL A   1      39.325  30.774  30.938  1.00  0.00    -0.248 NA
ATOM     44  C   UNL A   1      37.765  31.019  29.219  1.00  0.00     0.031 C 
ATOM     45  C   UNL A   1      37.567  34.335  33.003  1.00  0.00     0.029 A 
ATOM     46  N   UNL A   1      39.193  32.802  33.063  1.00  0.00    -0.354 N 
ATOM     47  C   UNL A   1      39.491  29.749  30.014  1.00  0.00     0.074 A 
ATOM     48  C   UNL A   1      38.457  29.908  29.016  1.00  0.00     0.031 C 
ATOM     49  C   UNL A   1      38.287  34.556  34.114  1.00  0.00     0.029 A 
ATOM     50  C   UNL A   1      39.343  33.552  34.205  1.00  0.00     0.049 A 
ATOM     51  H   UNL A   1      39.784  32.049  32.832  1.00  0.00     0.167 HD
ATOM     52  C   UNL A   1      40.435  28.779  29.985  1.00  0.00     0.037 A 
ATOM     53  C   UNL A   1      40.223  33.437  35.216  1.00  0.00     0.037 A 
ATOM     54  C   UNL A   1      41.479  28.643  30.967  1.00  0.00     0.049 A 
ATOM     55  C   UNL A   1      41.255  32.344  35.167  1.00  0.00     0.074 A 
ATOM     56  C   UNL A   1      42.522  27.734  30.993  1.00  0.00     0.029 A 
ATOM     57  N   UNL A   1      41.609  29.437  32.095  1.00  0.00    -0.354 N 
ATOM     58  N   UNL A   1      41.445  31.426  34.249  1.00  0.00    -0.248 NA
ATOM     59  C   UNL A   1      42.201  32.274  36.289  1.00  0.00     0.031 C 
ATOM     60  C   UNL A   1      43.251  27.942  32.167  1.00  0.00     0.029 A 
ATOM     61  C   UNL A   1      42.700  29.021  32.840  1.00  0.00     0.049 A 
ATOM     62  H   UNL A   1      41.015  30.185  32.332  1.00  0.00     0.167 HD
ATOM     63  C   UNL A   1      42.547  30.691  34.667  1.00  0.00     0.074 A 
ATOM     64  C   UNL A   1      42.993  31.280  35.913  1.00  0.00     0.031 C 
ATOM     65  C   UNL A   1      43.138  29.626  34.073  1.00  0.00     0.037 A 
BRANCH  52  66
ATOM     66  C   UNL A   1      40.385  27.791  28.854  1.00  0.00     0.057 A 
ATOM     67  C   UNL A   1      39.597  26.634  28.915  1.00  0.00     0.134 A 
ATOM     68  C   UNL A   1      41.104  28.019  27.675  1.00  0.00     0.134 A 
ATOM     69  F   UNL A   1      38.892  26.348  30.020  1.00  0.00    -0.206 F 
ATOM     70  C   UNL A   1      39.547  25.727  27.855  1.00  0.00     0.040 A 
ATOM     71  C   UNL A   1      41.039  27.135  26.596  1.00  0.00     0.040 A 
ATOM     72  F   UNL A   1      41.875  29.110  27.544  1.00  0.00    -0.206 F 
ATOM     73  C   UNL A   1      40.263  25.981  26.687  1.00  0.00     0.006 A 
ENDBRANCH  52  66
BRANCH  53  74
ATOM     74  C   UNL A   1      40.180  34.386  36.359  1.00  0.00     0.057 A 
ATOM     75  C   UNL A   1      39.382  34.131  37.481  1.00  0.00     0.134 A 
ATOM     76  C   UNL A   1      40.919  35.575  36.353  1.00  0.00     0.134 A 
ATOM     77  F   UNL A   1      38.637  33.018  37.540  1.00  0.00    -0.206 F 
ATOM     78  C   UNL A   1      39.298  35.035  38.542  1.00  0.00     0.040 A 
ATOM     79  C   UNL A   1      40.868  36.474  37.420  1.00  0.00     0.040 A 
ATOM     80  F   UNL A   1      41.713  35.875  35.314  1.00  0.00    -0.206 F 
ATOM     81  C   UNL A   1      40.048  36.209  38.515  1.00  0.00     0.006 A 
ENDBRANCH  53  74
BRANCH  65  82
ATOM     82  C   UNL A   1      44.356  29.053  34.738  1.00  0.00     0.057 A 
ATOM     83  C   UNL A   1      44.274  28.010  35.669  1.00  0.00     0.134 A 
ATOM     84  C   UNL A   1      45.633  29.524  34.406  1.00  0.00     0.134 A 
ATOM     85  F   UNL A   1      43.080  27.522  36.040  1.00  0.00    -0.206 F 
ATOM     86  C   UNL A   1      45.416  27.471  36.262  1.00  0.00     0.040 A 
ATOM     87  C   UNL A   1      46.784  28.973  34.969  1.00  0.00     0.040 A 
ATOM     88  F   UNL A   1      45.783  30.514  33.513  1.00  0.00    -0.206 F 
ATOM     89  C   UNL A   1      46.677  27.948  35.906  1.00  0.00     0.006 A 
ENDBRANCH  65  82
ENDBRANCH  39  40
ENDBRANCH  31  34
ENDBRANCH  29  30
ENDBRANCH  28  29
ENDBRANCH  27  28
ENDBRANCH   3  27
TORSDOF 15
ENDMDL
MODEL 2
REMARK VINA RESULT:     -12.6      0.831      6.296
REMARK SMILES O=C(CSc1nc(O)cc(=O)[nH]1)Nc1cccc(C(=O)NCCCNC(=O)c2ccc(-c3c4nc(c(-c5c(F)cccc5F)c5ccc([nH]5)c(-c5c(F)cccc5F)c5nc(c(-c6c(F)cccc6F)c6ccc3[nH]6)C=C5)C=C4)cc2)c1
REMARK SMILES IDX 19 1 20 2 21 3 18 5 14 6 15 7 82 8 16 9 17 10 13 11 1 12
REMARK SMILES IDX 2 13 3 15 4 16 5 17 6 18 12 19 7 20 10 21 9 23 11 24 8 25
REMARK SMILES IDX 22 27 23 28 24 29 25 30 26 31 27 33 28 34 29 35 81 36 30 37
REMARK SMILES IDX 80 38 31 39 32 40 33 41 74 42 34 43 79 44 73 45 75 46 35 47
REMARK SMILES IDX 78 48 72 49 71 50 36 52 62 53 45 54 61 55 46 56 49 57 60 58
REMARK SMILES IDX 76 59 47 60 48 61 59 63 77 64 50 65 37 66 38 67 43 68 39 69
REMARK SMILES IDX 40 70 42 71 44 72 41 73 63 74 64 75 69 76 65 77 66 78 68 79
REMARK SMILES IDX 70 80 67 81 51 82 52 83 57 84 53 85 54 86 56 87 58 88 55 89
REMARK H PARENT 21 4 13 14 12 22 8 26 25 32 75 51 49 62
REMARK Flexibility Score: inf
ROOT
ATOM      1  C   UNL A   1      32.353  29.260  24.385  1.00  0.00     0.251 C 
ATOM      2  O   UNL A   1      33.241  29.203  23.535  1.00  0.00    -0.269 OA
ATOM      3  N   UNL A   1      32.499  30.159  25.421  1.00  0.00    -0.352 N 
ATOM      4  H   UNL A   1      33.316  30.704  25.358  1.00  0.00     0.163 HD
ENDROOT
BRANCH   1   5
ATOM      5  C   UNL A   1      31.215  28.304  24.307  1.00  0.00     0.041 A 
ATOM      6  C   UNL A   1      30.389  26.037  24.448  1.00  0.00     0.041 A 
ATOM      7  C   UNL A   1      29.255  26.408  23.722  1.00  0.00     0.026 A 
ATOM      8  C   UNL A   1      31.276  27.027  24.858  1.00  0.00     0.040 A 
ATOM      9  C   UNL A   1      29.065  27.743  23.351  1.00  0.00     0.003 A 
ATOM     10  C   UNL A   1      30.067  28.681  23.602  1.00  0.00     0.014 A 
BRANCH   6  11
ATOM     11  N   UNL A   1      30.654  24.660  24.625  1.00  0.00    -0.325 N 
ATOM     12  O   UNL A   1      30.429  24.414  26.936  1.00  0.00    -0.274 OA
ATOM     13  C   UNL A   1      30.727  23.970  25.830  1.00  0.00     0.234 C 
ATOM     14  H   UNL A   1      30.804  24.134  23.807  1.00  0.00     0.169 HD
BRANCH  13  15
ATOM     15  C   UNL A   1      31.320  22.573  25.713  1.00  0.00     0.178 C 
BRANCH  15  16
ATOM     16  S   UNL A   1      31.936  22.221  24.045  1.00  0.00    -0.078 SA
BRANCH  16  17
ATOM     17  C   UNL A   1      32.193  20.512  24.217  1.00  0.00     0.172 A 
ATOM     18  N   UNL A   1      32.358  19.959  25.369  1.00  0.00    -0.189 NA
ATOM     19  N   UNL A   1      32.218  19.860  23.028  1.00  0.00    -0.301 N 
ATOM     20  C   UNL A   1      32.586  18.611  25.347  1.00  0.00     0.218 A 
ATOM     21  C   UNL A   1      32.424  18.519  22.957  1.00  0.00     0.255 A 
ATOM     22  H   UNL A   1      32.085  20.372  22.197  1.00  0.00     0.172 HD
ATOM     23  C   UNL A   1      32.632  17.855  24.248  1.00  0.00     0.139 A 
ATOM     24  O   UNL A   1      32.447  17.911  21.897  1.00  0.00    -0.269 OA
BRANCH  20  25
ATOM     25  O   UNL A   1      32.798  18.029  26.569  1.00  0.00    -0.493 OA
ATOM     26  H   UNL A   1      32.783  18.553  27.346  1.00  0.00     0.295 HD
ENDBRANCH  20  25
ENDBRANCH  16  17
ENDBRANCH  15  16
ENDBRANCH  13  15
ENDBRANCH   6  11
ENDBRANCH   1   5
BRANCH   3  27
ATOM     27  C   UNL A   1      31.683  30.462  26.592  1.00  0.00     0.118 C 
BRANCH  27  28
ATOM     28  C   UNL A   1      31.482  31.946  26.845  1.00  0.00     0.042 C 
BRANCH  28  29
ATOM     29  C   UNL A   1      32.764  32.753  26.928  1.00  0.00     0.118 C 
BRANCH  29  30
ATOM     30  N   UNL A   1      32.577  34.060  27.549  1.00  0.00    -0.352 N 
ATOM     31  C   UNL A   1      33.170  34.632  28.649  1.00  0.00     0.251 C 
ATOM     32  H   UNL A   1      31.909  34.630  27.103  1.00  0.00     0.163 HD
ATOM     33  O   UNL A   1      32.718  35.680  29.103  1.00  0.00    -0.269 OA
BRANCH  31  34
ATOM     34  C   UNL A   1      34.329  33.993  29.307  1.00  0.00     0.039 A 
ATOM     35  C   UNL A   1      34.109  33.139  30.393  1.00  0.00     0.014 A 
ATOM     36  C   UNL A   1      35.634  34.245  28.882  1.00  0.00     0.014 A 
ATOM     37  C   UNL A   1      35.187  32.479  30.991  1.00  0.00     0.010 A 
ATOM     38  C   UNL A   1      36.690  33.507  29.401  1.00  0.00     0.010 A 
ATOM     39  C   UNL A   1      36.482  32.621  30.468  1.00  0.00    -0.014 A 
BRANCH  39  40
ATOM     40  C   UNL A   1      37.636  31.868  31.022  1.00  0.00     0.031 A 
ATOM     41  C   UNL A   1      38.181  32.215  32.382  1.00  0.00     0.074 A 
ATOM     42  C   UNL A   1      38.246  30.930  30.269  1.00  0.00     0.049 A 
ATOM     43  N   UNL A   1      39.239  31.747  32.993  1.00  0.00    -0.248 NA
ATOM     44  C   UNL A   1      37.458  33.248  33.142  1.00  0.00     0.031 C 
ATOM     45  C   UNL A   1      37.845  30.538  28.916  1.00  0.00     0.029 A 
ATOM     46  N   UNL A   1      39.341  30.145  30.530  1.00  0.00    -0.354 N 
ATOM     47  C   UNL A   1      39.319  32.442  34.195  1.00  0.00     0.074 A 
ATOM     48  C   UNL A   1      38.240  33.404  34.199  1.00  0.00     0.031 C 
ATOM     49  C   UNL A   1      38.667  29.572  28.476  1.00  0.00     0.029 A 
ATOM     50  C   UNL A   1      39.680  29.309  29.494  1.00  0.00     0.049 A 
ATOM     51  H   UNL A   1      39.838  30.179  31.379  1.00  0.00     0.167 HD
ATOM     52  C   UNL A   1      40.195  32.276  35.213  1.00  0.00     0.037 A 
ATOM     53  C   UNL A   1      40.699  28.438  29.372  1.00  0.00     0.037 A 
ATOM     54  C   UNL A   1      41.251  31.298  35.214  1.00  0.00     0.049 A 
ATOM     55  C   UNL A   1      41.667  28.280  30.512  1.00  0.00     0.074 A 
ATOM     56  C   UNL A   1      42.153  31.005  36.222  1.00  0.00     0.029 A 
ATOM     57  N   UNL A   1      41.547  30.455  34.155  1.00  0.00    -0.354 N 
ATOM     58  N   UNL A   1      41.686  28.893  31.671  1.00  0.00    -0.248 NA
ATOM     59  C   UNL A   1      42.751  27.304  30.332  1.00  0.00     0.031 C 
ATOM     60  C   UNL A   1      43.030  30.024  35.752  1.00  0.00     0.029 A 
ATOM     61  C   UNL A   1      42.636  29.660  34.474  1.00  0.00     0.049 A 
ATOM     62  H   UNL A   1      41.057  30.425  33.302  1.00  0.00     0.167 HD
ATOM     63  C   UNL A   1      42.761  28.357  32.368  1.00  0.00     0.074 A 
ATOM     64  C   UNL A   1      43.360  27.358  31.508  1.00  0.00     0.031 C 
ATOM     65  C   UNL A   1      43.213  28.662  33.609  1.00  0.00     0.037 A 
BRANCH  52  66
ATOM     66  C   UNL A   1      40.049  33.169  36.412  1.00  0.00     0.057 A 
ATOM     67  C   UNL A   1      40.785  34.354  36.549  1.00  0.00     0.134 A 
ATOM     68  C   UNL A   1      39.132  32.860  37.424  1.00  0.00     0.134 A 
ATOM     69  F   UNL A   1      41.689  34.704  35.622  1.00  0.00    -0.206 F 
ATOM     70  C   UNL A   1      40.634  35.184  37.661  1.00  0.00     0.040 A 
ATOM     71  C   UNL A   1      38.950  33.698  38.526  1.00  0.00     0.040 A 
ATOM     72  F   UNL A   1      38.389  31.745  37.356  1.00  0.00    -0.206 F 
ATOM     73  C   UNL A   1      39.707  34.861  38.650  1.00  0.00     0.006 A 
ENDBRANCH  52  66
BRANCH  53  74
ATOM     74  C   UNL A   1      40.855  27.636  28.130  1.00  0.00     0.057 A 
ATOM     75  C   UNL A   1      41.607  28.115  27.050  1.00  0.00     0.134 A 
ATOM     76  C   UNL A   1      40.247  26.384  27.984  1.00  0.00     0.134 A 
ATOM     77  F   UNL A   1      42.201  29.315  27.121  1.00  0.00    -0.206 F 
ATOM     78  C   UNL A   1      41.725  27.392  25.862  1.00  0.00     0.040 A 
ATOM     79  C   UNL A   1      40.381  25.637  26.813  1.00  0.00     0.040 A 
ATOM     80  F   UNL A   1      39.522  25.861  28.984  1.00  0.00    -0.206 F 
ATOM     81  C   UNL A   1      41.115  26.145  25.743  1.00  0.00     0.006 A 
ENDBRANCH  53  74
BRANCH  65  82
ATOM     82  C   UNL A   1      44.383  27.879  34.130  1.00  0.00     0.057 A 
ATOM     83  C   UNL A   1      45.706  28.285  33.910  1.00  0.00     0.134 A 
ATOM     84  C   UNL A   1      44.181  26.728  34.902  1.00  0.00     0.134 A 
ATOM     85  F   UNL A   1      45.969  29.372  33.168  1.00  0.00    -0.206 F 
ATOM     86  C   UNL A   1      46.784  27.561  34.419  1.00  0.00     0.040 A 
ATOM     87  C   UNL A   1      45.249  26.013  35.442  1.00  0.00     0.040 A 
ATOM     88  F   UNL A   1      42.939  26.290  35.159  1.00  0.00    -0.206 F 
ATOM     89  C   UNL A   1      46.557  26.425  35.195  1.00  0.00     0.006 A 
ENDBRANCH  65  82
ENDBRANCH  39  40
ENDBRANCH  31  34
ENDBRANCH  29  30
ENDBRANCH  28  29
ENDBRANCH  27  28
ENDBRANCH   3  27
TORSDOF 15
ENDMDL
MODEL 3
REMARK VINA RESULT:     -12.5      5.081     10.570
REMARK SMILES O=C(CSc1nc(O)cc(=O)[nH]1)Nc1cccc(C(=O)NCCCNC(=O)c2ccc(-c3c4nc(c(-c5c(F)cccc5F)c5ccc([nH]5)c(-c5c(F)cccc5F)c5nc(c(-c6c(F)cccc6F)c6ccc3[nH]6)C=C5)C=C4)cc2)c1
REMARK SMILES IDX 19 1 20 2 21 3 18 5 14 6 15 7 82 8 16 9 17 10 13 11 1 12
REMARK SMILES IDX 2 13 3 15 4 16 5 17 6 18 12 19 7 20 10 21 9 23 11 24 8 25
REMARK SMILES IDX 22 27 23 28 24 29 25 30 26 31 27 33 28 34 29 35 81 36 30 37
REMARK SMILES IDX 80 38 31 39 32 40 33 41 74 42 34 43 79 44 73 45 75 46 35 47
REMARK SMILES IDX 78 48 72 49 71 50 36 52 62 53 45 54 61 55 46 56 49 57 60 58
REMARK SMILES IDX 76 59 47 60 48 61 59 63 77 64 50 65 37 66 38 67 43 68 39 69
REMARK SMILES IDX 40 70 42 71 44 72 41 73 63 74 64 75 69 76 65 77 66 78 68 79
REMARK SMILES IDX 70 80 67 81 51 82 52 83 57 84 53 85 54 86 56 87 58 88 55 89
REMARK H PARENT 21 4 13 14 12 22 8 26 25 32 75 51 49 62
REMARK Flexibility Score: inf
ROOT
ATOM      1  C   UNL A   1      35.018  21.432  26.017  1.00  0.00     0.251 C 
ATOM      2  O   UNL A   1      34.533  21.666  27.124  1.00  0.00    -0.269 OA
ATOM      3  N   UNL A   1      36.391  21.405  25.900  1.00  0.00    -0.352 N 
ATOM      4  H   UNL A   1      36.863  21.554  26.751  1.00  0.00     0.163 HD
ENDROOT
BRANCH   1   5
ATOM      5  C   UNL A   1      34.109  21.276  24.848  1.00  0.00     0.041 A 
ATOM      6  C   UNL A   1      32.635  22.273  23.212  1.00  0.00     0.041 A 
ATOM      7  C   UNL A   1      32.053  21.024  22.982  1.00  0.00     0.026 A 
ATOM      8  C   UNL A   1      33.757  22.348  24.032  1.00  0.00     0.040 A 
ATOM      9  C   UNL A   1      32.548  19.889  23.630  1.00  0.00     0.003 A 
ATOM     10  C   UNL A   1      33.544  20.022  24.597  1.00  0.00     0.014 A 
BRANCH   6  11
ATOM     11  N   UNL A   1      31.985  23.422  22.709  1.00  0.00    -0.325 N 
ATOM     12  O   UNL A   1      33.789  24.758  22.066  1.00  0.00    -0.274 OA
ATOM     13  C   UNL A   1      32.586  24.589  22.248  1.00  0.00     0.234 C 
ATOM     14  H   UNL A   1      31.002  23.394  22.683  1.00  0.00     0.169 HD
BRANCH  13  15
ATOM     15  C   UNL A   1      31.623  25.751  22.053  1.00  0.00     0.178 C 
BRANCH  15  16
ATOM     16  S   UNL A   1      30.605  26.058  23.522  1.00  0.00    -0.078 SA
BRANCH  16  17
ATOM     17  C   UNL A   1      29.776  27.482  22.972  1.00  0.00     0.172 A 
ATOM     18  N   UNL A   1      30.358  28.374  22.246  1.00  0.00    -0.189 NA
ATOM     19  N   UNL A   1      28.492  27.545  23.402  1.00  0.00    -0.301 N 
ATOM     20  C   UNL A   1      29.593  29.457  21.918  1.00  0.00     0.218 A 
ATOM     21  C   UNL A   1      27.687  28.593  23.087  1.00  0.00     0.255 A 
ATOM     22  H   UNL A   1      28.136  26.814  23.957  1.00  0.00     0.172 HD
ATOM     23  C   UNL A   1      28.319  29.638  22.275  1.00  0.00     0.139 A 
ATOM     24  O   UNL A   1      26.527  28.669  23.462  1.00  0.00    -0.269 OA
BRANCH  20  25
ATOM     25  O   UNL A   1      30.224  30.422  21.177  1.00  0.00    -0.493 OA
ATOM     26  H   UNL A   1      30.402  30.274  20.270  1.00  0.00     0.295 HD
ENDBRANCH  20  25
ENDBRANCH  16  17
ENDBRANCH  15  16
ENDBRANCH  13  15
ENDBRANCH   6  11
ENDBRANCH   1   5
BRANCH   3  27
ATOM     27  C   UNL A   1      37.286  21.200  24.764  1.00  0.00     0.118 C 
BRANCH  27  28
ATOM     28  C   UNL A   1      38.225  20.017  24.916  1.00  0.00     0.042 C 
BRANCH  28  29
ATOM     29  C   UNL A   1      39.202  20.128  26.071  1.00  0.00     0.118 C 
BRANCH  29  30
ATOM     30  N   UNL A   1      40.292  19.162  25.992  1.00  0.00    -0.352 N 
ATOM     31  C   UNL A   1      41.654  19.327  26.071  1.00  0.00     0.251 C 
ATOM     32  H   UNL A   1      40.001  18.231  25.857  1.00  0.00     0.163 HD
ATOM     33  O   UNL A   1      42.395  18.389  25.789  1.00  0.00    -0.269 OA
BRANCH  31  34
ATOM     34  C   UNL A   1      42.242  20.624  26.470  1.00  0.00     0.039 A 
ATOM     35  C   UNL A   1      42.705  21.494  25.478  1.00  0.00     0.014 A 
ATOM     36  C   UNL A   1      42.364  20.981  27.813  1.00  0.00     0.014 A 
ATOM     37  C   UNL A   1      43.210  22.749  25.832  1.00  0.00     0.010 A 
ATOM     38  C   UNL A   1      42.760  22.268  28.158  1.00  0.00     0.010 A 
ATOM     39  C   UNL A   1      43.196  23.166  27.173  1.00  0.00    -0.014 A 
BRANCH  39  40
ATOM     40  C   UNL A   1      43.642  24.524  27.575  1.00  0.00     0.031 A 
ATOM     41  C   UNL A   1      42.629  25.556  27.996  1.00  0.00     0.074 A 
ATOM     42  C   UNL A   1      44.945  24.855  27.482  1.00  0.00     0.049 A 
ATOM     43  N   UNL A   1      42.807  26.821  28.282  1.00  0.00    -0.248 NA
ATOM     44  C   UNL A   1      41.227  25.116  28.073  1.00  0.00     0.031 C 
ATOM     45  C   UNL A   1      46.017  23.961  27.039  1.00  0.00     0.029 A 
ATOM     46  N   UNL A   1      45.589  26.039  27.742  1.00  0.00    -0.354 N 
ATOM     47  C   UNL A   1      41.541  27.328  28.552  1.00  0.00     0.074 A 
ATOM     48  C   UNL A   1      40.599  26.252  28.337  1.00  0.00     0.031 C 
ATOM     49  C   UNL A   1      47.186  24.620  27.080  1.00  0.00     0.029 A 
ATOM     50  C   UNL A   1      46.943  25.994  27.506  1.00  0.00     0.049 A 
ATOM     51  H   UNL A   1      45.125  26.845  28.065  1.00  0.00     0.167 HD
ATOM     52  C   UNL A   1      41.197  28.569  28.966  1.00  0.00     0.037 A 
ATOM     53  C   UNL A   1      47.880  26.955  27.610  1.00  0.00     0.037 A 
ATOM     54  C   UNL A   1      42.141  29.629  29.205  1.00  0.00     0.049 A 
ATOM     55  C   UNL A   1      47.470  28.330  28.062  1.00  0.00     0.074 A 
ATOM     56  C   UNL A   1      41.902  30.904  29.688  1.00  0.00     0.029 A 
ATOM     57  N   UNL A   1      43.505  29.537  28.977  1.00  0.00    -0.354 N 
ATOM     58  N   UNL A   1      46.279  28.775  28.383  1.00  0.00    -0.248 NA
ATOM     59  C   UNL A   1      48.535  29.336  28.172  1.00  0.00     0.031 C 
ATOM     60  C   UNL A   1      43.113  31.600  29.699  1.00  0.00     0.029 A 
ATOM     61  C   UNL A   1      44.118  30.740  29.283  1.00  0.00     0.049 A 
ATOM     62  H   UNL A   1      43.970  28.734  28.646  1.00  0.00     0.167 HD
ATOM     63  C   UNL A   1      46.455  30.099  28.763  1.00  0.00     0.074 A 
ATOM     64  C   UNL A   1      47.871  30.381  28.646  1.00  0.00     0.031 C 
ATOM     65  C   UNL A   1      45.530  31.001  29.172  1.00  0.00     0.037 A 
BRANCH  52  66
ATOM     66  C   UNL A   1      39.738  28.850  29.192  1.00  0.00     0.057 A 
ATOM     67  C   UNL A   1      38.909  29.333  28.171  1.00  0.00     0.134 A 
ATOM     68  C   UNL A   1      39.147  28.598  30.436  1.00  0.00     0.134 A 
ATOM     69  F   UNL A   1      39.413  29.607  26.958  1.00  0.00    -0.206 F 
ATOM     70  C   UNL A   1      37.552  29.579  28.385  1.00  0.00     0.040 A 
ATOM     71  C   UNL A   1      37.784  28.812  30.654  1.00  0.00     0.040 A 
ATOM     72  F   UNL A   1      39.879  28.129  31.458  1.00  0.00    -0.206 F 
ATOM     73  C   UNL A   1      36.984  29.310  29.628  1.00  0.00     0.006 A 
ENDBRANCH  52  66
BRANCH  53  74
ATOM     74  C   UNL A   1      49.300  26.654  27.293  1.00  0.00     0.057 A 
ATOM     75  C   UNL A   1      49.799  26.809  25.993  1.00  0.00     0.134 A 
ATOM     76  C   UNL A   1      50.187  26.192  28.271  1.00  0.00     0.134 A 
ATOM     77  F   UNL A   1      48.994  27.232  25.008  1.00  0.00    -0.206 F 
ATOM     78  C   UNL A   1      51.119  26.488  25.673  1.00  0.00     0.040 A 
ATOM     79  C   UNL A   1      51.518  25.895  27.971  1.00  0.00     0.040 A 
ATOM     80  F   UNL A   1      49.778  26.033  29.539  1.00  0.00    -0.206 F 
ATOM     81  C   UNL A   1      51.985  26.034  26.666  1.00  0.00     0.006 A 
ENDBRANCH  53  74
BRANCH  65  82
ATOM     82  C   UNL A   1      46.022  32.364  29.566  1.00  0.00     0.057 A 
ATOM     83  C   UNL A   1      46.411  32.662  30.879  1.00  0.00     0.134 A 
ATOM     84  C   UNL A   1      46.151  33.377  28.608  1.00  0.00     0.134 A 
ATOM     85  F   UNL A   1      46.300  31.741  31.847  1.00  0.00    -0.206 F 
ATOM     86  C   UNL A   1      46.887  33.927  31.227  1.00  0.00     0.040 A 
ATOM     87  C   UNL A   1      46.655  34.635  28.937  1.00  0.00     0.040 A 
ATOM     88  F   UNL A   1      45.807  33.154  27.330  1.00  0.00    -0.206 F 
ATOM     89  C   UNL A   1      47.019  34.915  30.252  1.00  0.00     0.006 A 
ENDBRANCH  65  82
ENDBRANCH  39  40
ENDBRANCH  31  34
ENDBRANCH  29  30
ENDBRANCH  28  29
ENDBRANCH  27  28
ENDBRANCH   3  27
TORSDOF 15
ENDMDL
