MODEL 1
REMARK VINA RESULT:     -11.5      0.000      0.000
REMARK SMILES NNC(=O)c1cccc([N+](=O)[O-])c1C(=O)NCCCNC(=O)c1ccc(-c2c3nc(c(-c4c(F)cccc4F)c4ccc([nH]4)c(-c4c(F)cccc4F)c4nc(c(-c5c(F)cccc5F)c5ccc2[nH]5)C=C4)C=C3)cc1
REMARK SMILES IDX 18 1 17 2 16 3 14 4 15 5 13 7 5 8 6 9 7 10 9 11 8 12 3 13
REMARK SMILES IDX 2 14 4 16 1 17 10 20 11 21 12 22 19 23 20 24 21 25 22 27
REMARK SMILES IDX 23 28 24 29 76 30 25 31 75 32 26 33 27 34 28 35 69 36 29 37
REMARK SMILES IDX 74 38 68 39 70 40 30 41 73 42 67 43 66 44 31 46 57 47 40 48
REMARK SMILES IDX 56 49 41 50 44 51 55 52 71 53 42 54 43 55 54 57 72 58 45 59
REMARK SMILES IDX 32 60 33 61 38 62 34 63 35 64 37 65 39 66 36 67 58 68 59 69
REMARK SMILES IDX 64 70 60 71 61 72 63 73 65 74 62 75 46 76 47 77 52 78 48 79
REMARK SMILES IDX 49 80 51 81 53 82 50 83
REMARK H PARENT 16 6 2 15 1 18 1 19 20 26 70 45 44 56
REMARK Flexibility Score: inf
ROOT
ATOM      1  C   UNL A   1      31.103  31.620  26.686  1.00  0.00     0.042 C 
ENDROOT
BRANCH   1   2
ATOM      2  C   UNL A   1      31.606  30.189  26.613  1.00  0.00     0.118 C 
BRANCH   2   3
ATOM      3  N   UNL A   1      32.393  29.875  25.435  1.00  0.00    -0.352 N 
ATOM      4  C   UNL A   1      32.037  29.234  24.279  1.00  0.00     0.259 C 
ATOM      5  O   UNL A   1      32.776  29.328  23.301  1.00  0.00    -0.269 OA
ATOM      6  H   UNL A   1      33.332  30.171  25.472  1.00  0.00     0.163 HD
BRANCH   4   7
ATOM      7  C   UNL A   1      30.812  28.423  24.138  1.00  0.00     0.130 A 
ATOM      8  C   UNL A   1      29.598  28.908  23.633  1.00  0.00     0.060 A 
ATOM      9  C   UNL A   1      28.475  28.058  23.547  1.00  0.00     0.015 A 
ATOM     10  C   UNL A   1      28.567  26.706  23.876  1.00  0.00     0.008 A 
ATOM     11  C   UNL A   1      30.887  27.048  24.428  1.00  0.00     0.282 A 
ATOM     12  C   UNL A   1      29.784  26.188  24.301  1.00  0.00     0.086 A 
BRANCH   8  13
ATOM     13  C   UNL A   1      29.353  30.301  23.217  1.00  0.00     0.266 C 
ATOM     14  N   UNL A   1      29.948  30.826  22.087  1.00  0.00    -0.290 N 
ATOM     15  H   UNL A   1      29.865  31.795  21.932  1.00  0.00     0.184 HD
ATOM     16  O   UNL A   1      28.609  30.993  23.912  1.00  0.00    -0.268 OA
BRANCH  14  17
ATOM     17  N   UNL A   1      30.663  30.077  21.144  1.00  0.00    -0.248 NA
ATOM     18  H   UNL A   1      30.101  29.971  20.298  1.00  0.00     0.143 HD
ATOM     19  H   UNL A   1      30.874  29.157  21.530  1.00  0.00     0.143 HD
ENDBRANCH  14  17
ENDBRANCH   8  13
BRANCH  11  20
ATOM     20  N   UNL A   1      32.116  26.456  24.926  1.00  0.00     0.063 N 
ATOM     21  O   UNL A   1      32.395  26.660  26.115  1.00  0.00    -0.258 OA
ATOM     22  O   UNL A   1      32.837  25.881  24.098  1.00  0.00    -0.258 OA
ENDBRANCH  11  20
ENDBRANCH   4   7
ENDBRANCH   2   3
ENDBRANCH   1   2
BRANCH   1  23
ATOM     23  C   UNL A   1      32.134  32.689  26.344  1.00  0.00     0.118 C 
BRANCH  23  24
ATOM     24  N   UNL A   1      32.149  33.843  27.238  1.00  0.00    -0.352 N 
ATOM     25  C   UNL A   1      33.005  34.229  28.245  1.00  0.00     0.251 C 
ATOM     26  H   UNL A   1      31.401  34.467  27.093  1.00  0.00     0.163 HD
ATOM     27  O   UNL A   1      32.744  35.239  28.896  1.00  0.00    -0.269 OA
BRANCH  25  28
ATOM     28  C   UNL A   1      34.196  33.423  28.599  1.00  0.00     0.039 A 
ATOM     29  C   UNL A   1      35.424  34.067  28.782  1.00  0.00     0.014 A 
ATOM     30  C   UNL A   1      34.121  32.044  28.766  1.00  0.00     0.014 A 
ATOM     31  C   UNL A   1      36.529  33.349  29.255  1.00  0.00     0.010 A 
ATOM     32  C   UNL A   1      35.173  31.358  29.364  1.00  0.00     0.010 A 
ATOM     33  C   UNL A   1      36.391  32.002  29.623  1.00  0.00    -0.014 A 
BRANCH  33  34
ATOM     34  C   UNL A   1      37.487  31.237  30.278  1.00  0.00     0.031 A 
ATOM     35  C   UNL A   1      37.794  31.456  31.738  1.00  0.00     0.074 A 
ATOM     36  C   UNL A   1      38.284  30.436  29.541  1.00  0.00     0.049 A 
ATOM     37  N   UNL A   1      38.807  31.026  32.446  1.00  0.00    -0.248 NA
ATOM     38  C   UNL A   1      36.863  32.316  32.488  1.00  0.00     0.031 C 
ATOM     39  C   UNL A   1      38.146  30.184  28.104  1.00  0.00     0.029 A 
ATOM     40  N   UNL A   1      39.386  29.697  29.898  1.00  0.00    -0.354 N 
ATOM     41  C   UNL A   1      38.661  31.602  33.703  1.00  0.00     0.074 A 
ATOM     42  C   UNL A   1      37.492  32.452  33.645  1.00  0.00     0.031 C 
ATOM     43  C   UNL A   1      39.100  29.325  27.711  1.00  0.00     0.029 A 
ATOM     44  C   UNL A   1      39.948  29.003  28.854  1.00  0.00     0.049 A 
ATOM     45  H   UNL A   1      39.740  29.669  30.816  1.00  0.00     0.167 HD
ATOM     46  C   UNL A   1      39.414  31.420  34.814  1.00  0.00     0.037 A 
ATOM     47  C   UNL A   1      41.030  28.202  28.818  1.00  0.00     0.037 A 
ATOM     48  C   UNL A   1      40.531  30.518  34.892  1.00  0.00     0.049 A 
ATOM     49  C   UNL A   1      41.821  27.977  30.076  1.00  0.00     0.074 A 
ATOM     50  C   UNL A   1      41.297  30.189  35.996  1.00  0.00     0.029 A 
ATOM     51  N   UNL A   1      41.032  29.790  33.824  1.00  0.00    -0.354 N 
ATOM     52  N   UNL A   1      41.631  28.478  31.272  1.00  0.00    -0.248 NA
ATOM     53  C   UNL A   1      42.977  27.073  29.980  1.00  0.00     0.031 C 
ATOM     54  C   UNL A   1      42.282  29.283  35.589  1.00  0.00     0.029 A 
ATOM     55  C   UNL A   1      42.106  29.021  34.240  1.00  0.00     0.049 A 
ATOM     56  H   UNL A   1      40.678  29.816  32.906  1.00  0.00     0.167 HD
ATOM     57  C   UNL A   1      42.621  27.929  32.076  1.00  0.00     0.074 A 
ATOM     58  C   UNL A   1      43.403  27.048  31.233  1.00  0.00     0.031 C 
ATOM     59  C   UNL A   1      42.861  28.136  33.393  1.00  0.00     0.037 A 
BRANCH  46  60
ATOM     60  C   UNL A   1      39.040  32.201  36.040  1.00  0.00     0.057 A 
ATOM     61  C   UNL A   1      39.527  33.494  36.272  1.00  0.00     0.134 A 
ATOM     62  C   UNL A   1      38.162  31.662  36.990  1.00  0.00     0.134 A 
ATOM     63  F   UNL A   1      40.380  34.064  35.409  1.00  0.00    -0.206 F 
ATOM     64  C   UNL A   1      39.180  34.211  37.419  1.00  0.00     0.040 A 
ATOM     65  C   UNL A   1      37.785  32.380  38.126  1.00  0.00     0.040 A 
ATOM     66  F   UNL A   1      37.653  30.432  36.827  1.00  0.00    -0.206 F 
ATOM     67  C   UNL A   1      38.300  33.656  38.346  1.00  0.00     0.006 A 
ENDBRANCH  46  60
BRANCH  47  68
ATOM     68  C   UNL A   1      41.414  27.521  27.555  1.00  0.00     0.057 A 
ATOM     69  C   UNL A   1      40.967  26.223  27.278  1.00  0.00     0.134 A 
ATOM     70  C   UNL A   1      42.238  28.135  26.605  1.00  0.00     0.134 A 
ATOM     71  F   UNL A   1      40.190  25.576  28.159  1.00  0.00    -0.206 F 
ATOM     72  C   UNL A   1      41.341  25.553  26.113  1.00  0.00     0.040 A 
ATOM     73  C   UNL A   1      42.601  27.486  25.424  1.00  0.00     0.040 A 
ATOM     74  F   UNL A   1      42.693  29.381  26.807  1.00  0.00    -0.206 F 
ATOM     75  C   UNL A   1      42.158  26.187  25.179  1.00  0.00     0.006 A 
ENDBRANCH  47  68
BRANCH  59  76
ATOM     76  C   UNL A   1      43.988  27.367  34.014  1.00  0.00     0.057 A 
ATOM     77  C   UNL A   1      43.790  26.111  34.599  1.00  0.00     0.134 A 
ATOM     78  C   UNL A   1      45.293  27.873  33.986  1.00  0.00     0.134 A 
ATOM     79  F   UNL A   1      42.560  25.579  34.669  1.00  0.00    -0.206 F 
ATOM     80  C   UNL A   1      44.851  25.390  35.150  1.00  0.00     0.040 A 
ATOM     81  C   UNL A   1      46.365  27.152  34.512  1.00  0.00     0.040 A 
ATOM     82  F   UNL A   1      45.550  29.068  33.433  1.00  0.00    -0.206 F 
ATOM     83  C   UNL A   1      46.144  25.908  35.100  1.00  0.00     0.006 A 
ENDBRANCH  59  76
ENDBRANCH  33  34
ENDBRANCH  25  28
ENDBRANCH  23  24
ENDBRANCH   1  23
TORSDOF 13
ENDMDL
MODEL 2
REMARK VINA RESULT:     -11.4      5.212      9.889
REMARK SMILES NNC(=O)c1cccc([N+](=O)[O-])c1C(=O)NCCCNC(=O)c1ccc(-c2c3nc(c(-c4c(F)cccc4F)c4ccc([nH]4)c(-c4c(F)cccc4F)c4nc(c(-c5c(F)cccc5F)c5ccc2[nH]5)C=C4)C=C3)cc1
REMARK SMILES IDX 18 1 17 2 16 3 14 4 15 5 13 7 5 8 6 9 7 10 9 11 8 12 3 13
REMARK SMILES IDX 2 14 4 16 1 17 10 20 11 21 12 22 19 23 20 24 21 25 22 27
REMARK SMILES IDX 23 28 24 29 76 30 25 31 75 32 26 33 27 34 28 35 69 36 29 37
REMARK SMILES IDX 74 38 68 39 70 40 30 41 73 42 67 43 66 44 31 46 57 47 40 48
REMARK SMILES IDX 56 49 41 50 44 51 55 52 71 53 42 54 43 55 54 57 72 58 45 59
REMARK SMILES IDX 32 60 33 61 38 62 34 63 35 64 37 65 39 66 36 67 58 68 59 69
REMARK SMILES IDX 64 70 60 71 61 72 63 73 65 74 62 75 46 76 47 77 52 78 48 79
REMARK SMILES IDX 49 80 51 81 53 82 50 83
REMARK H PARENT 16 6 2 15 1 18 1 19 20 26 70 45 44 56
REMARK Flexibility Score: inf
ROOT
ATOM      1  C   UNL A   1      37.797  19.993  24.895  1.00  0.00     0.042 C 
ENDROOT
BRANCH   1   2
ATOM      2  C   UNL A   1      36.774  21.093  24.679  1.00  0.00     0.118 C 
BRANCH   2   3
ATOM      3  N   UNL A   1      35.830  21.276  25.766  1.00  0.00    -0.352 N 
ATOM      4  C   UNL A   1      34.486  21.027  25.820  1.00  0.00     0.259 C 
ATOM      5  O   UNL A   1      33.938  20.983  26.920  1.00  0.00    -0.269 OA
ATOM      6  H   UNL A   1      36.219  21.635  26.596  1.00  0.00     0.163 HD
BRANCH   4   7
ATOM      7  C   UNL A   1      33.644  20.816  24.626  1.00  0.00     0.130 A 
ATOM      8  C   UNL A   1      33.366  19.560  24.069  1.00  0.00     0.060 A 
ATOM      9  C   UNL A   1      32.559  19.458  22.916  1.00  0.00     0.015 A 
ATOM     10  C   UNL A   1      31.953  20.583  22.358  1.00  0.00     0.008 A 
ATOM     11  C   UNL A   1      32.992  21.929  24.065  1.00  0.00     0.282 A 
ATOM     12  C   UNL A   1      32.151  21.826  22.945  1.00  0.00     0.086 A 
BRANCH   8  13
ATOM     13  C   UNL A   1      33.907  18.280  24.562  1.00  0.00     0.266 C 
ATOM     14  N   UNL A   1      33.528  17.766  25.787  1.00  0.00    -0.290 N 
ATOM     15  H   UNL A   1      34.021  16.985  26.129  1.00  0.00     0.184 HD
ATOM     16  O   UNL A   1      34.716  17.680  23.854  1.00  0.00    -0.268 OA
BRANCH  14  17
ATOM     17  N   UNL A   1      32.492  18.279  26.578  1.00  0.00    -0.248 NA
ATOM     18  H   UNL A   1      32.462  19.294  26.482  1.00  0.00     0.143 HD
ATOM     19  H   UNL A   1      32.656  18.033  27.553  1.00  0.00     0.143 HD
ENDBRANCH  14  17
ENDBRANCH   8  13
BRANCH  11  20
ATOM     20  N   UNL A   1      33.199  23.263  24.599  1.00  0.00     0.063 N 
ATOM     21  O   UNL A   1      32.375  23.668  25.430  1.00  0.00    -0.258 OA
ATOM     22  O   UNL A   1      34.122  23.927  24.107  1.00  0.00    -0.258 OA
ENDBRANCH  11  20
ENDBRANCH   4   7
ENDBRANCH   2   3
ENDBRANCH   1   2
BRANCH   1  23
ATOM     23  C   UNL A   1      38.960  20.358  25.810  1.00  0.00     0.118 C 
BRANCH  23  24
ATOM     24  N   UNL A   1      40.076  19.417  25.798  1.00  0.00    -0.352 N 
ATOM     25  C   UNL A   1      41.408  19.549  26.120  1.00  0.00     0.251 C 
ATOM     26  H   UNL A   1      39.829  18.512  25.501  1.00  0.00     0.163 HD
ATOM     27  O   UNL A   1      42.160  18.589  25.957  1.00  0.00    -0.269 OA
BRANCH  25  28
ATOM     28  C   UNL A   1      41.965  20.835  26.601  1.00  0.00     0.039 A 
ATOM     29  C   UNL A   1      42.385  21.786  25.666  1.00  0.00     0.014 A 
ATOM     30  C   UNL A   1      42.069  21.123  27.958  1.00  0.00     0.014 A 
ATOM     31  C   UNL A   1      42.780  23.061  26.092  1.00  0.00     0.010 A 
ATOM     32  C   UNL A   1      42.327  22.424  28.373  1.00  0.00     0.010 A 
ATOM     33  C   UNL A   1      42.681  23.414  27.446  1.00  0.00    -0.014 A 
BRANCH  33  34
ATOM     34  C   UNL A   1      42.935  24.800  27.930  1.00  0.00     0.031 A 
ATOM     35  C   UNL A   1      44.326  25.214  28.339  1.00  0.00     0.074 A 
ATOM     36  C   UNL A   1      41.903  25.648  28.116  1.00  0.00     0.049 A 
ATOM     37  N   UNL A   1      44.722  26.304  28.945  1.00  0.00    -0.248 NA
ATOM     38  C   UNL A   1      45.408  24.250  28.076  1.00  0.00     0.031 C 
ATOM     39  C   UNL A   1      40.497  25.357  27.828  1.00  0.00     0.029 A 
ATOM     40  N   UNL A   1      41.877  26.929  28.614  1.00  0.00    -0.354 N 
ATOM     41  C   UNL A   1      46.082  26.133  29.179  1.00  0.00     0.074 A 
ATOM     42  C   UNL A   1      46.432  24.816  28.696  1.00  0.00     0.031 C 
ATOM     43  C   UNL A   1      39.753  26.436  28.119  1.00  0.00     0.029 A 
ATOM     44  C   UNL A   1      40.618  27.478  28.660  1.00  0.00     0.049 A 
ATOM     45  H   UNL A   1      42.685  27.407  28.909  1.00  0.00     0.167 HD
ATOM     46  C   UNL A   1      46.967  27.004  29.721  1.00  0.00     0.037 A 
ATOM     47  C   UNL A   1      40.205  28.683  29.097  1.00  0.00     0.037 A 
ATOM     48  C   UNL A   1      46.634  28.341  30.131  1.00  0.00     0.049 A 
ATOM     49  C   UNL A   1      41.215  29.650  29.648  1.00  0.00     0.074 A 
ATOM     50  C   UNL A   1      47.476  29.334  30.600  1.00  0.00     0.029 A 
ATOM     51  N   UNL A   1      45.356  28.878  30.108  1.00  0.00    -0.354 N 
ATOM     52  N   UNL A   1      42.507  29.499  29.802  1.00  0.00    -0.248 NA
ATOM     53  C   UNL A   1      40.707  30.959  30.086  1.00  0.00     0.031 C 
ATOM     54  C   UNL A   1      46.703  30.462  30.889  1.00  0.00     0.029 A 
ATOM     55  C   UNL A   1      45.384  30.184  30.566  1.00  0.00     0.049 A 
ATOM     56  H   UNL A   1      44.548  28.400  29.811  1.00  0.00     0.167 HD
ATOM     57  C   UNL A   1      42.972  30.698  30.324  1.00  0.00     0.074 A 
ATOM     58  C   UNL A   1      41.824  31.572  30.451  1.00  0.00     0.031 C 
ATOM     59  C   UNL A   1      44.235  31.045  30.668  1.00  0.00     0.037 A 
BRANCH  46  60
ATOM     60  C   UNL A   1      48.385  26.541  29.881  1.00  0.00     0.057 A 
ATOM     61  C   UNL A   1      49.360  26.785  28.904  1.00  0.00     0.134 A 
ATOM     62  C   UNL A   1      48.789  25.863  31.039  1.00  0.00     0.134 A 
ATOM     63  F   UNL A   1      49.038  27.418  27.767  1.00  0.00    -0.206 F 
ATOM     64  C   UNL A   1      50.675  26.344  29.058  1.00  0.00     0.040 A 
ATOM     65  C   UNL A   1      50.108  25.443  31.217  1.00  0.00     0.040 A 
ATOM     66  F   UNL A   1      47.909  25.602  32.018  1.00  0.00    -0.206 F 
ATOM     67  C   UNL A   1      51.054  25.677  30.221  1.00  0.00     0.006 A 
ENDBRANCH  46  60
BRANCH  47  68
ATOM     68  C   UNL A   1      38.773  29.062  29.000  1.00  0.00     0.057 A 
ATOM     69  C   UNL A   1      38.236  29.523  27.791  1.00  0.00     0.134 A 
ATOM     70  C   UNL A   1      37.912  28.988  30.100  1.00  0.00     0.134 A 
ATOM     71  F   UNL A   1      39.016  29.634  26.706  1.00  0.00    -0.206 F 
ATOM     72  C   UNL A   1      36.900  29.914  27.686  1.00  0.00     0.040 A 
ATOM     73  C   UNL A   1      36.569  29.354  30.004  1.00  0.00     0.040 A 
ATOM     74  F   UNL A   1      38.363  28.547  31.284  1.00  0.00    -0.206 F 
ATOM     75  C   UNL A   1      36.062  29.826  28.794  1.00  0.00     0.006 A 
ENDBRANCH  47  68
BRANCH  59  76
ATOM     76  C   UNL A   1      44.451  32.439  31.174  1.00  0.00     0.057 A 
ATOM     77  C   UNL A   1      44.429  32.741  32.540  1.00  0.00     0.134 A 
ATOM     78  C   UNL A   1      44.729  33.483  30.282  1.00  0.00     0.134 A 
ATOM     79  F   UNL A   1      44.155  31.787  33.443  1.00  0.00    -0.206 F 
ATOM     80  C   UNL A   1      44.659  34.038  33.003  1.00  0.00     0.040 A 
ATOM     81  C   UNL A   1      44.984  34.778  30.734  1.00  0.00     0.040 A 
ATOM     82  F   UNL A   1      44.772  33.258  28.960  1.00  0.00    -0.206 F 
ATOM     83  C   UNL A   1      44.945  35.059  32.098  1.00  0.00     0.006 A 
ENDBRANCH  59  76
ENDBRANCH  33  34
ENDBRANCH  25  28
ENDBRANCH  23  24
ENDBRANCH   1  23
TORSDOF 13
ENDMDL
MODEL 3
REMARK VINA RESULT:     -11.3      5.816      9.846
REMARK SMILES NNC(=O)c1cccc([N+](=O)[O-])c1C(=O)NCCCNC(=O)c1ccc(-c2c3nc(c(-c4c(F)cccc4F)c4ccc([nH]4)c(-c4c(F)cccc4F)c4nc(c(-c5c(F)cccc5F)c5ccc2[nH]5)C=C4)C=C3)cc1
REMARK SMILES IDX 18 1 17 2 16 3 14 4 15 5 13 7 5 8 6 9 7 10 9 11 8 12 3 13
REMARK SMILES IDX 2 14 4 16 1 17 10 20 11 21 12 22 19 23 20 24 21 25 22 27
REMARK SMILES IDX 23 28 24 29 76 30 25 31 75 32 26 33 27 34 28 35 69 36 29 37
REMARK SMILES IDX 74 38 68 39 70 40 30 41 73 42 67 43 66 44 31 46 57 47 40 48
REMARK SMILES IDX 56 49 41 50 44 51 55 52 71 53 42 54 43 55 54 57 72 58 45 59
REMARK SMILES IDX 32 60 33 61 38 62 34 63 35 64 37 65 39 66 36 67 58 68 59 69
REMARK SMILES IDX 64 70 60 71 61 72 63 73 65 74 62 75 46 76 47 77 52 78 48 79
REMARK SMILES IDX 49 80 51 81 53 82 50 83
REMARK H PARENT 16 6 2 15 1 18 1 19 20 26 70 45 44 56
REMARK Flexibility Score: inf
ROOT
ATOM      1  C   UNL A   1      37.740  20.140  24.976  1.00  0.00     0.042 C 
ENDROOT
BRANCH   1   2
ATOM      2  C   UNL A   1      36.770  21.303  24.880  1.00  0.00     0.118 C 
BRANCH   2   3
ATOM      3  N   UNL A   1      35.791  21.377  25.949  1.00  0.00    -0.352 N 
ATOM      4  C   UNL A   1      34.463  21.046  25.955  1.00  0.00     0.259 C 
ATOM      5  O   UNL A   1      33.894  20.916  27.037  1.00  0.00    -0.269 OA
ATOM      6  H   UNL A   1      36.138  21.717  26.805  1.00  0.00     0.163 HD
BRANCH   4   7
ATOM      7  C   UNL A   1      33.665  20.843  24.730  1.00  0.00     0.130 A 
ATOM      8  C   UNL A   1      33.455  19.598  24.122  1.00  0.00     0.060 A 
ATOM      9  C   UNL A   1      32.685  19.505  22.943  1.00  0.00     0.015 A 
ATOM     10  C   UNL A   1      32.048  20.624  22.408  1.00  0.00     0.008 A 
ATOM     11  C   UNL A   1      32.983  21.949  24.190  1.00  0.00     0.282 A 
ATOM     12  C   UNL A   1      32.178  21.852  23.043  1.00  0.00     0.086 A 
BRANCH   8  13
ATOM     13  C   UNL A   1      34.035  18.324  24.586  1.00  0.00     0.266 C 
ATOM     14  N   UNL A   1      33.623  17.737  25.766  1.00  0.00    -0.290 N 
ATOM     15  H   UNL A   1      34.138  16.965  26.098  1.00  0.00     0.184 HD
ATOM     16  O   UNL A   1      34.908  17.798  23.896  1.00  0.00    -0.268 OA
BRANCH  14  17
ATOM     17  N   UNL A   1      32.524  18.161  26.523  1.00  0.00    -0.248 NA
ATOM     18  H   UNL A   1      31.920  18.748  25.946  1.00  0.00     0.143 HD
ATOM     19  H   UNL A   1      32.851  18.695  27.327  1.00  0.00     0.143 HD
ENDBRANCH  14  17
ENDBRANCH   8  13
BRANCH  11  20
ATOM     20  N   UNL A   1      33.118  23.270  24.776  1.00  0.00     0.063 N 
ATOM     21  O   UNL A   1      34.162  23.889  24.527  1.00  0.00    -0.258 OA
ATOM     22  O   UNL A   1      32.229  23.630  25.560  1.00  0.00    -0.258 OA
ENDBRANCH  11  20
ENDBRANCH   4   7
ENDBRANCH   2   3
ENDBRANCH   1   2
BRANCH   1  23
ATOM     23  C   UNL A   1      39.031  20.431  25.733  1.00  0.00     0.118 C 
BRANCH  23  24
ATOM     24  N   UNL A   1      39.988  19.329  25.773  1.00  0.00    -0.352 N 
ATOM     25  C   UNL A   1      41.335  19.276  26.049  1.00  0.00     0.251 C 
ATOM     26  H   UNL A   1      39.592  18.453  25.561  1.00  0.00     0.163 HD
ATOM     27  O   UNL A   1      41.923  18.201  25.950  1.00  0.00    -0.269 OA
BRANCH  25  28
ATOM     28  C   UNL A   1      42.101  20.494  26.404  1.00  0.00     0.039 A 
ATOM     29  C   UNL A   1      42.692  21.248  25.385  1.00  0.00     0.014 A 
ATOM     30  C   UNL A   1      42.237  20.911  27.724  1.00  0.00     0.014 A 
ATOM     31  C   UNL A   1      43.297  22.475  25.682  1.00  0.00     0.010 A 
ATOM     32  C   UNL A   1      42.713  22.187  28.003  1.00  0.00     0.010 A 
ATOM     33  C   UNL A   1      43.245  22.991  26.985  1.00  0.00    -0.014 A 
BRANCH  33  34
ATOM     34  C   UNL A   1      43.730  24.358  27.323  1.00  0.00     0.031 A 
ATOM     35  C   UNL A   1      42.755  25.418  27.766  1.00  0.00     0.074 A 
ATOM     36  C   UNL A   1      45.024  24.683  27.120  1.00  0.00     0.049 A 
ATOM     37  N   UNL A   1      42.945  26.702  27.936  1.00  0.00    -0.248 NA
ATOM     38  C   UNL A   1      41.367  24.984  28.001  1.00  0.00     0.031 C 
ATOM     39  C   UNL A   1      46.064  23.776  26.629  1.00  0.00     0.029 A 
ATOM     40  N   UNL A   1      45.681  25.878  27.283  1.00  0.00    -0.354 N 
ATOM     41  C   UNL A   1      41.697  27.231  28.245  1.00  0.00     0.074 A 
ATOM     42  C   UNL A   1      40.749  26.140  28.189  1.00  0.00     0.031 C 
ATOM     43  C   UNL A   1      47.232  24.435  26.566  1.00  0.00     0.029 A 
ATOM     44  C   UNL A   1      47.017  25.822  26.962  1.00  0.00     0.049 A 
ATOM     45  H   UNL A   1      45.237  26.697  27.600  1.00  0.00     0.167 HD
ATOM     46  C   UNL A   1      41.372  28.505  28.573  1.00  0.00     0.037 A 
ATOM     47  C   UNL A   1      47.961  26.782  26.978  1.00  0.00     0.037 A 
ATOM     48  C   UNL A   1      42.326  29.572  28.702  1.00  0.00     0.049 A 
ATOM     49  C   UNL A   1      47.584  28.177  27.394  1.00  0.00     0.074 A 
ATOM     50  C   UNL A   1      42.112  30.873  29.124  1.00  0.00     0.029 A 
ATOM     51  N   UNL A   1      43.679  29.459  28.422  1.00  0.00    -0.354 N 
ATOM     52  N   UNL A   1      46.413  28.646  27.746  1.00  0.00    -0.248 NA
ATOM     53  C   UNL A   1      48.663  29.176  27.415  1.00  0.00     0.031 C 
ATOM     54  C   UNL A   1      43.332  31.555  29.071  1.00  0.00     0.029 A 
ATOM     55  C   UNL A   1      44.311  30.669  28.652  1.00  0.00     0.049 A 
ATOM     56  H   UNL A   1      44.124  28.639  28.107  1.00  0.00     0.167 HD
ATOM     57  C   UNL A   1      46.618  29.983  28.060  1.00  0.00     0.074 A 
ATOM     58  C   UNL A   1      48.029  30.247  27.866  1.00  0.00     0.031 C 
ATOM     59  C   UNL A   1      45.719  30.909  28.471  1.00  0.00     0.037 A 
BRANCH  46  60
ATOM     60  C   UNL A   1      39.925  28.805  28.834  1.00  0.00     0.057 A 
ATOM     61  C   UNL A   1      39.366  28.701  30.116  1.00  0.00     0.134 A 
ATOM     62  C   UNL A   1      39.084  29.227  27.797  1.00  0.00     0.134 A 
ATOM     63  F   UNL A   1      40.113  28.290  31.151  1.00  0.00    -0.206 F 
ATOM     64  C   UNL A   1      38.018  28.975  30.349  1.00  0.00     0.040 A 
ATOM     65  C   UNL A   1      37.741  29.532  28.024  1.00  0.00     0.040 A 
ATOM     66  F   UNL A   1      39.555  29.356  26.547  1.00  0.00    -0.206 F 
ATOM     67  C   UNL A   1      37.202  29.399  29.302  1.00  0.00     0.006 A 
ENDBRANCH  46  60
BRANCH  47  68
ATOM     68  C   UNL A   1      49.366  26.455  26.623  1.00  0.00     0.057 A 
ATOM     69  C   UNL A   1      49.845  26.677  25.327  1.00  0.00     0.134 A 
ATOM     70  C   UNL A   1      50.255  25.907  27.554  1.00  0.00     0.134 A 
ATOM     71  F   UNL A   1      49.034  27.182  24.386  1.00  0.00    -0.206 F 
ATOM     72  C   UNL A   1      51.152  26.347  24.963  1.00  0.00     0.040 A 
ATOM     73  C   UNL A   1      51.571  25.594  27.211  1.00  0.00     0.040 A 
ATOM     74  F   UNL A   1      49.859  25.678  28.815  1.00  0.00    -0.206 F 
ATOM     75  C   UNL A   1      52.020  25.808  25.909  1.00  0.00     0.006 A 
ENDBRANCH  47  68
BRANCH  59  76
ATOM     76  C   UNL A   1      46.238  32.281  28.779  1.00  0.00     0.057 A 
ATOM     77  C   UNL A   1      46.282  33.289  27.810  1.00  0.00     0.134 A 
ATOM     78  C   UNL A   1      46.657  32.607  30.076  1.00  0.00     0.134 A 
ATOM     79  F   UNL A   1      45.908  33.035  26.547  1.00  0.00    -0.206 F 
ATOM     80  C   UNL A   1      46.742  34.572  28.115  1.00  0.00     0.040 A 
ATOM     81  C   UNL A   1      47.095  33.891  30.398  1.00  0.00     0.040 A 
ATOM     82  F   UNL A   1      46.632  31.687  31.052  1.00  0.00    -0.206 F 
ATOM     83  C   UNL A   1      47.142  34.877  29.414  1.00  0.00     0.006 A 
ENDBRANCH  59  76
ENDBRANCH  33  34
ENDBRANCH  25  28
ENDBRANCH  23  24
ENDBRANCH   1  23
TORSDOF 13
ENDMDL
