MODEL 1
REMARK VINA RESULT:     -12.4      0.000      0.000
REMARK SMILES CCc1ncc(C[N@H+]2CCC[C@@H](c3cccc(C(=O)NCCCNC(=O)c4ccc(-c5c6nc(c(-c7c(F)cccc7F)c7ccc([nH]7)c(-c7c(F)cccc7F)c7nc(c(-c8c(F)cccc8F)c8ccc5[nH]8)C=C7)C=C6)cc4)c3)C2)cn1
REMARK SMILES IDX 21 1 20 2 18 3 19 4 17 6 13 7 14 8 81 9 15 10 16 11 12 12
REMARK SMILES IDX 8 13 9 14 82 15 10 17 11 18 7 19 6 20 3 21 4 22 84 23 5 24
REMARK SMILES IDX 83 25 2 26 1 27 22 28 23 29 24 30 25 31 26 33 27 34 28 35
REMARK SMILES IDX 80 36 29 37 79 38 30 39 31 40 32 41 73 42 33 43 78 44 72 45
REMARK SMILES IDX 74 46 34 47 77 48 71 49 70 50 35 52 61 53 44 54 60 55 45 56
REMARK SMILES IDX 48 57 59 58 75 59 46 60 47 61 58 63 76 64 49 65 36 66 37 67
REMARK SMILES IDX 42 68 38 69 39 70 41 71 43 72 40 73 62 74 63 75 68 76 64 77
REMARK SMILES IDX 65 78 67 79 69 80 66 81 50 82 51 83 56 84 52 85 53 86 55 87
REMARK SMILES IDX 57 88 54 89
REMARK H PARENT 20 5 8 16 24 32 74 51 48 62
REMARK Flexibility Score: inf
ROOT
ATOM      1  C   UNL A   1      37.400  21.067  24.736  1.00  0.00     0.118 C 
ENDROOT
BRANCH   1   2
ATOM      2  N   UNL A   1      36.493  21.354  25.836  1.00  0.00    -0.352 N 
ATOM      3  C   UNL A   1      35.135  21.481  25.987  1.00  0.00     0.251 C 
ATOM      4  O   UNL A   1      34.735  21.746  27.124  1.00  0.00    -0.269 OA
ATOM      5  H   UNL A   1      36.974  21.491  26.685  1.00  0.00     0.163 HD
BRANCH   3   6
ATOM      6  C   UNL A   1      34.134  21.375  24.888  1.00  0.00     0.040 A 
ATOM      7  C   UNL A   1      32.613  22.335  23.228  1.00  0.00    -0.039 A 
ATOM      8  C   UNL A   1      32.130  21.061  22.928  1.00  0.00     0.004 A 
ATOM      9  C   UNL A   1      33.675  22.449  24.136  1.00  0.00     0.018 A 
ATOM     10  C   UNL A   1      32.655  19.946  23.582  1.00  0.00     0.001 A 
ATOM     11  C   UNL A   1      33.627  20.105  24.576  1.00  0.00     0.014 A 
BRANCH   7  12
ATOM     12  C   UNL A   1      32.107  23.617  22.589  1.00  0.00     0.074 C 
ATOM     13  N   UNL A   1      31.059  25.827  23.146  1.00  0.00    -0.331 N 
ATOM     14  C   UNL A   1      32.074  26.518  22.340  1.00  0.00     0.262 C 
ATOM     15  C   UNL A   1      31.567  24.552  23.677  1.00  0.00     0.270 C 
ATOM     16  H   UNL A   1      30.289  25.612  22.514  1.00  0.00     0.348 HD
ATOM     17  C   UNL A   1      32.557  25.639  21.183  1.00  0.00     0.062 C 
ATOM     18  C   UNL A   1      33.135  24.324  21.699  1.00  0.00     0.020 C 
BRANCH  13  19
ATOM     19  C   UNL A   1      30.479  26.679  24.206  1.00  0.00     0.302 C 
BRANCH  19  20
ATOM     20  C   UNL A   1      29.850  27.959  23.737  1.00  0.00     0.043 A 
ATOM     21  C   UNL A   1      28.548  30.281  23.206  1.00  0.00     0.127 A 
ATOM     22  N   UNL A   1      29.795  30.363  23.707  1.00  0.00    -0.241 NA
ATOM     23  N   UNL A   1      27.924  29.131  22.891  1.00  0.00    -0.241 NA
ATOM     24  C   UNL A   1      30.421  29.195  23.951  1.00  0.00     0.124 A 
ATOM     25  C   UNL A   1      28.596  27.997  23.158  1.00  0.00     0.124 A 
BRANCH  21  26
ATOM     26  C   UNL A   1      27.760  31.554  23.073  1.00  0.00     0.074 C 
ATOM     27  C   UNL A   1      28.681  32.755  22.902  1.00  0.00     0.012 C 
ENDBRANCH  21  26
ENDBRANCH  19  20
ENDBRANCH  13  19
ENDBRANCH   7  12
ENDBRANCH   3   6
ENDBRANCH   1   2
BRANCH   1  28
ATOM     28  C   UNL A   1      38.225  19.807  24.945  1.00  0.00     0.042 C 
BRANCH  28  29
ATOM     29  C   UNL A   1      39.127  19.894  26.167  1.00  0.00     0.118 C 
BRANCH  29  30
ATOM     30  N   UNL A   1      40.392  19.189  25.969  1.00  0.00    -0.352 N 
ATOM     31  C   UNL A   1      41.687  19.638  25.955  1.00  0.00     0.251 C 
ATOM     32  H   UNL A   1      40.297  18.221  25.820  1.00  0.00     0.163 HD
ATOM     33  O   UNL A   1      42.570  18.918  25.501  1.00  0.00    -0.269 OA
BRANCH  31  34
ATOM     34  C   UNL A   1      42.028  20.972  26.489  1.00  0.00     0.039 A 
ATOM     35  C   UNL A   1      42.290  22.018  25.597  1.00  0.00     0.014 A 
ATOM     36  C   UNL A   1      42.161  21.180  27.862  1.00  0.00     0.014 A 
ATOM     37  C   UNL A   1      42.642  23.276  26.089  1.00  0.00     0.010 A 
ATOM     38  C   UNL A   1      42.400  22.455  28.353  1.00  0.00     0.010 A 
ATOM     39  C   UNL A   1      42.677  23.508  27.472  1.00  0.00    -0.014 A 
BRANCH  39  40
ATOM     40  C   UNL A   1      43.075  24.821  28.035  1.00  0.00     0.031 A 
ATOM     41  C   UNL A   1      42.016  25.852  28.327  1.00  0.00     0.074 A 
ATOM     42  C   UNL A   1      44.376  25.109  28.217  1.00  0.00     0.049 A 
ATOM     43  N   UNL A   1      42.151  27.097  28.706  1.00  0.00    -0.248 NA
ATOM     44  C   UNL A   1      40.615  25.438  28.127  1.00  0.00     0.031 C 
ATOM     45  C   UNL A   1      45.495  24.209  27.933  1.00  0.00     0.029 A 
ATOM     46  N   UNL A   1      44.979  26.251  28.680  1.00  0.00    -0.354 N 
ATOM     47  C   UNL A   1      40.863  27.615  28.764  1.00  0.00     0.074 A 
ATOM     48  C   UNL A   1      39.965  26.574  28.318  1.00  0.00     0.031 C 
ATOM     49  C   UNL A   1      46.646  24.823  28.255  1.00  0.00     0.029 A 
ATOM     50  C   UNL A   1      46.348  26.169  28.730  1.00  0.00     0.049 A 
ATOM     51  H   UNL A   1      44.476  27.054  28.950  1.00  0.00     0.167 HD
ATOM     52  C   UNL A   1      40.459  28.837  29.185  1.00  0.00     0.037 A 
ATOM     53  C   UNL A   1      47.258  27.084  29.116  1.00  0.00     0.037 A 
ATOM     54  C   UNL A   1      41.354  29.854  29.667  1.00  0.00     0.049 A 
ATOM     55  C   UNL A   1      46.783  28.430  29.589  1.00  0.00     0.074 A 
ATOM     56  C   UNL A   1      41.050  31.116  30.147  1.00  0.00     0.029 A 
ATOM     57  N   UNL A   1      42.732  29.716  29.742  1.00  0.00    -0.354 N 
ATOM     58  N   UNL A   1      45.560  28.894  29.676  1.00  0.00    -0.248 NA
ATOM     59  C   UNL A   1      47.817  29.376  30.030  1.00  0.00     0.031 C 
ATOM     60  C   UNL A   1      42.249  31.752  30.491  1.00  0.00     0.029 A 
ATOM     61  C   UNL A   1      43.293  30.869  30.264  1.00  0.00     0.049 A 
ATOM     62  H   UNL A   1      43.236  28.917  29.466  1.00  0.00     0.167 HD
ATOM     63  C   UNL A   1      45.673  30.166  30.223  1.00  0.00     0.074 A 
ATOM     64  C   UNL A   1      47.084  30.396  30.452  1.00  0.00     0.031 C 
ATOM     65  C   UNL A   1      44.699  31.062  30.512  1.00  0.00     0.037 A 
BRANCH  52  66
ATOM     66  C   UNL A   1      38.986  29.124  29.159  1.00  0.00     0.057 A 
ATOM     67  C   UNL A   1      38.191  29.004  30.307  1.00  0.00     0.134 A 
ATOM     68  C   UNL A   1      38.356  29.542  27.979  1.00  0.00     0.134 A 
ATOM     69  F   UNL A   1      38.728  28.592  31.465  1.00  0.00    -0.206 F 
ATOM     70  C   UNL A   1      36.819  29.259  30.277  1.00  0.00     0.040 A 
ATOM     71  C   UNL A   1      36.990  29.829  27.945  1.00  0.00     0.040 A 
ATOM     72  F   UNL A   1      39.057  29.682  26.845  1.00  0.00    -0.206 F 
ATOM     73  C   UNL A   1      36.216  29.680  29.094  1.00  0.00     0.006 A 
ENDBRANCH  52  66
BRANCH  53  74
ATOM     74  C   UNL A   1      48.704  26.749  29.115  1.00  0.00     0.057 A 
ATOM     75  C   UNL A   1      49.512  27.059  28.014  1.00  0.00     0.134 A 
ATOM     76  C   UNL A   1      49.309  26.095  30.194  1.00  0.00     0.134 A 
ATOM     77  F   UNL A   1      48.985  27.672  26.943  1.00  0.00    -0.206 F 
ATOM     78  C   UNL A   1      50.861  26.702  27.971  1.00  0.00     0.040 A 
ATOM     79  C   UNL A   1      50.663  25.756  30.175  1.00  0.00     0.040 A 
ATOM     80  F   UNL A   1      48.594  25.782  31.284  1.00  0.00    -0.206 F 
ATOM     81  C   UNL A   1      51.440  26.051  29.057  1.00  0.00     0.006 A 
ENDBRANCH  53  74
BRANCH  65  82
ATOM     82  C   UNL A   1      45.120  32.341  31.172  1.00  0.00     0.057 A 
ATOM     83  C   UNL A   1      45.413  33.497  30.438  1.00  0.00     0.134 A 
ATOM     84  C   UNL A   1      45.205  32.419  32.568  1.00  0.00     0.134 A 
ATOM     85  F   UNL A   1      45.362  33.482  29.098  1.00  0.00    -0.206 F 
ATOM     86  C   UNL A   1      45.807  34.678  31.069  1.00  0.00     0.040 A 
ATOM     87  C   UNL A   1      45.570  33.602  33.211  1.00  0.00     0.040 A 
ATOM     88  F   UNL A   1      44.927  31.350  33.329  1.00  0.00    -0.206 F 
ATOM     89  C   UNL A   1      45.879  34.733  32.460  1.00  0.00     0.006 A 
ENDBRANCH  65  82
ENDBRANCH  39  40
ENDBRANCH  31  34
ENDBRANCH  29  30
ENDBRANCH  28  29
ENDBRANCH   1  28
TORSDOF 14
ENDMDL
MODEL 2
REMARK VINA RESULT:     -12.3      4.342      6.141
REMARK SMILES CCc1ncc(C[N@H+]2CCC[C@@H](c3cccc(C(=O)NCCCNC(=O)c4ccc(-c5c6nc(c(-c7c(F)cccc7F)c7ccc([nH]7)c(-c7c(F)cccc7F)c7nc(c(-c8c(F)cccc8F)c8ccc5[nH]8)C=C7)C=C6)cc4)c3)C2)cn1
REMARK SMILES IDX 21 1 20 2 18 3 19 4 17 6 13 7 14 8 81 9 15 10 16 11 12 12
REMARK SMILES IDX 8 13 9 14 82 15 10 17 11 18 7 19 6 20 3 21 4 22 84 23 5 24
REMARK SMILES IDX 83 25 2 26 1 27 22 28 23 29 24 30 25 31 26 33 27 34 28 35
REMARK SMILES IDX 80 36 29 37 79 38 30 39 31 40 32 41 73 42 33 43 78 44 72 45
REMARK SMILES IDX 74 46 34 47 77 48 71 49 70 50 35 52 61 53 44 54 60 55 45 56
REMARK SMILES IDX 48 57 59 58 75 59 46 60 47 61 58 63 76 64 49 65 36 66 37 67
REMARK SMILES IDX 42 68 38 69 39 70 41 71 43 72 40 73 62 74 63 75 68 76 64 77
REMARK SMILES IDX 65 78 67 79 69 80 66 81 50 82 51 83 56 84 52 85 53 86 55 87
REMARK SMILES IDX 57 88 54 89
REMARK H PARENT 20 5 8 16 24 32 74 51 48 62
REMARK Flexibility Score: inf
ROOT
ATOM      1  C   UNL A   1      38.706  23.135  26.424  1.00  0.00     0.118 C 
ENDROOT
BRANCH   1   2
ATOM      2  N   UNL A   1      38.176  22.715  25.135  1.00  0.00    -0.352 N 
ATOM      3  C   UNL A   1      36.943  22.703  24.533  1.00  0.00     0.251 C 
ATOM      4  O   UNL A   1      36.901  22.243  23.389  1.00  0.00    -0.269 OA
ATOM      5  H   UNL A   1      38.878  22.349  24.550  1.00  0.00     0.163 HD
BRANCH   3   6
ATOM      6  C   UNL A   1      35.671  23.148  25.169  1.00  0.00     0.040 A 
ATOM      7  C   UNL A   1      33.910  24.794  25.596  1.00  0.00    -0.039 A 
ATOM      8  C   UNL A   1      33.344  23.946  26.549  1.00  0.00     0.004 A 
ATOM      9  C   UNL A   1      35.009  24.330  24.860  1.00  0.00     0.018 A 
ATOM     10  C   UNL A   1      33.917  22.700  26.799  1.00  0.00     0.001 A 
ATOM     11  C   UNL A   1      35.090  22.318  26.137  1.00  0.00     0.014 A 
BRANCH   7  12
ATOM     12  C   UNL A   1      33.378  26.174  25.252  1.00  0.00     0.074 C 
ATOM     13  N   UNL A   1      31.358  27.348  24.339  1.00  0.00    -0.331 N 
ATOM     14  C   UNL A   1      31.381  28.282  25.472  1.00  0.00     0.262 C 
ATOM     15  C   UNL A   1      31.955  26.052  24.695  1.00  0.00     0.270 C 
ATOM     16  H   UNL A   1      31.939  27.765  23.612  1.00  0.00     0.348 HD
ATOM     17  C   UNL A   1      32.808  28.499  25.983  1.00  0.00     0.062 C 
ATOM     18  C   UNL A   1      33.445  27.179  26.406  1.00  0.00     0.020 C 
BRANCH  13  19
ATOM     19  C   UNL A   1      30.015  27.196  23.738  1.00  0.00     0.302 C 
BRANCH  19  20
ATOM     20  C   UNL A   1      29.480  28.407  23.031  1.00  0.00     0.043 A 
ATOM     21  C   UNL A   1      28.452  30.380  21.475  1.00  0.00     0.127 A 
ATOM     22  N   UNL A   1      27.616  29.748  22.320  1.00  0.00    -0.241 NA
ATOM     23  N   UNL A   1      29.775  30.146  21.392  1.00  0.00    -0.241 NA
ATOM     24  C   UNL A   1      28.155  28.781  23.087  1.00  0.00     0.124 A 
ATOM     25  C   UNL A   1      30.257  29.169  22.180  1.00  0.00     0.124 A 
BRANCH  21  26
ATOM     26  C   UNL A   1      27.859  31.349  20.492  1.00  0.00     0.074 C 
ATOM     27  C   UNL A   1      27.945  32.779  21.010  1.00  0.00     0.012 C 
ENDBRANCH  21  26
ENDBRANCH  19  20
ENDBRANCH  13  19
ENDBRANCH   7  12
ENDBRANCH   3   6
ENDBRANCH   1   2
BRANCH   1  28
ATOM     28  C   UNL A   1      39.899  22.311  26.884  1.00  0.00     0.042 C 
BRANCH  28  29
ATOM     29  C   UNL A   1      41.098  23.173  27.250  1.00  0.00     0.118 C 
BRANCH  29  30
ATOM     30  N   UNL A   1      41.501  24.051  26.153  1.00  0.00    -0.352 N 
ATOM     31  C   UNL A   1      41.467  25.416  26.026  1.00  0.00     0.251 C 
ATOM     32  H   UNL A   1      41.860  23.580  25.367  1.00  0.00     0.163 HD
ATOM     33  O   UNL A   1      41.601  25.921  24.916  1.00  0.00    -0.269 OA
BRANCH  31  34
ATOM     34  C   UNL A   1      41.284  26.279  27.210  1.00  0.00     0.039 A 
ATOM     35  C   UNL A   1      40.213  26.031  28.076  1.00  0.00     0.014 A 
ATOM     36  C   UNL A   1      42.118  27.375  27.433  1.00  0.00     0.014 A 
ATOM     37  C   UNL A   1      40.011  26.857  29.183  1.00  0.00     0.010 A 
ATOM     38  C   UNL A   1      41.986  28.126  28.591  1.00  0.00     0.010 A 
ATOM     39  C   UNL A   1      40.911  27.898  29.460  1.00  0.00    -0.014 A 
BRANCH  39  40
ATOM     40  C   UNL A   1      40.717  28.815  30.608  1.00  0.00     0.031 A 
ATOM     41  C   UNL A   1      39.632  29.858  30.545  1.00  0.00     0.074 A 
ATOM     42  C   UNL A   1      41.548  28.757  31.664  1.00  0.00     0.049 A 
ATOM     43  N   UNL A   1      39.367  30.831  31.380  1.00  0.00    -0.248 NA
ATOM     44  C   UNL A   1      38.750  29.828  29.365  1.00  0.00     0.031 C 
ATOM     45  C   UNL A   1      42.660  27.819  31.822  1.00  0.00     0.029 A 
ATOM     46  N   UNL A   1      41.589  29.515  32.807  1.00  0.00    -0.354 N 
ATOM     47  C   UNL A   1      38.312  31.536  30.813  1.00  0.00     0.074 A 
ATOM     48  C   UNL A   1      38.028  30.923  29.535  1.00  0.00     0.031 C 
ATOM     49  C   UNL A   1      43.256  28.037  33.006  1.00  0.00     0.029 A 
ATOM     50  C   UNL A   1      42.593  29.153  33.671  1.00  0.00     0.049 A 
ATOM     51  H   UNL A   1      40.959  30.248  32.990  1.00  0.00     0.167 HD
ATOM     52  C   UNL A   1      37.617  32.579  31.325  1.00  0.00     0.037 A 
ATOM     53  C   UNL A   1      42.937  29.670  34.865  1.00  0.00     0.037 A 
ATOM     54  C   UNL A   1      37.877  33.159  32.614  1.00  0.00     0.049 A 
ATOM     55  C   UNL A   1      42.142  30.822  35.418  1.00  0.00     0.074 A 
ATOM     56  C   UNL A   1      37.215  34.197  33.246  1.00  0.00     0.029 A 
ATOM     57  N   UNL A   1      38.876  32.735  33.478  1.00  0.00    -0.354 N 
ATOM     58  N   UNL A   1      41.122  31.453  34.889  1.00  0.00    -0.248 NA
ATOM     59  C   UNL A   1      42.541  31.323  36.739  1.00  0.00     0.031 C 
ATOM     60  C   UNL A   1      37.830  34.418  34.483  1.00  0.00     0.029 A 
ATOM     61  C   UNL A   1      38.847  33.489  34.638  1.00  0.00     0.049 A 
ATOM     62  H   UNL A   1      39.511  32.007  33.294  1.00  0.00     0.167 HD
ATOM     63  C   UNL A   1      40.729  32.396  35.831  1.00  0.00     0.074 A 
ATOM     64  C   UNL A   1      41.617  32.247  36.965  1.00  0.00     0.031 C 
ATOM     65  C   UNL A   1      39.722  33.301  35.767  1.00  0.00     0.037 A 
BRANCH  52  66
ATOM     66  C   UNL A   1      36.500  33.140  30.493  1.00  0.00     0.057 A 
ATOM     67  C   UNL A   1      36.744  34.011  29.422  1.00  0.00     0.134 A 
ATOM     68  C   UNL A   1      35.168  32.792  30.750  1.00  0.00     0.134 A 
ATOM     69  F   UNL A   1      37.996  34.397  29.133  1.00  0.00    -0.206 F 
ATOM     70  C   UNL A   1      35.704  34.541  28.658  1.00  0.00     0.040 A 
ATOM     71  C   UNL A   1      34.121  33.292  29.973  1.00  0.00     0.040 A 
ATOM     72  F   UNL A   1      34.862  31.960  31.756  1.00  0.00    -0.206 F 
ATOM     73  C   UNL A   1      34.386  34.176  28.929  1.00  0.00     0.006 A 
ENDBRANCH  52  66
BRANCH  53  74
ATOM     74  C   UNL A   1      44.056  29.081  35.643  1.00  0.00     0.057 A 
ATOM     75  C   UNL A   1      45.362  29.568  35.503  1.00  0.00     0.134 A 
ATOM     76  C   UNL A   1      43.858  28.011  36.522  1.00  0.00     0.134 A 
ATOM     77  F   UNL A   1      45.615  30.583  34.663  1.00  0.00    -0.206 F 
ATOM     78  C   UNL A   1      46.435  28.991  36.183  1.00  0.00     0.040 A 
ATOM     79  C   UNL A   1      44.919  27.441  37.229  1.00  0.00     0.040 A 
ATOM     80  F   UNL A   1      42.630  27.507  36.711  1.00  0.00    -0.206 F 
ATOM     81  C   UNL A   1      46.213  27.925  37.051  1.00  0.00     0.006 A 
ENDBRANCH  53  74
BRANCH  65  82
ATOM     82  C   UNL A   1      39.486  34.147  36.982  1.00  0.00     0.057 A 
ATOM     83  C   UNL A   1      38.780  33.674  38.094  1.00  0.00     0.134 A 
ATOM     84  C   UNL A   1      40.000  35.449  37.044  1.00  0.00     0.134 A 
ATOM     85  F   UNL A   1      38.252  32.441  38.090  1.00  0.00    -0.206 F 
ATOM     86  C   UNL A   1      38.567  34.476  39.216  1.00  0.00     0.040 A 
ATOM     87  C   UNL A   1      39.818  36.250  38.172  1.00  0.00     0.040 A 
ATOM     88  F   UNL A   1      40.694  35.959  36.016  1.00  0.00    -0.206 F 
ATOM     89  C   UNL A   1      39.093  35.767  39.258  1.00  0.00     0.006 A 
ENDBRANCH  65  82
ENDBRANCH  39  40
ENDBRANCH  31  34
ENDBRANCH  29  30
ENDBRANCH  28  29
ENDBRANCH   1  28
TORSDOF 14
ENDMDL
MODEL 3
REMARK VINA RESULT:     -12.3      4.104      8.500
REMARK SMILES CCc1ncc(C[N@H+]2CCC[C@@H](c3cccc(C(=O)NCCCNC(=O)c4ccc(-c5c6nc(c(-c7c(F)cccc7F)c7ccc([nH]7)c(-c7c(F)cccc7F)c7nc(c(-c8c(F)cccc8F)c8ccc5[nH]8)C=C7)C=C6)cc4)c3)C2)cn1
REMARK SMILES IDX 21 1 20 2 18 3 19 4 17 6 13 7 14 8 81 9 15 10 16 11 12 12
REMARK SMILES IDX 8 13 9 14 82 15 10 17 11 18 7 19 6 20 3 21 4 22 84 23 5 24
REMARK SMILES IDX 83 25 2 26 1 27 22 28 23 29 24 30 25 31 26 33 27 34 28 35
REMARK SMILES IDX 80 36 29 37 79 38 30 39 31 40 32 41 73 42 33 43 78 44 72 45
REMARK SMILES IDX 74 46 34 47 77 48 71 49 70 50 35 52 61 53 44 54 60 55 45 56
REMARK SMILES IDX 48 57 59 58 75 59 46 60 47 61 58 63 76 64 49 65 36 66 37 67
REMARK SMILES IDX 42 68 38 69 39 70 41 71 43 72 40 73 62 74 63 75 68 76 64 77
REMARK SMILES IDX 65 78 67 79 69 80 66 81 50 82 51 83 56 84 52 85 53 86 55 87
REMARK SMILES IDX 57 88 54 89
REMARK H PARENT 20 5 8 16 24 32 74 51 48 62
REMARK Flexibility Score: inf
ROOT
ATOM      1  C   UNL A   1      41.377  19.664  26.101  1.00  0.00     0.118 C 
ENDROOT
BRANCH   1   2
ATOM      2  N   UNL A   1      42.007  20.566  27.054  1.00  0.00    -0.352 N 
ATOM      3  C   UNL A   1      41.683  21.763  27.641  1.00  0.00     0.251 C 
ATOM      4  O   UNL A   1      42.516  22.230  28.422  1.00  0.00    -0.269 OA
ATOM      5  H   UNL A   1      42.884  20.233  27.352  1.00  0.00     0.163 HD
BRANCH   3   6
ATOM      6  C   UNL A   1      40.446  22.548  27.367  1.00  0.00     0.040 A 
ATOM      7  C   UNL A   1      38.377  22.993  26.136  1.00  0.00    -0.039 A 
ATOM      8  C   UNL A   1      38.219  24.194  26.829  1.00  0.00     0.004 A 
ATOM      9  C   UNL A   1      39.441  22.153  26.493  1.00  0.00     0.018 A 
ATOM     10  C   UNL A   1      39.150  24.565  27.800  1.00  0.00     0.001 A 
ATOM     11  C   UNL A   1      40.270  23.763  28.044  1.00  0.00     0.014 A 
BRANCH   7  12
ATOM     12  C   UNL A   1      37.435  22.497  25.053  1.00  0.00     0.074 C 
ATOM     13  N   UNL A   1      35.157  21.503  24.712  1.00  0.00    -0.331 N 
ATOM     14  C   UNL A   1      34.864  22.512  23.686  1.00  0.00     0.262 C 
ATOM     15  C   UNL A   1      36.135  21.998  25.694  1.00  0.00     0.270 C 
ATOM     16  H   UNL A   1      35.584  20.715  24.225  1.00  0.00     0.348 HD
ATOM     17  C   UNL A   1      36.139  22.953  22.961  1.00  0.00     0.062 C 
ATOM     18  C   UNL A   1      37.160  23.518  23.944  1.00  0.00     0.020 C 
BRANCH  13  19
ATOM     19  C   UNL A   1      33.943  20.962  25.360  1.00  0.00     0.302 C 
BRANCH  19  20
ATOM     20  C   UNL A   1      33.652  19.515  25.085  1.00  0.00     0.043 A 
ATOM     21  C   UNL A   1      33.249  16.836  24.918  1.00  0.00     0.127 A 
ATOM     22  N   UNL A   1      32.214  17.602  25.314  1.00  0.00    -0.241 NA
ATOM     23  N   UNL A   1      34.450  17.310  24.540  1.00  0.00    -0.241 NA
ATOM     24  C   UNL A   1      32.440  18.928  25.377  1.00  0.00     0.124 A 
ATOM     25  C   UNL A   1      34.618  18.642  24.626  1.00  0.00     0.124 A 
BRANCH  21  26
ATOM     26  C   UNL A   1      33.086  15.344  24.989  1.00  0.00     0.074 C 
ATOM     27  C   UNL A   1      32.153  14.946  26.126  1.00  0.00     0.012 C 
ENDBRANCH  21  26
ENDBRANCH  19  20
ENDBRANCH  13  19
ENDBRANCH   7  12
ENDBRANCH   3   6
ENDBRANCH   1   2
BRANCH   1  28
ATOM     28  C   UNL A   1      42.178  18.397  25.849  1.00  0.00     0.042 C 
BRANCH  28  29
ATOM     29  C   UNL A   1      43.663  18.578  26.129  1.00  0.00     0.118 C 
BRANCH  29  30
ATOM     30  N   UNL A   1      44.471  18.454  24.917  1.00  0.00    -0.352 N 
ATOM     31  C   UNL A   1      45.007  19.402  24.085  1.00  0.00     0.251 C 
ATOM     32  H   UNL A   1      44.664  17.526  24.652  1.00  0.00     0.163 HD
ATOM     33  O   UNL A   1      45.419  19.070  22.979  1.00  0.00    -0.269 OA
BRANCH  31  34
ATOM     34  C   UNL A   1      45.102  20.813  24.513  1.00  0.00     0.039 A 
ATOM     35  C   UNL A   1      44.702  21.822  23.630  1.00  0.00     0.014 A 
ATOM     36  C   UNL A   1      45.652  21.149  25.750  1.00  0.00     0.014 A 
ATOM     37  C   UNL A   1      44.814  23.160  24.011  1.00  0.00     0.010 A 
ATOM     38  C   UNL A   1      45.659  22.471  26.172  1.00  0.00     0.010 A 
ATOM     39  C   UNL A   1      45.273  23.492  25.295  1.00  0.00    -0.014 A 
BRANCH  39  40
ATOM     40  C   UNL A   1      45.435  24.901  25.727  1.00  0.00     0.031 A 
ATOM     41  C   UNL A   1      46.792  25.550  25.641  1.00  0.00     0.074 A 
ATOM     42  C   UNL A   1      44.392  25.567  26.255  1.00  0.00     0.049 A 
ATOM     43  N   UNL A   1      47.179  26.723  26.073  1.00  0.00    -0.248 NA
ATOM     44  C   UNL A   1      47.868  24.756  25.021  1.00  0.00     0.031 C 
ATOM     45  C   UNL A   1      43.041  25.032  26.428  1.00  0.00     0.029 A 
ATOM     46  N   UNL A   1      44.310  26.843  26.753  1.00  0.00    -0.354 N 
ATOM     47  C   UNL A   1      48.540  26.794  25.799  1.00  0.00     0.074 A 
ATOM     48  C   UNL A   1      48.926  25.524  25.227  1.00  0.00     0.031 C 
ATOM     49  C   UNL A   1      42.257  25.982  26.966  1.00  0.00     0.029 A 
ATOM     50  C   UNL A   1      43.059  27.176  27.209  1.00  0.00     0.049 A 
ATOM     51  H   UNL A   1      45.076  27.460  26.780  1.00  0.00     0.167 HD
ATOM     52  C   UNL A   1      49.387  27.835  25.976  1.00  0.00     0.037 A 
ATOM     53  C   UNL A   1      42.615  28.319  27.763  1.00  0.00     0.037 A 
ATOM     54  C   UNL A   1      48.989  29.110  26.507  1.00  0.00     0.049 A 
ATOM     55  C   UNL A   1      43.573  29.466  27.939  1.00  0.00     0.074 A 
ATOM     56  C   UNL A   1      49.757  30.245  26.699  1.00  0.00     0.029 A 
ATOM     57  N   UNL A   1      47.702  29.422  26.918  1.00  0.00    -0.354 N 
ATOM     58  N   UNL A   1      44.848  29.533  27.640  1.00  0.00    -0.248 NA
ATOM     59  C   UNL A   1      43.026  30.699  28.517  1.00  0.00     0.031 C 
ATOM     60  C   UNL A   1      48.939  31.237  27.250  1.00  0.00     0.029 A 
ATOM     61  C   UNL A   1      47.652  30.732  27.360  1.00  0.00     0.049 A 
ATOM     62  H   UNL A   1      46.936  28.804  26.897  1.00  0.00     0.167 HD
ATOM     63  C   UNL A   1      45.244  30.827  27.952  1.00  0.00     0.074 A 
ATOM     64  C   UNL A   1      44.071  31.511  28.457  1.00  0.00     0.031 C 
ATOM     65  C   UNL A   1      46.466  31.401  27.829  1.00  0.00     0.037 A 
BRANCH  52  66
ATOM     66  C   UNL A   1      50.819  27.637  25.570  1.00  0.00     0.057 A 
ATOM     67  C   UNL A   1      51.247  27.847  24.252  1.00  0.00     0.134 A 
ATOM     68  C   UNL A   1      51.785  27.249  26.507  1.00  0.00     0.134 A 
ATOM     69  F   UNL A   1      50.370  28.203  23.301  1.00  0.00    -0.206 F 
ATOM     70  C   UNL A   1      52.576  27.650  23.874  1.00  0.00     0.040 A 
ATOM     71  C   UNL A   1      53.123  27.078  26.147  1.00  0.00     0.040 A 
ATOM     72  F   UNL A   1      51.446  27.034  27.787  1.00  0.00    -0.206 F 
ATOM     73  C   UNL A   1      53.521  27.270  24.825  1.00  0.00     0.006 A 
ENDBRANCH  52  66
BRANCH  53  74
ATOM     74  C   UNL A   1      41.189  28.459  28.154  1.00  0.00     0.057 A 
ATOM     75  C   UNL A   1      40.755  28.085  29.432  1.00  0.00     0.134 A 
ATOM     76  C   UNL A   1      40.226  28.942  27.262  1.00  0.00     0.134 A 
ATOM     77  F   UNL A   1      41.631  27.601  30.325  1.00  0.00    -0.206 F 
ATOM     78  C   UNL A   1      39.410  28.157  29.799  1.00  0.00     0.040 A 
ATOM     79  C   UNL A   1      38.881  29.043  27.624  1.00  0.00     0.040 A 
ATOM     80  F   UNL A   1      40.578  29.328  26.027  1.00  0.00    -0.206 F 
ATOM     81  C   UNL A   1      38.470  28.640  28.893  1.00  0.00     0.006 A 
ENDBRANCH  53  74
BRANCH  65  82
ATOM     82  C   UNL A   1      46.577  32.854  28.180  1.00  0.00     0.057 A 
ATOM     83  C   UNL A   1      46.929  33.286  29.465  1.00  0.00     0.134 A 
ATOM     84  C   UNL A   1      46.354  33.834  27.204  1.00  0.00     0.134 A 
ATOM     85  F   UNL A   1      47.142  32.396  30.446  1.00  0.00    -0.206 F 
ATOM     86  C   UNL A   1      47.025  34.643  29.775  1.00  0.00     0.040 A 
ATOM     87  C   UNL A   1      46.476  35.193  27.495  1.00  0.00     0.040 A 
ATOM     88  F   UNL A   1      46.025  33.487  25.951  1.00  0.00    -0.206 F 
ATOM     89  C   UNL A   1      46.804  35.600  28.786  1.00  0.00     0.006 A 
ENDBRANCH  65  82
ENDBRANCH  39  40
ENDBRANCH  31  34
ENDBRANCH  29  30
ENDBRANCH  28  29
ENDBRANCH   1  28
TORSDOF 14
ENDMDL
