MODEL 1
REMARK VINA RESULT:     -12.5      0.000      0.000
REMARK SMILES Cc1ccnc(C(=O)c2[nH]c3ccc(F)cc3c2CC(=O)NCCCNC(=O)c2ccc(-c3c4nc(c(-c5c(F)cccc5F)c5ccc([nH]5)c(-c5c(F)cccc5F)c5nc(c(-c6c(F)cccc6F)c6ccc3[nH]6)C=C5)C=C4)cc2)c1
REMARK SMILES IDX 23 1 22 2 20 3 21 4 19 6 18 7 9 8 10 9 11 10 17 12 12 13
REMARK SMILES IDX 16 14 13 15 14 16 15 17 7 18 8 19 6 20 1 21 2 22 3 23 83 24
REMARK SMILES IDX 4 25 5 26 24 27 25 28 26 29 27 30 28 32 29 33 30 34 82 35
REMARK SMILES IDX 31 36 81 37 32 38 33 39 34 40 75 41 35 42 80 43 74 44 76 45
REMARK SMILES IDX 36 46 79 47 73 48 72 49 37 51 63 52 46 53 62 54 47 55 50 56
REMARK SMILES IDX 61 57 77 58 48 59 49 60 60 62 78 63 51 64 38 65 39 66 44 67
REMARK SMILES IDX 40 68 41 69 43 70 45 71 42 72 64 73 65 74 70 75 66 76 67 77
REMARK SMILES IDX 69 78 71 79 68 80 52 81 53 82 58 83 54 84 55 85 57 86 59 87
REMARK SMILES IDX 56 88
REMARK H PARENT 22 5 10 11 26 31 76 50 50 61
REMARK Flexibility Score: inf
ROOT
ATOM      1  C   UNL A   1      32.022  27.240  26.083  1.00  0.00     0.117 C 
ENDROOT
BRANCH   1   2
ATOM      2  N   UNL A   1      31.417  26.021  26.578  1.00  0.00    -0.356 N 
ATOM      3  C   UNL A   1      31.852  24.728  26.532  1.00  0.00     0.224 C 
ATOM      4  O   UNL A   1      31.242  23.910  27.227  1.00  0.00    -0.275 OA
ATOM      5  H   UNL A   1      30.547  26.145  27.021  1.00  0.00     0.163 HD
BRANCH   3   6
ATOM      6  C   UNL A   1      33.058  24.293  25.721  1.00  0.00     0.138 C 
BRANCH   6   7
ATOM      7  C   UNL A   1      32.783  23.450  24.507  1.00  0.00    -0.002 A 
ATOM      8  C   UNL A   1      32.493  23.842  23.197  1.00  0.00     0.093 A 
ATOM      9  N   UNL A   1      32.167  22.691  22.504  1.00  0.00    -0.352 N 
ATOM     10  C   UNL A   1      32.353  21.569  23.268  1.00  0.00     0.046 A 
ATOM     11  H   UNL A   1      31.842  22.679  21.575  1.00  0.00     0.167 HD
ATOM     12  C   UNL A   1      32.667  22.008  24.550  1.00  0.00     0.007 A 
ATOM     13  C   UNL A   1      32.236  20.215  22.926  1.00  0.00     0.030 A 
ATOM     14  C   UNL A   1      32.820  21.036  25.563  1.00  0.00     0.049 A 
ATOM     15  C   UNL A   1      32.457  19.273  23.934  1.00  0.00     0.041 A 
ATOM     16  C   UNL A   1      32.735  19.686  25.228  1.00  0.00     0.123 A 
ATOM     17  F   UNL A   1      32.944  18.765  26.180  1.00  0.00    -0.207 F 
BRANCH   8  18
ATOM     18  C   UNL A   1      32.352  25.122  22.508  1.00  0.00     0.227 C 
ATOM     19  O   UNL A   1      33.251  25.498  21.756  1.00  0.00    -0.285 OA
BRANCH  18  20
ATOM     20  C   UNL A   1      31.221  26.073  22.797  1.00  0.00     0.113 A 
ATOM     21  C   UNL A   1      30.053  29.635  22.168  1.00  0.00     0.044 C 
ATOM     22  C   UNL A   1      30.105  28.199  22.594  1.00  0.00    -0.047 A 
ATOM     23  C   UNL A   1      29.062  27.676  23.355  1.00  0.00     0.023 A 
ATOM     24  C   UNL A   1      31.173  27.356  22.260  1.00  0.00     0.036 A 
ATOM     25  C   UNL A   1      29.151  26.365  23.790  1.00  0.00     0.112 A 
ATOM     26  N   UNL A   1      30.204  25.560  23.538  1.00  0.00    -0.253 NA
ENDBRANCH  18  20
ENDBRANCH   8  18
ENDBRANCH   6   7
ENDBRANCH   3   6
ENDBRANCH   1   2
BRANCH   1  27
ATOM     27  C   UNL A   1      33.231  27.744  26.874  1.00  0.00     0.042 C 
BRANCH  27  28
ATOM     28  C   UNL A   1      34.105  28.814  26.225  1.00  0.00     0.118 C 
BRANCH  28  29
ATOM     29  N   UNL A   1      33.828  30.164  26.672  1.00  0.00    -0.352 N 
ATOM     30  C   UNL A   1      34.511  30.936  27.579  1.00  0.00     0.251 C 
ATOM     31  H   UNL A   1      33.036  30.589  26.268  1.00  0.00     0.163 HD
ATOM     32  O   UNL A   1      34.052  32.018  27.924  1.00  0.00    -0.269 OA
BRANCH  30  33
ATOM     33  C   UNL A   1      35.787  30.460  28.155  1.00  0.00     0.039 A 
ATOM     34  C   UNL A   1      35.743  29.677  29.312  1.00  0.00     0.014 A 
ATOM     35  C   UNL A   1      37.017  30.805  27.588  1.00  0.00     0.014 A 
ATOM     36  C   UNL A   1      36.929  29.199  29.873  1.00  0.00     0.010 A 
ATOM     37  C   UNL A   1      38.197  30.285  28.119  1.00  0.00     0.010 A 
ATOM     38  C   UNL A   1      38.166  29.476  29.266  1.00  0.00    -0.014 A 
BRANCH  38  39
ATOM     39  C   UNL A   1      39.425  28.904  29.811  1.00  0.00     0.031 A 
ATOM     40  C   UNL A   1      40.075  29.501  31.028  1.00  0.00     0.074 A 
ATOM     41  C   UNL A   1      40.013  27.870  29.177  1.00  0.00     0.049 A 
ATOM     42  N   UNL A   1      41.196  29.163  31.617  1.00  0.00    -0.248 NA
ATOM     43  C   UNL A   1      39.387  30.639  31.655  1.00  0.00     0.031 C 
ATOM     44  C   UNL A   1      39.503  27.222  27.967  1.00  0.00     0.029 A 
ATOM     45  N   UNL A   1      41.170  27.187  29.456  1.00  0.00    -0.354 N 
ATOM     46  C   UNL A   1      41.351  30.049  32.676  1.00  0.00     0.074 A 
ATOM     47  C   UNL A   1      40.235  30.970  32.619  1.00  0.00     0.031 C 
ATOM     48  C   UNL A   1      40.332  26.227  27.618  1.00  0.00     0.029 A 
ATOM     49  C   UNL A   1      41.452  26.189  28.555  1.00  0.00     0.049 A 
ATOM     50  H   UNL A   1      41.744  27.394  30.229  1.00  0.00     0.167 HD
ATOM     51  C   UNL A   1      42.322  30.081  33.620  1.00  0.00     0.037 A 
ATOM     52  C   UNL A   1      42.499  25.345  28.482  1.00  0.00     0.037 A 
ATOM     53  C   UNL A   1      43.427  29.157  33.681  1.00  0.00     0.049 A 
ATOM     54  C   UNL A   1      43.578  25.418  29.527  1.00  0.00     0.074 A 
ATOM     55  C   UNL A   1      44.432  29.077  34.629  1.00  0.00     0.029 A 
ATOM     56  N   UNL A   1      43.676  28.159  32.751  1.00  0.00    -0.354 N 
ATOM     57  N   UNL A   1      43.675  26.217  30.562  1.00  0.00    -0.248 NA
ATOM     58  C   UNL A   1      44.691  24.467  29.398  1.00  0.00     0.031 C 
ATOM     59  C   UNL A   1      45.319  28.066  34.244  1.00  0.00     0.029 A 
ATOM     60  C   UNL A   1      44.835  27.477  33.088  1.00  0.00     0.049 A 
ATOM     61  H   UNL A   1      43.114  27.963  31.967  1.00  0.00     0.167 HD
ATOM     62  C   UNL A   1      44.839  25.845  31.223  1.00  0.00     0.074 A 
ATOM     63  C   UNL A   1      45.406  24.740  30.479  1.00  0.00     0.031 C 
ATOM     64  C   UNL A   1      45.388  26.373  32.345  1.00  0.00     0.037 A 
BRANCH  51  65
ATOM     65  C   UNL A   1      42.239  31.155  34.668  1.00  0.00     0.057 A 
ATOM     66  C   UNL A   1      41.512  30.980  35.852  1.00  0.00     0.134 A 
ATOM     67  C   UNL A   1      42.929  32.364  34.509  1.00  0.00     0.134 A 
ATOM     68  F   UNL A   1      40.822  29.849  36.065  1.00  0.00    -0.206 F 
ATOM     69  C   UNL A   1      41.453  31.976  36.829  1.00  0.00     0.040 A 
ATOM     70  C   UNL A   1      42.901  33.356  35.491  1.00  0.00     0.040 A 
ATOM     71  F   UNL A   1      43.653  32.597  33.404  1.00  0.00    -0.206 F 
ATOM     72  C   UNL A   1      42.155  33.166  36.651  1.00  0.00     0.006 A 
ENDBRANCH  51  65
BRANCH  52  73
ATOM     73  C   UNL A   1      42.574  24.346  27.387  1.00  0.00     0.057 A 
ATOM     74  C   UNL A   1      42.081  23.047  27.557  1.00  0.00     0.134 A 
ATOM     75  C   UNL A   1      43.150  24.659  26.149  1.00  0.00     0.134 A 
ATOM     76  F   UNL A   1      41.535  22.680  28.725  1.00  0.00    -0.206 F 
ATOM     77  C   UNL A   1      42.179  22.088  26.546  1.00  0.00     0.040 A 
ATOM     78  C   UNL A   1      43.229  23.719  25.120  1.00  0.00     0.040 A 
ATOM     79  F   UNL A   1      43.633  25.888  25.918  1.00  0.00    -0.206 F 
ATOM     80  C   UNL A   1      42.751  22.426  25.321  1.00  0.00     0.006 A 
ENDBRANCH  52  73
BRANCH  64  81
ATOM     81  C   UNL A   1      46.646  25.736  32.862  1.00  0.00     0.057 A 
ATOM     82  C   UNL A   1      47.917  26.169  32.463  1.00  0.00     0.134 A 
ATOM     83  C   UNL A   1      46.584  24.697  33.800  1.00  0.00     0.134 A 
ATOM     84  F   UNL A   1      48.048  27.151  31.557  1.00  0.00    -0.206 F 
ATOM     85  C   UNL A   1      49.080  25.576  32.959  1.00  0.00     0.040 A 
ATOM     86  C   UNL A   1      47.740  24.116  34.326  1.00  0.00     0.040 A 
ATOM     87  F   UNL A   1      45.401  24.239  34.232  1.00  0.00    -0.206 F 
ATOM     88  C   UNL A   1      48.993  24.551  33.899  1.00  0.00     0.006 A 
ENDBRANCH  64  81
ENDBRANCH  38  39
ENDBRANCH  30  33
ENDBRANCH  28  29
ENDBRANCH  27  28
ENDBRANCH   1  27
TORSDOF 13
ENDMDL
MODEL 2
REMARK VINA RESULT:     -12.5      3.805      8.452
REMARK SMILES Cc1ccnc(C(=O)c2[nH]c3ccc(F)cc3c2CC(=O)NCCCNC(=O)c2ccc(-c3c4nc(c(-c5c(F)cccc5F)c5ccc([nH]5)c(-c5c(F)cccc5F)c5nc(c(-c6c(F)cccc6F)c6ccc3[nH]6)C=C5)C=C4)cc2)c1
REMARK SMILES IDX 23 1 22 2 20 3 21 4 19 6 18 7 9 8 10 9 11 10 17 12 12 13
REMARK SMILES IDX 16 14 13 15 14 16 15 17 7 18 8 19 6 20 1 21 2 22 3 23 83 24
REMARK SMILES IDX 4 25 5 26 24 27 25 28 26 29 27 30 28 32 29 33 30 34 82 35
REMARK SMILES IDX 31 36 81 37 32 38 33 39 34 40 75 41 35 42 80 43 74 44 76 45
REMARK SMILES IDX 36 46 79 47 73 48 72 49 37 51 63 52 46 53 62 54 47 55 50 56
REMARK SMILES IDX 61 57 77 58 48 59 49 60 60 62 78 63 51 64 38 65 39 66 44 67
REMARK SMILES IDX 40 68 41 69 43 70 45 71 42 72 64 73 65 74 70 75 66 76 67 77
REMARK SMILES IDX 69 78 71 79 68 80 52 81 53 82 58 83 54 84 55 85 57 86 59 87
REMARK SMILES IDX 56 88
REMARK H PARENT 22 5 10 11 26 31 76 50 50 61
REMARK Flexibility Score: inf
ROOT
ATOM      1  C   UNL A   1      37.299  21.136  24.709  1.00  0.00     0.117 C 
ENDROOT
BRANCH   1   2
ATOM      2  N   UNL A   1      37.664  22.314  25.470  1.00  0.00    -0.356 N 
ATOM      3  C   UNL A   1      37.047  23.526  25.585  1.00  0.00     0.224 C 
ATOM      4  O   UNL A   1      37.456  24.276  26.476  1.00  0.00    -0.275 OA
ATOM      5  H   UNL A   1      38.495  22.226  25.990  1.00  0.00     0.163 HD
BRANCH   3   6
ATOM      6  C   UNL A   1      35.876  23.940  24.715  1.00  0.00     0.138 C 
BRANCH   6   7
ATOM      7  C   UNL A   1      34.534  24.024  25.390  1.00  0.00    -0.002 A 
ATOM      8  C   UNL A   1      33.737  23.004  25.918  1.00  0.00     0.093 A 
ATOM      9  N   UNL A   1      32.537  23.589  26.279  1.00  0.00    -0.352 N 
ATOM     10  C   UNL A   1      32.569  24.949  26.123  1.00  0.00     0.046 A 
ATOM     11  H   UNL A   1      31.756  23.088  26.607  1.00  0.00     0.167 HD
ATOM     12  C   UNL A   1      33.775  25.251  25.500  1.00  0.00     0.007 A 
ATOM     13  C   UNL A   1      31.613  25.919  26.458  1.00  0.00     0.030 A 
ATOM     14  C   UNL A   1      34.017  26.595  25.141  1.00  0.00     0.049 A 
ATOM     15  C   UNL A   1      31.907  27.249  26.149  1.00  0.00     0.041 A 
ATOM     16  C   UNL A   1      33.086  27.571  25.495  1.00  0.00     0.123 A 
ATOM     17  F   UNL A   1      33.348  28.854  25.209  1.00  0.00    -0.207 F 
BRANCH   8  18
ATOM     18  C   UNL A   1      33.858  21.554  26.037  1.00  0.00     0.227 C 
ATOM     19  O   UNL A   1      34.448  21.080  27.008  1.00  0.00    -0.285 OA
BRANCH  18  20
ATOM     20  C   UNL A   1      33.423  20.616  24.942  1.00  0.00     0.113 A 
ATOM     21  C   UNL A   1      33.784  17.030  23.735  1.00  0.00     0.044 C 
ATOM     22  C   UNL A   1      33.346  18.456  23.876  1.00  0.00    -0.047 A 
ATOM     23  C   UNL A   1      32.503  19.009  22.914  1.00  0.00     0.023 A 
ATOM     24  C   UNL A   1      33.761  19.266  24.941  1.00  0.00     0.036 A 
ATOM     25  C   UNL A   1      32.153  20.343  23.026  1.00  0.00     0.112 A 
ATOM     26  N   UNL A   1      32.599  21.156  24.006  1.00  0.00    -0.253 NA
ENDBRANCH  18  20
ENDBRANCH   8  18
ENDBRANCH   6   7
ENDBRANCH   3   6
ENDBRANCH   1   2
BRANCH   1  27
ATOM     27  C   UNL A   1      38.157  19.895  24.963  1.00  0.00     0.042 C 
BRANCH  27  28
ATOM     28  C   UNL A   1      39.144  19.943  26.126  1.00  0.00     0.118 C 
BRANCH  28  29
ATOM     29  N   UNL A   1      40.313  19.104  25.954  1.00  0.00    -0.352 N 
ATOM     30  C   UNL A   1      41.642  19.435  26.050  1.00  0.00     0.251 C 
ATOM     31  H   UNL A   1      40.127  18.162  25.736  1.00  0.00     0.163 HD
ATOM     32  O   UNL A   1      42.497  18.611  25.748  1.00  0.00    -0.269 OA
BRANCH  30  33
ATOM     33  C   UNL A   1      42.046  20.786  26.497  1.00  0.00     0.039 A 
ATOM     34  C   UNL A   1      42.355  21.743  25.527  1.00  0.00     0.014 A 
ATOM     35  C   UNL A   1      42.155  21.101  27.855  1.00  0.00     0.014 A 
ATOM     36  C   UNL A   1      42.725  23.032  25.917  1.00  0.00     0.010 A 
ATOM     37  C   UNL A   1      42.475  22.403  28.241  1.00  0.00     0.010 A 
ATOM     38  C   UNL A   1      42.762  23.382  27.277  1.00  0.00    -0.014 A 
BRANCH  38  39
ATOM     39  C   UNL A   1      43.077  24.773  27.695  1.00  0.00     0.031 A 
ATOM     40  C   UNL A   1      44.503  25.219  27.865  1.00  0.00     0.074 A 
ATOM     41  C   UNL A   1      42.071  25.626  27.971  1.00  0.00     0.049 A 
ATOM     42  N   UNL A   1      44.964  26.378  28.266  1.00  0.00    -0.248 NA
ATOM     43  C   UNL A   1      45.546  24.228  27.565  1.00  0.00     0.031 C 
ATOM     44  C   UNL A   1      40.645  25.308  27.879  1.00  0.00     0.029 A 
ATOM     45  N   UNL A   1      42.092  26.933  28.391  1.00  0.00    -0.354 N 
ATOM     46  C   UNL A   1      46.348  26.254  28.273  1.00  0.00     0.074 A 
ATOM     47  C   UNL A   1      46.649  24.892  27.885  1.00  0.00     0.031 C 
ATOM     48  C   UNL A   1      39.929  26.392  28.216  1.00  0.00     0.029 A 
ATOM     49  C   UNL A   1      40.842  27.470  28.584  1.00  0.00     0.049 A 
ATOM     50  H   UNL A   1      42.924  27.437  28.541  1.00  0.00     0.167 HD
ATOM     51  C   UNL A   1      47.283  27.192  28.558  1.00  0.00     0.037 A 
ATOM     52  C   UNL A   1      40.471  28.690  29.019  1.00  0.00     0.037 A 
ATOM     53  C   UNL A   1      46.981  28.551  28.935  1.00  0.00     0.049 A 
ATOM     54  C   UNL A   1      41.528  29.705  29.354  1.00  0.00     0.074 A 
ATOM     55  C   UNL A   1      47.860  29.589  29.192  1.00  0.00     0.029 A 
ATOM     56  N   UNL A   1      45.703  29.057  29.116  1.00  0.00    -0.354 N 
ATOM     57  N   UNL A   1      42.833  29.594  29.290  1.00  0.00    -0.248 NA
ATOM     58  C   UNL A   1      41.060  31.020  29.816  1.00  0.00     0.031 C 
ATOM     59  C   UNL A   1      47.117  30.707  29.582  1.00  0.00     0.029 A 
ATOM     60  C   UNL A   1      45.772  30.384  29.510  1.00  0.00     0.049 A 
ATOM     61  H   UNL A   1      44.870  28.549  28.985  1.00  0.00     0.167 HD
ATOM     62  C   UNL A   1      43.339  30.830  29.673  1.00  0.00     0.074 A 
ATOM     63  C   UNL A   1      42.201  31.680  29.953  1.00  0.00     0.031 C 
ATOM     64  C   UNL A   1      44.632  31.224  29.781  1.00  0.00     0.037 A 
BRANCH  51  65
ATOM     65  C   UNL A   1      48.727  26.783  28.479  1.00  0.00     0.057 A 
ATOM     66  C   UNL A   1      49.474  26.930  27.303  1.00  0.00     0.134 A 
ATOM     67  C   UNL A   1      49.389  26.275  29.603  1.00  0.00     0.134 A 
ATOM     68  F   UNL A   1      48.900  27.403  26.187  1.00  0.00    -0.206 F 
ATOM     69  C   UNL A   1      50.820  26.563  27.241  1.00  0.00     0.040 A 
ATOM     70  C   UNL A   1      50.742  25.932  29.562  1.00  0.00     0.040 A 
ATOM     71  F   UNL A   1      48.738  26.117  30.765  1.00  0.00    -0.206 F 
ATOM     72  C   UNL A   1      51.459  26.068  28.376  1.00  0.00     0.006 A 
ENDBRANCH  51  65
BRANCH  52  73
ATOM     73  C   UNL A   1      39.030  29.026  29.149  1.00  0.00     0.057 A 
ATOM     74  C   UNL A   1      38.300  29.518  28.061  1.00  0.00     0.134 A 
ATOM     75  C   UNL A   1      38.352  28.875  30.365  1.00  0.00     0.134 A 
ATOM     76  F   UNL A   1      38.898  29.703  26.875  1.00  0.00    -0.206 F 
ATOM     77  C   UNL A   1      36.955  29.872  28.182  1.00  0.00     0.040 A 
ATOM     78  C   UNL A   1      37.000  29.198  30.493  1.00  0.00     0.040 A 
ATOM     79  F   UNL A   1      38.991  28.399  31.443  1.00  0.00    -0.206 F 
ATOM     80  C   UNL A   1      36.300  29.707  29.401  1.00  0.00     0.006 A 
ENDBRANCH  52  73
BRANCH  64  81
ATOM     81  C   UNL A   1      44.887  32.648  30.183  1.00  0.00     0.057 A 
ATOM     82  C   UNL A   1      45.082  33.021  31.520  1.00  0.00     0.134 A 
ATOM     83  C   UNL A   1      44.973  33.657  29.214  1.00  0.00     0.134 A 
ATOM     84  F   UNL A   1      44.999  32.107  32.499  1.00  0.00    -0.206 F 
ATOM     85  C   UNL A   1      45.329  34.347  31.879  1.00  0.00     0.040 A 
ATOM     86  C   UNL A   1      45.249  34.981  29.558  1.00  0.00     0.040 A 
ATOM     87  F   UNL A   1      44.805  33.370  27.915  1.00  0.00    -0.206 F 
ATOM     88  C   UNL A   1      45.421  35.331  30.896  1.00  0.00     0.006 A 
ENDBRANCH  64  81
ENDBRANCH  38  39
ENDBRANCH  30  33
ENDBRANCH  28  29
ENDBRANCH  27  28
ENDBRANCH   1  27
TORSDOF 13
ENDMDL
MODEL 3
REMARK VINA RESULT:     -12.4      1.970      6.565
REMARK SMILES Cc1ccnc(C(=O)c2[nH]c3ccc(F)cc3c2CC(=O)NCCCNC(=O)c2ccc(-c3c4nc(c(-c5c(F)cccc5F)c5ccc([nH]5)c(-c5c(F)cccc5F)c5nc(c(-c6c(F)cccc6F)c6ccc3[nH]6)C=C5)C=C4)cc2)c1
REMARK SMILES IDX 23 1 22 2 20 3 21 4 19 6 18 7 9 8 10 9 11 10 17 12 12 13
REMARK SMILES IDX 16 14 13 15 14 16 15 17 7 18 8 19 6 20 1 21 2 22 3 23 83 24
REMARK SMILES IDX 4 25 5 26 24 27 25 28 26 29 27 30 28 32 29 33 30 34 82 35
REMARK SMILES IDX 31 36 81 37 32 38 33 39 34 40 75 41 35 42 80 43 74 44 76 45
REMARK SMILES IDX 36 46 79 47 73 48 72 49 37 51 63 52 46 53 62 54 47 55 50 56
REMARK SMILES IDX 61 57 77 58 48 59 49 60 60 62 78 63 51 64 38 65 39 66 44 67
REMARK SMILES IDX 40 68 41 69 43 70 45 71 42 72 64 73 65 74 70 75 66 76 67 77
REMARK SMILES IDX 69 78 71 79 68 80 52 81 53 82 58 83 54 84 55 85 57 86 59 87
REMARK SMILES IDX 56 88
REMARK H PARENT 22 5 10 11 26 31 76 50 50 61
REMARK Flexibility Score: inf
ROOT
ATOM      1  C   UNL A   1      32.495  26.995  26.399  1.00  0.00     0.117 C 
ENDROOT
BRANCH   1   2
ATOM      2  N   UNL A   1      31.640  25.866  26.704  1.00  0.00    -0.356 N 
ATOM      3  C   UNL A   1      31.866  24.524  26.598  1.00  0.00     0.224 C 
ATOM      4  O   UNL A   1      31.044  23.777  27.136  1.00  0.00    -0.275 OA
ATOM      5  H   UNL A   1      30.748  26.106  27.044  1.00  0.00     0.163 HD
BRANCH   3   6
ATOM      6  C   UNL A   1      33.088  23.946  25.910  1.00  0.00     0.138 C 
BRANCH   6   7
ATOM      7  C   UNL A   1      32.845  23.195  24.630  1.00  0.00    -0.002 A 
ATOM      8  C   UNL A   1      32.638  23.683  23.336  1.00  0.00     0.093 A 
ATOM      9  N   UNL A   1      32.307  22.594  22.552  1.00  0.00    -0.352 N 
ATOM     10  C   UNL A   1      32.409  21.418  23.247  1.00  0.00     0.046 A 
ATOM     11  H   UNL A   1      32.030  22.656  21.609  1.00  0.00     0.167 HD
ATOM     12  C   UNL A   1      32.672  21.760  24.570  1.00  0.00     0.007 A 
ATOM     13  C   UNL A   1      32.260  20.095  22.810  1.00  0.00     0.030 A 
ATOM     14  C   UNL A   1      32.735  20.719  25.522  1.00  0.00     0.049 A 
ATOM     15  C   UNL A   1      32.391  19.082  23.763  1.00  0.00     0.041 A 
ATOM     16  C   UNL A   1      32.616  19.398  25.094  1.00  0.00     0.123 A 
ATOM     17  F   UNL A   1      32.740  18.410  25.991  1.00  0.00    -0.207 F 
BRANCH   8  18
ATOM     18  C   UNL A   1      32.582  25.010  22.728  1.00  0.00     0.227 C 
ATOM     19  O   UNL A   1      33.562  25.425  22.107  1.00  0.00    -0.285 OA
BRANCH  18  20
ATOM     20  C   UNL A   1      31.432  25.954  22.957  1.00  0.00     0.113 A 
ATOM     21  C   UNL A   1      30.240  29.481  22.193  1.00  0.00     0.044 C 
ATOM     22  C   UNL A   1      30.296  28.059  22.661  1.00  0.00    -0.047 A 
ATOM     23  C   UNL A   1      29.239  27.544  23.407  1.00  0.00     0.023 A 
ATOM     24  C   UNL A   1      31.384  27.221  22.382  1.00  0.00     0.036 A 
ATOM     25  C   UNL A   1      29.331  26.247  23.882  1.00  0.00     0.112 A 
ATOM     26  N   UNL A   1      30.401  25.450  23.683  1.00  0.00    -0.253 NA
ENDBRANCH  18  20
ENDBRANCH   8  18
ENDBRANCH   6   7
ENDBRANCH   3   6
ENDBRANCH   1   2
BRANCH   1  27
ATOM     27  C   UNL A   1      31.769  28.284  26.006  1.00  0.00     0.042 C 
BRANCH  27  28
ATOM     28  C   UNL A   1      32.621  29.459  25.533  1.00  0.00     0.118 C 
BRANCH  28  29
ATOM     29  N   UNL A   1      32.136  30.757  25.955  1.00  0.00    -0.352 N 
ATOM     30  C   UNL A   1      32.652  31.612  26.897  1.00  0.00     0.251 C 
ATOM     31  H   UNL A   1      31.320  31.070  25.502  1.00  0.00     0.163 HD
ATOM     32  O   UNL A   1      32.030  32.621  27.208  1.00  0.00    -0.269 OA
BRANCH  30  33
ATOM     33  C   UNL A   1      33.944  31.313  27.552  1.00  0.00     0.039 A 
ATOM     34  C   UNL A   1      34.848  32.360  27.750  1.00  0.00     0.014 A 
ATOM     35  C   UNL A   1      34.281  30.012  27.937  1.00  0.00     0.014 A 
ATOM     36  C   UNL A   1      36.070  32.113  28.379  1.00  0.00     0.010 A 
ATOM     37  C   UNL A   1      35.480  29.776  28.611  1.00  0.00     0.010 A 
ATOM     38  C   UNL A   1      36.386  30.824  28.840  1.00  0.00    -0.014 A 
BRANCH  38  39
ATOM     39  C   UNL A   1      37.649  30.569  29.581  1.00  0.00     0.031 A 
ATOM     40  C   UNL A   1      38.752  29.757  28.962  1.00  0.00     0.074 A 
ATOM     41  C   UNL A   1      37.784  31.033  30.839  1.00  0.00     0.049 A 
ATOM     42  N   UNL A   1      39.902  29.397  29.476  1.00  0.00    -0.248 NA
ATOM     43  C   UNL A   1      38.526  29.267  27.595  1.00  0.00     0.031 C 
ATOM     44  C   UNL A   1      36.775  31.806  31.567  1.00  0.00     0.029 A 
ATOM     45  N   UNL A   1      38.820  30.918  31.732  1.00  0.00    -0.354 N 
ATOM     46  C   UNL A   1      40.532  28.634  28.501  1.00  0.00     0.074 A 
ATOM     47  C   UNL A   1      39.616  28.542  27.384  1.00  0.00     0.031 C 
ATOM     48  C   UNL A   1      37.248  32.109  32.786  1.00  0.00     0.029 A 
ATOM     49  C   UNL A   1      38.575  31.521  32.942  1.00  0.00     0.049 A 
ATOM     50  H   UNL A   1      39.659  30.447  31.525  1.00  0.00     0.167 HD
ATOM     51  C   UNL A   1      41.768  28.079  28.524  1.00  0.00     0.037 A 
ATOM     52  C   UNL A   1      39.328  31.586  34.057  1.00  0.00     0.037 A 
ATOM     53  C   UNL A   1      42.682  28.180  29.634  1.00  0.00     0.049 A 
ATOM     54  C   UNL A   1      40.685  30.938  34.067  1.00  0.00     0.074 A 
ATOM     55  C   UNL A   1      43.975  27.694  29.731  1.00  0.00     0.029 A 
ATOM     56  N   UNL A   1      42.398  28.801  30.840  1.00  0.00    -0.354 N 
ATOM     57  N   UNL A   1      41.295  30.278  33.112  1.00  0.00    -0.248 NA
ATOM     58  C   UNL A   1      41.463  31.048  35.310  1.00  0.00     0.031 C 
ATOM     59  C   UNL A   1      44.454  27.975  31.016  1.00  0.00     0.029 A 
ATOM     60  C   UNL A   1      43.481  28.686  31.698  1.00  0.00     0.049 A 
ATOM     61  H   UNL A   1      41.552  29.256  31.057  1.00  0.00     0.167 HD
ATOM     62  C   UNL A   1      42.536  29.924  33.626  1.00  0.00     0.074 A 
ATOM     63  C   UNL A   1      42.597  30.453  34.972  1.00  0.00     0.031 C 
ATOM     64  C   UNL A   1      43.535  29.222  33.035  1.00  0.00     0.037 A 
BRANCH  51  65
ATOM     65  C   UNL A   1      42.205  27.303  27.314  1.00  0.00     0.057 A 
ATOM     66  C   UNL A   1      42.816  27.925  26.217  1.00  0.00     0.134 A 
ATOM     67  C   UNL A   1      42.052  25.911  27.262  1.00  0.00     0.134 A 
ATOM     68  F   UNL A   1      42.986  29.255  26.198  1.00  0.00    -0.206 F 
ATOM     69  C   UNL A   1      43.235  27.196  25.102  1.00  0.00     0.040 A 
ATOM     70  C   UNL A   1      42.494  25.168  26.166  1.00  0.00     0.040 A 
ATOM     71  F   UNL A   1      41.484  25.248  28.280  1.00  0.00    -0.206 F 
ATOM     72  C   UNL A   1      43.080  25.811  25.078  1.00  0.00     0.006 A 
ENDBRANCH  51  65
BRANCH  52  73
ATOM     73  C   UNL A   1      38.824  32.303  35.255  1.00  0.00     0.057 A 
ATOM     74  C   UNL A   1      38.199  31.615  36.301  1.00  0.00     0.134 A 
ATOM     75  C   UNL A   1      38.942  33.694  35.378  1.00  0.00     0.134 A 
ATOM     76  F   UNL A   1      38.039  30.286  36.234  1.00  0.00    -0.206 F 
ATOM     77  C   UNL A   1      37.688  32.283  37.415  1.00  0.00     0.040 A 
ATOM     78  C   UNL A   1      38.461  34.371  36.500  1.00  0.00     0.040 A 
ATOM     79  F   UNL A   1      39.539  34.411  34.415  1.00  0.00    -0.206 F 
ATOM     80  C   UNL A   1      37.824  33.667  37.518  1.00  0.00     0.006 A 
ENDBRANCH  52  73
BRANCH  64  81
ATOM     81  C   UNL A   1      44.796  29.020  33.825  1.00  0.00     0.057 A 
ATOM     82  C   UNL A   1      44.999  27.890  34.627  1.00  0.00     0.134 A 
ATOM     83  C   UNL A   1      45.839  29.954  33.752  1.00  0.00     0.134 A 
ATOM     84  F   UNL A   1      44.035  26.964  34.753  1.00  0.00    -0.206 F 
ATOM     85  C   UNL A   1      46.180  27.709  35.348  1.00  0.00     0.040 A 
ATOM     86  C   UNL A   1      47.036  29.769  34.444  1.00  0.00     0.040 A 
ATOM     87  F   UNL A   1      45.716  31.055  32.996  1.00  0.00    -0.206 F 
ATOM     88  C   UNL A   1      47.207  28.647  35.251  1.00  0.00     0.006 A 
ENDBRANCH  64  81
ENDBRANCH  38  39
ENDBRANCH  30  33
ENDBRANCH  28  29
ENDBRANCH  27  28
ENDBRANCH   1  27
TORSDOF 13
ENDMDL
