MODEL 1
REMARK VINA RESULT:     -11.6      0.000      0.000
REMARK SMILES CCc1nc(=O)n([C@H]2CCCOC2)c(CC)c1CC(=O)NCCCNC(=O)c1ccc(-c2c3nc(c(-c4c(F)cccc4F)c4ccc([nH]4)c(-c4c(F)cccc4F)c4nc(c(-c5c(F)cccc5F)c5ccc2[nH]5)C=C4)C=C3)cc1
REMARK SMILES IDX 23 1 22 2 21 3 19 4 20 5 18 7 17 8 3 9 4 10 5 11 14 12 6 13
REMARK SMILES IDX 7 14 2 15 1 16 15 17 16 18 8 19 9 20 13 21 10 22 12 23 11 24
REMARK SMILES IDX 24 25 25 26 26 27 27 29 28 30 29 31 81 32 30 33 80 34 31 35
REMARK SMILES IDX 32 36 33 37 74 38 34 39 79 40 73 41 75 42 35 43 78 44 72 45
REMARK SMILES IDX 71 46 36 48 62 49 45 50 61 51 46 52 49 53 60 54 76 55 47 56
REMARK SMILES IDX 48 57 59 59 77 60 50 61 37 62 38 63 43 64 39 65 40 66 42 67
REMARK SMILES IDX 44 68 41 69 63 70 64 71 69 72 65 73 66 74 68 75 70 76 67 77
REMARK SMILES IDX 51 78 52 79 57 80 53 81 54 82 56 83 58 84 55 85
REMARK H PARENT 21 6 25 28 75 47 49 58
REMARK Flexibility Score: inf
ROOT
ATOM      1  C   UNL A   1      31.970  30.080  25.426  1.00  0.00     0.042 C 
ENDROOT
BRANCH   1   2
ATOM      2  C   UNL A   1      33.368  29.703  24.956  1.00  0.00     0.117 C 
BRANCH   2   3
ATOM      3  N   UNL A   1      33.363  28.706  23.904  1.00  0.00    -0.356 N 
ATOM      4  C   UNL A   1      33.411  27.347  23.993  1.00  0.00     0.224 C 
ATOM      5  O   UNL A   1      33.205  26.703  22.962  1.00  0.00    -0.275 OA
ATOM      6  H   UNL A   1      33.317  29.064  22.989  1.00  0.00     0.163 HD
BRANCH   4   7
ATOM      7  C   UNL A   1      33.644  26.636  25.327  1.00  0.00     0.139 C 
BRANCH   7   8
ATOM      8  C   UNL A   1      32.860  25.351  25.511  1.00  0.00     0.003 A 
ATOM      9  C   UNL A   1      31.373  25.416  25.639  1.00  0.00     0.051 A 
ATOM     10  N   UNL A   1      30.630  24.384  25.813  1.00  0.00    -0.198 NA
ATOM     11  C   UNL A   1      31.176  23.168  26.046  1.00  0.00     0.348 A 
ATOM     12  C   UNL A   1      33.386  24.092  25.513  1.00  0.00     0.028 A 
ATOM     13  O   UNL A   1      30.437  22.280  26.470  1.00  0.00    -0.246 OA
ATOM     14  N   UNL A   1      32.570  22.976  25.857  1.00  0.00    -0.291 N 
BRANCH   9  15
ATOM     15  C   UNL A   1      30.580  26.724  25.510  1.00  0.00     0.053 C 
ATOM     16  C   UNL A   1      29.715  26.714  24.250  1.00  0.00     0.011 C 
ENDBRANCH   9  15
BRANCH  12  17
ATOM     17  C   UNL A   1      34.814  23.909  25.001  1.00  0.00     0.051 C 
ATOM     18  C   UNL A   1      35.024  23.702  23.502  1.00  0.00     0.010 C 
ENDBRANCH  12  17
BRANCH  14  19
ATOM     19  C   UNL A   1      33.017  21.631  26.362  1.00  0.00     0.118 C 
ATOM     20  C   UNL A   1      32.869  20.459  25.355  1.00  0.00     0.030 C 
ATOM     21  C   UNL A   1      34.378  21.413  27.038  1.00  0.00     0.185 C 
ATOM     22  C   UNL A   1      34.039  20.394  24.391  1.00  0.00     0.031 C 
ATOM     23  O   UNL A   1      35.466  21.374  26.116  1.00  0.00    -0.379 OA
ATOM     24  C   UNL A   1      35.355  20.331  25.151  1.00  0.00     0.160 C 
ENDBRANCH  14  19
ENDBRANCH   7   8
ENDBRANCH   4   7
ENDBRANCH   2   3
ENDBRANCH   1   2
BRANCH   1  25
ATOM     25  C   UNL A   1      31.909  30.540  26.876  1.00  0.00     0.118 C 
BRANCH  25  26
ATOM     26  N   UNL A   1      31.901  31.992  27.019  1.00  0.00    -0.352 N 
ATOM     27  C   UNL A   1      32.856  32.837  27.537  1.00  0.00     0.251 C 
ATOM     28  H   UNL A   1      31.086  32.437  26.694  1.00  0.00     0.163 HD
ATOM     29  O   UNL A   1      32.595  34.024  27.702  1.00  0.00    -0.269 OA
BRANCH  27  30
ATOM     30  C   UNL A   1      34.181  32.310  27.930  1.00  0.00     0.039 A 
ATOM     31  C   UNL A   1      34.341  30.964  28.257  1.00  0.00     0.014 A 
ATOM     32  C   UNL A   1      35.273  33.180  28.000  1.00  0.00     0.014 A 
ATOM     33  C   UNL A   1      35.518  30.540  28.859  1.00  0.00     0.010 A 
ATOM     34  C   UNL A   1      36.495  32.722  28.504  1.00  0.00     0.010 A 
ATOM     35  C   UNL A   1      36.608  31.415  29.003  1.00  0.00    -0.014 A 
BRANCH  35  36
ATOM     36  C   UNL A   1      37.825  30.938  29.716  1.00  0.00     0.031 A 
ATOM     37  C   UNL A   1      38.068  31.302  31.158  1.00  0.00     0.074 A 
ATOM     38  C   UNL A   1      38.666  30.093  29.087  1.00  0.00     0.049 A 
ATOM     39  N   UNL A   1      39.030  30.911  31.958  1.00  0.00    -0.248 NA
ATOM     40  C   UNL A   1      37.113  32.228  31.786  1.00  0.00     0.031 C 
ATOM     41  C   UNL A   1      38.540  29.655  27.695  1.00  0.00     0.029 A 
ATOM     42  N   UNL A   1      39.769  29.419  29.547  1.00  0.00    -0.354 N 
ATOM     43  C   UNL A   1      38.803  31.549  33.171  1.00  0.00     0.074 A 
ATOM     44  C   UNL A   1      37.639  32.389  32.992  1.00  0.00     0.031 C 
ATOM     45  C   UNL A   1      39.483  28.738  27.435  1.00  0.00     0.029 A 
ATOM     46  C   UNL A   1      40.321  28.572  28.617  1.00  0.00     0.049 A 
ATOM     47  H   UNL A   1      40.130  29.532  30.457  1.00  0.00     0.167 HD
ATOM     48  C   UNL A   1      39.486  31.434  34.337  1.00  0.00     0.037 A 
ATOM     49  C   UNL A   1      41.389  27.759  28.702  1.00  0.00     0.037 A 
ATOM     50  C   UNL A   1      40.638  30.591  34.524  1.00  0.00     0.049 A 
ATOM     51  C   UNL A   1      42.163  27.699  29.988  1.00  0.00     0.074 A 
ATOM     52  C   UNL A   1      41.388  30.393  35.671  1.00  0.00     0.029 A 
ATOM     53  N   UNL A   1      41.210  29.805  33.535  1.00  0.00    -0.354 N 
ATOM     54  N   UNL A   1      41.918  28.290  31.132  1.00  0.00    -0.248 NA
ATOM     55  C   UNL A   1      43.370  26.861  29.989  1.00  0.00     0.031 C 
ATOM     56  C   UNL A   1      42.443  29.526  35.363  1.00  0.00     0.029 A 
ATOM     57  C   UNL A   1      42.320  29.143  34.038  1.00  0.00     0.049 A 
ATOM     58  H   UNL A   1      40.878  29.730  32.611  1.00  0.00     0.167 HD
ATOM     59  C   UNL A   1      42.930  27.884  31.992  1.00  0.00     0.074 A 
ATOM     60  C   UNL A   1      43.771  26.971  31.246  1.00  0.00     0.031 C 
ATOM     61  C   UNL A   1      43.151  28.241  33.281  1.00  0.00     0.037 A 
BRANCH  48  62
ATOM     62  C   UNL A   1      39.008  32.258  35.501  1.00  0.00     0.057 A 
ATOM     63  C   UNL A   1      39.388  33.599  35.633  1.00  0.00     0.134 A 
ATOM     64  C   UNL A   1      38.187  31.720  36.501  1.00  0.00     0.134 A 
ATOM     65  F   UNL A   1      40.181  34.176  34.718  1.00  0.00    -0.206 F 
ATOM     66  C   UNL A   1      38.966  34.376  36.713  1.00  0.00     0.040 A 
ATOM     67  C   UNL A   1      37.734  32.495  37.571  1.00  0.00     0.040 A 
ATOM     68  F   UNL A   1      37.778  30.444  36.431  1.00  0.00    -0.206 F 
ATOM     69  C   UNL A   1      38.128  33.827  37.681  1.00  0.00     0.006 A 
ENDBRANCH  48  62
BRANCH  49  70
ATOM     70  C   UNL A   1      41.807  26.945  27.532  1.00  0.00     0.057 A 
ATOM     71  C   UNL A   1      41.368  25.625  27.368  1.00  0.00     0.134 A 
ATOM     72  C   UNL A   1      42.622  27.483  26.528  1.00  0.00     0.134 A 
ATOM     73  F   UNL A   1      40.589  25.051  28.296  1.00  0.00    -0.206 F 
ATOM     74  C   UNL A   1      41.726  24.868  26.253  1.00  0.00     0.040 A 
ATOM     75  C   UNL A   1      42.961  26.748  25.391  1.00  0.00     0.040 A 
ATOM     76  F   UNL A   1      43.058  28.748  26.618  1.00  0.00    -0.206 F 
ATOM     77  C   UNL A   1      42.515  25.434  25.254  1.00  0.00     0.006 A 
ENDBRANCH  49  70
BRANCH  61  78
ATOM     78  C   UNL A   1      44.337  27.621  33.960  1.00  0.00     0.057 A 
ATOM     79  C   UNL A   1      44.225  26.383  34.606  1.00  0.00     0.134 A 
ATOM     80  C   UNL A   1      45.593  28.243  33.970  1.00  0.00     0.134 A 
ATOM     81  F   UNL A   1      43.052  25.737  34.641  1.00  0.00    -0.206 F 
ATOM     82  C   UNL A   1      45.321  25.784  35.230  1.00  0.00     0.040 A 
ATOM     83  C   UNL A   1      46.703  27.640  34.563  1.00  0.00     0.040 A 
ATOM     84  F   UNL A   1      45.772  29.423  33.355  1.00  0.00    -0.206 F 
ATOM     85  C   UNL A   1      46.566  26.407  35.198  1.00  0.00     0.006 A 
ENDBRANCH  61  78
ENDBRANCH  35  36
ENDBRANCH  27  30
ENDBRANCH  25  26
ENDBRANCH   1  25
TORSDOF 14
ENDMDL
MODEL 2
REMARK VINA RESULT:     -11.6      1.848      2.576
REMARK SMILES CCc1nc(=O)n([C@H]2CCCOC2)c(CC)c1CC(=O)NCCCNC(=O)c1ccc(-c2c3nc(c(-c4c(F)cccc4F)c4ccc([nH]4)c(-c4c(F)cccc4F)c4nc(c(-c5c(F)cccc5F)c5ccc2[nH]5)C=C4)C=C3)cc1
REMARK SMILES IDX 23 1 22 2 21 3 19 4 20 5 18 7 17 8 3 9 4 10 5 11 14 12 6 13
REMARK SMILES IDX 7 14 2 15 1 16 15 17 16 18 8 19 9 20 13 21 10 22 12 23 11 24
REMARK SMILES IDX 24 25 25 26 26 27 27 29 28 30 29 31 81 32 30 33 80 34 31 35
REMARK SMILES IDX 32 36 33 37 74 38 34 39 79 40 73 41 75 42 35 43 78 44 72 45
REMARK SMILES IDX 71 46 36 48 62 49 45 50 61 51 46 52 49 53 60 54 76 55 47 56
REMARK SMILES IDX 48 57 59 59 77 60 50 61 37 62 38 63 43 64 39 65 40 66 42 67
REMARK SMILES IDX 44 68 41 69 63 70 64 71 69 72 65 73 66 74 68 75 70 76 67 77
REMARK SMILES IDX 51 78 52 79 57 80 53 81 54 82 56 83 58 84 55 85
REMARK H PARENT 21 6 25 28 75 47 49 58
REMARK Flexibility Score: inf
ROOT
ATOM      1  C   UNL A   1      31.648  31.915  26.731  1.00  0.00     0.042 C 
ENDROOT
BRANCH   1   2
ATOM      2  C   UNL A   1      32.061  30.551  26.195  1.00  0.00     0.117 C 
BRANCH   2   3
ATOM      3  N   UNL A   1      31.594  29.454  27.018  1.00  0.00    -0.356 N 
ATOM      4  C   UNL A   1      31.957  28.141  27.004  1.00  0.00     0.224 C 
ATOM      5  O   UNL A   1      31.555  27.431  27.929  1.00  0.00    -0.275 OA
ATOM      6  H   UNL A   1      30.914  29.694  27.687  1.00  0.00     0.163 HD
BRANCH   4   7
ATOM      7  C   UNL A   1      32.881  27.572  25.926  1.00  0.00     0.139 C 
BRANCH   7   8
ATOM      8  C   UNL A   1      32.286  26.447  25.102  1.00  0.00     0.003 A 
ATOM      9  C   UNL A   1      31.330  26.777  24.003  1.00  0.00     0.051 A 
ATOM     10  N   UNL A   1      30.765  25.891  23.265  1.00  0.00    -0.198 NA
ATOM     11  C   UNL A   1      30.891  24.573  23.543  1.00  0.00     0.348 A 
ATOM     12  C   UNL A   1      32.591  25.123  25.226  1.00  0.00     0.028 A 
ATOM     13  O   UNL A   1      30.124  23.793  22.981  1.00  0.00    -0.246 OA
ATOM     14  N   UNL A   1      31.846  24.147  24.504  1.00  0.00    -0.291 N 
BRANCH   9  15
ATOM     15  C   UNL A   1      30.976  28.217  23.606  1.00  0.00     0.053 C 
ATOM     16  C   UNL A   1      29.571  28.288  23.009  1.00  0.00     0.011 C 
ENDBRANCH   9  15
BRANCH  12  17
ATOM     17  C   UNL A   1      33.829  24.743  26.037  1.00  0.00     0.051 C 
ATOM     18  C   UNL A   1      35.177  24.695  25.319  1.00  0.00     0.010 C 
ENDBRANCH  12  17
BRANCH  14  19
ATOM     19  C   UNL A   1      31.693  22.685  24.825  1.00  0.00     0.118 C 
ATOM     20  C   UNL A   1      32.479  21.715  23.903  1.00  0.00     0.030 C 
ATOM     21  C   UNL A   1      31.872  22.127  26.244  1.00  0.00     0.185 C 
ATOM     22  C   UNL A   1      33.926  21.575  24.337  1.00  0.00     0.031 C 
ATOM     23  O   UNL A   1      33.240  22.021  26.639  1.00  0.00    -0.379 OA
ATOM     24  C   UNL A   1      34.008  21.164  25.799  1.00  0.00     0.160 C 
ENDBRANCH  14  19
ENDBRANCH   7   8
ENDBRANCH   4   7
ENDBRANCH   2   3
ENDBRANCH   1   2
BRANCH   1  25
ATOM     25  C   UNL A   1      32.791  32.709  27.350  1.00  0.00     0.118 C 
BRANCH  25  26
ATOM     26  N   UNL A   1      32.431  34.086  27.665  1.00  0.00    -0.352 N 
ATOM     27  C   UNL A   1      32.976  34.958  28.580  1.00  0.00     0.251 C 
ATOM     28  H   UNL A   1      31.680  34.449  27.142  1.00  0.00     0.163 HD
ATOM     29  O   UNL A   1      32.430  36.035  28.796  1.00  0.00    -0.269 OA
BRANCH  27  30
ATOM     30  C   UNL A   1      34.195  34.583  29.329  1.00  0.00     0.039 A 
ATOM     31  C   UNL A   1      35.456  34.737  28.756  1.00  0.00     0.014 A 
ATOM     32  C   UNL A   1      34.073  34.040  30.612  1.00  0.00     0.014 A 
ATOM     33  C   UNL A   1      36.561  34.155  29.362  1.00  0.00     0.010 A 
ATOM     34  C   UNL A   1      35.207  33.553  31.271  1.00  0.00     0.010 A 
ATOM     35  C   UNL A   1      36.451  33.543  30.622  1.00  0.00    -0.014 A 
BRANCH  35  36
ATOM     36  C   UNL A   1      37.645  32.871  31.203  1.00  0.00     0.031 A 
ATOM     37  C   UNL A   1      38.193  33.291  32.543  1.00  0.00     0.074 A 
ATOM     38  C   UNL A   1      38.181  31.812  30.563  1.00  0.00     0.049 A 
ATOM     39  N   UNL A   1      39.173  32.765  33.237  1.00  0.00    -0.248 NA
ATOM     40  C   UNL A   1      37.564  34.453  33.190  1.00  0.00     0.031 C 
ATOM     41  C   UNL A   1      37.740  31.300  29.263  1.00  0.00     0.029 A 
ATOM     42  N   UNL A   1      39.184  30.954  30.935  1.00  0.00    -0.354 N 
ATOM     43  C   UNL A   1      39.284  33.536  34.388  1.00  0.00     0.074 A 
ATOM     44  C   UNL A   1      38.302  34.593  34.281  1.00  0.00     0.031 C 
ATOM     45  C   UNL A   1      38.421  30.180  28.979  1.00  0.00     0.029 A 
ATOM     46  C   UNL A   1      39.391  29.932  30.040  1.00  0.00     0.049 A 
ATOM     47  H   UNL A   1      39.705  31.059  31.764  1.00  0.00     0.167 HD
ATOM     48  C   UNL A   1      40.112  33.370  35.449  1.00  0.00     0.037 A 
ATOM     49  C   UNL A   1      40.269  28.914  30.064  1.00  0.00     0.037 A 
ATOM     50  C   UNL A   1      41.083  32.313  35.565  1.00  0.00     0.049 A 
ATOM     51  C   UNL A   1      41.216  28.792  31.223  1.00  0.00     0.074 A 
ATOM     52  C   UNL A   1      41.956  32.051  36.608  1.00  0.00     0.029 A 
ATOM     53  N   UNL A   1      41.312  31.342  34.602  1.00  0.00    -0.354 N 
ATOM     54  N   UNL A   1      41.289  29.515  32.315  1.00  0.00    -0.248 NA
ATOM     55  C   UNL A   1      42.211  27.713  31.148  1.00  0.00     0.031 C 
ATOM     56  C   UNL A   1      42.746  30.951  36.254  1.00  0.00     0.029 A 
ATOM     57  C   UNL A   1      42.330  30.496  35.014  1.00  0.00     0.049 A 
ATOM     58  H   UNL A   1      40.824  31.265  33.751  1.00  0.00     0.167 HD
ATOM     59  C   UNL A   1      42.325  28.969  33.061  1.00  0.00     0.074 A 
ATOM     60  C   UNL A   1      42.827  27.835  32.313  1.00  0.00     0.031 C 
ATOM     61  C   UNL A   1      42.823  29.375  34.255  1.00  0.00     0.037 A 
BRANCH  48  62
ATOM     62  C   UNL A   1      40.012  34.372  36.566  1.00  0.00     0.057 A 
ATOM     63  C   UNL A   1      40.760  35.556  36.536  1.00  0.00     0.134 A 
ATOM     64  C   UNL A   1      39.188  34.160  37.680  1.00  0.00     0.134 A 
ATOM     65  F   UNL A   1      41.577  35.820  35.506  1.00  0.00    -0.206 F 
ATOM     66  C   UNL A   1      40.690  36.492  37.570  1.00  0.00     0.040 A 
ATOM     67  C   UNL A   1      39.086  35.101  38.705  1.00  0.00     0.040 A 
ATOM     68  F   UNL A   1      38.437  33.051  37.767  1.00  0.00    -0.206 F 
ATOM     69  C   UNL A   1      39.844  36.270  38.654  1.00  0.00     0.006 A 
ENDBRANCH  48  62
BRANCH  49  70
ATOM     70  C   UNL A   1      40.314  27.934  28.948  1.00  0.00     0.057 A 
ATOM     71  C   UNL A   1      39.561  26.754  28.985  1.00  0.00     0.134 A 
ATOM     72  C   UNL A   1      41.078  28.176  27.800  1.00  0.00     0.134 A 
ATOM     73  F   UNL A   1      38.812  26.461  30.058  1.00  0.00    -0.206 F 
ATOM     74  C   UNL A   1      39.568  25.848  27.924  1.00  0.00     0.040 A 
ATOM     75  C   UNL A   1      41.070  27.295  26.718  1.00  0.00     0.040 A 
ATOM     76  F   UNL A   1      41.804  29.299  27.697  1.00  0.00    -0.206 F 
ATOM     77  C   UNL A   1      40.316  26.124  26.781  1.00  0.00     0.006 A 
ENDBRANCH  49  70
BRANCH  61  78
ATOM     78  C   UNL A   1      43.954  28.568  34.825  1.00  0.00     0.057 A 
ATOM     79  C   UNL A   1      45.285  28.911  34.557  1.00  0.00     0.134 A 
ATOM     80  C   UNL A   1      43.727  27.454  35.645  1.00  0.00     0.134 A 
ATOM     81  F   UNL A   1      45.573  29.960  33.774  1.00  0.00    -0.206 F 
ATOM     82  C   UNL A   1      46.349  28.182  35.090  1.00  0.00     0.040 A 
ATOM     83  C   UNL A   1      44.782  26.735  36.209  1.00  0.00     0.040 A 
ATOM     84  F   UNL A   1      42.475  27.081  35.955  1.00  0.00    -0.206 F 
ATOM     85  C   UNL A   1      46.098  27.097  35.928  1.00  0.00     0.006 A 
ENDBRANCH  61  78
ENDBRANCH  35  36
ENDBRANCH  27  30
ENDBRANCH  25  26
ENDBRANCH   1  25
TORSDOF 14
ENDMDL
MODEL 3
REMARK VINA RESULT:     -11.5      1.807      2.510
REMARK SMILES CCc1nc(=O)n([C@H]2CCCOC2)c(CC)c1CC(=O)NCCCNC(=O)c1ccc(-c2c3nc(c(-c4c(F)cccc4F)c4ccc([nH]4)c(-c4c(F)cccc4F)c4nc(c(-c5c(F)cccc5F)c5ccc2[nH]5)C=C4)C=C3)cc1
REMARK SMILES IDX 23 1 22 2 21 3 19 4 20 5 18 7 17 8 3 9 4 10 5 11 14 12 6 13
REMARK SMILES IDX 7 14 2 15 1 16 15 17 16 18 8 19 9 20 13 21 10 22 12 23 11 24
REMARK SMILES IDX 24 25 25 26 26 27 27 29 28 30 29 31 81 32 30 33 80 34 31 35
REMARK SMILES IDX 32 36 33 37 74 38 34 39 79 40 73 41 75 42 35 43 78 44 72 45
REMARK SMILES IDX 71 46 36 48 62 49 45 50 61 51 46 52 49 53 60 54 76 55 47 56
REMARK SMILES IDX 48 57 59 59 77 60 50 61 37 62 38 63 43 64 39 65 40 66 42 67
REMARK SMILES IDX 44 68 41 69 63 70 64 71 69 72 65 73 66 74 68 75 70 76 67 77
REMARK SMILES IDX 51 78 52 79 57 80 53 81 54 82 56 83 58 84 55 85
REMARK H PARENT 21 6 25 28 75 47 49 58
REMARK Flexibility Score: inf
ROOT
ATOM      1  C   UNL A   1      31.550  31.946  26.833  1.00  0.00     0.042 C 
ENDROOT
BRANCH   1   2
ATOM      2  C   UNL A   1      31.920  30.601  26.222  1.00  0.00     0.117 C 
BRANCH   2   3
ATOM      3  N   UNL A   1      31.545  29.477  27.055  1.00  0.00    -0.356 N 
ATOM      4  C   UNL A   1      31.963  28.181  27.007  1.00  0.00     0.224 C 
ATOM      5  O   UNL A   1      31.643  27.447  27.945  1.00  0.00    -0.275 OA
ATOM      6  H   UNL A   1      30.893  29.681  27.762  1.00  0.00     0.163 HD
BRANCH   4   7
ATOM      7  C   UNL A   1      32.852  27.663  25.875  1.00  0.00     0.139 C 
BRANCH   7   8
ATOM      8  C   UNL A   1      32.266  26.515  25.077  1.00  0.00     0.003 A 
ATOM      9  C   UNL A   1      31.303  26.811  23.975  1.00  0.00     0.051 A 
ATOM     10  N   UNL A   1      30.745  25.904  23.257  1.00  0.00    -0.198 NA
ATOM     11  C   UNL A   1      30.886  24.594  23.563  1.00  0.00     0.348 A 
ATOM     12  C   UNL A   1      32.585  25.197  25.228  1.00  0.00     0.028 A 
ATOM     13  O   UNL A   1      30.125  23.794  23.020  1.00  0.00    -0.246 OA
ATOM     14  N   UNL A   1      31.848  24.198  24.530  1.00  0.00    -0.291 N 
BRANCH   9  15
ATOM     15  C   UNL A   1      30.933  28.239  23.548  1.00  0.00     0.053 C 
ATOM     16  C   UNL A   1      29.482  28.307  23.074  1.00  0.00     0.011 C 
ENDBRANCH   9  15
BRANCH  12  17
ATOM     17  C   UNL A   1      33.829  24.847  26.044  1.00  0.00     0.051 C 
ATOM     18  C   UNL A   1      35.173  24.789  25.321  1.00  0.00     0.010 C 
ENDBRANCH  12  17
BRANCH  14  19
ATOM     19  C   UNL A   1      31.710  22.741  24.882  1.00  0.00     0.118 C 
ATOM     20  C   UNL A   1      32.443  21.756  23.934  1.00  0.00     0.030 C 
ATOM     21  C   UNL A   1      31.967  22.207  26.298  1.00  0.00     0.185 C 
ATOM     22  C   UNL A   1      33.912  21.619  24.290  1.00  0.00     0.031 C 
ATOM     23  O   UNL A   1      33.354  22.104  26.619  1.00  0.00    -0.379 OA
ATOM     24  C   UNL A   1      34.074  21.232  25.752  1.00  0.00     0.160 C 
ENDBRANCH  14  19
ENDBRANCH   7   8
ENDBRANCH   4   7
ENDBRANCH   2   3
ENDBRANCH   1   2
BRANCH   1  25
ATOM     25  C   UNL A   1      32.747  32.771  27.284  1.00  0.00     0.118 C 
BRANCH  25  26
ATOM     26  N   UNL A   1      32.405  34.150  27.612  1.00  0.00    -0.352 N 
ATOM     27  C   UNL A   1      32.966  35.009  28.530  1.00  0.00     0.251 C 
ATOM     28  H   UNL A   1      31.656  34.526  27.095  1.00  0.00     0.163 HD
ATOM     29  O   UNL A   1      32.434  36.091  28.757  1.00  0.00    -0.269 OA
BRANCH  27  30
ATOM     30  C   UNL A   1      34.184  34.613  29.268  1.00  0.00     0.039 A 
ATOM     31  C   UNL A   1      35.447  34.799  28.707  1.00  0.00     0.014 A 
ATOM     32  C   UNL A   1      34.061  34.021  30.529  1.00  0.00     0.014 A 
ATOM     33  C   UNL A   1      36.554  34.201  29.295  1.00  0.00     0.010 A 
ATOM     34  C   UNL A   1      35.196  33.517  31.174  1.00  0.00     0.010 A 
ATOM     35  C   UNL A   1      36.443  33.540  30.531  1.00  0.00    -0.014 A 
BRANCH  35  36
ATOM     36  C   UNL A   1      37.639  32.855  31.090  1.00  0.00     0.031 A 
ATOM     37  C   UNL A   1      38.194  33.244  32.437  1.00  0.00     0.074 A 
ATOM     38  C   UNL A   1      38.170  31.810  30.424  1.00  0.00     0.049 A 
ATOM     39  N   UNL A   1      39.178  32.703  33.114  1.00  0.00    -0.248 NA
ATOM     40  C   UNL A   1      37.569  34.392  33.112  1.00  0.00     0.031 C 
ATOM     41  C   UNL A   1      37.723  31.326  29.116  1.00  0.00     0.029 A 
ATOM     42  N   UNL A   1      39.175  30.943  30.772  1.00  0.00    -0.354 N 
ATOM     43  C   UNL A   1      39.295  33.448  34.281  1.00  0.00     0.074 A 
ATOM     44  C   UNL A   1      38.313  34.508  34.203  1.00  0.00     0.031 C 
ATOM     45  C   UNL A   1      38.401  30.213  28.803  1.00  0.00     0.029 A 
ATOM     46  C   UNL A   1      39.376  29.941  29.854  1.00  0.00     0.049 A 
ATOM     47  H   UNL A   1      39.700  31.029  31.600  1.00  0.00     0.167 HD
ATOM     48  C   UNL A   1      40.128  33.258  35.333  1.00  0.00     0.037 A 
ATOM     49  C   UNL A   1      40.254  28.922  29.851  1.00  0.00     0.037 A 
ATOM     50  C   UNL A   1      41.099  32.198  35.421  1.00  0.00     0.049 A 
ATOM     51  C   UNL A   1      41.206  28.773  31.002  1.00  0.00     0.074 A 
ATOM     52  C   UNL A   1      41.977  31.912  36.454  1.00  0.00     0.029 A 
ATOM     53  N   UNL A   1      41.322  31.248  34.436  1.00  0.00    -0.354 N 
ATOM     54  N   UNL A   1      41.286  29.473  32.109  1.00  0.00    -0.248 NA
ATOM     55  C   UNL A   1      42.199  27.696  30.898  1.00  0.00     0.031 C 
ATOM     56  C   UNL A   1      42.764  30.820  36.071  1.00  0.00     0.029 A 
ATOM     57  C   UNL A   1      42.342  30.393  34.823  1.00  0.00     0.049 A 
ATOM     58  H   UNL A   1      40.829  31.191  33.585  1.00  0.00     0.167 HD
ATOM     59  C   UNL A   1      42.325  28.910  32.838  1.00  0.00     0.074 A 
ATOM     60  C   UNL A   1      42.822  27.792  32.063  1.00  0.00     0.031 C 
ATOM     61  C   UNL A   1      42.830  29.288  34.038  1.00  0.00     0.037 A 
BRANCH  48  62
ATOM     62  C   UNL A   1      40.034  34.236  36.473  1.00  0.00     0.057 A 
ATOM     63  C   UNL A   1      40.803  35.407  36.477  1.00  0.00     0.134 A 
ATOM     64  C   UNL A   1      39.197  34.011  37.574  1.00  0.00     0.134 A 
ATOM     65  F   UNL A   1      41.633  35.681  35.460  1.00  0.00    -0.206 F 
ATOM     66  C   UNL A   1      40.739  36.319  37.532  1.00  0.00     0.040 A 
ATOM     67  C   UNL A   1      39.102  34.930  38.621  1.00  0.00     0.040 A 
ATOM     68  F   UNL A   1      38.427  32.913  37.629  1.00  0.00    -0.206 F 
ATOM     69  C   UNL A   1      39.879  36.086  38.603  1.00  0.00     0.006 A 
ENDBRANCH  48  62
BRANCH  49  70
ATOM     70  C   UNL A   1      40.292  27.967  28.714  1.00  0.00     0.057 A 
ATOM     71  C   UNL A   1      41.017  28.249  27.549  1.00  0.00     0.134 A 
ATOM     72  C   UNL A   1      39.638  26.730  28.782  1.00  0.00     0.134 A 
ATOM     73  F   UNL A   1      41.662  29.418  27.420  1.00  0.00    -0.206 F 
ATOM     74  C   UNL A   1      41.089  27.341  26.494  1.00  0.00     0.040 A 
ATOM     75  C   UNL A   1      39.727  25.799  27.747  1.00  0.00     0.040 A 
ATOM     76  F   UNL A   1      38.944  26.394  29.879  1.00  0.00    -0.206 F 
ATOM     77  C   UNL A   1      40.452  26.106  26.596  1.00  0.00     0.006 A 
ENDBRANCH  49  70
BRANCH  61  78
ATOM     78  C   UNL A   1      43.962  28.468  34.584  1.00  0.00     0.057 A 
ATOM     79  C   UNL A   1      43.712  27.325  35.355  1.00  0.00     0.134 A 
ATOM     80  C   UNL A   1      45.302  28.802  34.341  1.00  0.00     0.134 A 
ATOM     81  F   UNL A   1      42.454  26.953  35.631  1.00  0.00    -0.206 F 
ATOM     82  C   UNL A   1      44.751  26.542  35.857  1.00  0.00     0.040 A 
ATOM     83  C   UNL A   1      46.349  28.009  34.811  1.00  0.00     0.040 A 
ATOM     84  F   UNL A   1      45.611  29.874  33.595  1.00  0.00    -0.206 F 
ATOM     85  C   UNL A   1      46.075  26.877  35.575  1.00  0.00     0.006 A 
ENDBRANCH  61  78
ENDBRANCH  35  36
ENDBRANCH  27  30
ENDBRANCH  25  26
ENDBRANCH   1  25
TORSDOF 14
ENDMDL
