MODEL 1
REMARK VINA RESULT:     -11.7      0.000      0.000
REMARK SMILES Cc1cc(=O)cc(C)n1C[C@H]1CCCC[C@@H]1C(=O)NCCCNC(=O)c1ccc(-c2c3nc(c(-c4c(F)cccc4F)c4ccc([nH]4)c(-c4c(F)cccc4F)c4nc(c(-c5c(F)cccc5F)c5ccc2[nH]5)C=C4)C=C3)cc1
REMARK SMILES IDX 21 1 20 2 19 3 17 4 18 5 16 7 11 8 12 9 13 10 15 11 14 12
REMARK SMILES IDX 10 13 9 14 1 15 2 16 3 17 4 18 7 19 5 20 6 21 8 22 22 23
REMARK SMILES IDX 23 24 24 25 25 27 26 28 27 29 79 30 28 31 78 32 29 33 30 34
REMARK SMILES IDX 31 35 72 36 32 37 77 38 71 39 73 40 33 41 76 42 70 43 69 44
REMARK SMILES IDX 34 46 60 47 43 48 59 49 44 50 47 51 58 52 74 53 45 54 46 55
REMARK SMILES IDX 57 57 75 58 48 59 35 60 36 61 41 62 37 63 38 64 40 65 42 66
REMARK SMILES IDX 39 67 61 68 62 69 67 70 63 71 64 72 66 73 68 74 65 75 49 76
REMARK SMILES IDX 50 77 55 78 51 79 52 80 54 81 56 82 53 83
REMARK H PARENT 19 6 23 26 73 45 47 56
REMARK Flexibility Score: inf
ROOT
ATOM      1  C   UNL A   1      31.406  32.313  26.880  1.00  0.00     0.042 C 
ENDROOT
BRANCH   1   2
ATOM      2  C   UNL A   1      31.493  30.908  26.282  1.00  0.00     0.117 C 
BRANCH   2   3
ATOM      3  N   UNL A   1      32.522  30.097  26.905  1.00  0.00    -0.356 N 
ATOM      4  C   UNL A   1      33.122  28.936  26.536  1.00  0.00     0.223 C 
ATOM      5  O   UNL A   1      34.049  28.567  27.262  1.00  0.00    -0.275 OA
ATOM      6  H   UNL A   1      32.850  30.459  27.760  1.00  0.00     0.163 HD
BRANCH   4   7
ATOM      7  C   UNL A   1      32.727  28.151  25.261  1.00  0.00     0.083 C 
ATOM      8  C   UNL A   1      31.318  27.511  25.293  1.00  0.00     0.021 C 
ATOM      9  C   UNL A   1      31.289  26.466  26.421  1.00  0.00     0.006 C 
ATOM     10  C   UNL A   1      32.307  25.350  26.212  1.00  0.00     0.000 C 
ATOM     11  C   UNL A   1      33.779  27.045  24.992  1.00  0.00     0.014 C 
ATOM     12  C   UNL A   1      33.717  25.898  26.011  1.00  0.00     0.001 C 
BRANCH   8  13
ATOM     13  C   UNL A   1      30.874  26.963  23.907  1.00  0.00     0.126 C 
BRANCH  13  14
ATOM     14  N   UNL A   1      29.977  27.924  23.188  1.00  0.00    -0.349 N 
ATOM     15  C   UNL A   1      32.010  29.004  22.093  1.00  0.00     0.064 C 
ATOM     16  C   UNL A   1      30.531  28.971  22.397  1.00  0.00     0.018 A 
ATOM     17  C   UNL A   1      29.778  29.947  21.854  1.00  0.00     0.073 A 
ATOM     18  C   UNL A   1      28.324  29.954  22.069  1.00  0.00     0.182 A 
ATOM     19  C   UNL A   1      28.561  27.853  23.290  1.00  0.00     0.018 A 
ATOM     20  O   UNL A   1      27.617  30.859  21.644  1.00  0.00    -0.290 OA
ATOM     21  C   UNL A   1      27.753  28.806  22.786  1.00  0.00     0.073 A 
ATOM     22  C   UNL A   1      27.855  26.673  23.914  1.00  0.00     0.064 C 
ENDBRANCH  13  14
ENDBRANCH   8  13
ENDBRANCH   4   7
ENDBRANCH   2   3
ENDBRANCH   1   2
BRANCH   1  23
ATOM     23  C   UNL A   1      32.752  32.994  27.083  1.00  0.00     0.118 C 
BRANCH  23  24
ATOM     24  N   UNL A   1      32.620  34.249  27.803  1.00  0.00    -0.352 N 
ATOM     25  C   UNL A   1      33.244  34.666  28.953  1.00  0.00     0.251 C 
ATOM     26  H   UNL A   1      31.992  34.895  27.408  1.00  0.00     0.163 HD
ATOM     27  O   UNL A   1      32.810  35.646  29.552  1.00  0.00    -0.269 OA
BRANCH  25  28
ATOM     28  C   UNL A   1      34.427  33.948  29.482  1.00  0.00     0.039 A 
ATOM     29  C   UNL A   1      35.696  34.304  29.014  1.00  0.00     0.014 A 
ATOM     30  C   UNL A   1      34.295  32.885  30.381  1.00  0.00     0.014 A 
ATOM     31  C   UNL A   1      36.827  33.627  29.478  1.00  0.00     0.010 A 
ATOM     32  C   UNL A   1      35.429  32.258  30.899  1.00  0.00     0.010 A 
ATOM     33  C   UNL A   1      36.706  32.612  30.441  1.00  0.00    -0.014 A 
BRANCH  33  34
ATOM     34  C   UNL A   1      37.906  31.897  30.950  1.00  0.00     0.031 A 
ATOM     35  C   UNL A   1      38.477  32.240  32.301  1.00  0.00     0.074 A 
ATOM     36  C   UNL A   1      38.496  30.955  30.189  1.00  0.00     0.049 A 
ATOM     37  N   UNL A   1      39.522  31.737  32.907  1.00  0.00    -0.248 NA
ATOM     38  C   UNL A   1      37.797  33.300  33.066  1.00  0.00     0.031 C 
ATOM     39  C   UNL A   1      38.061  30.558  28.847  1.00  0.00     0.029 A 
ATOM     40  N   UNL A   1      39.586  30.157  30.433  1.00  0.00    -0.354 N 
ATOM     41  C   UNL A   1      39.626  32.417  34.113  1.00  0.00     0.074 A 
ATOM     42  C   UNL A   1      38.572  33.405  34.136  1.00  0.00     0.031 C 
ATOM     43  C   UNL A   1      38.857  29.573  28.401  1.00  0.00     0.029 A 
ATOM     44  C   UNL A   1      39.876  29.290  29.407  1.00  0.00     0.049 A 
ATOM     45  H   UNL A   1      40.110  30.201  31.264  1.00  0.00     0.167 HD
ATOM     46  C   UNL A   1      40.503  32.215  35.124  1.00  0.00     0.037 A 
ATOM     47  C   UNL A   1      40.852  28.368  29.291  1.00  0.00     0.037 A 
ATOM     48  C   UNL A   1      41.528  31.205  35.118  1.00  0.00     0.049 A 
ATOM     49  C   UNL A   1      41.816  28.169  30.428  1.00  0.00     0.074 A 
ATOM     50  C   UNL A   1      42.428  30.890  36.121  1.00  0.00     0.029 A 
ATOM     51  N   UNL A   1      41.783  30.345  34.062  1.00  0.00    -0.354 N 
ATOM     52  N   UNL A   1      41.861  28.779  31.587  1.00  0.00    -0.248 NA
ATOM     53  C   UNL A   1      42.865  27.153  30.246  1.00  0.00     0.031 C 
ATOM     54  C   UNL A   1      43.255  29.865  35.657  1.00  0.00     0.029 A 
ATOM     55  C   UNL A   1      42.840  29.512  34.383  1.00  0.00     0.049 A 
ATOM     56  H   UNL A   1      41.287  30.329  33.212  1.00  0.00     0.167 HD
ATOM     57  C   UNL A   1      42.917  28.202  32.281  1.00  0.00     0.074 A 
ATOM     58  C   UNL A   1      43.482  27.187  31.419  1.00  0.00     0.031 C 
ATOM     59  C   UNL A   1      43.377  28.491  33.522  1.00  0.00     0.037 A 
BRANCH  46  60
ATOM     60  C   UNL A   1      40.384  33.075  36.347  1.00  0.00     0.057 A 
ATOM     61  C   UNL A   1      41.171  34.222  36.512  1.00  0.00     0.134 A 
ATOM     62  C   UNL A   1      39.405  32.816  37.314  1.00  0.00     0.134 A 
ATOM     63  F   UNL A   1      42.131  34.522  35.625  1.00  0.00    -0.206 F 
ATOM     64  C   UNL A   1      40.987  35.081  37.597  1.00  0.00     0.040 A 
ATOM     65  C   UNL A   1      39.196  33.679  38.390  1.00  0.00     0.040 A 
ATOM     66  F   UNL A   1      38.612  31.738  37.209  1.00  0.00    -0.206 F 
ATOM     67  C   UNL A   1      39.989  34.817  38.533  1.00  0.00     0.006 A 
ENDBRANCH  46  60
BRANCH  47  68
ATOM     68  C   UNL A   1      40.950  27.539  28.062  1.00  0.00     0.057 A 
ATOM     69  C   UNL A   1      40.289  26.308  27.965  1.00  0.00     0.134 A 
ATOM     70  C   UNL A   1      41.710  27.948  26.959  1.00  0.00     0.134 A 
ATOM     71  F   UNL A   1      39.561  25.851  28.996  1.00  0.00    -0.206 F 
ATOM     72  C   UNL A   1      40.394  25.507  26.827  1.00  0.00     0.040 A 
ATOM     73  C   UNL A   1      41.803  27.170  25.805  1.00  0.00     0.040 A 
ATOM     74  F   UNL A   1      42.365  29.119  26.986  1.00  0.00    -0.206 F 
ATOM     75  C   UNL A   1      41.149  25.941  25.739  1.00  0.00     0.006 A 
ENDBRANCH  47  68
BRANCH  59  76
ATOM     76  C   UNL A   1      44.530  27.689  34.045  1.00  0.00     0.057 A 
ATOM     77  C   UNL A   1      45.849  28.142  33.934  1.00  0.00     0.134 A 
ATOM     78  C   UNL A   1      44.308  26.503  34.757  1.00  0.00     0.134 A 
ATOM     79  F   UNL A   1      46.128  29.267  33.257  1.00  0.00    -0.206 F 
ATOM     80  C   UNL A   1      46.910  27.440  34.508  1.00  0.00     0.040 A 
ATOM     81  C   UNL A   1      45.357  25.806  35.356  1.00  0.00     0.040 A 
ATOM     82  F   UNL A   1      43.064  26.023  34.910  1.00  0.00    -0.206 F 
ATOM     83  C   UNL A   1      46.664  26.274  35.232  1.00  0.00     0.006 A 
ENDBRANCH  59  76
ENDBRANCH  33  34
ENDBRANCH  25  28
ENDBRANCH  23  24
ENDBRANCH   1  23
TORSDOF 12
ENDMDL
MODEL 2
REMARK VINA RESULT:     -11.6      4.025      6.351
REMARK SMILES Cc1cc(=O)cc(C)n1C[C@H]1CCCC[C@@H]1C(=O)NCCCNC(=O)c1ccc(-c2c3nc(c(-c4c(F)cccc4F)c4ccc([nH]4)c(-c4c(F)cccc4F)c4nc(c(-c5c(F)cccc5F)c5ccc2[nH]5)C=C4)C=C3)cc1
REMARK SMILES IDX 21 1 20 2 19 3 17 4 18 5 16 7 11 8 12 9 13 10 15 11 14 12
REMARK SMILES IDX 10 13 9 14 1 15 2 16 3 17 4 18 7 19 5 20 6 21 8 22 22 23
REMARK SMILES IDX 23 24 24 25 25 27 26 28 27 29 79 30 28 31 78 32 29 33 30 34
REMARK SMILES IDX 31 35 72 36 32 37 77 38 71 39 73 40 33 41 76 42 70 43 69 44
REMARK SMILES IDX 34 46 60 47 43 48 59 49 44 50 47 51 58 52 74 53 45 54 46 55
REMARK SMILES IDX 57 57 75 58 48 59 35 60 36 61 41 62 37 63 38 64 40 65 42 66
REMARK SMILES IDX 39 67 61 68 62 69 67 70 63 71 64 72 66 73 68 74 65 75 49 76
REMARK SMILES IDX 50 77 55 78 51 79 52 80 54 81 56 82 53 83
REMARK H PARENT 19 6 23 26 73 45 47 56
REMARK Flexibility Score: inf
ROOT
ATOM      1  C   UNL A   1      34.017  28.439  25.448  1.00  0.00     0.042 C 
ENDROOT
BRANCH   1   2
ATOM      2  C   UNL A   1      32.847  27.808  24.690  1.00  0.00     0.117 C 
BRANCH   2   3
ATOM      3  N   UNL A   1      33.279  27.006  23.561  1.00  0.00    -0.356 N 
ATOM      4  C   UNL A   1      33.704  25.720  23.459  1.00  0.00     0.223 C 
ATOM      5  O   UNL A   1      33.898  25.318  22.309  1.00  0.00    -0.275 OA
ATOM      6  H   UNL A   1      33.257  27.487  22.702  1.00  0.00     0.163 HD
BRANCH   4   7
ATOM      7  C   UNL A   1      33.878  24.791  24.685  1.00  0.00     0.083 C 
ATOM      8  C   UNL A   1      34.257  23.327  24.353  1.00  0.00     0.021 C 
ATOM      9  C   UNL A   1      33.106  22.703  23.547  1.00  0.00     0.006 C 
ATOM     10  C   UNL A   1      31.792  22.682  24.322  1.00  0.00     0.000 C 
ATOM     11  C   UNL A   1      32.575  24.797  25.524  1.00  0.00     0.014 C 
ATOM     12  C   UNL A   1      31.413  24.070  24.831  1.00  0.00     0.001 C 
BRANCH   8  13
ATOM     13  C   UNL A   1      34.669  22.511  25.611  1.00  0.00     0.126 C 
BRANCH  13  14
ATOM     14  N   UNL A   1      35.891  21.678  25.360  1.00  0.00    -0.349 N 
ATOM     15  C   UNL A   1      34.414  19.702  24.717  1.00  0.00     0.064 C 
ATOM     16  C   UNL A   1      35.766  20.299  25.031  1.00  0.00     0.018 A 
ATOM     17  C   UNL A   1      36.827  19.475  24.943  1.00  0.00     0.073 A 
ATOM     18  C   UNL A   1      38.180  19.995  25.191  1.00  0.00     0.182 A 
ATOM     19  C   UNL A   1      37.202  22.214  25.472  1.00  0.00     0.018 A 
ATOM     20  O   UNL A   1      39.161  19.262  25.182  1.00  0.00    -0.290 OA
ATOM     21  C   UNL A   1      38.304  21.442  25.413  1.00  0.00     0.073 A 
ATOM     22  C   UNL A   1      37.461  23.697  25.600  1.00  0.00     0.064 C 
ENDBRANCH  13  14
ENDBRANCH   8  13
ENDBRANCH   4   7
ENDBRANCH   2   3
ENDBRANCH   1   2
BRANCH   1  23
ATOM     23  C   UNL A   1      33.842  28.472  26.959  1.00  0.00     0.118 C 
BRANCH  23  24
ATOM     24  N   UNL A   1      33.707  29.829  27.459  1.00  0.00    -0.352 N 
ATOM     25  C   UNL A   1      34.577  30.571  28.220  1.00  0.00     0.251 C 
ATOM     26  H   UNL A   1      32.869  30.284  27.216  1.00  0.00     0.163 HD
ATOM     27  O   UNL A   1      34.177  31.597  28.764  1.00  0.00    -0.269 OA
BRANCH  25  28
ATOM     28  C   UNL A   1      35.985  30.147  28.399  1.00  0.00     0.039 A 
ATOM     29  C   UNL A   1      36.366  29.575  29.616  1.00  0.00     0.014 A 
ATOM     30  C   UNL A   1      36.947  30.368  27.407  1.00  0.00     0.014 A 
ATOM     31  C   UNL A   1      37.694  29.188  29.822  1.00  0.00     0.010 A 
ATOM     32  C   UNL A   1      38.254  29.914  27.585  1.00  0.00     0.010 A 
ATOM     33  C   UNL A   1      38.646  29.334  28.800  1.00  0.00    -0.014 A 
BRANCH  33  34
ATOM     34  C   UNL A   1      40.056  28.911  29.005  1.00  0.00     0.031 A 
ATOM     35  C   UNL A   1      41.041  29.846  29.656  1.00  0.00     0.074 A 
ATOM     36  C   UNL A   1      40.457  27.695  28.585  1.00  0.00     0.049 A 
ATOM     37  N   UNL A   1      42.313  29.661  29.906  1.00  0.00    -0.248 NA
ATOM     38  C   UNL A   1      40.539  31.170  30.065  1.00  0.00     0.031 C 
ATOM     39  C   UNL A   1      39.608  26.714  27.906  1.00  0.00     0.029 A 
ATOM     40  N   UNL A   1      41.679  27.076  28.667  1.00  0.00    -0.354 N 
ATOM     41  C   UNL A   1      42.759  30.837  30.494  1.00  0.00     0.074 A 
ATOM     42  C   UNL A   1      41.640  31.752  30.517  1.00  0.00     0.031 C 
ATOM     43  C   UNL A   1      40.326  25.605  27.663  1.00  0.00     0.029 A 
ATOM     44  C   UNL A   1      41.692  25.808  28.136  1.00  0.00     0.049 A 
ATOM     45  H   UNL A   1      42.471  27.498  29.069  1.00  0.00     0.167 HD
ATOM     46  C   UNL A   1      43.985  31.119  30.996  1.00  0.00     0.037 A 
ATOM     47  C   UNL A   1      42.691  24.909  28.043  1.00  0.00     0.037 A 
ATOM     48  C   UNL A   1      45.087  30.195  31.008  1.00  0.00     0.049 A 
ATOM     49  C   UNL A   1      44.044  25.251  28.605  1.00  0.00     0.074 A 
ATOM     50  C   UNL A   1      46.350  30.373  31.544  1.00  0.00     0.029 A 
ATOM     51  N   UNL A   1      45.055  28.921  30.464  1.00  0.00    -0.354 N 
ATOM     52  N   UNL A   1      44.431  26.346  29.213  1.00  0.00    -0.248 NA
ATOM     53  C   UNL A   1      45.100  24.235  28.472  1.00  0.00     0.031 C 
ATOM     54  C   UNL A   1      47.097  29.220  31.292  1.00  0.00     0.029 A 
ATOM     55  C   UNL A   1      46.284  28.308  30.638  1.00  0.00     0.049 A 
ATOM     56  H   UNL A   1      44.276  28.512  30.023  1.00  0.00     0.167 HD
ATOM     57  C   UNL A   1      45.761  26.139  29.560  1.00  0.00     0.074 A 
ATOM     58  C   UNL A   1      46.112  24.811  29.105  1.00  0.00     0.031 C 
ATOM     59  C   UNL A   1      46.613  26.977  30.198  1.00  0.00     0.037 A 
BRANCH  46  60
ATOM     60  C   UNL A   1      44.205  32.469  31.610  1.00  0.00     0.057 A 
ATOM     61  C   UNL A   1      44.620  33.563  30.840  1.00  0.00     0.134 A 
ATOM     62  C   UNL A   1      43.897  32.704  32.956  1.00  0.00     0.134 A 
ATOM     63  F   UNL A   1      44.937  33.403  29.546  1.00  0.00    -0.206 F 
ATOM     64  C   UNL A   1      44.722  34.843  31.388  1.00  0.00     0.040 A 
ATOM     65  C   UNL A   1      43.973  33.983  33.509  1.00  0.00     0.040 A 
ATOM     66  F   UNL A   1      43.485  31.700  33.746  1.00  0.00    -0.206 F 
ATOM     67  C   UNL A   1      44.386  35.057  32.722  1.00  0.00     0.006 A 
ENDBRANCH  46  60
BRANCH  47  68
ATOM     68  C   UNL A   1      42.445  23.584  27.419  1.00  0.00     0.057 A 
ATOM     69  C   UNL A   1      42.555  23.406  26.034  1.00  0.00     0.134 A 
ATOM     70  C   UNL A   1      42.086  22.467  28.184  1.00  0.00     0.134 A 
ATOM     71  F   UNL A   1      42.875  24.442  25.244  1.00  0.00    -0.206 F 
ATOM     72  C   UNL A   1      42.299  22.173  25.432  1.00  0.00     0.040 A 
ATOM     73  C   UNL A   1      41.853  21.223  27.597  1.00  0.00     0.040 A 
ATOM     74  F   UNL A   1      41.968  22.569  29.517  1.00  0.00    -0.206 F 
ATOM     75  C   UNL A   1      41.953  21.075  26.215  1.00  0.00     0.006 A 
ENDBRANCH  47  68
BRANCH  59  76
ATOM     76  C   UNL A   1      48.002  26.487  30.473  1.00  0.00     0.057 A 
ATOM     77  C   UNL A   1      48.325  25.827  31.663  1.00  0.00     0.134 A 
ATOM     78  C   UNL A   1      48.999  26.587  29.494  1.00  0.00     0.134 A 
ATOM     79  F   UNL A   1      47.416  25.706  32.643  1.00  0.00    -0.206 F 
ATOM     80  C   UNL A   1      49.594  25.287  31.873  1.00  0.00     0.040 A 
ATOM     81  C   UNL A   1      50.263  26.030  29.682  1.00  0.00     0.040 A 
ATOM     82  F   UNL A   1      48.747  27.198  28.325  1.00  0.00    -0.206 F 
ATOM     83  C   UNL A   1      50.564  25.377  30.876  1.00  0.00     0.006 A 
ENDBRANCH  59  76
ENDBRANCH  33  34
ENDBRANCH  25  28
ENDBRANCH  23  24
ENDBRANCH   1  23
TORSDOF 12
ENDMDL
MODEL 3
REMARK VINA RESULT:     -11.6      4.022      8.407
REMARK SMILES Cc1cc(=O)cc(C)n1C[C@H]1CCCC[C@@H]1C(=O)NCCCNC(=O)c1ccc(-c2c3nc(c(-c4c(F)cccc4F)c4ccc([nH]4)c(-c4c(F)cccc4F)c4nc(c(-c5c(F)cccc5F)c5ccc2[nH]5)C=C4)C=C3)cc1
REMARK SMILES IDX 21 1 20 2 19 3 17 4 18 5 16 7 11 8 12 9 13 10 15 11 14 12
REMARK SMILES IDX 10 13 9 14 1 15 2 16 3 17 4 18 7 19 5 20 6 21 8 22 22 23
REMARK SMILES IDX 23 24 24 25 25 27 26 28 27 29 79 30 28 31 78 32 29 33 30 34
REMARK SMILES IDX 31 35 72 36 32 37 77 38 71 39 73 40 33 41 76 42 70 43 69 44
REMARK SMILES IDX 34 46 60 47 43 48 59 49 44 50 47 51 58 52 74 53 45 54 46 55
REMARK SMILES IDX 57 57 75 58 48 59 35 60 36 61 41 62 37 63 38 64 40 65 42 66
REMARK SMILES IDX 39 67 61 68 62 69 67 70 63 71 64 72 66 73 68 74 65 75 49 76
REMARK SMILES IDX 50 77 55 78 51 79 52 80 54 81 56 82 53 83
REMARK H PARENT 19 6 23 26 73 45 47 56
REMARK Flexibility Score: inf
ROOT
ATOM      1  C   UNL A   1      34.394  28.343  25.205  1.00  0.00     0.042 C 
ENDROOT
BRANCH   1   2
ATOM      2  C   UNL A   1      33.243  28.289  24.198  1.00  0.00     0.117 C 
BRANCH   2   3
ATOM      3  N   UNL A   1      33.538  27.443  23.057  1.00  0.00    -0.356 N 
ATOM      4  C   UNL A   1      33.666  26.097  22.923  1.00  0.00     0.223 C 
ATOM      5  O   UNL A   1      33.820  25.694  21.766  1.00  0.00    -0.275 OA
ATOM      6  H   UNL A   1      33.668  27.940  22.217  1.00  0.00     0.163 HD
BRANCH   4   7
ATOM      7  C   UNL A   1      33.564  25.118  24.117  1.00  0.00     0.083 C 
ATOM      8  C   UNL A   1      34.439  23.846  24.003  1.00  0.00     0.021 C 
ATOM      9  C   UNL A   1      33.954  23.036  22.789  1.00  0.00     0.006 C 
ATOM     10  C   UNL A   1      32.500  22.594  22.922  1.00  0.00     0.000 C 
ATOM     11  C   UNL A   1      32.085  24.697  24.313  1.00  0.00     0.014 C 
ATOM     12  C   UNL A   1      31.572  23.774  23.198  1.00  0.00     0.001 C 
BRANCH   8  13
ATOM     13  C   UNL A   1      34.498  23.034  25.327  1.00  0.00     0.126 C 
BRANCH  13  14
ATOM     14  N   UNL A   1      35.624  22.043  25.325  1.00  0.00    -0.349 N 
ATOM     15  C   UNL A   1      37.233  23.867  26.089  1.00  0.00     0.064 C 
ATOM     16  C   UNL A   1      36.956  22.468  25.591  1.00  0.00     0.018 A 
ATOM     17  C   UNL A   1      38.019  21.652  25.455  1.00  0.00     0.073 A 
ATOM     18  C   UNL A   1      37.822  20.262  25.018  1.00  0.00     0.182 A 
ATOM     19  C   UNL A   1      35.415  20.669  25.029  1.00  0.00     0.018 A 
ATOM     20  O   UNL A   1      38.769  19.510  24.823  1.00  0.00    -0.290 OA
ATOM     21  C   UNL A   1      36.435  19.805  24.862  1.00  0.00     0.073 A 
ATOM     22  C   UNL A   1      34.035  20.061  24.945  1.00  0.00     0.064 C 
ENDBRANCH  13  14
ENDBRANCH   8  13
ENDBRANCH   4   7
ENDBRANCH   2   3
ENDBRANCH   1   2
BRANCH   1  23
ATOM     23  C   UNL A   1      33.953  28.350  26.662  1.00  0.00     0.118 C 
BRANCH  23  24
ATOM     24  N   UNL A   1      33.766  29.700  27.164  1.00  0.00    -0.352 N 
ATOM     25  C   UNL A   1      34.582  30.453  27.972  1.00  0.00     0.251 C 
ATOM     26  H   UNL A   1      32.932  30.140  26.883  1.00  0.00     0.163 HD
ATOM     27  O   UNL A   1      34.135  31.466  28.503  1.00  0.00    -0.269 OA
BRANCH  25  28
ATOM     28  C   UNL A   1      35.988  30.056  28.217  1.00  0.00     0.039 A 
ATOM     29  C   UNL A   1      36.336  29.552  29.474  1.00  0.00     0.014 A 
ATOM     30  C   UNL A   1      36.978  30.236  27.246  1.00  0.00     0.014 A 
ATOM     31  C   UNL A   1      37.660  29.193  29.741  1.00  0.00     0.010 A 
ATOM     32  C   UNL A   1      38.284  29.809  27.488  1.00  0.00     0.010 A 
ATOM     33  C   UNL A   1      38.643  29.298  28.743  1.00  0.00    -0.014 A 
BRANCH  33  34
ATOM     34  C   UNL A   1      40.050  28.903  29.014  1.00  0.00     0.031 A 
ATOM     35  C   UNL A   1      40.551  27.545  28.598  1.00  0.00     0.074 A 
ATOM     36  C   UNL A   1      40.872  29.758  29.654  1.00  0.00     0.049 A 
ATOM     37  N   UNL A   1      41.738  27.018  28.761  1.00  0.00    -0.248 NA
ATOM     38  C   UNL A   1      39.589  26.653  27.928  1.00  0.00     0.031 C 
ATOM     39  C   UNL A   1      40.496  31.087  30.142  1.00  0.00     0.029 A 
ATOM     40  N   UNL A   1      42.194  29.638  30.004  1.00  0.00    -0.354 N 
ATOM     41  C   UNL A   1      41.664  25.741  28.220  1.00  0.00     0.074 A 
ATOM     42  C   UNL A   1      40.303  25.548  27.771  1.00  0.00     0.031 C 
ATOM     43  C   UNL A   1      41.570  31.670  30.699  1.00  0.00     0.029 A 
ATOM     44  C   UNL A   1      42.700  30.748  30.639  1.00  0.00     0.049 A 
ATOM     45  H   UNL A   1      42.730  28.834  29.818  1.00  0.00     0.167 HD
ATOM     46  C   UNL A   1      42.649  24.823  28.083  1.00  0.00     0.037 A 
ATOM     47  C   UNL A   1      43.935  30.996  31.116  1.00  0.00     0.037 A 
ATOM     48  C   UNL A   1      44.012  25.030  28.495  1.00  0.00     0.049 A 
ATOM     49  C   UNL A   1      45.009  29.955  30.955  1.00  0.00     0.074 A 
ATOM     50  C   UNL A   1      45.092  24.177  28.347  1.00  0.00     0.029 A 
ATOM     51  N   UNL A   1      44.481  26.170  29.128  1.00  0.00    -0.354 N 
ATOM     52  N   UNL A   1      44.936  28.776  30.385  1.00  0.00    -0.248 NA
ATOM     53  C   UNL A   1      46.338  30.275  31.499  1.00  0.00     0.031 C 
ATOM     54  C   UNL A   1      46.208  24.784  28.925  1.00  0.00     0.029 A 
ATOM     55  C   UNL A   1      45.833  26.034  29.393  1.00  0.00     0.049 A 
ATOM     56  H   UNL A   1      43.936  26.957  29.354  1.00  0.00     0.167 HD
ATOM     57  C   UNL A   1      46.211  28.231  30.475  1.00  0.00     0.074 A 
ATOM     58  C   UNL A   1      47.041  29.208  31.145  1.00  0.00     0.031 C 
ATOM     59  C   UNL A   1      46.651  27.025  30.041  1.00  0.00     0.037 A 
BRANCH  46  60
ATOM     60  C   UNL A   1      42.312  23.515  27.432  1.00  0.00     0.057 A 
ATOM     61  C   UNL A   1      42.393  23.348  26.043  1.00  0.00     0.134 A 
ATOM     62  C   UNL A   1      42.010  22.386  28.203  1.00  0.00     0.134 A 
ATOM     63  F   UNL A   1      42.671  24.392  25.248  1.00  0.00    -0.206 F 
ATOM     64  C   UNL A   1      42.184  22.104  25.446  1.00  0.00     0.040 A 
ATOM     65  C   UNL A   1      41.821  21.132  27.620  1.00  0.00     0.040 A 
ATOM     66  F   UNL A   1      41.927  22.476  29.540  1.00  0.00    -0.206 F 
ATOM     67  C   UNL A   1      41.909  20.990  26.235  1.00  0.00     0.006 A 
ENDBRANCH  46  60
BRANCH  47  68
ATOM     68  C   UNL A   1      44.235  32.297  31.767  1.00  0.00     0.057 A 
ATOM     69  C   UNL A   1      44.038  32.480  33.141  1.00  0.00     0.134 A 
ATOM     70  C   UNL A   1      44.715  33.390  31.036  1.00  0.00     0.134 A 
ATOM     71  F   UNL A   1      43.560  31.477  33.893  1.00  0.00    -0.206 F 
ATOM     72  C   UNL A   1      44.289  33.705  33.761  1.00  0.00     0.040 A 
ATOM     73  C   UNL A   1      44.995  34.613  31.646  1.00  0.00     0.040 A 
ATOM     74  F   UNL A   1      44.930  33.280  29.716  1.00  0.00    -0.206 F 
ATOM     75  C   UNL A   1      44.776  34.775  33.013  1.00  0.00     0.006 A 
ENDBRANCH  47  68
BRANCH  59  76
ATOM     76  C   UNL A   1      48.098  26.693  30.246  1.00  0.00     0.057 A 
ATOM     77  C   UNL A   1      48.530  25.944  31.346  1.00  0.00     0.134 A 
ATOM     78  C   UNL A   1      49.052  27.040  29.280  1.00  0.00     0.134 A 
ATOM     79  F   UNL A   1      47.667  25.588  32.309  1.00  0.00    -0.206 F 
ATOM     80  C   UNL A   1      49.864  25.555  31.481  1.00  0.00     0.040 A 
ATOM     81  C   UNL A   1      50.382  26.636  29.392  1.00  0.00     0.040 A 
ATOM     82  F   UNL A   1      48.697  27.747  28.196  1.00  0.00    -0.206 F 
ATOM     83  C   UNL A   1      50.791  25.890  30.496  1.00  0.00     0.006 A 
ENDBRANCH  59  76
ENDBRANCH  33  34
ENDBRANCH  25  28
ENDBRANCH  23  24
ENDBRANCH   1  23
TORSDOF 12
ENDMDL
