MODEL 1
REMARK VINA RESULT:     -12.0      0.000      0.000
REMARK SMILES Cc1sc(C(=O)NCCCNC(=O)c2ccc(-c3c4nc(c(-c5c(F)cccc5F)c5ccc([nH]5)c(-c5c(F)cccc5F)c5nc(c(-c6c(F)cccc6F)c6ccc3[nH]6)C=C5)C=C4)cc2)cc1S(=O)(=O)N1C[C@@H](C)[C@H](C)C1
REMARK SMILES IDX 9 1 8 2 7 3 5 4 6 5 4 7 1 8 2 9 3 10 69 11 68 12 70 13 71 14
REMARK SMILES IDX 72 15 73 16 74 17 79 18 75 19 77 20 76 21 78 22 10 23 11 24
REMARK SMILES IDX 12 25 13 27 14 28 15 29 67 30 16 31 66 32 17 33 18 34 19 35
REMARK SMILES IDX 60 36 20 37 65 38 59 39 61 40 21 41 64 42 58 43 57 44 22 46
REMARK SMILES IDX 48 47 31 48 47 49 32 50 35 51 46 52 62 53 33 54 34 55 45 57
REMARK SMILES IDX 63 58 36 59 23 60 24 61 29 62 25 63 26 64 28 65 30 66 27 67
REMARK SMILES IDX 49 68 50 69 55 70 51 71 52 72 54 73 56 74 53 75 37 76 38 77
REMARK SMILES IDX 43 78 39 79 40 80 42 81 44 82 41 83
REMARK H PARENT 7 6 11 26 61 45 35 56
REMARK Flexibility Score: inf
ROOT
ATOM      1  C   UNL A   1      37.555  19.424  24.742  1.00  0.00     0.042 C 
ENDROOT
BRANCH   1   2
ATOM      2  C   UNL A   1      36.171  19.993  25.042  1.00  0.00     0.118 C 
BRANCH   2   3
ATOM      3  N   UNL A   1      35.144  19.015  24.757  1.00  0.00    -0.351 N 
ATOM      4  C   UNL A   1      33.779  19.111  24.687  1.00  0.00     0.261 C 
ATOM      5  O   UNL A   1      33.196  18.049  24.454  1.00  0.00    -0.268 OA
ATOM      6  H   UNL A   1      35.491  18.110  24.581  1.00  0.00     0.163 HD
BRANCH   4   7
ATOM      7  C   UNL A   1      33.096  20.388  24.836  1.00  0.00     0.093 A 
ATOM      8  C   UNL A   1      31.275  23.517  23.349  1.00  0.00     0.058 C 
ATOM      9  C   UNL A   1      31.943  22.519  24.215  1.00  0.00     0.022 A 
ATOM     10  S   UNL A   1      32.409  21.067  23.421  1.00  0.00    -0.134 S 
ATOM     11  C   UNL A   1      32.283  22.486  25.553  1.00  0.00     0.097 A 
ATOM     12  C   UNL A   1      32.853  21.215  25.913  1.00  0.00     0.047 A 
BRANCH  11  13
ATOM     13  S   UNL A   1      32.152  23.715  26.788  1.00  0.00     0.244 S 
ATOM     14  O   UNL A   1      30.826  23.483  27.323  1.00  0.00    -0.207 OA
ATOM     15  O   UNL A   1      33.336  23.475  27.586  1.00  0.00    -0.207 OA
BRANCH  13  16
ATOM     16  N   UNL A   1      32.216  25.272  26.229  1.00  0.00    -0.197 NA
ATOM     17  C   UNL A   1      31.266  26.297  26.655  1.00  0.00     0.106 C 
ATOM     18  C   UNL A   1      33.409  25.822  25.598  1.00  0.00     0.106 C 
ATOM     19  C   UNL A   1      31.906  27.628  26.240  1.00  0.00     0.005 C 
ATOM     20  C   UNL A   1      33.386  27.308  25.956  1.00  0.00     0.005 C 
ATOM     21  C   UNL A   1      31.745  28.692  27.324  1.00  0.00     0.009 C 
ATOM     22  C   UNL A   1      33.980  28.170  24.851  1.00  0.00     0.009 C 
ENDBRANCH  13  16
ENDBRANCH  11  13
ENDBRANCH   4   7
ENDBRANCH   2   3
ENDBRANCH   1   2
BRANCH   1  23
ATOM     23  C   UNL A   1      38.657  20.117  25.540  1.00  0.00     0.118 C 
BRANCH  23  24
ATOM     24  N   UNL A   1      39.805  19.242  25.741  1.00  0.00    -0.352 N 
ATOM     25  C   UNL A   1      41.104  19.547  26.042  1.00  0.00     0.251 C 
ATOM     26  H   UNL A   1      39.617  18.281  25.644  1.00  0.00     0.163 HD
ATOM     27  O   UNL A   1      41.979  18.700  25.880  1.00  0.00    -0.269 OA
BRANCH  25  28
ATOM     28  C   UNL A   1      41.454  20.877  26.575  1.00  0.00     0.039 A 
ATOM     29  C   UNL A   1      41.238  21.137  27.930  1.00  0.00     0.014 A 
ATOM     30  C   UNL A   1      41.928  21.885  25.731  1.00  0.00     0.014 A 
ATOM     31  C   UNL A   1      41.520  22.402  28.442  1.00  0.00     0.010 A 
ATOM     32  C   UNL A   1      42.295  23.116  26.261  1.00  0.00     0.010 A 
ATOM     33  C   UNL A   1      42.069  23.395  27.615  1.00  0.00    -0.014 A 
BRANCH  33  34
ATOM     34  C   UNL A   1      42.385  24.741  28.149  1.00  0.00     0.031 A 
ATOM     35  C   UNL A   1      43.790  25.076  28.570  1.00  0.00     0.074 A 
ATOM     36  C   UNL A   1      41.396  25.644  28.290  1.00  0.00     0.049 A 
ATOM     37  N   UNL A   1      44.256  26.185  29.086  1.00  0.00    -0.248 NA
ATOM     38  C   UNL A   1      44.800  24.016  28.420  1.00  0.00     0.031 C 
ATOM     39  C   UNL A   1      39.988  25.414  27.963  1.00  0.00     0.029 A 
ATOM     40  N   UNL A   1      41.425  26.936  28.747  1.00  0.00    -0.354 N 
ATOM     41  C   UNL A   1      45.603  25.951  29.330  1.00  0.00     0.074 A 
ATOM     42  C   UNL A   1      45.867  24.575  28.969  1.00  0.00     0.031 C 
ATOM     43  C   UNL A   1      39.293  26.537  28.197  1.00  0.00     0.029 A 
ATOM     44  C   UNL A   1      40.198  27.551  28.729  1.00  0.00     0.049 A 
ATOM     45  H   UNL A   1      42.247  27.379  29.059  1.00  0.00     0.167 HD
ATOM     46  C   UNL A   1      46.542  26.812  29.789  1.00  0.00     0.037 A 
ATOM     47  C   UNL A   1      39.844  28.795  29.102  1.00  0.00     0.037 A 
ATOM     48  C   UNL A   1      46.274  28.185  30.129  1.00  0.00     0.049 A 
ATOM     49  C   UNL A   1      40.905  29.731  29.611  1.00  0.00     0.074 A 
ATOM     50  C   UNL A   1      47.160  29.158  30.555  1.00  0.00     0.029 A 
ATOM     51  N   UNL A   1      45.020  28.779  30.085  1.00  0.00    -0.354 N 
ATOM     52  N   UNL A   1      42.189  29.519  29.773  1.00  0.00    -0.248 NA
ATOM     53  C   UNL A   1      40.467  31.084  29.978  1.00  0.00     0.031 C 
ATOM     54  C   UNL A   1      46.435  30.324  30.819  1.00  0.00     0.029 A 
ATOM     55  C   UNL A   1      45.106  30.098  30.496  1.00  0.00     0.049 A 
ATOM     56  H   UNL A   1      44.191  28.327  29.803  1.00  0.00     0.167 HD
ATOM     57  C   UNL A   1      42.718  30.720  30.227  1.00  0.00     0.074 A 
ATOM     58  C   UNL A   1      41.618  31.659  30.298  1.00  0.00     0.031 C 
ATOM     59  C   UNL A   1      44.000  31.020  30.554  1.00  0.00     0.037 A 
BRANCH  46  60
ATOM     60  C   UNL A   1      47.943  26.292  29.947  1.00  0.00     0.057 A 
ATOM     61  C   UNL A   1      48.406  25.760  31.158  1.00  0.00     0.134 A 
ATOM     62  C   UNL A   1      48.834  26.298  28.865  1.00  0.00     0.134 A 
ATOM     63  F   UNL A   1      47.610  25.735  32.239  1.00  0.00    -0.206 F 
ATOM     64  C   UNL A   1      49.711  25.283  31.298  1.00  0.00     0.040 A 
ATOM     65  C   UNL A   1      50.131  25.794  28.984  1.00  0.00     0.040 A 
ATOM     66  F   UNL A   1      48.458  26.786  27.674  1.00  0.00    -0.206 F 
ATOM     67  C   UNL A   1      50.575  25.292  30.205  1.00  0.00     0.006 A 
ENDBRANCH  46  60
BRANCH  47  68
ATOM     68  C   UNL A   1      38.430  29.236  28.979  1.00  0.00     0.057 A 
ATOM     69  C   UNL A   1      37.923  29.707  27.764  1.00  0.00     0.134 A 
ATOM     70  C   UNL A   1      37.558  29.203  30.073  1.00  0.00     0.134 A 
ATOM     71  F   UNL A   1      38.714  29.776  26.682  1.00  0.00    -0.206 F 
ATOM     72  C   UNL A   1      36.606  30.155  27.644  1.00  0.00     0.040 A 
ATOM     73  C   UNL A   1      36.230  29.620  29.961  1.00  0.00     0.040 A 
ATOM     74  F   UNL A   1      37.978  28.750  31.264  1.00  0.00    -0.206 F 
ATOM     75  C   UNL A   1      35.755  30.108  28.746  1.00  0.00     0.006 A 
ENDBRANCH  47  68
BRANCH  59  76
ATOM     76  C   UNL A   1      44.284  32.434  30.973  1.00  0.00     0.057 A 
ATOM     77  C   UNL A   1      44.228  32.842  32.312  1.00  0.00     0.134 A 
ATOM     78  C   UNL A   1      44.639  33.397  30.019  1.00  0.00     0.134 A 
ATOM     79  F   UNL A   1      43.883  31.972  33.273  1.00  0.00    -0.206 F 
ATOM     80  C   UNL A   1      44.480  34.163  32.683  1.00  0.00     0.040 A 
ATOM     81  C   UNL A   1      44.926  34.713  30.381  1.00  0.00     0.040 A 
ATOM     82  F   UNL A   1      44.724  33.072  28.720  1.00  0.00    -0.206 F 
ATOM     83  C   UNL A   1      44.836  35.103  31.716  1.00  0.00     0.006 A 
ENDBRANCH  59  76
ENDBRANCH  33  34
ENDBRANCH  25  28
ENDBRANCH  23  24
ENDBRANCH   1  23
TORSDOF 12
ENDMDL
MODEL 2
REMARK VINA RESULT:     -12.0      1.126      6.329
REMARK SMILES Cc1sc(C(=O)NCCCNC(=O)c2ccc(-c3c4nc(c(-c5c(F)cccc5F)c5ccc([nH]5)c(-c5c(F)cccc5F)c5nc(c(-c6c(F)cccc6F)c6ccc3[nH]6)C=C5)C=C4)cc2)cc1S(=O)(=O)N1C[C@@H](C)[C@H](C)C1
REMARK SMILES IDX 9 1 8 2 7 3 5 4 6 5 4 7 1 8 2 9 3 10 69 11 68 12 70 13 71 14
REMARK SMILES IDX 72 15 73 16 74 17 79 18 75 19 77 20 76 21 78 22 10 23 11 24
REMARK SMILES IDX 12 25 13 27 14 28 15 29 67 30 16 31 66 32 17 33 18 34 19 35
REMARK SMILES IDX 60 36 20 37 65 38 59 39 61 40 21 41 64 42 58 43 57 44 22 46
REMARK SMILES IDX 48 47 31 48 47 49 32 50 35 51 46 52 62 53 33 54 34 55 45 57
REMARK SMILES IDX 63 58 36 59 23 60 24 61 29 62 25 63 26 64 28 65 30 66 27 67
REMARK SMILES IDX 49 68 50 69 55 70 51 71 52 72 54 73 56 74 53 75 37 76 38 77
REMARK SMILES IDX 43 78 39 79 40 80 42 81 44 82 41 83
REMARK H PARENT 7 6 11 26 61 45 35 56
REMARK Flexibility Score: inf
ROOT
ATOM      1  C   UNL A   1      37.186  19.657  24.931  1.00  0.00     0.042 C 
ENDROOT
BRANCH   1   2
ATOM      2  C   UNL A   1      35.954  20.552  25.040  1.00  0.00     0.118 C 
BRANCH   2   3
ATOM      3  N   UNL A   1      34.755  19.754  25.173  1.00  0.00    -0.351 N 
ATOM      4  C   UNL A   1      33.426  20.090  25.176  1.00  0.00     0.261 C 
ATOM      5  O   UNL A   1      32.653  19.143  25.352  1.00  0.00    -0.268 OA
ATOM      6  H   UNL A   1      34.925  18.790  25.281  1.00  0.00     0.163 HD
BRANCH   4   7
ATOM      7  C   UNL A   1      32.984  21.457  24.944  1.00  0.00     0.093 A 
ATOM      8  C   UNL A   1      32.348  24.522  22.595  1.00  0.00     0.058 C 
ATOM      9  C   UNL A   1      32.508  23.597  23.739  1.00  0.00     0.022 A 
ATOM     10  S   UNL A   1      32.919  21.983  23.315  1.00  0.00    -0.134 S 
ATOM     11  C   UNL A   1      32.396  23.738  25.109  1.00  0.00     0.097 A 
ATOM     12  C   UNL A   1      32.574  22.476  25.777  1.00  0.00     0.047 A 
BRANCH  11  13
ATOM     13  S   UNL A   1      32.116  25.161  26.083  1.00  0.00     0.244 S 
ATOM     14  O   UNL A   1      31.432  24.620  27.241  1.00  0.00    -0.207 OA
ATOM     15  O   UNL A   1      33.446  25.724  26.194  1.00  0.00    -0.207 OA
BRANCH  13  16
ATOM     16  N   UNL A   1      31.133  26.298  25.389  1.00  0.00    -0.197 NA
ATOM     17  C   UNL A   1      31.646  27.556  24.853  1.00  0.00     0.106 C 
ATOM     18  C   UNL A   1      29.789  25.980  24.922  1.00  0.00     0.106 C 
ATOM     19  C   UNL A   1      30.515  28.103  23.973  1.00  0.00     0.005 C 
ATOM     20  C   UNL A   1      29.560  26.916  23.736  1.00  0.00     0.005 C 
ATOM     21  C   UNL A   1      31.049  28.681  22.664  1.00  0.00     0.009 C 
ATOM     22  C   UNL A   1      28.104  27.340  23.615  1.00  0.00     0.009 C 
ENDBRANCH  13  16
ENDBRANCH  11  13
ENDBRANCH   4   7
ENDBRANCH   2   3
ENDBRANCH   1   2
BRANCH   1  23
ATOM     23  C   UNL A   1      38.449  20.335  25.457  1.00  0.00     0.118 C 
BRANCH  23  24
ATOM     24  N   UNL A   1      39.517  19.371  25.693  1.00  0.00    -0.352 N 
ATOM     25  C   UNL A   1      40.831  19.573  26.015  1.00  0.00     0.251 C 
ATOM     26  H   UNL A   1      39.251  18.428  25.605  1.00  0.00     0.163 HD
ATOM     27  O   UNL A   1      41.635  18.655  25.883  1.00  0.00    -0.269 OA
BRANCH  25  28
ATOM     28  C   UNL A   1      41.279  20.877  26.537  1.00  0.00     0.039 A 
ATOM     29  C   UNL A   1      41.169  21.128  27.907  1.00  0.00     0.014 A 
ATOM     30  C   UNL A   1      41.741  21.874  25.673  1.00  0.00     0.014 A 
ATOM     31  C   UNL A   1      41.546  22.371  28.411  1.00  0.00     0.010 A 
ATOM     32  C   UNL A   1      42.202  23.079  26.189  1.00  0.00     0.010 A 
ATOM     33  C   UNL A   1      42.084  23.349  27.558  1.00  0.00    -0.014 A 
BRANCH  33  34
ATOM     34  C   UNL A   1      42.500  24.672  28.084  1.00  0.00     0.031 A 
ATOM     35  C   UNL A   1      41.477  25.755  28.296  1.00  0.00     0.074 A 
ATOM     36  C   UNL A   1      43.802  24.905  28.329  1.00  0.00     0.049 A 
ATOM     37  N   UNL A   1      41.649  26.981  28.719  1.00  0.00    -0.248 NA
ATOM     38  C   UNL A   1      40.082  25.427  27.963  1.00  0.00     0.031 C 
ATOM     39  C   UNL A   1      44.888  23.948  28.112  1.00  0.00     0.029 A 
ATOM     40  N   UNL A   1      44.434  26.021  28.813  1.00  0.00    -0.354 N 
ATOM     41  C   UNL A   1      40.391  27.570  28.690  1.00  0.00     0.074 A 
ATOM     42  C   UNL A   1      39.476  26.590  28.147  1.00  0.00     0.031 C 
ATOM     43  C   UNL A   1      46.048  24.505  28.494  1.00  0.00     0.029 A 
ATOM     44  C   UNL A   1      45.793  25.869  28.943  1.00  0.00     0.049 A 
ATOM     45  H   UNL A   1      43.960  26.851  29.046  1.00  0.00     0.167 HD
ATOM     46  C   UNL A   1      40.026  28.807  29.104  1.00  0.00     0.037 A 
ATOM     47  C   UNL A   1      46.727  26.737  29.373  1.00  0.00     0.037 A 
ATOM     48  C   UNL A   1      40.940  29.769  29.660  1.00  0.00     0.049 A 
ATOM     49  C   UNL A   1      46.296  28.105  29.824  1.00  0.00     0.074 A 
ATOM     50  C   UNL A   1      40.667  31.031  30.158  1.00  0.00     0.029 A 
ATOM     51  N   UNL A   1      42.308  29.575  29.789  1.00  0.00    -0.354 N 
ATOM     52  N   UNL A   1      45.093  28.626  29.856  1.00  0.00    -0.248 NA
ATOM     53  C   UNL A   1      47.353  29.001  30.310  1.00  0.00     0.031 C 
ATOM     54  C   UNL A   1      41.877  31.621  30.537  1.00  0.00     0.029 A 
ATOM     55  C   UNL A   1      42.896  30.703  30.337  1.00  0.00     0.049 A 
ATOM     56  H   UNL A   1      42.789  28.757  29.528  1.00  0.00     0.167 HD
ATOM     57  C   UNL A   1      45.243  29.896  30.397  1.00  0.00     0.074 A 
ATOM     58  C   UNL A   1      46.651  30.059  30.693  1.00  0.00     0.031 C 
ATOM     59  C   UNL A   1      44.300  30.844  30.630  1.00  0.00     0.037 A 
BRANCH  46  60
ATOM     60  C   UNL A   1      38.577  29.183  28.971  1.00  0.00     0.057 A 
ATOM     61  C   UNL A   1      37.690  29.122  30.055  1.00  0.00     0.134 A 
ATOM     62  C   UNL A   1      38.066  29.640  27.748  1.00  0.00     0.134 A 
ATOM     63  F   UNL A   1      38.109  28.681  31.251  1.00  0.00    -0.206 F 
ATOM     64  C   UNL A   1      36.345  29.469  29.922  1.00  0.00     0.040 A 
ATOM     65  C   UNL A   1      36.729  30.021  27.611  1.00  0.00     0.040 A 
ATOM     66  F   UNL A   1      38.857  29.731  26.669  1.00  0.00    -0.206 F 
ATOM     67  C   UNL A   1      35.863  29.928  28.698  1.00  0.00     0.006 A 
ENDBRANCH  46  60
BRANCH  47  68
ATOM     68  C   UNL A   1      48.154  26.329  29.428  1.00  0.00     0.057 A 
ATOM     69  C   UNL A   1      48.997  26.500  28.324  1.00  0.00     0.134 A 
ATOM     70  C   UNL A   1      48.707  25.754  30.578  1.00  0.00     0.134 A 
ATOM     71  F   UNL A   1      48.523  27.032  27.188  1.00  0.00    -0.206 F 
ATOM     72  C   UNL A   1      50.332  26.090  28.351  1.00  0.00     0.040 A 
ATOM     73  C   UNL A   1      50.047  25.367  30.630  1.00  0.00     0.040 A 
ATOM     74  F   UNL A   1      47.955  25.574  31.675  1.00  0.00    -0.206 F 
ATOM     75  C   UNL A   1      50.860  25.525  29.511  1.00  0.00     0.006 A 
ENDBRANCH  47  68
BRANCH  59  76
ATOM     76  C   UNL A   1      44.759  32.119  31.277  1.00  0.00     0.057 A 
ATOM     77  C   UNL A   1      44.810  32.274  32.668  1.00  0.00     0.134 A 
ATOM     78  C   UNL A   1      45.175  33.202  30.491  1.00  0.00     0.134 A 
ATOM     79  F   UNL A   1      44.415  31.280  33.478  1.00  0.00    -0.206 F 
ATOM     80  C   UNL A   1      45.224  33.471  33.254  1.00  0.00     0.040 A 
ATOM     81  C   UNL A   1      45.623  34.391  31.065  1.00  0.00     0.040 A 
ATOM     82  F   UNL A   1      45.164  33.117  29.152  1.00  0.00    -0.206 F 
ATOM     83  C   UNL A   1      45.637  34.533  32.451  1.00  0.00     0.006 A 
ENDBRANCH  59  76
ENDBRANCH  33  34
ENDBRANCH  25  28
ENDBRANCH  23  24
ENDBRANCH   1  23
TORSDOF 12
ENDMDL
MODEL 3
REMARK VINA RESULT:     -11.9      1.011      1.569
REMARK SMILES Cc1sc(C(=O)NCCCNC(=O)c2ccc(-c3c4nc(c(-c5c(F)cccc5F)c5ccc([nH]5)c(-c5c(F)cccc5F)c5nc(c(-c6c(F)cccc6F)c6ccc3[nH]6)C=C5)C=C4)cc2)cc1S(=O)(=O)N1C[C@@H](C)[C@H](C)C1
REMARK SMILES IDX 9 1 8 2 7 3 5 4 6 5 4 7 1 8 2 9 3 10 69 11 68 12 70 13 71 14
REMARK SMILES IDX 72 15 73 16 74 17 79 18 75 19 77 20 76 21 78 22 10 23 11 24
REMARK SMILES IDX 12 25 13 27 14 28 15 29 67 30 16 31 66 32 17 33 18 34 19 35
REMARK SMILES IDX 60 36 20 37 65 38 59 39 61 40 21 41 64 42 58 43 57 44 22 46
REMARK SMILES IDX 48 47 31 48 47 49 32 50 35 51 46 52 62 53 33 54 34 55 45 57
REMARK SMILES IDX 63 58 36 59 23 60 24 61 29 62 25 63 26 64 28 65 30 66 27 67
REMARK SMILES IDX 49 68 50 69 55 70 51 71 52 72 54 73 56 74 53 75 37 76 38 77
REMARK SMILES IDX 43 78 39 79 40 80 42 81 44 82 41 83
REMARK H PARENT 7 6 11 26 61 45 35 56
REMARK Flexibility Score: inf
ROOT
ATOM      1  C   UNL A   1      37.306  19.520  24.972  1.00  0.00     0.042 C 
ENDROOT
BRANCH   1   2
ATOM      2  C   UNL A   1      36.062  20.404  25.019  1.00  0.00     0.118 C 
BRANCH   2   3
ATOM      3  N   UNL A   1      34.866  19.596  25.109  1.00  0.00    -0.351 N 
ATOM      4  C   UNL A   1      33.535  19.922  25.095  1.00  0.00     0.261 C 
ATOM      5  O   UNL A   1      32.766  18.967  25.234  1.00  0.00    -0.268 OA
ATOM      6  H   UNL A   1      35.040  18.630  25.199  1.00  0.00     0.163 HD
BRANCH   4   7
ATOM      7  C   UNL A   1      33.088  21.291  24.886  1.00  0.00     0.093 A 
ATOM      8  C   UNL A   1      32.429  24.390  22.587  1.00  0.00     0.058 C 
ATOM      9  C   UNL A   1      32.599  23.448  23.716  1.00  0.00     0.022 A 
ATOM     10  S   UNL A   1      33.011  21.841  23.266  1.00  0.00    -0.134 S 
ATOM     11  C   UNL A   1      32.495  23.569  25.089  1.00  0.00     0.097 A 
ATOM     12  C   UNL A   1      32.681  22.298  25.737  1.00  0.00     0.047 A 
BRANCH  11  13
ATOM     13  S   UNL A   1      32.218  24.976  26.086  1.00  0.00     0.244 S 
ATOM     14  O   UNL A   1      31.540  24.417  27.237  1.00  0.00    -0.207 OA
ATOM     15  O   UNL A   1      33.548  25.539  26.199  1.00  0.00    -0.207 OA
BRANCH  13  16
ATOM     16  N   UNL A   1      31.231  26.122  25.413  1.00  0.00    -0.197 NA
ATOM     17  C   UNL A   1      31.743  27.381  24.878  1.00  0.00     0.106 C 
ATOM     18  C   UNL A   1      29.879  25.815  24.963  1.00  0.00     0.106 C 
ATOM     19  C   UNL A   1      30.602  27.940  24.017  1.00  0.00     0.005 C 
ATOM     20  C   UNL A   1      29.638  26.759  23.787  1.00  0.00     0.005 C 
ATOM     21  C   UNL A   1      31.120  28.524  22.705  1.00  0.00     0.009 C 
ATOM     22  C   UNL A   1      28.182  27.191  23.690  1.00  0.00     0.009 C 
ENDBRANCH  13  16
ENDBRANCH  11  13
ENDBRANCH   4   7
ENDBRANCH   2   3
ENDBRANCH   1   2
BRANCH   1  23
ATOM     23  C   UNL A   1      38.568  20.265  25.402  1.00  0.00     0.118 C 
BRANCH  23  24
ATOM     24  N   UNL A   1      39.668  19.347  25.669  1.00  0.00    -0.352 N 
ATOM     25  C   UNL A   1      40.963  19.603  26.029  1.00  0.00     0.251 C 
ATOM     26  H   UNL A   1      39.445  18.393  25.575  1.00  0.00     0.163 HD
ATOM     27  O   UNL A   1      41.808  18.720  25.921  1.00  0.00    -0.269 OA
BRANCH  25  28
ATOM     28  C   UNL A   1      41.341  20.926  26.562  1.00  0.00     0.039 A 
ATOM     29  C   UNL A   1      41.144  21.185  27.920  1.00  0.00     0.014 A 
ATOM     30  C   UNL A   1      41.822  21.928  25.715  1.00  0.00     0.014 A 
ATOM     31  C   UNL A   1      41.453  22.444  28.432  1.00  0.00     0.010 A 
ATOM     32  C   UNL A   1      42.216  23.151  26.244  1.00  0.00     0.010 A 
ATOM     33  C   UNL A   1      42.011  23.430  27.601  1.00  0.00    -0.014 A 
BRANCH  33  34
ATOM     34  C   UNL A   1      42.355  24.769  28.135  1.00  0.00     0.031 A 
ATOM     35  C   UNL A   1      43.775  25.087  28.518  1.00  0.00     0.074 A 
ATOM     36  C   UNL A   1      41.380  25.680  28.312  1.00  0.00     0.049 A 
ATOM     37  N   UNL A   1      44.267  26.188  29.027  1.00  0.00    -0.248 NA
ATOM     38  C   UNL A   1      44.770  24.018  28.331  1.00  0.00     0.031 C 
ATOM     39  C   UNL A   1      39.961  25.466  28.024  1.00  0.00     0.029 A 
ATOM     40  N   UNL A   1      41.436  26.968  28.776  1.00  0.00    -0.354 N 
ATOM     41  C   UNL A   1      45.618  25.939  29.230  1.00  0.00     0.074 A 
ATOM     42  C   UNL A   1      45.858  24.563  28.852  1.00  0.00     0.031 C 
ATOM     43  C   UNL A   1      39.285  26.595  28.286  1.00  0.00     0.029 A 
ATOM     44  C   UNL A   1      40.214  27.596  28.798  1.00  0.00     0.049 A 
ATOM     45  H   UNL A   1      42.270  27.402  29.067  1.00  0.00     0.167 HD
ATOM     46  C   UNL A   1      46.579  26.787  29.668  1.00  0.00     0.037 A 
ATOM     47  C   UNL A   1      39.884  28.840  29.190  1.00  0.00     0.037 A 
ATOM     48  C   UNL A   1      46.334  28.160  30.024  1.00  0.00     0.049 A 
ATOM     49  C   UNL A   1      40.968  29.762  29.674  1.00  0.00     0.074 A 
ATOM     50  C   UNL A   1      47.243  29.121  30.431  1.00  0.00     0.029 A 
ATOM     51  N   UNL A   1      45.086  28.766  30.021  1.00  0.00    -0.354 N 
ATOM     52  N   UNL A   1      42.254  29.537  29.797  1.00  0.00    -0.248 NA
ATOM     53  C   UNL A   1      40.556  31.117  30.063  1.00  0.00     0.031 C 
ATOM     54  C   UNL A   1      46.537  30.292  30.724  1.00  0.00     0.029 A 
ATOM     55  C   UNL A   1      45.198  30.082  30.439  1.00  0.00     0.049 A 
ATOM     56  H   UNL A   1      44.245  28.325  29.760  1.00  0.00     0.167 HD
ATOM     57  C   UNL A   1      42.809  30.729  30.244  1.00  0.00     0.074 A 
ATOM     58  C   UNL A   1      41.721  31.678  30.354  1.00  0.00     0.031 C 
ATOM     59  C   UNL A   1      44.102  31.014  30.536  1.00  0.00     0.037 A 
BRANCH  46  60
ATOM     60  C   UNL A   1      47.978  26.252  29.781  1.00  0.00     0.057 A 
ATOM     61  C   UNL A   1      48.474  25.714  30.977  1.00  0.00     0.134 A 
ATOM     62  C   UNL A   1      48.835  26.249  28.672  1.00  0.00     0.134 A 
ATOM     63  F   UNL A   1      47.713  25.698  32.082  1.00  0.00    -0.206 F 
ATOM     64  C   UNL A   1      49.778  25.223  31.075  1.00  0.00     0.040 A 
ATOM     65  C   UNL A   1      50.130  25.731  28.749  1.00  0.00     0.040 A 
ATOM     66  F   UNL A   1      48.427  26.742  27.493  1.00  0.00    -0.206 F 
ATOM     67  C   UNL A   1      50.607  25.224  29.955  1.00  0.00     0.006 A 
ENDBRANCH  46  60
BRANCH  47  68
ATOM     68  C   UNL A   1      38.472  29.296  29.111  1.00  0.00     0.057 A 
ATOM     69  C   UNL A   1      37.934  29.781  27.915  1.00  0.00     0.134 A 
ATOM     70  C   UNL A   1      37.631  29.264  30.230  1.00  0.00     0.134 A 
ATOM     71  F   UNL A   1      38.694  29.850  26.811  1.00  0.00    -0.206 F 
ATOM     72  C   UNL A   1      36.619  30.243  27.836  1.00  0.00     0.040 A 
ATOM     73  C   UNL A   1      36.305  29.695  30.160  1.00  0.00     0.040 A 
ATOM     74  F   UNL A   1      38.082  28.799  31.405  1.00  0.00    -0.206 F 
ATOM     75  C   UNL A   1      35.799  30.196  28.963  1.00  0.00     0.006 A 
ENDBRANCH  47  68
BRANCH  59  76
ATOM     76  C   UNL A   1      44.413  32.422  30.956  1.00  0.00     0.057 A 
ATOM     77  C   UNL A   1      44.718  33.427  30.030  1.00  0.00     0.134 A 
ATOM     78  C   UNL A   1      44.387  32.779  32.311  1.00  0.00     0.134 A 
ATOM     79  F   UNL A   1      44.771  33.150  28.718  1.00  0.00    -0.206 F 
ATOM     80  C   UNL A   1      45.020  34.728  30.437  1.00  0.00     0.040 A 
ATOM     81  C   UNL A   1      44.654  34.083  32.728  1.00  0.00     0.040 A 
ATOM     82  F   UNL A   1      44.091  31.868  33.250  1.00  0.00    -0.206 F 
ATOM     83  C   UNL A   1      44.983  35.060  31.791  1.00  0.00     0.006 A 
ENDBRANCH  59  76
ENDBRANCH  33  34
ENDBRANCH  25  28
ENDBRANCH  23  24
ENDBRANCH   1  23
TORSDOF 12
ENDMDL
