MODEL 1
REMARK VINA RESULT:     -13.1      0.000      0.000
REMARK SMILES O=C(NCCCNC(=O)[C@H]1CC=CC[C@@H]1C(=O)N[C@@H]1CCCN(c2ccccc2F)C1=O)c1ccc(-c2c3nc(c(-c4c(F)cccc4F)c4ccc([nH]4)c(-c4c(F)cccc4F)c4nc(c(-c5c(F)cccc5F)c5ccc2[nH]5)C=C4)C=C3)cc1
REMARK SMILES IDX 5 1 4 2 3 3 1 4 2 5 33 7 34 8 86 9 35 10 85 11 36 12 37 13
REMARK SMILES IDX 38 14 79 15 39 16 84 17 78 18 80 19 40 20 83 21 77 22 76 23
REMARK SMILES IDX 41 25 67 26 50 27 66 28 51 29 54 30 65 31 81 32 52 33 53 34
REMARK SMILES IDX 64 36 82 37 55 38 42 39 43 40 48 41 44 42 45 43 47 44 49 45
REMARK SMILES IDX 46 46 68 47 69 48 74 49 70 50 71 51 73 52 75 53 72 54 56 55
REMARK SMILES IDX 57 56 62 57 58 58 59 59 61 60 63 61 60 62 6 63 7 64 8 65
REMARK SMILES IDX 9 67 10 68 11 69 15 70 12 71 14 72 13 73 16 74 17 75 18 76
REMARK SMILES IDX 19 78 20 79 31 80 21 81 23 82 32 83 22 84 24 85 25 86 29 87
REMARK SMILES IDX 26 88 28 89 30 90 27 91
REMARK H PARENT 3 6 80 24 54 35 7 66 18 77
REMARK Flexibility Score: inf
ROOT
ATOM      1  C   UNL A   1      33.799  31.076  27.382  1.00  0.00     0.042 C 
ENDROOT
BRANCH   1   2
ATOM      2  C   UNL A   1      34.889  31.977  28.007  1.00  0.00     0.118 C 
BRANCH   2   3
ATOM      3  N   UNL A   1      35.070  31.794  29.456  1.00  0.00    -0.352 N 
ATOM      4  O   UNL A   1      35.703  31.200  31.499  1.00  0.00    -0.269 OA
ATOM      5  C   UNL A   1      35.980  31.175  30.286  1.00  0.00     0.251 C 
ATOM      6  H   UNL A   1      34.351  32.228  29.968  1.00  0.00     0.163 HD
BRANCH   5   7
ATOM      7  C   UNL A   1      37.241  30.472  29.887  1.00  0.00     0.039 A 
ATOM      8  C   UNL A   1      37.733  30.410  28.588  1.00  0.00     0.014 A 
ATOM      9  C   UNL A   1      38.039  29.900  30.905  1.00  0.00     0.014 A 
ATOM     10  C   UNL A   1      38.918  29.708  28.298  1.00  0.00     0.010 A 
ATOM     11  C   UNL A   1      39.262  29.251  30.628  1.00  0.00     0.010 A 
ATOM     12  C   UNL A   1      39.717  29.141  29.311  1.00  0.00    -0.014 A 
BRANCH  12  13
ATOM     13  C   UNL A   1      41.078  28.622  28.970  1.00  0.00     0.031 A 
ATOM     14  C   UNL A   1      41.351  27.195  28.559  1.00  0.00     0.074 A 
ATOM     15  C   UNL A   1      42.106  29.498  29.000  1.00  0.00     0.049 A 
ATOM     16  N   UNL A   1      42.482  26.654  28.174  1.00  0.00    -0.248 NA
ATOM     17  C   UNL A   1      40.223  26.254  28.582  1.00  0.00     0.031 C 
ATOM     18  C   UNL A   1      41.991  30.901  29.405  1.00  0.00     0.029 A 
ATOM     19  N   UNL A   1      43.429  29.362  28.661  1.00  0.00    -0.354 N 
ATOM     20  C   UNL A   1      42.206  25.318  27.902  1.00  0.00     0.074 A 
ATOM     21  C   UNL A   1      40.799  25.123  28.187  1.00  0.00     0.031 C 
ATOM     22  C   UNL A   1      43.168  31.511  29.224  1.00  0.00     0.029 A 
ATOM     23  C   UNL A   1      44.146  30.531  28.768  1.00  0.00     0.049 A 
ATOM     24  H   UNL A   1      43.826  28.510  28.368  1.00  0.00     0.167 HD
ATOM     25  C   UNL A   1      43.046  24.350  27.455  1.00  0.00     0.037 A 
ATOM     26  C   UNL A   1      45.448  30.796  28.549  1.00  0.00     0.037 A 
ATOM     27  C   UNL A   1      44.450  24.542  27.173  1.00  0.00     0.049 A 
ATOM     28  C   UNL A   1      46.358  29.694  28.097  1.00  0.00     0.074 A 
ATOM     29  C   UNL A   1      45.363  23.619  26.685  1.00  0.00     0.029 A 
ATOM     30  N   UNL A   1      45.148  25.726  27.356  1.00  0.00    -0.354 N 
ATOM     31  N   UNL A   1      46.066  28.449  27.813  1.00  0.00    -0.248 NA
ATOM     32  C   UNL A   1      47.781  30.028  27.944  1.00  0.00     0.031 C 
ATOM     33  C   UNL A   1      46.619  24.225  26.627  1.00  0.00     0.029 A 
ATOM     34  C   UNL A   1      46.482  25.546  27.020  1.00  0.00     0.049 A 
ATOM     35  H   UNL A   1      44.755  26.569  27.677  1.00  0.00     0.167 HD
ATOM     36  C   UNL A   1      47.263  27.854  27.441  1.00  0.00     0.074 A 
ATOM     37  C   UNL A   1      48.281  28.882  27.504  1.00  0.00     0.031 C 
ATOM     38  C   UNL A   1      47.496  26.567  27.090  1.00  0.00     0.037 A 
BRANCH  25  39
ATOM     39  C   UNL A   1      42.497  22.967  27.225  1.00  0.00     0.057 A 
ATOM     40  C   UNL A   1      42.223  22.512  25.927  1.00  0.00     0.134 A 
ATOM     41  C   UNL A   1      42.092  22.151  28.290  1.00  0.00     0.134 A 
ATOM     42  F   UNL A   1      42.564  23.250  24.861  1.00  0.00    -0.206 F 
ATOM     43  C   UNL A   1      41.544  21.312  25.698  1.00  0.00     0.040 A 
ATOM     44  C   UNL A   1      41.433  20.938  28.073  1.00  0.00     0.040 A 
ATOM     45  F   UNL A   1      42.320  22.527  29.557  1.00  0.00    -0.206 F 
ATOM     46  C   UNL A   1      41.144  20.523  26.774  1.00  0.00     0.006 A 
ENDBRANCH  25  39
BRANCH  26  47
ATOM     47  C   UNL A   1      45.966  32.171  28.772  1.00  0.00     0.057 A 
ATOM     48  C   UNL A   1      46.015  33.108  27.731  1.00  0.00     0.134 A 
ATOM     49  C   UNL A   1      46.442  32.574  30.024  1.00  0.00     0.134 A 
ATOM     50  F   UNL A   1      45.580  32.782  26.505  1.00  0.00    -0.206 F 
ATOM     51  C   UNL A   1      46.543  34.385  27.920  1.00  0.00     0.040 A 
ATOM     52  C   UNL A   1      46.941  33.860  30.235  1.00  0.00     0.040 A 
ATOM     53  F   UNL A   1      46.402  31.730  31.066  1.00  0.00    -0.206 F 
ATOM     54  C   UNL A   1      47.002  34.766  29.178  1.00  0.00     0.006 A 
ENDBRANCH  26  47
BRANCH  38  55
ATOM     55  C   UNL A   1      48.906  26.193  26.734  1.00  0.00     0.057 A 
ATOM     56  C   UNL A   1      49.768  25.642  27.692  1.00  0.00     0.134 A 
ATOM     57  C   UNL A   1      49.425  26.415  25.451  1.00  0.00     0.134 A 
ATOM     58  F   UNL A   1      49.338  25.410  28.942  1.00  0.00    -0.206 F 
ATOM     59  C   UNL A   1      51.095  25.334  27.391  1.00  0.00     0.040 A 
ATOM     60  C   UNL A   1      50.743  26.083  25.130  1.00  0.00     0.040 A 
ATOM     61  F   UNL A   1      48.650  26.926  24.483  1.00  0.00    -0.206 F 
ATOM     62  C   UNL A   1      51.583  25.549  26.104  1.00  0.00     0.006 A 
ENDBRANCH  38  55
ENDBRANCH  12  13
ENDBRANCH   5   7
ENDBRANCH   2   3
ENDBRANCH   1   2
BRANCH   1  63
ATOM     63  C   UNL A   1      33.971  29.533  27.512  1.00  0.00     0.117 C 
BRANCH  63  64
ATOM     64  N   UNL A   1      32.698  28.779  27.645  1.00  0.00    -0.356 N 
ATOM     65  C   UNL A   1      31.819  28.027  26.922  1.00  0.00     0.224 C 
ATOM     66  H   UNL A   1      32.380  28.843  28.574  1.00  0.00     0.163 HD
ATOM     67  O   UNL A   1      31.008  27.434  27.659  1.00  0.00    -0.275 OA
BRANCH  65  68
ATOM     68  C   UNL A   1      31.588  27.864  25.372  1.00  0.00     0.095 C 
ATOM     69  C   UNL A   1      32.272  29.114  24.683  1.00  0.00     0.041 C 
ATOM     70  C   UNL A   1      31.967  26.518  24.718  1.00  0.00     0.095 C 
ATOM     71  C   UNL A   1      33.421  28.814  23.770  1.00  0.00    -0.030 C 
ATOM     72  C   UNL A   1      33.445  26.585  24.745  1.00  0.00     0.041 C 
ATOM     73  C   UNL A   1      33.947  27.592  23.752  1.00  0.00    -0.030 C 
BRANCH  70  74
ATOM     74  C   UNL A   1      31.613  26.226  23.232  1.00  0.00     0.224 C 
ATOM     75  O   UNL A   1      31.092  27.092  22.525  1.00  0.00    -0.275 OA
ATOM     76  N   UNL A   1      31.873  24.988  22.648  1.00  0.00    -0.344 N 
ATOM     77  H   UNL A   1      31.781  25.024  21.669  1.00  0.00     0.164 HD
BRANCH  76  78
ATOM     78  C   UNL A   1      32.261  23.595  23.124  1.00  0.00     0.172 C 
ATOM     79  C   UNL A   1      31.251  23.101  24.159  1.00  0.00     0.037 C 
ATOM     80  C   UNL A   1      33.799  23.157  23.392  1.00  0.00     0.249 C 
ATOM     81  C   UNL A   1      31.809  22.002  25.046  1.00  0.00     0.025 C 
ATOM     82  N   UNL A   1      34.156  22.763  24.705  1.00  0.00    -0.308 N 
ATOM     83  O   UNL A   1      34.622  23.202  22.474  1.00  0.00    -0.272 OA
ATOM     84  C   UNL A   1      33.121  22.434  25.691  1.00  0.00     0.126 C 
BRANCH  82  85
ATOM     85  C   UNL A   1      35.540  22.805  25.175  1.00  0.00     0.080 A 
ATOM     86  C   UNL A   1      36.092  24.013  25.592  1.00  0.00     0.029 A 
ATOM     87  C   UNL A   1      36.447  21.722  25.162  1.00  0.00     0.146 A 
ATOM     88  C   UNL A   1      37.430  24.087  26.033  1.00  0.00     0.002 A 
ATOM     89  C   UNL A   1      37.776  21.785  25.563  1.00  0.00     0.041 A 
ATOM     90  F   UNL A   1      36.198  20.575  24.565  1.00  0.00    -0.205 F 
ATOM     91  C   UNL A   1      38.269  22.974  26.023  1.00  0.00     0.003 A 
ENDBRANCH  82  85
ENDBRANCH  76  78
ENDBRANCH  70  74
ENDBRANCH  65  68
ENDBRANCH  63  64
ENDBRANCH   1  63
TORSDOF 13
ENDMDL
MODEL 2
REMARK VINA RESULT:     -13.1      4.781      9.890
REMARK SMILES O=C(NCCCNC(=O)[C@H]1CC=CC[C@@H]1C(=O)N[C@@H]1CCCN(c2ccccc2F)C1=O)c1ccc(-c2c3nc(c(-c4c(F)cccc4F)c4ccc([nH]4)c(-c4c(F)cccc4F)c4nc(c(-c5c(F)cccc5F)c5ccc2[nH]5)C=C4)C=C3)cc1
REMARK SMILES IDX 5 1 4 2 3 3 1 4 2 5 33 7 34 8 86 9 35 10 85 11 36 12 37 13
REMARK SMILES IDX 38 14 79 15 39 16 84 17 78 18 80 19 40 20 83 21 77 22 76 23
REMARK SMILES IDX 41 25 67 26 50 27 66 28 51 29 54 30 65 31 81 32 52 33 53 34
REMARK SMILES IDX 64 36 82 37 55 38 42 39 43 40 48 41 44 42 45 43 47 44 49 45
REMARK SMILES IDX 46 46 68 47 69 48 74 49 70 50 71 51 73 52 75 53 72 54 56 55
REMARK SMILES IDX 57 56 62 57 58 58 59 59 61 60 63 61 60 62 6 63 7 64 8 65
REMARK SMILES IDX 9 67 10 68 11 69 15 70 12 71 14 72 13 73 16 74 17 75 18 76
REMARK SMILES IDX 19 78 20 79 31 80 21 81 23 82 32 83 22 84 24 85 25 86 29 87
REMARK SMILES IDX 26 88 28 89 30 90 27 91
REMARK H PARENT 3 6 80 24 54 35 7 66 18 77
REMARK Flexibility Score: inf
ROOT
ATOM      1  C   UNL A   1      38.968  21.850  26.125  1.00  0.00     0.042 C 
ENDROOT
BRANCH   1   2
ATOM      2  C   UNL A   1      40.261  22.144  26.919  1.00  0.00     0.118 C 
BRANCH   2   3
ATOM      3  N   UNL A   1      41.269  22.916  26.174  1.00  0.00    -0.352 N 
ATOM      4  O   UNL A   1      42.585  24.469  25.292  1.00  0.00    -0.269 OA
ATOM      5  C   UNL A   1      41.752  24.206  26.177  1.00  0.00     0.251 C 
ATOM      6  H   UNL A   1      41.715  22.365  25.491  1.00  0.00     0.163 HD
BRANCH   5   7
ATOM      7  C   UNL A   1      41.374  25.314  27.111  1.00  0.00     0.039 A 
ATOM      8  C   UNL A   1      40.359  25.237  28.059  1.00  0.00     0.014 A 
ATOM      9  C   UNL A   1      42.150  26.497  27.096  1.00  0.00     0.014 A 
ATOM     10  C   UNL A   1      40.056  26.336  28.883  1.00  0.00     0.010 A 
ATOM     11  C   UNL A   1      41.892  27.579  27.966  1.00  0.00     0.010 A 
ATOM     12  C   UNL A   1      40.830  27.514  28.873  1.00  0.00    -0.014 A 
BRANCH  12  13
ATOM     13  C   UNL A   1      40.614  28.547  29.933  1.00  0.00     0.031 A 
ATOM     14  C   UNL A   1      39.550  29.615  29.854  1.00  0.00     0.074 A 
ATOM     15  C   UNL A   1      41.394  28.486  31.033  1.00  0.00     0.049 A 
ATOM     16  N   UNL A   1      39.226  30.519  30.749  1.00  0.00    -0.248 NA
ATOM     17  C   UNL A   1      38.748  29.687  28.626  1.00  0.00     0.031 C 
ATOM     18  C   UNL A   1      42.480  27.522  31.231  1.00  0.00     0.029 A 
ATOM     19  N   UNL A   1      41.386  29.213  32.198  1.00  0.00    -0.354 N 
ATOM     20  C   UNL A   1      38.184  31.260  30.200  1.00  0.00     0.074 A 
ATOM     21  C   UNL A   1      37.941  30.712  28.881  1.00  0.00     0.031 C 
ATOM     22  C   UNL A   1      42.981  27.669  32.463  1.00  0.00     0.029 A 
ATOM     23  C   UNL A   1      42.315  28.787  33.118  1.00  0.00     0.049 A 
ATOM     24  H   UNL A   1      40.773  29.967  32.359  1.00  0.00     0.167 HD
ATOM     25  C   UNL A   1      37.497  32.295  30.746  1.00  0.00     0.037 A 
ATOM     26  C   UNL A   1      42.623  29.248  34.346  1.00  0.00     0.037 A 
ATOM     27  C   UNL A   1      37.740  32.844  32.060  1.00  0.00     0.049 A 
ATOM     28  C   UNL A   1      41.873  30.420  34.902  1.00  0.00     0.074 A 
ATOM     29  C   UNL A   1      37.064  33.872  32.700  1.00  0.00     0.029 A 
ATOM     30  N   UNL A   1      38.733  32.423  32.932  1.00  0.00    -0.354 N 
ATOM     31  N   UNL A   1      40.870  31.079  34.379  1.00  0.00    -0.248 NA
ATOM     32  C   UNL A   1      42.303  30.920  36.215  1.00  0.00     0.031 C 
ATOM     33  C   UNL A   1      37.681  34.111  33.930  1.00  0.00     0.029 A 
ATOM     34  C   UNL A   1      38.704  33.191  34.087  1.00  0.00     0.049 A 
ATOM     35  H   UNL A   1      39.364  31.688  32.756  1.00  0.00     0.167 HD
ATOM     36  C   UNL A   1      40.543  32.065  35.299  1.00  0.00     0.074 A 
ATOM     37  C   UNL A   1      41.434  31.898  36.429  1.00  0.00     0.031 C 
ATOM     38  C   UNL A   1      39.596  33.029  35.208  1.00  0.00     0.037 A 
BRANCH  25  39
ATOM     39  C   UNL A   1      36.392  32.931  29.944  1.00  0.00     0.057 A 
ATOM     40  C   UNL A   1      35.051  32.593  30.179  1.00  0.00     0.134 A 
ATOM     41  C   UNL A   1      36.664  33.753  28.843  1.00  0.00     0.134 A 
ATOM     42  F   UNL A   1      34.720  31.795  31.204  1.00  0.00    -0.206 F 
ATOM     43  C   UNL A   1      34.027  33.024  29.332  1.00  0.00     0.040 A 
ATOM     44  C   UNL A   1      35.645  34.210  28.002  1.00  0.00     0.040 A 
ATOM     45  F   UNL A   1      37.925  34.113  28.560  1.00  0.00    -0.206 F 
ATOM     46  C   UNL A   1      34.324  33.833  28.237  1.00  0.00     0.006 A 
ENDBRANCH  25  39
BRANCH  26  47
ATOM     47  C   UNL A   1      43.709  28.597  35.122  1.00  0.00     0.057 A 
ATOM     48  C   UNL A   1      45.049  28.975  34.960  1.00  0.00     0.134 A 
ATOM     49  C   UNL A   1      43.438  27.567  36.030  1.00  0.00     0.134 A 
ATOM     50  F   UNL A   1      45.377  29.952  34.102  1.00  0.00    -0.206 F 
ATOM     51  C   UNL A   1      46.079  28.337  35.650  1.00  0.00     0.040 A 
ATOM     52  C   UNL A   1      44.456  26.943  36.752  1.00  0.00     0.040 A 
ATOM     53  F   UNL A   1      42.174  27.172  36.245  1.00  0.00    -0.206 F 
ATOM     54  C   UNL A   1      45.782  27.321  36.554  1.00  0.00     0.006 A 
ENDBRANCH  26  47
BRANCH  38  55
ATOM     55  C   UNL A   1      39.461  33.976  36.365  1.00  0.00     0.057 A 
ATOM     56  C   UNL A   1      40.119  35.213  36.362  1.00  0.00     0.134 A 
ATOM     57  C   UNL A   1      38.711  33.648  37.502  1.00  0.00     0.134 A 
ATOM     58  F   UNL A   1      40.861  35.588  35.308  1.00  0.00    -0.206 F 
ATOM     59  C   UNL A   1      40.044  36.084  37.450  1.00  0.00     0.040 A 
ATOM     60  C   UNL A   1      38.603  34.524  38.584  1.00  0.00     0.040 A 
ATOM     61  F   UNL A   1      38.043  32.486  37.564  1.00  0.00    -0.206 F 
ATOM     62  C   UNL A   1      39.279  35.742  38.562  1.00  0.00     0.006 A 
ENDBRANCH  38  55
ENDBRANCH  12  13
ENDBRANCH   5   7
ENDBRANCH   2   3
ENDBRANCH   1   2
BRANCH   1  63
ATOM     63  C   UNL A   1      38.068  23.060  25.731  1.00  0.00     0.117 C 
BRANCH  63  64
ATOM     64  N   UNL A   1      37.403  22.929  24.409  1.00  0.00    -0.356 N 
ATOM     65  C   UNL A   1      36.178  22.726  23.843  1.00  0.00     0.224 C 
ATOM     66  H   UNL A   1      38.076  23.022  23.698  1.00  0.00     0.163 HD
ATOM     67  O   UNL A   1      36.196  22.953  22.618  1.00  0.00    -0.275 OA
BRANCH  65  68
ATOM     68  C   UNL A   1      34.822  22.172  24.422  1.00  0.00     0.095 C 
ATOM     69  C   UNL A   1      35.168  21.499  25.811  1.00  0.00     0.041 C 
ATOM     70  C   UNL A   1      33.614  23.132  24.489  1.00  0.00     0.095 C 
ATOM     71  C   UNL A   1      34.545  22.127  27.020  1.00  0.00    -0.030 C 
ATOM     72  C   UNL A   1      34.013  24.028  25.598  1.00  0.00     0.041 C 
ATOM     73  C   UNL A   1      33.940  23.306  26.913  1.00  0.00    -0.030 C 
BRANCH  70  74
ATOM     74  C   UNL A   1      32.204  22.614  24.889  1.00  0.00     0.224 C 
ATOM     75  O   UNL A   1      32.032  21.436  25.211  1.00  0.00    -0.275 OA
ATOM     76  N   UNL A   1      31.092  23.454  24.904  1.00  0.00    -0.344 N 
ATOM     77  H   UNL A   1      30.329  23.036  25.364  1.00  0.00     0.164 HD
BRANCH  76  78
ATOM     78  C   UNL A   1      30.746  24.846  24.395  1.00  0.00     0.172 C 
ATOM     79  C   UNL A   1      31.057  24.944  22.901  1.00  0.00     0.037 C 
ATOM     80  C   UNL A   1      31.037  26.190  25.253  1.00  0.00     0.249 C 
ATOM     81  C   UNL A   1      31.240  26.377  22.432  1.00  0.00     0.025 C 
ATOM     82  N   UNL A   1      31.920  27.151  24.701  1.00  0.00    -0.308 N 
ATOM     83  O   UNL A   1      30.519  26.338  26.363  1.00  0.00    -0.272 OA
ATOM     84  C   UNL A   1      32.281  27.099  23.280  1.00  0.00     0.126 C 
BRANCH  82  85
ATOM     85  C   UNL A   1      32.614  28.132  25.533  1.00  0.00     0.080 A 
ATOM     86  C   UNL A   1      33.734  27.748  26.265  1.00  0.00     0.029 A 
ATOM     87  C   UNL A   1      32.196  29.463  25.759  1.00  0.00     0.146 A 
ATOM     88  C   UNL A   1      34.413  28.669  27.091  1.00  0.00     0.002 A 
ATOM     89  C   UNL A   1      32.834  30.372  26.594  1.00  0.00     0.041 A 
ATOM     90  F   UNL A   1      31.029  29.932  25.372  1.00  0.00    -0.205 F 
ATOM     91  C   UNL A   1      33.967  29.979  27.252  1.00  0.00     0.003 A 
ENDBRANCH  82  85
ENDBRANCH  76  78
ENDBRANCH  70  74
ENDBRANCH  65  68
ENDBRANCH  63  64
ENDBRANCH   1  63
TORSDOF 13
ENDMDL
MODEL 3
REMARK VINA RESULT:     -12.7      0.729      5.968
REMARK SMILES O=C(NCCCNC(=O)[C@H]1CC=CC[C@@H]1C(=O)N[C@@H]1CCCN(c2ccccc2F)C1=O)c1ccc(-c2c3nc(c(-c4c(F)cccc4F)c4ccc([nH]4)c(-c4c(F)cccc4F)c4nc(c(-c5c(F)cccc5F)c5ccc2[nH]5)C=C4)C=C3)cc1
REMARK SMILES IDX 5 1 4 2 3 3 1 4 2 5 33 7 34 8 86 9 35 10 85 11 36 12 37 13
REMARK SMILES IDX 38 14 79 15 39 16 84 17 78 18 80 19 40 20 83 21 77 22 76 23
REMARK SMILES IDX 41 25 67 26 50 27 66 28 51 29 54 30 65 31 81 32 52 33 53 34
REMARK SMILES IDX 64 36 82 37 55 38 42 39 43 40 48 41 44 42 45 43 47 44 49 45
REMARK SMILES IDX 46 46 68 47 69 48 74 49 70 50 71 51 73 52 75 53 72 54 56 55
REMARK SMILES IDX 57 56 62 57 58 58 59 59 61 60 63 61 60 62 6 63 7 64 8 65
REMARK SMILES IDX 9 67 10 68 11 69 15 70 12 71 14 72 13 73 16 74 17 75 18 76
REMARK SMILES IDX 19 78 20 79 31 80 21 81 23 82 32 83 22 84 24 85 25 86 29 87
REMARK SMILES IDX 26 88 28 89 30 90 27 91
REMARK H PARENT 3 6 80 24 54 35 7 66 18 77
REMARK Flexibility Score: inf
ROOT
ATOM      1  C   UNL A   1      34.102  31.178  27.596  1.00  0.00     0.042 C 
ENDROOT
BRANCH   1   2
ATOM      2  C   UNL A   1      35.179  31.879  28.457  1.00  0.00     0.118 C 
BRANCH   2   3
ATOM      3  N   UNL A   1      35.314  31.337  29.819  1.00  0.00    -0.352 N 
ATOM      4  O   UNL A   1      35.897  30.264  31.672  1.00  0.00    -0.269 OA
ATOM      5  C   UNL A   1      36.220  30.562  30.508  1.00  0.00     0.251 C 
ATOM      6  H   UNL A   1      34.554  31.598  30.389  1.00  0.00     0.163 HD
BRANCH   5   7
ATOM      7  C   UNL A   1      37.529  30.034  30.006  1.00  0.00     0.039 A 
ATOM      8  C   UNL A   1      37.929  30.050  28.674  1.00  0.00     0.014 A 
ATOM      9  C   UNL A   1      38.467  29.561  30.953  1.00  0.00     0.014 A 
ATOM     10  C   UNL A   1      39.170  29.513  28.287  1.00  0.00     0.010 A 
ATOM     11  C   UNL A   1      39.741  29.080  30.576  1.00  0.00     0.010 A 
ATOM     12  C   UNL A   1      40.108  29.044  29.228  1.00  0.00    -0.014 A 
BRANCH  12  13
ATOM     13  C   UNL A   1      41.497  28.712  28.781  1.00  0.00     0.031 A 
ATOM     14  C   UNL A   1      42.640  29.697  28.803  1.00  0.00     0.074 A 
ATOM     15  C   UNL A   1      41.735  27.447  28.373  1.00  0.00     0.049 A 
ATOM     16  N   UNL A   1      43.903  29.497  28.505  1.00  0.00    -0.248 NA
ATOM     17  C   UNL A   1      42.341  31.078  29.207  1.00  0.00     0.031 C 
ATOM     18  C   UNL A   1      40.717  26.398  28.275  1.00  0.00     0.029 A 
ATOM     19  N   UNL A   1      42.894  26.815  27.996  1.00  0.00    -0.354 N 
ATOM     20  C   UNL A   1      44.548  30.715  28.689  1.00  0.00     0.074 A 
ATOM     21  C   UNL A   1      43.532  31.659  29.107  1.00  0.00     0.031 C 
ATOM     22  C   UNL A   1      41.304  25.244  27.938  1.00  0.00     0.029 A 
ATOM     23  C   UNL A   1      42.724  25.479  27.714  1.00  0.00     0.049 A 
ATOM     24  H   UNL A   1      43.764  27.273  27.935  1.00  0.00     0.167 HD
ATOM     25  C   UNL A   1      45.862  31.014  28.527  1.00  0.00     0.037 A 
ATOM     26  C   UNL A   1      43.599  24.542  27.300  1.00  0.00     0.037 A 
ATOM     27  C   UNL A   1      46.875  30.075  28.108  1.00  0.00     0.049 A 
ATOM     28  C   UNL A   1      45.035  24.916  27.090  1.00  0.00     0.074 A 
ATOM     29  C   UNL A   1      48.237  30.291  27.952  1.00  0.00     0.029 A 
ATOM     30  N   UNL A   1      46.648  28.749  27.771  1.00  0.00    -0.354 N 
ATOM     31  N   UNL A   1      45.626  26.064  27.305  1.00  0.00    -0.248 NA
ATOM     32  C   UNL A   1      45.924  23.869  26.569  1.00  0.00     0.031 C 
ATOM     33  C   UNL A   1      48.821  29.119  27.468  1.00  0.00     0.029 A 
ATOM     34  C   UNL A   1      47.836  28.149  27.381  1.00  0.00     0.049 A 
ATOM     35  H   UNL A   1      45.772  28.300  27.805  1.00  0.00     0.167 HD
ATOM     36  C   UNL A   1      46.957  25.877  26.955  1.00  0.00     0.074 A 
ATOM     37  C   UNL A   1      47.092  24.495  26.544  1.00  0.00     0.031 C 
ATOM     38  C   UNL A   1      47.970  26.776  26.965  1.00  0.00     0.037 A 
BRANCH  25  39
ATOM     39  C   UNL A   1      46.321  32.422  28.803  1.00  0.00     0.057 A 
ATOM     40  C   UNL A   1      46.454  33.350  27.759  1.00  0.00     0.134 A 
ATOM     41  C   UNL A   1      46.782  32.809  30.068  1.00  0.00     0.134 A 
ATOM     42  F   UNL A   1      46.051  33.039  26.518  1.00  0.00    -0.206 F 
ATOM     43  C   UNL A   1      47.051  34.597  27.958  1.00  0.00     0.040 A 
ATOM     44  C   UNL A   1      47.360  34.063  30.283  1.00  0.00     0.040 A 
ATOM     45  F   UNL A   1      46.689  31.969  31.110  1.00  0.00    -0.206 F 
ATOM     46  C   UNL A   1      47.510  34.955  29.223  1.00  0.00     0.006 A 
ENDBRANCH  25  39
BRANCH  26  47
ATOM     47  C   UNL A   1      43.125  23.157  27.045  1.00  0.00     0.057 A 
ATOM     48  C   UNL A   1      42.888  22.696  25.743  1.00  0.00     0.134 A 
ATOM     49  C   UNL A   1      42.876  22.268  28.097  1.00  0.00     0.134 A 
ATOM     50  F   UNL A   1      43.101  23.501  24.691  1.00  0.00    -0.206 F 
ATOM     51  C   UNL A   1      42.398  21.414  25.497  1.00  0.00     0.040 A 
ATOM     52  C   UNL A   1      42.418  20.971  27.864  1.00  0.00     0.040 A 
ATOM     53  F   UNL A   1      43.102  22.643  29.365  1.00  0.00    -0.206 F 
ATOM     54  C   UNL A   1      42.167  20.545  26.560  1.00  0.00     0.006 A 
ENDBRANCH  26  47
BRANCH  38  55
ATOM     55  C   UNL A   1      49.323  26.295  26.527  1.00  0.00     0.057 A 
ATOM     56  C   UNL A   1      50.171  25.624  27.419  1.00  0.00     0.134 A 
ATOM     57  C   UNL A   1      49.805  26.530  25.233  1.00  0.00     0.134 A 
ATOM     58  F   UNL A   1      49.775  25.373  28.677  1.00  0.00    -0.206 F 
ATOM     59  C   UNL A   1      51.450  25.213  27.043  1.00  0.00     0.040 A 
ATOM     60  C   UNL A   1      51.072  26.096  24.836  1.00  0.00     0.040 A 
ATOM     61  F   UNL A   1      49.040  27.153  24.325  1.00  0.00    -0.206 F 
ATOM     62  C   UNL A   1      51.901  25.444  25.746  1.00  0.00     0.006 A 
ENDBRANCH  38  55
ENDBRANCH  12  13
ENDBRANCH   5   7
ENDBRANCH   2   3
ENDBRANCH   1   2
BRANCH   1  63
ATOM     63  C   UNL A   1      34.157  29.624  27.492  1.00  0.00     0.117 C 
BRANCH  63  64
ATOM     64  N   UNL A   1      32.847  28.948  27.675  1.00  0.00    -0.356 N 
ATOM     65  C   UNL A   1      31.894  28.256  26.986  1.00  0.00     0.224 C 
ATOM     66  H   UNL A   1      32.573  29.023  28.617  1.00  0.00     0.163 HD
ATOM     67  O   UNL A   1      31.081  27.707  27.755  1.00  0.00    -0.275 OA
BRANCH  65  68
ATOM     68  C   UNL A   1      31.588  28.120  25.447  1.00  0.00     0.095 C 
ATOM     69  C   UNL A   1      32.316  29.332  24.737  1.00  0.00     0.041 C 
ATOM     70  C   UNL A   1      31.857  26.759  24.769  1.00  0.00     0.095 C 
ATOM     71  C   UNL A   1      33.405  28.971  23.773  1.00  0.00    -0.030 C 
ATOM     72  C   UNL A   1      33.336  26.736  24.734  1.00  0.00     0.041 C 
ATOM     73  C   UNL A   1      33.855  27.720  23.725  1.00  0.00    -0.030 C 
BRANCH  70  74
ATOM     74  C   UNL A   1      31.423  26.500  23.299  1.00  0.00     0.224 C 
ATOM     75  O   UNL A   1      30.927  27.402  22.619  1.00  0.00    -0.275 OA
ATOM     76  N   UNL A   1      31.581  25.253  22.698  1.00  0.00    -0.344 N 
ATOM     77  H   UNL A   1      31.449  25.302  21.724  1.00  0.00     0.164 HD
BRANCH  76  78
ATOM     78  C   UNL A   1      31.901  23.836  23.150  1.00  0.00     0.172 C 
ATOM     79  C   UNL A   1      30.974  23.436  24.298  1.00  0.00     0.037 C 
ATOM     80  C   UNL A   1      33.416  23.271  23.254  1.00  0.00     0.249 C 
ATOM     81  C   UNL A   1      31.533  22.298  25.135  1.00  0.00     0.025 C 
ATOM     82  N   UNL A   1      33.883  22.855  24.526  1.00  0.00    -0.308 N 
ATOM     83  O   UNL A   1      34.134  23.239  22.251  1.00  0.00    -0.272 OA
ATOM     84  C   UNL A   1      32.939  22.622  25.624  1.00  0.00     0.126 C 
BRANCH  82  85
ATOM     85  C   UNL A   1      35.309  22.782  24.840  1.00  0.00     0.080 A 
ATOM     86  C   UNL A   1      35.997  21.586  24.655  1.00  0.00     0.029 A 
ATOM     87  C   UNL A   1      36.077  23.813  25.427  1.00  0.00     0.146 A 
ATOM     88  C   UNL A   1      37.369  21.482  24.967  1.00  0.00     0.002 A 
ATOM     89  C   UNL A   1      37.420  23.716  25.769  1.00  0.00     0.041 A 
ATOM     90  F   UNL A   1      35.554  24.918  25.916  1.00  0.00    -0.205 F 
ATOM     91  C   UNL A   1      38.081  22.546  25.518  1.00  0.00     0.003 A 
ENDBRANCH  82  85
ENDBRANCH  76  78
ENDBRANCH  70  74
ENDBRANCH  65  68
ENDBRANCH  63  64
ENDBRANCH   1  63
TORSDOF 13
ENDMDL
