MODEL 1
REMARK VINA RESULT:     -13.9      0.000      0.000
REMARK SMILES Cc1ccc(C)c(-c2cc(C(=O)NCCCNC(=O)c3ccc(-c4c5nc(c(-c6c(F)cccc6F)c6ccc([nH]6)c(-c6c(F)cccc6F)c6nc(c(-c7c(F)cccc7F)c7ccc4[nH]7)C=C6)C=C5)cc3)c3cc(C)ccc3n2)c1
REMARK SMILES IDX 15 1 14 2 13 3 11 4 12 5 10 7 8 8 9 9 81 10 80 11 74 12
REMARK SMILES IDX 79 13 75 14 78 15 76 16 77 17 7 18 1 19 2 20 3 21 82 22 4 23
REMARK SMILES IDX 5 24 6 25 16 26 17 27 18 28 19 30 20 31 21 32 73 33 22 34
REMARK SMILES IDX 72 35 23 36 24 37 25 38 66 39 26 40 71 41 65 42 67 43 27 44
REMARK SMILES IDX 70 45 64 46 63 47 28 49 54 50 37 51 53 52 38 53 41 54 52 55
REMARK SMILES IDX 68 56 39 57 40 58 51 60 69 61 42 62 29 63 30 64 35 65 31 66
REMARK SMILES IDX 32 67 34 68 36 69 33 70 55 71 56 72 61 73 57 74 58 75 60 76
REMARK SMILES IDX 62 77 59 78 43 79 44 80 49 81 45 82 46 83 48 84 50 85 47 86
REMARK H PARENT 13 6 17 29 67 48 41 59
REMARK Flexibility Score: inf
ROOT
ATOM      1  C   UNL A   1      35.414  30.388  27.289  1.00  0.00     0.042 C 
ENDROOT
BRANCH   1   2
ATOM      2  C   UNL A   1      34.600  29.116  27.220  1.00  0.00     0.118 C 
BRANCH   2   3
ATOM      3  N   UNL A   1      33.249  29.035  27.756  1.00  0.00    -0.352 N 
ATOM      4  C   UNL A   1      32.238  28.166  27.354  1.00  0.00     0.252 C 
ATOM      5  O   UNL A   1      31.217  28.076  28.032  1.00  0.00    -0.269 OA
ATOM      6  H   UNL A   1      33.025  29.662  28.481  1.00  0.00     0.163 HD
BRANCH   4   7
ATOM      7  C   UNL A   1      32.311  27.455  26.039  1.00  0.00     0.051 A 
ATOM      8  C   UNL A   1      32.638  25.344  24.999  1.00  0.00     0.072 A 
ATOM      9  C   UNL A   1      32.873  26.180  26.076  1.00  0.00     0.043 A 
ATOM     10  N   UNL A   1      31.757  25.666  24.020  1.00  0.00    -0.248 NA
ATOM     11  C   UNL A   1      31.257  26.909  23.976  1.00  0.00     0.072 A 
ATOM     12  C   UNL A   1      31.661  27.905  24.869  1.00  0.00     0.013 A 
ATOM     13  C   UNL A   1      30.253  27.218  23.066  1.00  0.00     0.029 A 
ATOM     14  C   UNL A   1      31.283  29.244  24.617  1.00  0.00     0.014 A 
ATOM     15  C   UNL A   1      29.675  28.491  23.010  1.00  0.00     0.005 A 
ATOM     16  C   UNL A   1      30.207  29.528  23.771  1.00  0.00    -0.050 A 
ATOM     17  C   UNL A   1      29.498  30.850  23.873  1.00  0.00     0.044 C 
BRANCH   8  18
ATOM     18  C   UNL A   1      33.382  24.096  24.790  1.00  0.00     0.003 A 
ATOM     19  C   UNL A   1      36.672  22.922  23.217  1.00  0.00     0.044 C 
ATOM     20  C   UNL A   1      35.347  22.918  23.921  1.00  0.00    -0.050 A 
ATOM     21  C   UNL A   1      34.827  21.712  24.397  1.00  0.00     0.004 A 
ATOM     22  C   UNL A   1      34.623  24.102  24.124  1.00  0.00     0.014 A 
ATOM     23  C   UNL A   1      33.599  21.684  25.054  1.00  0.00     0.004 A 
ATOM     24  C   UNL A   1      32.860  22.861  25.243  1.00  0.00    -0.042 A 
ATOM     25  C   UNL A   1      31.541  22.748  25.967  1.00  0.00     0.045 C 
ENDBRANCH   8  18
ENDBRANCH   4   7
ENDBRANCH   2   3
ENDBRANCH   1   2
BRANCH   1  26
ATOM     26  C   UNL A   1      36.836  30.126  27.695  1.00  0.00     0.118 C 
BRANCH  26  27
ATOM     27  N   UNL A   1      37.116  29.237  28.817  1.00  0.00    -0.352 N 
ATOM     28  C   UNL A   1      38.338  28.679  29.186  1.00  0.00     0.251 C 
ATOM     29  H   UNL A   1      36.346  29.002  29.386  1.00  0.00     0.163 HD
ATOM     30  O   UNL A   1      38.400  27.952  30.176  1.00  0.00    -0.269 OA
BRANCH  28  31
ATOM     31  C   UNL A   1      39.579  28.958  28.406  1.00  0.00     0.039 A 
ATOM     32  C   UNL A   1      39.627  28.849  27.008  1.00  0.00     0.014 A 
ATOM     33  C   UNL A   1      40.805  29.014  29.058  1.00  0.00     0.014 A 
ATOM     34  C   UNL A   1      40.880  28.568  26.425  1.00  0.00     0.010 A 
ATOM     35  C   UNL A   1      41.872  29.456  28.354  1.00  0.00     0.010 A 
ATOM     36  C   UNL A   1      42.004  28.673  27.237  1.00  0.00    -0.014 A 
BRANCH  36  37
ATOM     37  C   UNL A   1      43.247  27.912  27.179  1.00  0.00     0.031 A 
ATOM     38  C   UNL A   1      43.037  26.475  26.873  1.00  0.00     0.074 A 
ATOM     39  C   UNL A   1      44.490  28.351  26.875  1.00  0.00     0.049 A 
ATOM     40  N   UNL A   1      42.933  25.517  27.728  1.00  0.00    -0.248 NA
ATOM     41  C   UNL A   1      42.723  26.091  25.486  1.00  0.00     0.031 C 
ATOM     42  C   UNL A   1      44.987  29.659  26.449  1.00  0.00     0.029 A 
ATOM     43  N   UNL A   1      45.611  27.570  26.819  1.00  0.00    -0.354 N 
ATOM     44  C   UNL A   1      42.698  24.377  26.976  1.00  0.00     0.074 A 
ATOM     45  C   UNL A   1      42.325  24.830  25.661  1.00  0.00     0.031 C 
ATOM     46  C   UNL A   1      46.282  29.542  26.050  1.00  0.00     0.029 A 
ATOM     47  C   UNL A   1      46.748  28.190  26.329  1.00  0.00     0.049 A 
ATOM     48  H   UNL A   1      45.611  26.630  27.111  1.00  0.00     0.167 HD
ATOM     49  C   UNL A   1      43.035  23.138  27.423  1.00  0.00     0.037 A 
ATOM     50  C   UNL A   1      47.957  27.594  26.164  1.00  0.00     0.037 A 
ATOM     51  C   UNL A   1      43.541  23.190  28.774  1.00  0.00     0.049 A 
ATOM     52  C   UNL A   1      47.952  26.326  26.946  1.00  0.00     0.074 A 
ATOM     53  C   UNL A   1      43.038  23.614  29.990  1.00  0.00     0.029 A 
ATOM     54  N   UNL A   1      44.908  23.165  28.932  1.00  0.00    -0.354 N 
ATOM     55  N   UNL A   1      47.905  26.255  28.247  1.00  0.00    -0.248 NA
ATOM     56  C   UNL A   1      47.627  25.090  26.250  1.00  0.00     0.031 C 
ATOM     57  C   UNL A   1      44.130  24.272  30.637  1.00  0.00     0.029 A 
ATOM     58  C   UNL A   1      45.239  24.181  29.794  1.00  0.00     0.049 A 
ATOM     59  H   UNL A   1      45.532  22.534  28.505  1.00  0.00     0.167 HD
ATOM     60  C   UNL A   1      47.168  25.113  28.523  1.00  0.00     0.074 A 
ATOM     61  C   UNL A   1      47.135  24.376  27.267  1.00  0.00     0.031 C 
ATOM     62  C   UNL A   1      46.421  25.010  29.663  1.00  0.00     0.037 A 
BRANCH  49  63
ATOM     63  C   UNL A   1      43.192  21.926  26.551  1.00  0.00     0.057 A 
ATOM     64  C   UNL A   1      42.320  20.841  26.730  1.00  0.00     0.134 A 
ATOM     65  C   UNL A   1      44.266  21.697  25.669  1.00  0.00     0.134 A 
ATOM     66  F   UNL A   1      41.280  20.925  27.574  1.00  0.00    -0.206 F 
ATOM     67  C   UNL A   1      42.512  19.612  26.090  1.00  0.00     0.040 A 
ATOM     68  C   UNL A   1      44.430  20.498  24.973  1.00  0.00     0.040 A 
ATOM     69  F   UNL A   1      45.260  22.579  25.508  1.00  0.00    -0.206 F 
ATOM     70  C   UNL A   1      43.565  19.441  25.199  1.00  0.00     0.006 A 
ENDBRANCH  49  63
BRANCH  50  71
ATOM     71  C   UNL A   1      49.066  27.906  25.235  1.00  0.00     0.057 A 
ATOM     72  C   UNL A   1      50.327  28.297  25.708  1.00  0.00     0.134 A 
ATOM     73  C   UNL A   1      48.994  27.554  23.878  1.00  0.00     0.134 A 
ATOM     74  F   UNL A   1      50.503  28.612  26.999  1.00  0.00    -0.206 F 
ATOM     75  C   UNL A   1      51.461  28.318  24.884  1.00  0.00     0.040 A 
ATOM     76  C   UNL A   1      50.118  27.573  23.043  1.00  0.00     0.040 A 
ATOM     77  F   UNL A   1      47.853  27.090  23.348  1.00  0.00    -0.206 F 
ATOM     78  C   UNL A   1      51.360  27.943  23.548  1.00  0.00     0.006 A 
ENDBRANCH  50  71
BRANCH  62  79
ATOM     79  C   UNL A   1      46.672  26.022  30.752  1.00  0.00     0.057 A 
ATOM     80  C   UNL A   1      47.749  25.962  31.650  1.00  0.00     0.134 A 
ATOM     81  C   UNL A   1      45.867  27.164  30.818  1.00  0.00     0.134 A 
ATOM     82  F   UNL A   1      48.638  24.965  31.598  1.00  0.00    -0.206 F 
ATOM     83  C   UNL A   1      47.981  26.961  32.599  1.00  0.00     0.040 A 
ATOM     84  C   UNL A   1      46.109  28.188  31.738  1.00  0.00     0.040 A 
ATOM     85  F   UNL A   1      44.849  27.324  29.958  1.00  0.00    -0.206 F 
ATOM     86  C   UNL A   1      47.163  28.083  32.642  1.00  0.00     0.006 A 
ENDBRANCH  62  79
ENDBRANCH  36  37
ENDBRANCH  28  31
ENDBRANCH  26  27
ENDBRANCH   1  26
TORSDOF 11
ENDMDL
MODEL 2
REMARK VINA RESULT:     -13.7      2.092      2.964
REMARK SMILES Cc1ccc(C)c(-c2cc(C(=O)NCCCNC(=O)c3ccc(-c4c5nc(c(-c6c(F)cccc6F)c6ccc([nH]6)c(-c6c(F)cccc6F)c6nc(c(-c7c(F)cccc7F)c7ccc4[nH]7)C=C6)C=C5)cc3)c3cc(C)ccc3n2)c1
REMARK SMILES IDX 15 1 14 2 13 3 11 4 12 5 10 7 8 8 9 9 81 10 80 11 74 12
REMARK SMILES IDX 79 13 75 14 78 15 76 16 77 17 7 18 1 19 2 20 3 21 82 22 4 23
REMARK SMILES IDX 5 24 6 25 16 26 17 27 18 28 19 30 20 31 21 32 73 33 22 34
REMARK SMILES IDX 72 35 23 36 24 37 25 38 66 39 26 40 71 41 65 42 67 43 27 44
REMARK SMILES IDX 70 45 64 46 63 47 28 49 54 50 37 51 53 52 38 53 41 54 52 55
REMARK SMILES IDX 68 56 39 57 40 58 51 60 69 61 42 62 29 63 30 64 35 65 31 66
REMARK SMILES IDX 32 67 34 68 36 69 33 70 55 71 56 72 61 73 57 74 58 75 60 76
REMARK SMILES IDX 62 77 59 78 43 79 44 80 49 81 45 82 46 83 48 84 50 85 47 86
REMARK H PARENT 13 6 17 29 67 48 41 59
REMARK Flexibility Score: inf
ROOT
ATOM      1  C   UNL A   1      35.171  29.585  27.382  1.00  0.00     0.042 C 
ENDROOT
BRANCH   1   2
ATOM      2  C   UNL A   1      33.787  29.806  26.815  1.00  0.00     0.118 C 
BRANCH   2   3
ATOM      3  N   UNL A   1      32.589  29.344  27.502  1.00  0.00    -0.352 N 
ATOM      4  C   UNL A   1      31.854  28.195  27.222  1.00  0.00     0.252 C 
ATOM      5  O   UNL A   1      30.987  27.828  28.013  1.00  0.00    -0.269 OA
ATOM      6  H   UNL A   1      32.264  29.903  28.244  1.00  0.00     0.163 HD
BRANCH   4   7
ATOM      7  C   UNL A   1      31.999  27.486  25.912  1.00  0.00     0.051 A 
ATOM      8  C   UNL A   1      32.390  25.379  24.888  1.00  0.00     0.072 A 
ATOM      9  C   UNL A   1      32.565  26.213  25.976  1.00  0.00     0.043 A 
ATOM     10  N   UNL A   1      31.560  25.698  23.864  1.00  0.00    -0.248 NA
ATOM     11  C   UNL A   1      31.057  26.939  23.796  1.00  0.00     0.072 A 
ATOM     12  C   UNL A   1      31.409  27.935  24.711  1.00  0.00     0.013 A 
ATOM     13  C   UNL A   1      30.101  27.245  22.836  1.00  0.00     0.029 A 
ATOM     14  C   UNL A   1      31.039  29.273  24.441  1.00  0.00     0.014 A 
ATOM     15  C   UNL A   1      29.520  28.515  22.751  1.00  0.00     0.005 A 
ATOM     16  C   UNL A   1      30.007  29.554  23.540  1.00  0.00    -0.050 A 
ATOM     17  C   UNL A   1      29.288  30.872  23.606  1.00  0.00     0.044 C 
BRANCH   8  18
ATOM     18  C   UNL A   1      33.149  24.134  24.716  1.00  0.00     0.003 A 
ATOM     19  C   UNL A   1      36.448  22.953  23.167  1.00  0.00     0.044 C 
ATOM     20  C   UNL A   1      35.126  22.954  23.877  1.00  0.00    -0.050 A 
ATOM     21  C   UNL A   1      34.625  21.758  24.395  1.00  0.00     0.004 A 
ATOM     22  C   UNL A   1      34.388  24.135  24.044  1.00  0.00     0.014 A 
ATOM     23  C   UNL A   1      33.400  21.735  25.059  1.00  0.00     0.004 A 
ATOM     24  C   UNL A   1      32.646  22.908  25.212  1.00  0.00    -0.042 A 
ATOM     25  C   UNL A   1      31.332  22.801  25.946  1.00  0.00     0.045 C 
ENDBRANCH   8  18
ENDBRANCH   4   7
ENDBRANCH   2   3
ENDBRANCH   1   2
BRANCH   1  26
ATOM     26  C   UNL A   1      35.859  30.878  27.711  1.00  0.00     0.118 C 
BRANCH  26  27
ATOM     27  N   UNL A   1      36.188  31.190  29.098  1.00  0.00    -0.352 N 
ATOM     28  C   UNL A   1      37.134  30.574  29.914  1.00  0.00     0.251 C 
ATOM     29  H   UNL A   1      35.680  31.927  29.508  1.00  0.00     0.163 HD
ATOM     30  O   UNL A   1      37.294  30.972  31.067  1.00  0.00    -0.269 OA
BRANCH  28  31
ATOM     31  C   UNL A   1      37.970  29.445  29.409  1.00  0.00     0.039 A 
ATOM     32  C   UNL A   1      38.063  28.219  30.085  1.00  0.00     0.014 A 
ATOM     33  C   UNL A   1      38.934  29.683  28.436  1.00  0.00     0.014 A 
ATOM     34  C   UNL A   1      39.237  27.464  29.893  1.00  0.00     0.010 A 
ATOM     35  C   UNL A   1      39.532  28.610  27.870  1.00  0.00     0.010 A 
ATOM     36  C   UNL A   1      40.091  27.855  28.867  1.00  0.00    -0.014 A 
BRANCH  36  37
ATOM     37  C   UNL A   1      41.544  27.743  28.795  1.00  0.00     0.031 A 
ATOM     38  C   UNL A   1      42.000  26.615  27.945  1.00  0.00     0.074 A 
ATOM     39  C   UNL A   1      42.473  28.715  28.942  1.00  0.00     0.049 A 
ATOM     40  N   UNL A   1      42.307  25.430  28.344  1.00  0.00    -0.248 NA
ATOM     41  C   UNL A   1      41.927  26.765  26.481  1.00  0.00     0.031 C 
ATOM     42  C   UNL A   1      42.351  30.159  29.142  1.00  0.00     0.029 A 
ATOM     43  N   UNL A   1      43.825  28.538  28.840  1.00  0.00    -0.354 N 
ATOM     44  C   UNL A   1      42.621  24.723  27.194  1.00  0.00     0.074 A 
ATOM     45  C   UNL A   1      42.123  25.504  26.092  1.00  0.00     0.031 C 
ATOM     46  C   UNL A   1      43.576  30.738  29.009  1.00  0.00     0.029 A 
ATOM     47  C   UNL A   1      44.583  29.696  28.862  1.00  0.00     0.049 A 
ATOM     48  H   UNL A   1      44.232  27.645  28.757  1.00  0.00     0.167 HD
ATOM     49  C   UNL A   1      43.459  23.652  27.214  1.00  0.00     0.037 A 
ATOM     50  C   UNL A   1      45.935  29.751  28.747  1.00  0.00     0.037 A 
ATOM     51  C   UNL A   1      43.852  23.321  28.563  1.00  0.00     0.049 A 
ATOM     52  C   UNL A   1      46.470  28.380  28.987  1.00  0.00     0.074 A 
ATOM     53  C   UNL A   1      43.179  22.958  29.714  1.00  0.00     0.029 A 
ATOM     54  N   UNL A   1      45.084  23.768  28.983  1.00  0.00    -0.354 N 
ATOM     55  N   UNL A   1      46.423  27.754  30.130  1.00  0.00    -0.248 NA
ATOM     56  C   UNL A   1      46.745  27.537  27.834  1.00  0.00     0.031 C 
ATOM     57  C   UNL A   1      43.849  23.648  30.772  1.00  0.00     0.029 A 
ATOM     58  C   UNL A   1      44.907  24.363  30.207  1.00  0.00     0.049 A 
ATOM     59  H   UNL A   1      45.934  23.676  28.495  1.00  0.00     0.167 HD
ATOM     60  C   UNL A   1      46.260  26.415  29.805  1.00  0.00     0.074 A 
ATOM     61  C   UNL A   1      46.591  26.331  28.388  1.00  0.00     0.031 C 
ATOM     62  C   UNL A   1      45.604  25.558  30.643  1.00  0.00     0.037 A 
BRANCH  49  63
ATOM     63  C   UNL A   1      44.159  23.091  26.011  1.00  0.00     0.057 A 
ATOM     64  C   UNL A   1      43.950  21.747  25.666  1.00  0.00     0.134 A 
ATOM     65  C   UNL A   1      45.167  23.751  25.280  1.00  0.00     0.134 A 
ATOM     66  F   UNL A   1      43.043  21.003  26.317  1.00  0.00    -0.206 F 
ATOM     67  C   UNL A   1      44.699  21.102  24.676  1.00  0.00     0.040 A 
ATOM     68  C   UNL A   1      45.876  23.137  24.245  1.00  0.00     0.040 A 
ATOM     69  F   UNL A   1      45.584  24.985  25.590  1.00  0.00    -0.206 F 
ATOM     70  C   UNL A   1      45.660  21.800  23.954  1.00  0.00     0.006 A 
ENDBRANCH  49  63
BRANCH  50  71
ATOM     71  C   UNL A   1      46.817  30.830  28.253  1.00  0.00     0.057 A 
ATOM     72  C   UNL A   1      46.762  31.269  26.921  1.00  0.00     0.134 A 
ATOM     73  C   UNL A   1      47.533  31.645  29.144  1.00  0.00     0.134 A 
ATOM     74  F   UNL A   1      46.067  30.579  26.005  1.00  0.00    -0.206 F 
ATOM     75  C   UNL A   1      47.365  32.462  26.501  1.00  0.00     0.040 A 
ATOM     76  C   UNL A   1      48.144  32.838  28.738  1.00  0.00     0.040 A 
ATOM     77  F   UNL A   1      47.579  31.357  30.453  1.00  0.00    -0.206 F 
ATOM     78  C   UNL A   1      48.050  33.257  27.415  1.00  0.00     0.006 A 
ENDBRANCH  50  71
BRANCH  62  79
ATOM     79  C   UNL A   1      45.351  26.022  32.054  1.00  0.00     0.057 A 
ATOM     80  C   UNL A   1      44.188  26.692  32.466  1.00  0.00     0.134 A 
ATOM     81  C   UNL A   1      46.259  25.671  33.059  1.00  0.00     0.134 A 
ATOM     82  F   UNL A   1      43.210  26.977  31.601  1.00  0.00    -0.206 F 
ATOM     83  C   UNL A   1      43.966  27.041  33.802  1.00  0.00     0.040 A 
ATOM     84  C   UNL A   1      46.032  25.983  34.403  1.00  0.00     0.040 A 
ATOM     85  F   UNL A   1      47.369  24.981  32.755  1.00  0.00    -0.206 F 
ATOM     86  C   UNL A   1      44.887  26.682  34.777  1.00  0.00     0.006 A 
ENDBRANCH  62  79
ENDBRANCH  36  37
ENDBRANCH  28  31
ENDBRANCH  26  27
ENDBRANCH   1  26
TORSDOF 11
ENDMDL
MODEL 3
REMARK VINA RESULT:     -13.6      3.926      9.023
REMARK SMILES Cc1ccc(C)c(-c2cc(C(=O)NCCCNC(=O)c3ccc(-c4c5nc(c(-c6c(F)cccc6F)c6ccc([nH]6)c(-c6c(F)cccc6F)c6nc(c(-c7c(F)cccc7F)c7ccc4[nH]7)C=C6)C=C5)cc3)c3cc(C)ccc3n2)c1
REMARK SMILES IDX 15 1 14 2 13 3 11 4 12 5 10 7 8 8 9 9 81 10 80 11 74 12
REMARK SMILES IDX 79 13 75 14 78 15 76 16 77 17 7 18 1 19 2 20 3 21 82 22 4 23
REMARK SMILES IDX 5 24 6 25 16 26 17 27 18 28 19 30 20 31 21 32 73 33 22 34
REMARK SMILES IDX 72 35 23 36 24 37 25 38 66 39 26 40 71 41 65 42 67 43 27 44
REMARK SMILES IDX 70 45 64 46 63 47 28 49 54 50 37 51 53 52 38 53 41 54 52 55
REMARK SMILES IDX 68 56 39 57 40 58 51 60 69 61 42 62 29 63 30 64 35 65 31 66
REMARK SMILES IDX 32 67 34 68 36 69 33 70 55 71 56 72 61 73 57 74 58 75 60 76
REMARK SMILES IDX 62 77 59 78 43 79 44 80 49 81 45 82 46 83 48 84 50 85 47 86
REMARK H PARENT 13 6 17 29 67 48 41 59
REMARK Flexibility Score: inf
ROOT
ATOM      1  C   UNL A   1      38.834  24.326  26.644  1.00  0.00     0.042 C 
ENDROOT
BRANCH   1   2
ATOM      2  C   UNL A   1      37.622  23.653  26.042  1.00  0.00     0.118 C 
BRANCH   2   3
ATOM      3  N   UNL A   1      37.603  23.193  24.661  1.00  0.00    -0.352 N 
ATOM      4  C   UNL A   1      36.507  23.168  23.801  1.00  0.00     0.252 C 
ATOM      5  O   UNL A   1      36.685  22.943  22.606  1.00  0.00    -0.269 OA
ATOM      6  H   UNL A   1      38.455  22.863  24.295  1.00  0.00     0.163 HD
BRANCH   4   7
ATOM      7  C   UNL A   1      35.110  23.263  24.330  1.00  0.00     0.051 A 
ATOM      8  C   UNL A   1      33.168  24.627  24.421  1.00  0.00     0.072 A 
ATOM      9  C   UNL A   1      34.542  24.536  24.301  1.00  0.00     0.043 A 
ATOM     10  N   UNL A   1      32.370  23.532  24.392  1.00  0.00    -0.248 NA
ATOM     11  C   UNL A   1      32.931  22.316  24.462  1.00  0.00     0.072 A 
ATOM     12  C   UNL A   1      34.308  22.140  24.625  1.00  0.00     0.013 A 
ATOM     13  C   UNL A   1      32.144  21.183  24.297  1.00  0.00     0.029 A 
ATOM     14  C   UNL A   1      34.800  20.851  24.935  1.00  0.00     0.014 A 
ATOM     15  C   UNL A   1      32.692  19.895  24.323  1.00  0.00     0.005 A 
ATOM     16  C   UNL A   1      34.028  19.716  24.671  1.00  0.00    -0.050 A 
ATOM     17  C   UNL A   1      34.687  18.373  24.528  1.00  0.00     0.044 C 
BRANCH   8  18
ATOM     18  C   UNL A   1      32.480  25.899  24.675  1.00  0.00     0.003 A 
ATOM     19  C   UNL A   1      31.634  28.188  27.628  1.00  0.00     0.044 C 
ATOM     20  C   UNL A   1      31.733  27.632  26.238  1.00  0.00    -0.050 A 
ATOM     21  C   UNL A   1      31.178  28.346  25.173  1.00  0.00     0.004 A 
ATOM     22  C   UNL A   1      32.384  26.417  25.982  1.00  0.00     0.014 A 
ATOM     23  C   UNL A   1      31.258  27.849  23.874  1.00  0.00     0.004 A 
ATOM     24  C   UNL A   1      31.889  26.624  23.612  1.00  0.00    -0.042 A 
ATOM     25  C   UNL A   1      31.938  26.157  22.178  1.00  0.00     0.045 C 
ENDBRANCH   8  18
ENDBRANCH   4   7
ENDBRANCH   2   3
ENDBRANCH   1   2
BRANCH   1  26
ATOM     26  C   UNL A   1      39.850  23.331  27.127  1.00  0.00     0.118 C 
BRANCH  26  27
ATOM     27  N   UNL A   1      40.767  22.713  26.176  1.00  0.00    -0.352 N 
ATOM     28  C   UNL A   1      42.076  23.086  25.879  1.00  0.00     0.251 C 
ATOM     29  H   UNL A   1      40.418  21.935  25.683  1.00  0.00     0.163 HD
ATOM     30  O   UNL A   1      42.718  22.442  25.051  1.00  0.00    -0.269 OA
BRANCH  28  31
ATOM     31  C   UNL A   1      42.719  24.248  26.560  1.00  0.00     0.039 A 
ATOM     32  C   UNL A   1      43.345  24.133  27.811  1.00  0.00     0.014 A 
ATOM     33  C   UNL A   1      42.434  25.539  26.134  1.00  0.00     0.014 A 
ATOM     34  C   UNL A   1      43.406  25.291  28.611  1.00  0.00     0.010 A 
ATOM     35  C   UNL A   1      43.178  26.547  26.645  1.00  0.00     0.010 A 
ATOM     36  C   UNL A   1      43.080  26.503  28.011  1.00  0.00    -0.014 A 
BRANCH  36  37
ATOM     37  C   UNL A   1      42.460  27.681  28.608  1.00  0.00     0.031 A 
ATOM     38  C   UNL A   1      43.215  28.932  28.348  1.00  0.00     0.074 A 
ATOM     39  C   UNL A   1      41.156  27.891  28.900  1.00  0.00     0.049 A 
ATOM     40  N   UNL A   1      44.095  29.471  29.119  1.00  0.00    -0.248 NA
ATOM     41  C   UNL A   1      43.120  29.545  27.011  1.00  0.00     0.031 C 
ATOM     42  C   UNL A   1      39.961  27.081  28.665  1.00  0.00     0.029 A 
ATOM     43  N   UNL A   1      40.643  29.035  29.443  1.00  0.00    -0.354 N 
ATOM     44  C   UNL A   1      44.553  30.585  28.434  1.00  0.00     0.074 A 
ATOM     45  C   UNL A   1      44.119  30.427  27.070  1.00  0.00     0.031 C 
ATOM     46  C   UNL A   1      38.853  27.822  28.940  1.00  0.00     0.029 A 
ATOM     47  C   UNL A   1      39.261  29.100  29.508  1.00  0.00     0.049 A 
ATOM     48  H   UNL A   1      41.218  29.766  29.769  1.00  0.00     0.167 HD
ATOM     49  C   UNL A   1      45.071  31.664  29.079  1.00  0.00     0.037 A 
ATOM     50  C   UNL A   1      38.546  30.152  29.982  1.00  0.00     0.037 A 
ATOM     51  C   UNL A   1      45.166  31.427  30.500  1.00  0.00     0.049 A 
ATOM     52  C   UNL A   1      39.474  31.020  30.761  1.00  0.00     0.074 A 
ATOM     53  C   UNL A   1      45.815  30.500  31.294  1.00  0.00     0.029 A 
ATOM     54  N   UNL A   1      44.169  31.953  31.290  1.00  0.00    -0.354 N 
ATOM     55  N   UNL A   1      40.042  30.682  31.885  1.00  0.00    -0.248 NA
ATOM     56  C   UNL A   1      40.070  32.165  30.089  1.00  0.00     0.031 C 
ATOM     57  C   UNL A   1      44.885  30.180  32.331  1.00  0.00     0.029 A 
ATOM     58  C   UNL A   1      43.740  30.953  32.127  1.00  0.00     0.049 A 
ATOM     59  H   UNL A   1      43.829  32.877  31.260  1.00  0.00     0.167 HD
ATOM     60  C   UNL A   1      41.287  31.295  31.861  1.00  0.00     0.074 A 
ATOM     61  C   UNL A   1      41.196  32.289  30.799  1.00  0.00     0.031 C 
ATOM     62  C   UNL A   1      42.357  30.749  32.513  1.00  0.00     0.037 A 
BRANCH  49  63
ATOM     63  C   UNL A   1      45.211  33.033  28.480  1.00  0.00     0.057 A 
ATOM     64  C   UNL A   1      46.497  33.538  28.230  1.00  0.00     0.134 A 
ATOM     65  C   UNL A   1      44.158  33.952  28.304  1.00  0.00     0.134 A 
ATOM     66  F   UNL A   1      47.584  32.769  28.399  1.00  0.00    -0.206 F 
ATOM     67  C   UNL A   1      46.719  34.865  27.847  1.00  0.00     0.040 A 
ATOM     68  C   UNL A   1      44.362  35.259  27.858  1.00  0.00     0.040 A 
ATOM     69  F   UNL A   1      42.895  33.666  28.644  1.00  0.00    -0.206 F 
ATOM     70  C   UNL A   1      45.648  35.729  27.649  1.00  0.00     0.006 A 
ENDBRANCH  49  63
BRANCH  50  71
ATOM     71  C   UNL A   1      37.171  30.601  29.673  1.00  0.00     0.057 A 
ATOM     72  C   UNL A   1      36.359  31.197  30.649  1.00  0.00     0.134 A 
ATOM     73  C   UNL A   1      36.726  30.710  28.346  1.00  0.00     0.134 A 
ATOM     74  F   UNL A   1      36.722  31.180  31.940  1.00  0.00    -0.206 F 
ATOM     75  C   UNL A   1      35.182  31.884  30.324  1.00  0.00     0.040 A 
ATOM     76  C   UNL A   1      35.551  31.391  28.007  1.00  0.00     0.040 A 
ATOM     77  F   UNL A   1      37.470  30.243  27.332  1.00  0.00    -0.206 F 
ATOM     78  C   UNL A   1      34.780  31.993  28.997  1.00  0.00     0.006 A 
ENDBRANCH  50  71
BRANCH  62  79
ATOM     79  C   UNL A   1      42.079  29.654  33.510  1.00  0.00     0.057 A 
ATOM     80  C   UNL A   1      42.070  28.286  33.196  1.00  0.00     0.134 A 
ATOM     81  C   UNL A   1      41.940  29.985  34.862  1.00  0.00     0.134 A 
ATOM     82  F   UNL A   1      42.301  27.860  31.950  1.00  0.00    -0.206 F 
ATOM     83  C   UNL A   1      41.876  27.301  34.170  1.00  0.00     0.040 A 
ATOM     84  C   UNL A   1      41.782  29.009  35.851  1.00  0.00     0.040 A 
ATOM     85  F   UNL A   1      41.994  31.268  35.253  1.00  0.00    -0.206 F 
ATOM     86  C   UNL A   1      41.737  27.661  35.504  1.00  0.00     0.006 A 
ENDBRANCH  62  79
ENDBRANCH  36  37
ENDBRANCH  28  31
ENDBRANCH  26  27
ENDBRANCH   1  26
TORSDOF 11
ENDMDL
