MODEL 1
REMARK VINA RESULT:     -13.7      0.000      0.000
REMARK SMILES Cc1ccc(CCC(=O)N2CCC3(CC2)[C@H](C(=O)NCCCNC(=O)c2ccc(-c4c5nc(c(-c6c(F)cccc6F)c6ccc([nH]6)c(-c6c(F)cccc6F)c6nc(c(-c7c(F)cccc7F)c7ccc4[nH]7)C=C6)C=C5)cc2)CC(=O)N3C)cc1
REMARK SMILES IDX 20 1 19 2 17 3 18 4 16 6 8 7 9 8 10 9 11 10 15 11 12 12
REMARK SMILES IDX 14 13 13 14 83 15 80 16 81 17 84 18 82 19 7 20 6 21 5 22
REMARK SMILES IDX 1 23 2 24 3 25 86 26 4 27 85 28 21 29 22 30 23 31 24 32
REMARK SMILES IDX 25 34 26 35 27 36 79 37 28 38 78 39 29 40 30 41 31 42 72 43
REMARK SMILES IDX 32 44 77 45 71 46 73 47 33 48 76 49 70 50 69 51 34 53 60 54
REMARK SMILES IDX 43 55 59 56 44 57 47 58 58 59 74 60 45 61 46 62 57 64 75 65
REMARK SMILES IDX 48 66 35 67 36 68 41 69 37 70 38 71 40 72 42 73 39 74 61 75
REMARK SMILES IDX 62 76 67 77 63 78 64 79 66 80 68 81 65 82 49 83 50 84 55 85
REMARK SMILES IDX 51 86 52 87 54 88 56 89 53 90
REMARK H PARENT 19 5 23 33 73 52 47 63
REMARK Flexibility Score: inf
ROOT
ATOM      1  C   UNL A   1      34.049  29.585  27.370  1.00  0.00     0.117 C 
ENDROOT
BRANCH   1   2
ATOM      2  N   UNL A   1      32.828  28.817  27.581  1.00  0.00    -0.356 N 
ATOM      3  C   UNL A   1      32.057  28.022  26.797  1.00  0.00     0.226 C 
ATOM      4  O   UNL A   1      31.189  27.369  27.390  1.00  0.00    -0.275 OA
ATOM      5  H   UNL A   1      32.485  28.892  28.500  1.00  0.00     0.163 HD
BRANCH   3   6
ATOM      6  C   UNL A   1      32.124  27.921  25.270  1.00  0.00     0.113 C 
ATOM      7  C   UNL A   1      32.538  22.845  23.832  1.00  0.00     0.222 C 
ATOM      8  O   UNL A   1      32.302  21.823  24.485  1.00  0.00    -0.275 OA
ATOM      9  N   UNL A   1      31.682  23.930  23.884  1.00  0.00    -0.343 N 
ATOM     10  C   UNL A   1      30.847  24.183  25.043  1.00  0.00     0.122 C 
ATOM     11  C   UNL A   1      31.532  24.925  22.862  1.00  0.00     0.122 C 
ATOM     12  C   UNL A   1      31.194  25.562  25.622  1.00  0.00     0.051 C 
ATOM     13  C   UNL A   1      32.088  26.255  23.347  1.00  0.00     0.051 C 
ATOM     14  C   UNL A   1      31.338  26.749  24.611  1.00  0.00     0.058 C 
ATOM     15  N   UNL A   1      30.124  27.464  24.169  1.00  0.00    -0.339 N 
ATOM     16  C   UNL A   1      31.695  29.186  24.549  1.00  0.00     0.116 C 
ATOM     17  C   UNL A   1      30.335  28.836  24.018  1.00  0.00     0.223 C 
ATOM     18  C   UNL A   1      28.948  26.860  23.571  1.00  0.00     0.147 C 
ATOM     19  O   UNL A   1      29.559  29.639  23.526  1.00  0.00    -0.275 OA
BRANCH   7  20
ATOM     20  C   UNL A   1      33.910  22.999  23.150  1.00  0.00     0.105 C 
BRANCH  20  21
ATOM     21  C   UNL A   1      34.996  23.922  23.733  1.00  0.00     0.045 C 
BRANCH  21  22
ATOM     22  C   UNL A   1      36.004  23.222  24.632  1.00  0.00    -0.047 A 
ATOM     23  C   UNL A   1      39.696  21.660  26.174  1.00  0.00     0.044 C 
ATOM     24  C   UNL A   1      38.324  22.121  25.778  1.00  0.00    -0.051 A 
ATOM     25  C   UNL A   1      37.519  21.347  24.937  1.00  0.00     0.004 A 
ATOM     26  C   UNL A   1      37.873  23.385  26.172  1.00  0.00     0.004 A 
ATOM     27  C   UNL A   1      36.346  21.880  24.397  1.00  0.00     0.004 A 
ATOM     28  C   UNL A   1      36.715  23.929  25.611  1.00  0.00     0.004 A 
ENDBRANCH  21  22
ENDBRANCH  20  21
ENDBRANCH   7  20
ENDBRANCH   3   6
ENDBRANCH   1   2
BRANCH   1  29
ATOM     29  C   UNL A   1      33.923  31.090  27.581  1.00  0.00     0.042 C 
BRANCH  29  30
ATOM     30  C   UNL A   1      35.211  31.803  27.958  1.00  0.00     0.118 C 
BRANCH  30  31
ATOM     31  N   UNL A   1      35.386  31.937  29.403  1.00  0.00    -0.352 N 
ATOM     32  C   UNL A   1      36.159  31.165  30.249  1.00  0.00     0.251 C 
ATOM     33  H   UNL A   1      34.888  32.671  29.829  1.00  0.00     0.163 HD
ATOM     34  O   UNL A   1      36.268  31.448  31.438  1.00  0.00    -0.269 OA
BRANCH  32  35
ATOM     35  C   UNL A   1      36.965  30.080  29.657  1.00  0.00     0.039 A 
ATOM     36  C   UNL A   1      37.239  28.979  30.470  1.00  0.00     0.014 A 
ATOM     37  C   UNL A   1      37.671  30.300  28.475  1.00  0.00     0.014 A 
ATOM     38  C   UNL A   1      38.396  28.247  30.239  1.00  0.00     0.010 A 
ATOM     39  C   UNL A   1      38.861  29.624  28.289  1.00  0.00     0.010 A 
ATOM     40  C   UNL A   1      39.257  28.657  29.218  1.00  0.00    -0.014 A 
BRANCH  40  41
ATOM     41  C   UNL A   1      40.640  28.205  29.156  1.00  0.00     0.031 A 
ATOM     42  C   UNL A   1      40.968  26.898  28.564  1.00  0.00     0.074 A 
ATOM     43  C   UNL A   1      41.627  28.964  29.681  1.00  0.00     0.049 A 
ATOM     44  N   UNL A   1      41.930  26.146  28.983  1.00  0.00    -0.248 NA
ATOM     45  C   UNL A   1      40.201  26.315  27.469  1.00  0.00     0.031 C 
ATOM     46  C   UNL A   1      43.065  28.743  29.566  1.00  0.00     0.029 A 
ATOM     47  N   UNL A   1      41.504  29.992  30.628  1.00  0.00    -0.354 N 
ATOM     48  C   UNL A   1      42.082  25.134  28.069  1.00  0.00     0.074 A 
ATOM     49  C   UNL A   1      40.940  25.236  27.187  1.00  0.00     0.031 C 
ATOM     50  C   UNL A   1      43.679  29.366  30.584  1.00  0.00     0.029 A 
ATOM     51  C   UNL A   1      42.647  29.902  31.452  1.00  0.00     0.049 A 
ATOM     52  H   UNL A   1      40.770  30.644  30.703  1.00  0.00     0.167 HD
ATOM     53  C   UNL A   1      43.229  24.400  28.048  1.00  0.00     0.037 A 
ATOM     54  C   UNL A   1      42.561  29.688  32.794  1.00  0.00     0.037 A 
ATOM     55  C   UNL A   1      44.176  24.837  29.065  1.00  0.00     0.049 A 
ATOM     56  C   UNL A   1      43.301  28.462  33.268  1.00  0.00     0.074 A 
ATOM     57  C   UNL A   1      45.251  25.710  29.017  1.00  0.00     0.029 A 
ATOM     58  N   UNL A   1      43.894  24.634  30.411  1.00  0.00    -0.354 N 
ATOM     59  N   UNL A   1      43.644  27.477  32.487  1.00  0.00    -0.248 NA
ATOM     60  C   UNL A   1      43.688  28.232  34.658  1.00  0.00     0.031 C 
ATOM     61  C   UNL A   1      45.604  26.052  30.342  1.00  0.00     0.029 A 
ATOM     62  C   UNL A   1      44.752  25.380  31.198  1.00  0.00     0.049 A 
ATOM     63  H   UNL A   1      43.185  24.045  30.755  1.00  0.00     0.167 HD
ATOM     64  C   UNL A   1      44.256  26.495  33.227  1.00  0.00     0.074 A 
ATOM     65  C   UNL A   1      44.278  27.027  34.576  1.00  0.00     0.031 C 
ATOM     66  C   UNL A   1      44.680  25.330  32.651  1.00  0.00     0.037 A 
BRANCH  53  67
ATOM     67  C   UNL A   1      43.577  23.526  26.874  1.00  0.00     0.057 A 
ATOM     68  C   UNL A   1      43.307  22.145  26.879  1.00  0.00     0.134 A 
ATOM     69  C   UNL A   1      44.244  23.997  25.732  1.00  0.00     0.134 A 
ATOM     70  F   UNL A   1      42.601  21.565  27.857  1.00  0.00    -0.206 F 
ATOM     71  C   UNL A   1      43.773  21.281  25.881  1.00  0.00     0.040 A 
ATOM     72  C   UNL A   1      44.757  23.139  24.750  1.00  0.00     0.040 A 
ATOM     73  F   UNL A   1      44.420  25.312  25.529  1.00  0.00    -0.206 F 
ATOM     74  C   UNL A   1      44.536  21.771  24.831  1.00  0.00     0.006 A 
ENDBRANCH  53  67
BRANCH  54  75
ATOM     75  C   UNL A   1      41.319  30.221  33.406  1.00  0.00     0.057 A 
ATOM     76  C   UNL A   1      41.240  31.597  33.688  1.00  0.00     0.134 A 
ATOM     77  C   UNL A   1      40.119  29.507  33.377  1.00  0.00     0.134 A 
ATOM     78  F   UNL A   1      42.356  32.343  33.726  1.00  0.00    -0.206 F 
ATOM     79  C   UNL A   1      40.015  32.253  33.830  1.00  0.00     0.040 A 
ATOM     80  C   UNL A   1      38.886  30.153  33.525  1.00  0.00     0.040 A 
ATOM     81  F   UNL A   1      40.111  28.197  33.096  1.00  0.00    -0.206 F 
ATOM     82  C   UNL A   1      38.830  31.534  33.714  1.00  0.00     0.006 A 
ENDBRANCH  54  75
BRANCH  66  83
ATOM     83  C   UNL A   1      45.163  24.078  33.353  1.00  0.00     0.057 A 
ATOM     84  C   UNL A   1      46.435  23.921  33.923  1.00  0.00     0.134 A 
ATOM     85  C   UNL A   1      44.269  23.008  33.602  1.00  0.00     0.134 A 
ATOM     86  F   UNL A   1      47.356  24.890  33.869  1.00  0.00    -0.206 F 
ATOM     87  C   UNL A   1      46.805  22.771  34.637  1.00  0.00     0.040 A 
ATOM     88  C   UNL A   1      44.609  21.883  34.360  1.00  0.00     0.040 A 
ATOM     89  F   UNL A   1      43.009  23.013  33.143  1.00  0.00    -0.206 F 
ATOM     90  C   UNL A   1      45.889  21.753  34.870  1.00  0.00     0.006 A 
ENDBRANCH  66  83
ENDBRANCH  40  41
ENDBRANCH  32  35
ENDBRANCH  30  31
ENDBRANCH  29  30
ENDBRANCH   1  29
TORSDOF 13
ENDMDL
MODEL 2
REMARK VINA RESULT:     -13.6      3.707      9.234
REMARK SMILES Cc1ccc(CCC(=O)N2CCC3(CC2)[C@H](C(=O)NCCCNC(=O)c2ccc(-c4c5nc(c(-c6c(F)cccc6F)c6ccc([nH]6)c(-c6c(F)cccc6F)c6nc(c(-c7c(F)cccc7F)c7ccc4[nH]7)C=C6)C=C5)cc2)CC(=O)N3C)cc1
REMARK SMILES IDX 20 1 19 2 17 3 18 4 16 6 8 7 9 8 10 9 11 10 15 11 12 12
REMARK SMILES IDX 14 13 13 14 83 15 80 16 81 17 84 18 82 19 7 20 6 21 5 22
REMARK SMILES IDX 1 23 2 24 3 25 86 26 4 27 85 28 21 29 22 30 23 31 24 32
REMARK SMILES IDX 25 34 26 35 27 36 79 37 28 38 78 39 29 40 30 41 31 42 72 43
REMARK SMILES IDX 32 44 77 45 71 46 73 47 33 48 76 49 70 50 69 51 34 53 60 54
REMARK SMILES IDX 43 55 59 56 44 57 47 58 58 59 74 60 45 61 46 62 57 64 75 65
REMARK SMILES IDX 48 66 35 67 36 68 41 69 37 70 38 71 40 72 42 73 39 74 61 75
REMARK SMILES IDX 62 76 67 77 63 78 64 79 66 80 68 81 65 82 49 83 50 84 55 85
REMARK SMILES IDX 51 86 52 87 54 88 56 89 53 90
REMARK H PARENT 19 5 23 33 73 52 47 63
REMARK Flexibility Score: inf
ROOT
ATOM      1  C   UNL A   1      38.026  23.302  25.744  1.00  0.00     0.117 C 
ENDROOT
BRANCH   1   2
ATOM      2  N   UNL A   1      37.377  23.179  24.444  1.00  0.00    -0.356 N 
ATOM      3  C   UNL A   1      36.098  22.992  24.033  1.00  0.00     0.226 C 
ATOM      4  O   UNL A   1      35.900  23.139  22.820  1.00  0.00    -0.275 OA
ATOM      5  H   UNL A   1      38.012  23.246  23.695  1.00  0.00     0.163 HD
BRANCH   3   6
ATOM      6  C   UNL A   1      34.921  22.557  24.912  1.00  0.00     0.113 C 
ATOM      7  C   UNL A   1      30.849  25.863  24.211  1.00  0.00     0.222 C 
ATOM      8  O   UNL A   1      30.642  26.669  23.298  1.00  0.00    -0.275 OA
ATOM      9  N   UNL A   1      31.323  24.593  23.936  1.00  0.00    -0.343 N 
ATOM     10  C   UNL A   1      32.112  24.317  22.751  1.00  0.00     0.122 C 
ATOM     11  C   UNL A   1      31.136  23.436  24.762  1.00  0.00     0.122 C 
ATOM     12  C   UNL A   1      33.483  23.768  23.176  1.00  0.00     0.051 C 
ATOM     13  C   UNL A   1      32.462  23.017  25.378  1.00  0.00     0.051 C 
ATOM     14  C   UNL A   1      33.500  22.661  24.282  1.00  0.00     0.058 C 
ATOM     15  N   UNL A   1      33.285  21.254  23.890  1.00  0.00    -0.339 N 
ATOM     16  C   UNL A   1      35.048  21.146  25.458  1.00  0.00     0.116 C 
ATOM     17  C   UNL A   1      34.072  20.366  24.625  1.00  0.00     0.223 C 
ATOM     18  C   UNL A   1      32.153  20.741  23.140  1.00  0.00     0.147 C 
ATOM     19  O   UNL A   1      33.991  19.148  24.618  1.00  0.00    -0.275 OA
BRANCH   7  20
ATOM     20  C   UNL A   1      30.807  26.354  25.669  1.00  0.00     0.105 C 
BRANCH  20  21
ATOM     21  C   UNL A   1      32.096  26.521  26.496  1.00  0.00     0.045 C 
BRANCH  21  22
ATOM     22  C   UNL A   1      32.656  27.936  26.514  1.00  0.00    -0.047 A 
ATOM     23  C   UNL A   1      34.028  31.759  27.910  1.00  0.00     0.044 C 
ATOM     24  C   UNL A   1      33.576  30.489  27.251  1.00  0.00    -0.051 A 
ATOM     25  C   UNL A   1      32.237  30.298  26.897  1.00  0.00     0.004 A 
ATOM     26  C   UNL A   1      34.480  29.436  27.072  1.00  0.00     0.004 A 
ATOM     27  C   UNL A   1      31.786  29.038  26.494  1.00  0.00     0.004 A 
ATOM     28  C   UNL A   1      34.026  28.170  26.696  1.00  0.00     0.004 A 
ENDBRANCH  21  22
ENDBRANCH  20  21
ENDBRANCH   7  20
ENDBRANCH   3   6
ENDBRANCH   1   2
BRANCH   1  29
ATOM     29  C   UNL A   1      38.954  22.155  26.126  1.00  0.00     0.042 C 
BRANCH  29  30
ATOM     30  C   UNL A   1      40.094  22.526  27.061  1.00  0.00     0.118 C 
BRANCH  30  31
ATOM     31  N   UNL A   1      41.269  23.032  26.353  1.00  0.00    -0.352 N 
ATOM     32  C   UNL A   1      41.650  24.344  26.153  1.00  0.00     0.251 C 
ATOM     33  H   UNL A   1      41.865  22.349  25.970  1.00  0.00     0.163 HD
ATOM     34  O   UNL A   1      42.712  24.615  25.602  1.00  0.00    -0.269 OA
BRANCH  32  35
ATOM     35  C   UNL A   1      40.819  25.408  26.748  1.00  0.00     0.039 A 
ATOM     36  C   UNL A   1      40.837  26.653  26.117  1.00  0.00     0.014 A 
ATOM     37  C   UNL A   1      40.309  25.257  28.037  1.00  0.00     0.014 A 
ATOM     38  C   UNL A   1      40.594  27.791  26.876  1.00  0.00     0.010 A 
ATOM     39  C   UNL A   1      40.143  26.389  28.811  1.00  0.00     0.010 A 
ATOM     40  C   UNL A   1      40.366  27.648  28.246  1.00  0.00    -0.014 A 
BRANCH  40  41
ATOM     41  C   UNL A   1      40.488  28.773  29.163  1.00  0.00     0.031 A 
ATOM     42  C   UNL A   1      39.381  29.733  29.311  1.00  0.00     0.074 A 
ATOM     43  C   UNL A   1      41.634  28.968  29.852  1.00  0.00     0.049 A 
ATOM     44  N   UNL A   1      39.554  30.993  29.536  1.00  0.00    -0.248 NA
ATOM     45  C   UNL A   1      37.981  29.348  29.174  1.00  0.00     0.031 C 
ATOM     46  C   UNL A   1      41.868  29.938  30.917  1.00  0.00     0.029 A 
ATOM     47  N   UNL A   1      42.906  28.454  29.559  1.00  0.00    -0.354 N 
ATOM     48  C   UNL A   1      38.325  31.524  29.837  1.00  0.00     0.074 A 
ATOM     49  C   UNL A   1      37.369  30.483  29.526  1.00  0.00     0.031 C 
ATOM     50  C   UNL A   1      43.186  30.179  30.999  1.00  0.00     0.029 A 
ATOM     51  C   UNL A   1      43.826  29.466  29.909  1.00  0.00     0.049 A 
ATOM     52  H   UNL A   1      43.115  27.567  29.186  1.00  0.00     0.167 HD
ATOM     53  C   UNL A   1      38.237  32.732  30.460  1.00  0.00     0.037 A 
ATOM     54  C   UNL A   1      44.677  30.021  29.000  1.00  0.00     0.037 A 
ATOM     55  C   UNL A   1      39.550  33.304  30.727  1.00  0.00     0.049 A 
ATOM     56  C   UNL A   1      44.543  31.518  28.870  1.00  0.00     0.074 A 
ATOM     57  C   UNL A   1      40.362  33.277  31.850  1.00  0.00     0.029 A 
ATOM     58  N   UNL A   1      40.348  33.737  29.674  1.00  0.00    -0.354 N 
ATOM     59  N   UNL A   1      43.488  32.186  29.246  1.00  0.00    -0.248 NA
ATOM     60  C   UNL A   1      45.567  32.378  28.282  1.00  0.00     0.031 C 
ATOM     61  C   UNL A   1      41.663  33.673  31.466  1.00  0.00     0.029 A 
ATOM     62  C   UNL A   1      41.642  33.954  30.111  1.00  0.00     0.049 A 
ATOM     63  H   UNL A   1      40.037  33.869  28.750  1.00  0.00     0.167 HD
ATOM     64  C   UNL A   1      43.657  33.516  28.948  1.00  0.00     0.074 A 
ATOM     65  C   UNL A   1      44.983  33.586  28.367  1.00  0.00     0.031 C 
ATOM     66  C   UNL A   1      42.675  34.432  29.205  1.00  0.00     0.037 A 
BRANCH  53  67
ATOM     67  C   UNL A   1      36.956  33.190  31.102  1.00  0.00     0.057 A 
ATOM     68  C   UNL A   1      36.683  32.942  32.460  1.00  0.00     0.134 A 
ATOM     69  C   UNL A   1      35.926  33.830  30.396  1.00  0.00     0.134 A 
ATOM     70  F   UNL A   1      37.601  32.419  33.282  1.00  0.00    -0.206 F 
ATOM     71  C   UNL A   1      35.435  33.201  33.038  1.00  0.00     0.040 A 
ATOM     72  C   UNL A   1      34.657  34.051  30.948  1.00  0.00     0.040 A 
ATOM     73  F   UNL A   1      36.116  34.265  29.140  1.00  0.00    -0.206 F 
ATOM     74  C   UNL A   1      34.403  33.720  32.272  1.00  0.00     0.006 A 
ENDBRANCH  53  67
BRANCH  54  75
ATOM     75  C   UNL A   1      45.058  29.102  27.900  1.00  0.00     0.057 A 
ATOM     76  C   UNL A   1      46.074  28.157  28.128  1.00  0.00     0.134 A 
ATOM     77  C   UNL A   1      44.227  28.889  26.797  1.00  0.00     0.134 A 
ATOM     78  F   UNL A   1      46.904  28.299  29.175  1.00  0.00    -0.206 F 
ATOM     79  C   UNL A   1      46.192  26.998  27.358  1.00  0.00     0.040 A 
ATOM     80  C   UNL A   1      44.341  27.735  26.014  1.00  0.00     0.040 A 
ATOM     81  F   UNL A   1      43.224  29.736  26.526  1.00  0.00    -0.206 F 
ATOM     82  C   UNL A   1      45.300  26.768  26.317  1.00  0.00     0.006 A 
ENDBRANCH  54  75
BRANCH  66  83
ATOM     83  C   UNL A   1      42.617  35.873  28.744  1.00  0.00     0.057 A 
ATOM     84  C   UNL A   1      43.023  36.975  29.509  1.00  0.00     0.134 A 
ATOM     85  C   UNL A   1      42.262  36.181  27.406  1.00  0.00     0.134 A 
ATOM     86  F   UNL A   1      43.490  36.835  30.754  1.00  0.00    -0.206 F 
ATOM     87  C   UNL A   1      43.028  38.285  29.002  1.00  0.00     0.040 A 
ATOM     88  C   UNL A   1      42.318  37.473  26.876  1.00  0.00     0.040 A 
ATOM     89  F   UNL A   1      41.870  35.236  26.540  1.00  0.00    -0.206 F 
ATOM     90  C   UNL A   1      42.688  38.537  27.680  1.00  0.00     0.006 A 
ENDBRANCH  66  83
ENDBRANCH  40  41
ENDBRANCH  32  35
ENDBRANCH  30  31
ENDBRANCH  29  30
ENDBRANCH   1  29
TORSDOF 13
ENDMDL
MODEL 3
REMARK VINA RESULT:     -13.5      1.944      3.162
REMARK SMILES Cc1ccc(CCC(=O)N2CCC3(CC2)[C@H](C(=O)NCCCNC(=O)c2ccc(-c4c5nc(c(-c6c(F)cccc6F)c6ccc([nH]6)c(-c6c(F)cccc6F)c6nc(c(-c7c(F)cccc7F)c7ccc4[nH]7)C=C6)C=C5)cc2)CC(=O)N3C)cc1
REMARK SMILES IDX 20 1 19 2 17 3 18 4 16 6 8 7 9 8 10 9 11 10 15 11 12 12
REMARK SMILES IDX 14 13 13 14 83 15 80 16 81 17 84 18 82 19 7 20 6 21 5 22
REMARK SMILES IDX 1 23 2 24 3 25 86 26 4 27 85 28 21 29 22 30 23 31 24 32
REMARK SMILES IDX 25 34 26 35 27 36 79 37 28 38 78 39 29 40 30 41 31 42 72 43
REMARK SMILES IDX 32 44 77 45 71 46 73 47 33 48 76 49 70 50 69 51 34 53 60 54
REMARK SMILES IDX 43 55 59 56 44 57 47 58 58 59 74 60 45 61 46 62 57 64 75 65
REMARK SMILES IDX 48 66 35 67 36 68 41 69 37 70 38 71 40 72 42 73 39 74 61 75
REMARK SMILES IDX 62 76 67 77 63 78 64 79 66 80 68 81 65 82 49 83 50 84 55 85
REMARK SMILES IDX 51 86 52 87 54 88 56 89 53 90
REMARK H PARENT 19 5 23 33 73 52 47 63
REMARK Flexibility Score: inf
ROOT
ATOM      1  C   UNL A   1      34.668  28.970  27.297  1.00  0.00     0.117 C 
ENDROOT
BRANCH   1   2
ATOM      2  N   UNL A   1      33.271  28.620  27.529  1.00  0.00    -0.356 N 
ATOM      3  C   UNL A   1      32.287  28.081  26.768  1.00  0.00     0.226 C 
ATOM      4  O   UNL A   1      31.265  27.742  27.378  1.00  0.00    -0.275 OA
ATOM      5  H   UNL A   1      32.976  28.822  28.446  1.00  0.00     0.163 HD
BRANCH   3   6
ATOM      6  C   UNL A   1      32.307  27.923  25.244  1.00  0.00     0.113 C 
ATOM      7  C   UNL A   1      32.686  22.798  23.982  1.00  0.00     0.222 C 
ATOM      8  O   UNL A   1      32.471  21.801  24.679  1.00  0.00    -0.275 OA
ATOM      9  N   UNL A   1      31.829  23.884  24.021  1.00  0.00    -0.343 N 
ATOM     10  C   UNL A   1      31.029  24.179  25.194  1.00  0.00     0.122 C 
ATOM     11  C   UNL A   1      31.646  24.840  22.968  1.00  0.00     0.122 C 
ATOM     12  C   UNL A   1      31.392  25.579  25.711  1.00  0.00     0.051 C 
ATOM     13  C   UNL A   1      32.214  26.188  23.385  1.00  0.00     0.051 C 
ATOM     14  C   UNL A   1      31.502  26.728  24.653  1.00  0.00     0.058 C 
ATOM     15  N   UNL A   1      30.274  27.425  24.223  1.00  0.00    -0.339 N 
ATOM     16  C   UNL A   1      31.853  29.161  24.491  1.00  0.00     0.116 C 
ATOM     17  C   UNL A   1      30.478  28.790  24.016  1.00  0.00     0.223 C 
ATOM     18  C   UNL A   1      29.081  26.798  23.685  1.00  0.00     0.147 C 
ATOM     19  O   UNL A   1      29.686  29.574  23.518  1.00  0.00    -0.275 OA
BRANCH   7  20
ATOM     20  C   UNL A   1      34.035  22.928  23.252  1.00  0.00     0.105 C 
BRANCH  20  21
ATOM     21  C   UNL A   1      35.155  23.835  23.795  1.00  0.00     0.045 C 
BRANCH  21  22
ATOM     22  C   UNL A   1      36.170  23.126  24.679  1.00  0.00    -0.047 A 
ATOM     23  C   UNL A   1      39.853  21.454  26.124  1.00  0.00     0.044 C 
ATOM     24  C   UNL A   1      38.487  21.963  25.769  1.00  0.00    -0.051 A 
ATOM     25  C   UNL A   1      37.609  21.194  25.000  1.00  0.00     0.004 A 
ATOM     26  C   UNL A   1      38.114  23.264  26.125  1.00  0.00     0.004 A 
ATOM     27  C   UNL A   1      36.438  21.760  24.488  1.00  0.00     0.004 A 
ATOM     28  C   UNL A   1      36.958  23.839  25.592  1.00  0.00     0.004 A 
ENDBRANCH  21  22
ENDBRANCH  20  21
ENDBRANCH   7  20
ENDBRANCH   3   6
ENDBRANCH   1   2
BRANCH   1  29
ATOM     29  C   UNL A   1      35.234  30.051  28.210  1.00  0.00     0.042 C 
BRANCH  29  30
ATOM     30  C   UNL A   1      35.239  31.455  27.628  1.00  0.00     0.118 C 
BRANCH  30  31
ATOM     31  N   UNL A   1      34.253  32.335  28.254  1.00  0.00    -0.352 N 
ATOM     32  C   UNL A   1      34.395  33.115  29.384  1.00  0.00     0.251 C 
ATOM     33  H   UNL A   1      33.374  32.375  27.813  1.00  0.00     0.163 HD
ATOM     34  O   UNL A   1      33.497  33.867  29.749  1.00  0.00    -0.269 OA
BRANCH  32  35
ATOM     35  C   UNL A   1      35.708  33.130  30.057  1.00  0.00     0.039 A 
ATOM     36  C   UNL A   1      36.729  33.856  29.439  1.00  0.00     0.014 A 
ATOM     37  C   UNL A   1      35.984  32.213  31.070  1.00  0.00     0.014 A 
ATOM     38  C   UNL A   1      38.046  33.468  29.647  1.00  0.00     0.010 A 
ATOM     39  C   UNL A   1      37.286  31.776  31.220  1.00  0.00     0.010 A 
ATOM     40  C   UNL A   1      38.299  32.351  30.446  1.00  0.00    -0.014 A 
BRANCH  40  41
ATOM     41  C   UNL A   1      39.578  31.655  30.407  1.00  0.00     0.031 A 
ATOM     42  C   UNL A   1      39.709  30.384  29.676  1.00  0.00     0.074 A 
ATOM     43  C   UNL A   1      40.642  32.150  31.077  1.00  0.00     0.049 A 
ATOM     44  N   UNL A   1      40.482  29.421  30.053  1.00  0.00    -0.248 NA
ATOM     45  C   UNL A   1      38.937  30.082  28.476  1.00  0.00     0.031 C 
ATOM     46  C   UNL A   1      42.020  31.674  31.016  1.00  0.00     0.029 A 
ATOM     47  N   UNL A   1      40.634  33.071  32.136  1.00  0.00    -0.354 N 
ATOM     48  C   UNL A   1      40.519  28.506  29.030  1.00  0.00     0.074 A 
ATOM     49  C   UNL A   1      39.486  28.922  28.105  1.00  0.00     0.031 C 
ATOM     50  C   UNL A   1      42.656  32.052  32.136  1.00  0.00     0.029 A 
ATOM     51  C   UNL A   1      41.674  32.674  33.004  1.00  0.00     0.049 A 
ATOM     52  H   UNL A   1      40.027  33.837  32.250  1.00  0.00     0.167 HD
ATOM     53  C   UNL A   1      41.511  27.575  28.982  1.00  0.00     0.037 A 
ATOM     54  C   UNL A   1      41.445  32.332  34.303  1.00  0.00     0.037 A 
ATOM     55  C   UNL A   1      42.439  27.709  30.098  1.00  0.00     0.049 A 
ATOM     56  C   UNL A   1      41.911  30.943  34.662  1.00  0.00     0.074 A 
ATOM     57  C   UNL A   1      43.655  28.361  30.218  1.00  0.00     0.029 A 
ATOM     58  N   UNL A   1      42.020  27.415  31.390  1.00  0.00    -0.354 N 
ATOM     59  N   UNL A   1      42.129  30.003  33.785  1.00  0.00    -0.248 NA
ATOM     60  C   UNL A   1      42.139  30.490  36.032  1.00  0.00     0.031 C 
ATOM     61  C   UNL A   1      43.960  28.481  31.594  1.00  0.00     0.029 A 
ATOM     62  C   UNL A   1      42.935  27.891  32.311  1.00  0.00     0.049 A 
ATOM     63  H   UNL A   1      41.191  26.936  31.617  1.00  0.00     0.167 HD
ATOM     64  C   UNL A   1      42.493  28.847  34.431  1.00  0.00     0.074 A 
ATOM     65  C   UNL A   1      42.505  29.212  35.834  1.00  0.00     0.031 C 
ATOM     66  C   UNL A   1      42.741  27.694  33.740  1.00  0.00     0.037 A 
BRANCH  53  67
ATOM     67  C   UNL A   1      41.785  26.787  27.731  1.00  0.00     0.057 A 
ATOM     68  C   UNL A   1      41.267  25.492  27.547  1.00  0.00     0.134 A 
ATOM     69  C   UNL A   1      42.617  27.246  26.697  1.00  0.00     0.134 A 
ATOM     70  F   UNL A   1      40.390  24.953  28.403  1.00  0.00    -0.206 F 
ATOM     71  C   UNL A   1      41.645  24.672  26.478  1.00  0.00     0.040 A 
ATOM     72  C   UNL A   1      43.041  26.421  25.647  1.00  0.00     0.040 A 
ATOM     73  F   UNL A   1      43.048  28.517  26.671  1.00  0.00    -0.206 F 
ATOM     74  C   UNL A   1      42.566  25.120  25.544  1.00  0.00     0.006 A 
ENDBRANCH  53  67
BRANCH  54  75
ATOM     75  C   UNL A   1      40.276  33.020  34.905  1.00  0.00     0.057 A 
ATOM     76  C   UNL A   1      39.039  32.351  34.936  1.00  0.00     0.134 A 
ATOM     77  C   UNL A   1      40.426  34.121  35.751  1.00  0.00     0.134 A 
ATOM     78  F   UNL A   1      38.833  31.280  34.151  1.00  0.00    -0.206 F 
ATOM     79  C   UNL A   1      38.034  32.696  35.842  1.00  0.00     0.040 A 
ATOM     80  C   UNL A   1      39.422  34.481  36.659  1.00  0.00     0.040 A 
ATOM     81  F   UNL A   1      41.582  34.798  35.793  1.00  0.00    -0.206 F 
ATOM     82  C   UNL A   1      38.240  33.745  36.732  1.00  0.00     0.006 A 
ENDBRANCH  54  75
BRANCH  66  83
ATOM     83  C   UNL A   1      42.933  26.304  34.307  1.00  0.00     0.057 A 
ATOM     84  C   UNL A   1      41.969  25.601  35.044  1.00  0.00     0.134 A 
ATOM     85  C   UNL A   1      44.094  25.556  33.990  1.00  0.00     0.134 A 
ATOM     86  F   UNL A   1      40.775  26.132  35.329  1.00  0.00    -0.206 F 
ATOM     87  C   UNL A   1      42.165  24.279  35.476  1.00  0.00     0.040 A 
ATOM     88  C   UNL A   1      44.275  24.222  34.367  1.00  0.00     0.040 A 
ATOM     89  F   UNL A   1      45.101  26.077  33.274  1.00  0.00    -0.206 F 
ATOM     90  C   UNL A   1      43.313  23.580  35.127  1.00  0.00     0.006 A 
ENDBRANCH  66  83
ENDBRANCH  40  41
ENDBRANCH  32  35
ENDBRANCH  30  31
ENDBRANCH  29  30
ENDBRANCH   1  29
TORSDOF 13
ENDMDL
