MODEL 1
REMARK VINA RESULT:     -11.7      0.000      0.000
REMARK SMILES CC(=O)Nc1nc(C[N@@H+]2CCO[C@@H](CC(=O)NCCCNC(=O)c3ccc(-c4c5nc(c(-c6c(F)cccc6F)c6ccc([nH]6)c(-c6c(F)cccc6F)c6nc(c(-c7c(F)cccc7F)c7ccc4[nH]7)C=C6)C=C5)cc3)C2)cs1
REMARK SMILES IDX 18 1 17 2 15 3 16 4 14 6 13 7 9 8 10 9 78 10 11 12 12 13
REMARK SMILES IDX 8 14 7 15 5 16 6 17 80 18 79 19 4 20 1 21 2 22 3 23 19 25
REMARK SMILES IDX 20 26 21 27 22 28 23 30 24 31 25 32 77 33 26 34 76 35 27 36
REMARK SMILES IDX 28 37 29 38 70 39 30 40 75 41 69 42 71 43 31 44 74 45 68 46
REMARK SMILES IDX 67 47 32 49 58 50 41 51 57 52 42 53 45 54 56 55 72 56 43 57
REMARK SMILES IDX 44 58 55 60 73 61 46 62 33 63 34 64 39 65 35 66 36 67 38 68
REMARK SMILES IDX 40 69 37 70 59 71 60 72 65 73 61 74 62 75 64 76 66 77 63 78
REMARK SMILES IDX 47 79 48 80 53 81 49 82 50 83 52 84 54 85 51 86
REMARK H PARENT 17 5 9 11 4 24 21 29 71 48 45 59
REMARK Flexibility Score: inf
ROOT
ATOM      1  C   UNL A   1      35.917  22.642  23.581  1.00  0.00     0.117 C 
ENDROOT
BRANCH   1   2
ATOM      2  N   UNL A   1      34.588  22.151  23.921  1.00  0.00    -0.356 N 
ATOM      3  C   UNL A   1      33.357  22.512  23.455  1.00  0.00     0.222 C 
ATOM      4  O   UNL A   1      32.365  21.964  23.937  1.00  0.00    -0.275 OA
ATOM      5  H   UNL A   1      34.575  21.439  24.602  1.00  0.00     0.163 HD
BRANCH   3   6
ATOM      6  C   UNL A   1      33.218  23.574  22.392  1.00  0.00     0.138 C 
BRANCH   6   7
ATOM      7  C   UNL A   1      33.020  24.981  22.964  1.00  0.00     0.182 C 
ATOM      8  N   UNL A   1      31.209  26.722  23.480  1.00  0.00    -0.326 N 
ATOM      9  C   UNL A   1      31.721  26.717  24.850  1.00  0.00     0.291 C 
ATOM     10  C   UNL A   1      31.583  25.502  22.759  1.00  0.00     0.295 C 
ATOM     11  H   UNL A   1      30.196  26.697  23.592  1.00  0.00     0.348 HD
ATOM     12  C   UNL A   1      33.141  26.152  25.022  1.00  0.00     0.222 C 
ATOM     13  O   UNL A   1      33.301  24.886  24.377  1.00  0.00    -0.366 OA
BRANCH   8  14
ATOM     14  C   UNL A   1      31.299  27.970  22.718  1.00  0.00     0.320 C 
BRANCH  14  15
ATOM     15  C   UNL A   1      29.987  28.663  22.520  1.00  0.00     0.108 A 
ATOM     16  C   UNL A   1      28.722  30.272  21.703  1.00  0.00     0.189 A 
ATOM     17  N   UNL A   1      29.908  29.726  21.627  1.00  0.00    -0.219 NA
ATOM     18  S   UNL A   1      27.625  29.561  22.796  1.00  0.00    -0.105 S 
ATOM     19  C   UNL A   1      28.785  28.344  23.127  1.00  0.00     0.098 A 
BRANCH  16  20
ATOM     20  N   UNL A   1      28.226  31.347  21.033  1.00  0.00    -0.302 N 
ATOM     21  C   UNL A   1      28.784  32.972  22.822  1.00  0.00     0.114 C 
ATOM     22  C   UNL A   1      28.094  32.605  21.534  1.00  0.00     0.223 C 
ATOM     23  O   UNL A   1      27.485  33.453  20.878  1.00  0.00    -0.275 OA
ATOM     24  H   UNL A   1      27.936  31.202  20.103  1.00  0.00     0.172 HD
ENDBRANCH  16  20
ENDBRANCH  14  15
ENDBRANCH   8  14
ENDBRANCH   6   7
ENDBRANCH   3   6
ENDBRANCH   1   2
BRANCH   1  25
ATOM     25  C   UNL A   1      36.418  23.696  24.569  1.00  0.00     0.042 C 
BRANCH  25  26
ATOM     26  C   UNL A   1      36.542  23.195  25.999  1.00  0.00     0.118 C 
BRANCH  26  27
ATOM     27  N   UNL A   1      37.689  22.319  26.161  1.00  0.00    -0.352 N 
ATOM     28  C   UNL A   1      39.005  22.631  26.399  1.00  0.00     0.251 C 
ATOM     29  H   UNL A   1      37.494  21.356  26.089  1.00  0.00     0.163 HD
ATOM     30  O   UNL A   1      39.866  21.766  26.236  1.00  0.00    -0.269 OA
BRANCH  28  31
ATOM     31  C   UNL A   1      39.409  23.988  26.840  1.00  0.00     0.039 A 
ATOM     32  C   UNL A   1      39.984  24.857  25.906  1.00  0.00     0.014 A 
ATOM     33  C   UNL A   1      39.299  24.387  28.175  1.00  0.00     0.014 A 
ATOM     34  C   UNL A   1      40.406  26.133  26.299  1.00  0.00     0.010 A 
ATOM     35  C   UNL A   1      39.647  25.685  28.549  1.00  0.00     0.010 A 
ATOM     36  C   UNL A   1      40.221  26.567  27.620  1.00  0.00    -0.014 A 
BRANCH  36  37
ATOM     37  C   UNL A   1      40.654  27.919  28.066  1.00  0.00     0.031 A 
ATOM     38  C   UNL A   1      42.119  28.266  28.104  1.00  0.00     0.074 A 
ATOM     39  C   UNL A   1      39.743  28.811  28.501  1.00  0.00     0.049 A 
ATOM     40  N   UNL A   1      42.704  29.343  28.562  1.00  0.00    -0.248 NA
ATOM     41  C   UNL A   1      43.052  27.254  27.582  1.00  0.00     0.031 C 
ATOM     42  C   UNL A   1      38.297  28.591  28.550  1.00  0.00     0.029 A 
ATOM     43  N   UNL A   1      39.903  30.078  29.005  1.00  0.00    -0.354 N 
ATOM     44  C   UNL A   1      44.069  29.126  28.414  1.00  0.00     0.074 A 
ATOM     45  C   UNL A   1      44.227  27.800  27.856  1.00  0.00     0.031 C 
ATOM     46  C   UNL A   1      37.702  29.689  29.044  1.00  0.00     0.029 A 
ATOM     47  C   UNL A   1      38.725  30.674  29.384  1.00  0.00     0.049 A 
ATOM     48  H   UNL A   1      40.779  30.519  29.085  1.00  0.00     0.167 HD
ATOM     49  C   UNL A   1      45.096  29.960  28.700  1.00  0.00     0.037 A 
ATOM     50  C   UNL A   1      38.494  31.872  29.955  1.00  0.00     0.037 A 
ATOM     51  C   UNL A   1      44.938  31.297  29.208  1.00  0.00     0.049 A 
ATOM     52  C   UNL A   1      39.653  32.783  30.257  1.00  0.00     0.074 A 
ATOM     53  C   UNL A   1      45.914  32.248  29.450  1.00  0.00     0.029 A 
ATOM     54  N   UNL A   1      43.725  31.872  29.553  1.00  0.00    -0.354 N 
ATOM     55  N   UNL A   1      40.932  32.590  30.048  1.00  0.00    -0.248 NA
ATOM     56  C   UNL A   1      39.335  34.081  30.872  1.00  0.00     0.031 C 
ATOM     57  C   UNL A   1      45.296  33.385  29.977  1.00  0.00     0.029 A 
ATOM     58  C   UNL A   1      43.931  33.157  30.027  1.00  0.00     0.049 A 
ATOM     59  H   UNL A   1      42.848  31.432  29.473  1.00  0.00     0.167 HD
ATOM     60  C   UNL A   1      41.567  33.747  30.477  1.00  0.00     0.074 A 
ATOM     61  C   UNL A   1      40.532  34.644  30.949  1.00  0.00     0.031 C 
ATOM     62  C   UNL A   1      42.889  34.042  30.479  1.00  0.00     0.037 A 
BRANCH  49  63
ATOM     63  C   UNL A   1      46.490  29.455  28.467  1.00  0.00     0.057 A 
ATOM     64  C   UNL A   1      47.193  28.741  29.445  1.00  0.00     0.134 A 
ATOM     65  C   UNL A   1      47.118  29.646  27.229  1.00  0.00     0.134 A 
ATOM     66  F   UNL A   1      46.652  28.532  30.655  1.00  0.00    -0.206 F 
ATOM     67  C   UNL A   1      48.479  28.253  29.209  1.00  0.00     0.040 A 
ATOM     68  C   UNL A   1      48.394  29.141  26.973  1.00  0.00     0.040 A 
ATOM     69  F   UNL A   1      46.498  30.315  26.246  1.00  0.00    -0.206 F 
ATOM     70  C   UNL A   1      49.081  28.446  27.967  1.00  0.00     0.006 A 
ENDBRANCH  49  63
BRANCH  50  71
ATOM     71  C   UNL A   1      37.106  32.290  30.275  1.00  0.00     0.057 A 
ATOM     72  C   UNL A   1      36.529  31.984  31.513  1.00  0.00     0.134 A 
ATOM     73  C   UNL A   1      36.319  32.985  29.350  1.00  0.00     0.134 A 
ATOM     74  F   UNL A   1      37.226  31.300  32.432  1.00  0.00    -0.206 F 
ATOM     75  C   UNL A   1      35.212  32.336  31.813  1.00  0.00     0.040 A 
ATOM     76  C   UNL A   1      35.008  33.365  29.646  1.00  0.00     0.040 A 
ATOM     77  F   UNL A   1      36.814  33.313  28.148  1.00  0.00    -0.206 F 
ATOM     78  C   UNL A   1      34.450  33.034  30.879  1.00  0.00     0.006 A 
ENDBRANCH  50  71
BRANCH  62  79
ATOM     79  C   UNL A   1      43.292  35.400  30.971  1.00  0.00     0.057 A 
ATOM     80  C   UNL A   1      43.528  35.654  32.327  1.00  0.00     0.134 A 
ATOM     81  C   UNL A   1      43.498  36.452  30.068  1.00  0.00     0.134 A 
ATOM     82  F   UNL A   1      43.335  34.693  33.243  1.00  0.00    -0.206 F 
ATOM     83  C   UNL A   1      43.938  36.913  32.771  1.00  0.00     0.040 A 
ATOM     84  C   UNL A   1      43.931  37.706  30.496  1.00  0.00     0.040 A 
ATOM     85  F   UNL A   1      43.298  36.270  28.754  1.00  0.00    -0.206 F 
ATOM     86  C   UNL A   1      44.150  37.940  31.853  1.00  0.00     0.006 A 
ENDBRANCH  62  79
ENDBRANCH  36  37
ENDBRANCH  28  31
ENDBRANCH  26  27
ENDBRANCH  25  26
ENDBRANCH   1  25
TORSDOF 14
ENDMDL
MODEL 2
REMARK VINA RESULT:     -11.6      2.635      7.161
REMARK SMILES CC(=O)Nc1nc(C[N@@H+]2CCO[C@@H](CC(=O)NCCCNC(=O)c3ccc(-c4c5nc(c(-c6c(F)cccc6F)c6ccc([nH]6)c(-c6c(F)cccc6F)c6nc(c(-c7c(F)cccc7F)c7ccc4[nH]7)C=C6)C=C5)cc3)C2)cs1
REMARK SMILES IDX 18 1 17 2 15 3 16 4 14 6 13 7 9 8 10 9 78 10 11 12 12 13
REMARK SMILES IDX 8 14 7 15 5 16 6 17 80 18 79 19 4 20 1 21 2 22 3 23 19 25
REMARK SMILES IDX 20 26 21 27 22 28 23 30 24 31 25 32 77 33 26 34 76 35 27 36
REMARK SMILES IDX 28 37 29 38 70 39 30 40 75 41 69 42 71 43 31 44 74 45 68 46
REMARK SMILES IDX 67 47 32 49 58 50 41 51 57 52 42 53 45 54 56 55 72 56 43 57
REMARK SMILES IDX 44 58 55 60 73 61 46 62 33 63 34 64 39 65 35 66 36 67 38 68
REMARK SMILES IDX 40 69 37 70 59 71 60 72 65 73 61 74 62 75 64 76 66 77 63 78
REMARK SMILES IDX 47 79 48 80 53 81 49 82 50 83 52 84 54 85 51 86
REMARK H PARENT 17 5 9 11 4 24 21 29 71 48 45 59
REMARK Flexibility Score: inf
ROOT
ATOM      1  C   UNL A   1      35.960  20.477  24.945  1.00  0.00     0.117 C 
ENDROOT
BRANCH   1   2
ATOM      2  N   UNL A   1      34.777  19.685  25.257  1.00  0.00    -0.356 N 
ATOM      3  C   UNL A   1      33.461  19.893  24.958  1.00  0.00     0.222 C 
ATOM      4  O   UNL A   1      32.633  19.082  25.373  1.00  0.00    -0.275 OA
ATOM      5  H   UNL A   1      34.956  18.862  25.768  1.00  0.00     0.163 HD
BRANCH   3   6
ATOM      6  C   UNL A   1      33.034  21.100  24.159  1.00  0.00     0.138 C 
BRANCH   6   7
ATOM      7  C   UNL A   1      32.651  22.299  25.031  1.00  0.00     0.182 C 
ATOM      8  N   UNL A   1      31.741  24.693  24.897  1.00  0.00    -0.326 N 
ATOM      9  C   UNL A   1      30.695  24.252  25.819  1.00  0.00     0.291 C 
ATOM     10  C   UNL A   1      32.357  23.562  24.197  1.00  0.00     0.295 C 
ATOM     11  H   UNL A   1      31.241  25.236  24.194  1.00  0.00     0.348 HD
ATOM     12  C   UNL A   1      31.006  22.965  26.603  1.00  0.00     0.222 C 
ATOM     13  O   UNL A   1      31.462  21.910  25.753  1.00  0.00    -0.366 OA
BRANCH   8  14
ATOM     14  C   UNL A   1      32.657  25.741  25.351  1.00  0.00     0.320 C 
BRANCH  14  15
ATOM     15  C   UNL A   1      32.684  26.955  24.473  1.00  0.00     0.108 A 
ATOM     16  C   UNL A   1      31.855  28.258  22.902  1.00  0.00     0.189 A 
ATOM     17  N   UNL A   1      31.577  27.247  23.685  1.00  0.00    -0.219 NA
ATOM     18  S   UNL A   1      33.408  28.940  23.061  1.00  0.00    -0.105 S 
ATOM     19  C   UNL A   1      33.714  27.872  24.366  1.00  0.00     0.098 A 
BRANCH  16  20
ATOM     20  N   UNL A   1      31.077  28.852  21.957  1.00  0.00    -0.302 N 
ATOM     21  C   UNL A   1      29.700  30.109  23.595  1.00  0.00     0.114 C 
ATOM     22  C   UNL A   1      29.976  29.614  22.198  1.00  0.00     0.223 C 
ATOM     23  O   UNL A   1      29.268  29.965  21.252  1.00  0.00    -0.275 OA
ATOM     24  H   UNL A   1      31.333  28.719  21.016  1.00  0.00     0.172 HD
ENDBRANCH  16  20
ENDBRANCH  14  15
ENDBRANCH   8  14
ENDBRANCH   6   7
ENDBRANCH   3   6
ENDBRANCH   1   2
BRANCH   1  25
ATOM     25  C   UNL A   1      37.226  19.623  24.869  1.00  0.00     0.042 C 
BRANCH  25  26
ATOM     26  C   UNL A   1      38.448  20.266  25.505  1.00  0.00     0.118 C 
BRANCH  26  27
ATOM     27  N   UNL A   1      39.541  19.319  25.642  1.00  0.00    -0.352 N 
ATOM     28  C   UNL A   1      40.860  19.541  25.950  1.00  0.00     0.251 C 
ATOM     29  H   UNL A   1      39.299  18.376  25.491  1.00  0.00     0.163 HD
ATOM     30  O   UNL A   1      41.682  18.645  25.754  1.00  0.00    -0.269 OA
BRANCH  28  31
ATOM     31  C   UNL A   1      41.316  20.838  26.507  1.00  0.00     0.039 A 
ATOM     32  C   UNL A   1      41.205  21.056  27.885  1.00  0.00     0.014 A 
ATOM     33  C   UNL A   1      41.781  21.866  25.683  1.00  0.00     0.014 A 
ATOM     34  C   UNL A   1      41.597  22.281  28.437  1.00  0.00     0.010 A 
ATOM     35  C   UNL A   1      42.244  23.057  26.242  1.00  0.00     0.010 A 
ATOM     36  C   UNL A   1      42.141  23.286  27.622  1.00  0.00    -0.014 A 
BRANCH  36  37
ATOM     37  C   UNL A   1      42.572  24.596  28.181  1.00  0.00     0.031 A 
ATOM     38  C   UNL A   1      41.557  25.682  28.422  1.00  0.00     0.074 A 
ATOM     39  C   UNL A   1      43.878  24.838  28.407  1.00  0.00     0.049 A 
ATOM     40  N   UNL A   1      41.742  26.922  28.796  1.00  0.00    -0.248 NA
ATOM     41  C   UNL A   1      40.146  25.334  28.184  1.00  0.00     0.031 C 
ATOM     42  C   UNL A   1      44.967  23.887  28.184  1.00  0.00     0.029 A 
ATOM     43  N   UNL A   1      44.512  25.969  28.859  1.00  0.00    -0.354 N 
ATOM     44  C   UNL A   1      40.482  27.508  28.807  1.00  0.00     0.074 A 
ATOM     45  C   UNL A   1      39.543  26.498  28.368  1.00  0.00     0.031 C 
ATOM     46  C   UNL A   1      46.133  24.470  28.510  1.00  0.00     0.029 A 
ATOM     47  C   UNL A   1      45.879  25.846  28.926  1.00  0.00     0.049 A 
ATOM     48  H   UNL A   1      44.032  26.790  29.111  1.00  0.00     0.167 HD
ATOM     49  C   UNL A   1      40.135  28.767  29.165  1.00  0.00     0.037 A 
ATOM     50  C   UNL A   1      46.822  26.744  29.270  1.00  0.00     0.037 A 
ATOM     51  C   UNL A   1      41.061  29.757  29.650  1.00  0.00     0.049 A 
ATOM     52  C   UNL A   1      46.409  28.134  29.670  1.00  0.00     0.074 A 
ATOM     53  C   UNL A   1      40.793  31.031  30.117  1.00  0.00     0.029 A 
ATOM     54  N   UNL A   1      42.433  29.581  29.728  1.00  0.00    -0.354 N 
ATOM     55  N   UNL A   1      45.207  28.651  29.740  1.00  0.00    -0.248 NA
ATOM     56  C   UNL A   1      47.485  29.064  30.043  1.00  0.00     0.031 C 
ATOM     57  C   UNL A   1      42.008  31.642  30.442  1.00  0.00     0.029 A 
ATOM     58  C   UNL A   1      43.028  30.734  30.215  1.00  0.00     0.049 A 
ATOM     59  H   UNL A   1      42.914  28.760  29.475  1.00  0.00     0.167 HD
ATOM     60  C   UNL A   1      45.379  29.953  30.190  1.00  0.00     0.074 A 
ATOM     61  C   UNL A   1      46.801  30.146  30.387  1.00  0.00     0.031 C 
ATOM     62  C   UNL A   1      44.443  30.905  30.420  1.00  0.00     0.037 A 
BRANCH  49  63
ATOM     63  C   UNL A   1      38.689  29.151  29.053  1.00  0.00     0.057 A 
ATOM     64  C   UNL A   1      37.831  29.140  30.160  1.00  0.00     0.134 A 
ATOM     65  C   UNL A   1      38.160  29.582  27.829  1.00  0.00     0.134 A 
ATOM     66  F   UNL A   1      38.272  28.728  31.358  1.00  0.00    -0.206 F 
ATOM     67  C   UNL A   1      36.493  29.523  30.050  1.00  0.00     0.040 A 
ATOM     68  C   UNL A   1      36.831  29.992  27.713  1.00  0.00     0.040 A 
ATOM     69  F   UNL A   1      38.929  29.625  26.732  1.00  0.00    -0.206 F 
ATOM     70  C   UNL A   1      35.991  29.958  28.825  1.00  0.00     0.006 A 
ENDBRANCH  49  63
BRANCH  50  71
ATOM     71  C   UNL A   1      48.256  26.358  29.259  1.00  0.00     0.057 A 
ATOM     72  C   UNL A   1      48.845  25.746  30.372  1.00  0.00     0.134 A 
ATOM     73  C   UNL A   1      49.073  26.606  28.151  1.00  0.00     0.134 A 
ATOM     74  F   UNL A   1      48.118  25.502  31.472  1.00  0.00    -0.206 F 
ATOM     75  C   UNL A   1      50.200  25.413  30.390  1.00  0.00     0.040 A 
ATOM     76  C   UNL A   1      50.424  26.256  28.147  1.00  0.00     0.040 A 
ATOM     77  F   UNL A   1      48.568  27.185  27.052  1.00  0.00    -0.206 F 
ATOM     78  C   UNL A   1      50.992  25.664  29.272  1.00  0.00     0.006 A 
ENDBRANCH  50  71
BRANCH  62  79
ATOM     79  C   UNL A   1      44.917  32.226  30.947  1.00  0.00     0.057 A 
ATOM     80  C   UNL A   1      45.209  33.298  30.096  1.00  0.00     0.134 A 
ATOM     81  C   UNL A   1      45.031  32.442  32.326  1.00  0.00     0.134 A 
ATOM     82  F   UNL A   1      45.132  33.150  28.764  1.00  0.00    -0.206 F 
ATOM     83  C   UNL A   1      45.615  34.536  30.598  1.00  0.00     0.040 A 
ATOM     84  C   UNL A   1      45.413  33.682  32.841  1.00  0.00     0.040 A 
ATOM     85  F   UNL A   1      44.757  31.458  33.196  1.00  0.00    -0.206 F 
ATOM     86  C   UNL A   1      45.709  34.732  31.975  1.00  0.00     0.006 A 
ENDBRANCH  62  79
ENDBRANCH  36  37
ENDBRANCH  28  31
ENDBRANCH  26  27
ENDBRANCH  25  26
ENDBRANCH   1  25
TORSDOF 14
ENDMDL
MODEL 3
REMARK VINA RESULT:     -11.6      4.096      7.682
REMARK SMILES CC(=O)Nc1nc(C[N@@H+]2CCO[C@@H](CC(=O)NCCCNC(=O)c3ccc(-c4c5nc(c(-c6c(F)cccc6F)c6ccc([nH]6)c(-c6c(F)cccc6F)c6nc(c(-c7c(F)cccc7F)c7ccc4[nH]7)C=C6)C=C5)cc3)C2)cs1
REMARK SMILES IDX 18 1 17 2 15 3 16 4 14 6 13 7 9 8 10 9 78 10 11 12 12 13
REMARK SMILES IDX 8 14 7 15 5 16 6 17 80 18 79 19 4 20 1 21 2 22 3 23 19 25
REMARK SMILES IDX 20 26 21 27 22 28 23 30 24 31 25 32 77 33 26 34 76 35 27 36
REMARK SMILES IDX 28 37 29 38 70 39 30 40 75 41 69 42 71 43 31 44 74 45 68 46
REMARK SMILES IDX 67 47 32 49 58 50 41 51 57 52 42 53 45 54 56 55 72 56 43 57
REMARK SMILES IDX 44 58 55 60 73 61 46 62 33 63 34 64 39 65 35 66 36 67 38 68
REMARK SMILES IDX 40 69 37 70 59 71 60 72 65 73 61 74 62 75 64 76 66 77 63 78
REMARK SMILES IDX 47 79 48 80 53 81 49 82 50 83 52 84 54 85 51 86
REMARK H PARENT 17 5 9 11 4 24 21 29 71 48 45 59
REMARK Flexibility Score: inf
ROOT
ATOM      1  C   UNL A   1      31.888  28.319  23.017  1.00  0.00     0.117 C 
ENDROOT
BRANCH   1   2
ATOM      2  N   UNL A   1      32.664  27.477  22.116  1.00  0.00    -0.356 N 
ATOM      3  C   UNL A   1      32.575  26.142  21.845  1.00  0.00     0.222 C 
ATOM      4  O   UNL A   1      33.384  25.650  21.058  1.00  0.00    -0.275 OA
ATOM      5  H   UNL A   1      33.370  27.950  21.618  1.00  0.00     0.163 HD
BRANCH   3   6
ATOM      6  C   UNL A   1      31.525  25.289  22.514  1.00  0.00     0.138 C 
BRANCH   6   7
ATOM      7  C   UNL A   1      32.083  24.414  23.641  1.00  0.00     0.182 C 
ATOM      8  N   UNL A   1      33.197  22.147  24.082  1.00  0.00    -0.326 N 
ATOM      9  C   UNL A   1      34.265  22.901  24.738  1.00  0.00     0.291 C 
ATOM     10  C   UNL A   1      32.428  22.990  23.162  1.00  0.00     0.295 C 
ATOM     11  H   UNL A   1      33.690  21.462  23.510  1.00  0.00     0.348 HD
ATOM     12  C   UNL A   1      33.898  24.333  25.164  1.00  0.00     0.222 C 
ATOM     13  O   UNL A   1      33.282  25.070  24.105  1.00  0.00    -0.366 OA
BRANCH   8  14
ATOM     14  C   UNL A   1      32.419  21.211  24.897  1.00  0.00     0.320 C 
BRANCH  14  15
ATOM     15  C   UNL A   1      32.386  19.813  24.361  1.00  0.00     0.108 A 
ATOM     16  C   UNL A   1      32.410  17.622  24.592  1.00  0.00     0.189 A 
ATOM     17  N   UNL A   1      32.287  18.747  25.248  1.00  0.00    -0.219 NA
ATOM     18  S   UNL A   1      32.618  17.742  22.905  1.00  0.00    -0.105 S 
ATOM     19  C   UNL A   1      32.418  19.440  23.029  1.00  0.00     0.098 A 
BRANCH  16  20
ATOM     20  N   UNL A   1      32.404  16.346  25.065  1.00  0.00    -0.302 N 
ATOM     21  C   UNL A   1      34.876  16.149  25.139  1.00  0.00     0.114 C 
ATOM     22  C   UNL A   1      33.496  15.549  25.217  1.00  0.00     0.223 C 
ATOM     23  O   UNL A   1      33.338  14.361  25.506  1.00  0.00    -0.275 OA
ATOM     24  H   UNL A   1      31.532  15.967  25.320  1.00  0.00     0.172 HD
ENDBRANCH  16  20
ENDBRANCH  14  15
ENDBRANCH   8  14
ENDBRANCH   6   7
ENDBRANCH   3   6
ENDBRANCH   1   2
BRANCH   1  25
ATOM     25  C   UNL A   1      32.325  28.167  24.474  1.00  0.00     0.042 C 
BRANCH  25  26
ATOM     26  C   UNL A   1      33.271  29.256  24.955  1.00  0.00     0.118 C 
BRANCH  26  27
ATOM     27  N   UNL A   1      32.548  30.383  25.519  1.00  0.00    -0.352 N 
ATOM     28  C   UNL A   1      32.764  31.066  26.689  1.00  0.00     0.251 C 
ATOM     29  H   UNL A   1      31.789  30.705  24.980  1.00  0.00     0.163 HD
ATOM     30  O   UNL A   1      31.883  31.812  27.120  1.00  0.00    -0.269 OA
BRANCH  28  31
ATOM     31  C   UNL A   1      34.029  30.919  27.448  1.00  0.00     0.039 A 
ATOM     32  C   UNL A   1      34.838  32.046  27.635  1.00  0.00     0.014 A 
ATOM     33  C   UNL A   1      34.465  29.675  27.913  1.00  0.00     0.014 A 
ATOM     34  C   UNL A   1      36.054  31.934  28.320  1.00  0.00     0.010 A 
ATOM     35  C   UNL A   1      35.637  29.578  28.662  1.00  0.00     0.010 A 
ATOM     36  C   UNL A   1      36.455  30.702  28.859  1.00  0.00    -0.014 A 
BRANCH  36  37
ATOM     37  C   UNL A   1      37.738  30.553  29.596  1.00  0.00     0.031 A 
ATOM     38  C   UNL A   1      38.880  29.792  28.974  1.00  0.00     0.074 A 
ATOM     39  C   UNL A   1      37.860  31.038  30.847  1.00  0.00     0.049 A 
ATOM     40  N   UNL A   1      40.033  29.457  29.493  1.00  0.00    -0.248 NA
ATOM     41  C   UNL A   1      38.686  29.321  27.593  1.00  0.00     0.031 C 
ATOM     42  C   UNL A   1      36.821  31.763  31.579  1.00  0.00     0.029 A 
ATOM     43  N   UNL A   1      38.908  30.975  31.732  1.00  0.00    -0.354 N 
ATOM     44  C   UNL A   1      40.687  28.712  28.518  1.00  0.00     0.074 A 
ATOM     45  C   UNL A   1      39.787  28.614  27.389  1.00  0.00     0.031 C 
ATOM     46  C   UNL A   1      37.288  32.088  32.796  1.00  0.00     0.029 A 
ATOM     47  C   UNL A   1      38.641  31.560  32.946  1.00  0.00     0.049 A 
ATOM     48  H   UNL A   1      39.770  30.551  31.516  1.00  0.00     0.167 HD
ATOM     49  C   UNL A   1      41.928  28.174  28.553  1.00  0.00     0.037 A 
ATOM     50  C   UNL A   1      39.395  31.650  34.058  1.00  0.00     0.037 A 
ATOM     51  C   UNL A   1      42.843  28.313  29.655  1.00  0.00     0.049 A 
ATOM     52  C   UNL A   1      40.774  31.049  34.068  1.00  0.00     0.074 A 
ATOM     53  C   UNL A   1      44.152  27.876  29.749  1.00  0.00     0.029 A 
ATOM     54  N   UNL A   1      42.542  28.938  30.855  1.00  0.00    -0.354 N 
ATOM     55  N   UNL A   1      41.402  30.406  33.114  1.00  0.00    -0.248 NA
ATOM     56  C   UNL A   1      41.550  31.187  35.310  1.00  0.00     0.031 C 
ATOM     57  C   UNL A   1      44.633  28.202  31.021  1.00  0.00     0.029 A 
ATOM     58  C   UNL A   1      43.635  28.878  31.704  1.00  0.00     0.049 A 
ATOM     59  H   UNL A   1      41.680  29.362  31.071  1.00  0.00     0.167 HD
ATOM     60  C   UNL A   1      42.653  30.091  33.627  1.00  0.00     0.074 A 
ATOM     61  C   UNL A   1      42.700  30.621  34.975  1.00  0.00     0.031 C 
ATOM     62  C   UNL A   1      43.672  29.423  33.036  1.00  0.00     0.037 A 
BRANCH  49  63
ATOM     63  C   UNL A   1      42.379  27.383  27.359  1.00  0.00     0.057 A 
ATOM     64  C   UNL A   1      42.987  27.991  26.254  1.00  0.00     0.134 A 
ATOM     65  C   UNL A   1      42.246  25.988  27.338  1.00  0.00     0.134 A 
ATOM     66  F   UNL A   1      43.135  29.323  26.207  1.00  0.00    -0.206 F 
ATOM     67  C   UNL A   1      43.426  27.243  25.160  1.00  0.00     0.040 A 
ATOM     68  C   UNL A   1      42.704  25.228  26.261  1.00  0.00     0.040 A 
ATOM     69  F   UNL A   1      41.681  25.342  28.368  1.00  0.00    -0.206 F 
ATOM     70  C   UNL A   1      43.292  25.856  25.165  1.00  0.00     0.006 A 
ENDBRANCH  49  63
BRANCH  50  71
ATOM     71  C   UNL A   1      38.868  32.344  35.261  1.00  0.00     0.057 A 
ATOM     72  C   UNL A   1      39.026  33.726  35.422  1.00  0.00     0.134 A 
ATOM     73  C   UNL A   1      38.214  31.646  36.281  1.00  0.00     0.134 A 
ATOM     74  F   UNL A   1      39.664  34.446  34.487  1.00  0.00    -0.206 F 
ATOM     75  C   UNL A   1      38.570  34.385  36.564  1.00  0.00     0.040 A 
ATOM     76  C   UNL A   1      37.731  32.296  37.418  1.00  0.00     0.040 A 
ATOM     77  F   UNL A   1      38.026  30.321  36.185  1.00  0.00    -0.206 F 
ATOM     78  C   UNL A   1      37.915  33.669  37.564  1.00  0.00     0.006 A 
ENDBRANCH  50  71
BRANCH  62  79
ATOM     79  C   UNL A   1      44.938  29.258  33.822  1.00  0.00     0.057 A 
ATOM     80  C   UNL A   1      45.164  28.138  34.631  1.00  0.00     0.134 A 
ATOM     81  C   UNL A   1      45.963  30.208  33.727  1.00  0.00     0.134 A 
ATOM     82  F   UNL A   1      44.215  27.201  34.776  1.00  0.00    -0.206 F 
ATOM     83  C   UNL A   1      46.361  27.976  35.332  1.00  0.00     0.040 A 
ATOM     84  C   UNL A   1      47.173  30.045  34.402  1.00  0.00     0.040 A 
ATOM     85  F   UNL A   1      45.812  31.299  32.961  1.00  0.00    -0.206 F 
ATOM     86  C   UNL A   1      47.373  28.927  35.211  1.00  0.00     0.006 A 
ENDBRANCH  62  79
ENDBRANCH  36  37
ENDBRANCH  28  31
ENDBRANCH  26  27
ENDBRANCH  25  26
ENDBRANCH   1  25
TORSDOF 14
ENDMDL
