MODEL 1
REMARK VINA RESULT:     -12.6      0.000      0.000
REMARK SMILES Cc1ccc([C@H](CC2CCCC2)C(=O)NCCCNC(=O)c2ccc(-c3c4nc(c(-c5c(F)cccc5F)c5ccc([nH]5)c(-c5c(F)cccc5F)c5nc(c(-c6c(F)cccc6F)c6ccc3[nH]6)C=C5)C=C4)cc2)cc1
REMARK SMILES IDX 17 1 16 2 15 3 13 4 14 5 6 7 5 8 1 9 2 10 3 11 77 12 4 13
REMARK SMILES IDX 76 14 7 15 8 16 9 17 12 18 10 19 11 20 18 21 19 22 20 23
REMARK SMILES IDX 21 25 22 26 23 27 75 28 24 29 74 30 25 31 26 32 27 33 68 34
REMARK SMILES IDX 28 35 73 36 67 37 69 38 29 39 72 40 66 41 65 42 30 44 56 45
REMARK SMILES IDX 39 46 55 47 40 48 43 49 54 50 70 51 41 52 42 53 53 55 71 56
REMARK SMILES IDX 44 57 31 58 32 59 37 60 33 61 34 62 36 63 38 64 35 65 57 66
REMARK SMILES IDX 58 67 63 68 59 69 60 70 62 71 64 72 61 73 45 74 46 75 51 76
REMARK SMILES IDX 47 77 48 78 50 79 52 80 49 81
REMARK H PARENT 15 6 19 24 69 43 43 54
REMARK Flexibility Score: inf
ROOT
ATOM      1  C   UNL A   1      38.499  21.512  25.460  1.00  0.00     0.042 C 
ENDROOT
BRANCH   1   2
ATOM      2  C   UNL A   1      37.049  21.504  25.020  1.00  0.00     0.117 C 
BRANCH   2   3
ATOM      3  N   UNL A   1      36.123  21.770  26.114  1.00  0.00    -0.356 N 
ATOM      4  C   UNL A   1      34.792  21.465  26.227  1.00  0.00     0.227 C 
ATOM      5  O   UNL A   1      34.263  21.654  27.326  1.00  0.00    -0.274 OA
ATOM      6  H   UNL A   1      36.511  22.240  26.887  1.00  0.00     0.163 HD
BRANCH   4   7
ATOM      7  C   UNL A   1      33.967  20.947  25.039  1.00  0.00     0.109 C 
BRANCH   7   8
ATOM      8  C   UNL A   1      33.317  22.030  24.162  1.00  0.00    -0.036 A 
ATOM      9  C   UNL A   1      31.546  25.579  22.438  1.00  0.00     0.044 C 
ATOM     10  C   UNL A   1      32.133  24.306  22.967  1.00  0.00    -0.051 A 
ATOM     11  C   UNL A   1      31.362  23.426  23.727  1.00  0.00     0.004 A 
ATOM     12  C   UNL A   1      33.455  23.960  22.679  1.00  0.00     0.004 A 
ATOM     13  C   UNL A   1      31.946  22.301  24.311  1.00  0.00     0.005 A 
ATOM     14  C   UNL A   1      34.026  22.814  23.238  1.00  0.00     0.005 A 
ENDBRANCH   7   8
BRANCH   7  15
ATOM     15  C   UNL A   1      32.931  19.887  25.520  1.00  0.00     0.022 C 
BRANCH  15  16
ATOM     16  C   UNL A   1      32.859  18.607  24.674  1.00  0.00    -0.010 C 
ATOM     17  C   UNL A   1      32.341  18.786  23.249  1.00  0.00     0.003 C 
ATOM     18  C   UNL A   1      34.261  18.043  24.420  1.00  0.00     0.003 C 
ATOM     19  C   UNL A   1      32.832  17.537  22.517  1.00  0.00     0.000 C 
ATOM     20  C   UNL A   1      34.086  17.076  23.258  1.00  0.00     0.000 C 
ENDBRANCH  15  16
ENDBRANCH   7  15
ENDBRANCH   4   7
ENDBRANCH   2   3
ENDBRANCH   1   2
BRANCH   1  21
ATOM     21  C   UNL A   1      38.879  22.778  26.201  1.00  0.00     0.118 C 
BRANCH  21  22
ATOM     22  N   UNL A   1      40.302  22.900  26.512  1.00  0.00    -0.352 N 
ATOM     23  C   UNL A   1      41.039  24.018  26.879  1.00  0.00     0.251 C 
ATOM     24  H   UNL A   1      40.816  22.062  26.450  1.00  0.00     0.163 HD
ATOM     25  O   UNL A   1      42.236  23.918  27.086  1.00  0.00    -0.269 OA
BRANCH  23  26
ATOM     26  C   UNL A   1      40.336  25.293  27.179  1.00  0.00     0.039 A 
ATOM     27  C   UNL A   1      40.609  26.397  26.360  1.00  0.00     0.014 A 
ATOM     28  C   UNL A   1      39.673  25.472  28.386  1.00  0.00     0.014 A 
ATOM     29  C   UNL A   1      40.506  27.676  26.895  1.00  0.00     0.010 A 
ATOM     30  C   UNL A   1      39.721  26.715  28.971  1.00  0.00     0.010 A 
ATOM     31  C   UNL A   1      40.207  27.805  28.246  1.00  0.00    -0.014 A 
BRANCH  31  32
ATOM     32  C   UNL A   1      40.437  29.013  29.022  1.00  0.00     0.031 A 
ATOM     33  C   UNL A   1      39.365  30.022  29.117  1.00  0.00     0.074 A 
ATOM     34  C   UNL A   1      41.563  29.117  29.764  1.00  0.00     0.049 A 
ATOM     35  N   UNL A   1      39.530  31.209  29.586  1.00  0.00    -0.248 NA
ATOM     36  C   UNL A   1      38.013  29.795  28.607  1.00  0.00     0.031 C 
ATOM     37  C   UNL A   1      41.825  30.046  30.861  1.00  0.00     0.029 A 
ATOM     38  N   UNL A   1      42.809  28.519  29.513  1.00  0.00    -0.354 N 
ATOM     39  C   UNL A   1      38.288  31.781  29.724  1.00  0.00     0.074 A 
ATOM     40  C   UNL A   1      37.404  30.924  28.980  1.00  0.00     0.031 C 
ATOM     41  C   UNL A   1      43.152  30.191  30.999  1.00  0.00     0.029 A 
ATOM     42  C   UNL A   1      43.773  29.484  29.892  1.00  0.00     0.049 A 
ATOM     43  H   UNL A   1      42.977  27.619  29.151  1.00  0.00     0.167 HD
ATOM     44  C   UNL A   1      38.158  32.835  30.576  1.00  0.00     0.037 A 
ATOM     45  C   UNL A   1      44.597  30.061  28.972  1.00  0.00     0.037 A 
ATOM     46  C   UNL A   1      39.478  33.382  30.903  1.00  0.00     0.049 A 
ATOM     47  C   UNL A   1      44.453  31.563  28.878  1.00  0.00     0.074 A 
ATOM     48  C   UNL A   1      40.288  33.321  32.024  1.00  0.00     0.029 A 
ATOM     49  N   UNL A   1      40.276  33.873  29.870  1.00  0.00    -0.354 N 
ATOM     50  N   UNL A   1      43.414  32.225  29.311  1.00  0.00    -0.248 NA
ATOM     51  C   UNL A   1      45.458  32.436  28.281  1.00  0.00     0.031 C 
ATOM     52  C   UNL A   1      41.605  33.686  31.630  1.00  0.00     0.029 A 
ATOM     53  C   UNL A   1      41.585  34.011  30.283  1.00  0.00     0.049 A 
ATOM     54  H   UNL A   1      39.947  34.092  28.968  1.00  0.00     0.167 HD
ATOM     55  C   UNL A   1      43.575  33.561  29.048  1.00  0.00     0.074 A 
ATOM     56  C   UNL A   1      44.882  33.643  28.422  1.00  0.00     0.031 C 
ATOM     57  C   UNL A   1      42.610  34.479  29.356  1.00  0.00     0.037 A 
BRANCH  44  58
ATOM     58  C   UNL A   1      36.877  33.243  31.284  1.00  0.00     0.057 A 
ATOM     59  C   UNL A   1      36.636  32.812  32.607  1.00  0.00     0.134 A 
ATOM     60  C   UNL A   1      35.787  33.931  30.710  1.00  0.00     0.134 A 
ATOM     61  F   UNL A   1      37.567  32.150  33.308  1.00  0.00    -0.206 F 
ATOM     62  C   UNL A   1      35.417  33.014  33.275  1.00  0.00     0.040 A 
ATOM     63  C   UNL A   1      34.577  34.170  31.378  1.00  0.00     0.040 A 
ATOM     64  F   UNL A   1      35.793  34.384  29.455  1.00  0.00    -0.206 F 
ATOM     65  C   UNL A   1      34.379  33.697  32.662  1.00  0.00     0.006 A 
ENDBRANCH  44  58
BRANCH  45  66
ATOM     66  C   UNL A   1      44.939  29.151  27.846  1.00  0.00     0.057 A 
ATOM     67  C   UNL A   1      45.930  28.176  28.055  1.00  0.00     0.134 A 
ATOM     68  C   UNL A   1      44.069  28.952  26.770  1.00  0.00     0.134 A 
ATOM     69  F   UNL A   1      46.802  28.309  29.067  1.00  0.00    -0.206 F 
ATOM     70  C   UNL A   1      45.971  26.992  27.314  1.00  0.00     0.040 A 
ATOM     71  C   UNL A   1      44.112  27.776  26.010  1.00  0.00     0.040 A 
ATOM     72  F   UNL A   1      43.083  29.825  26.519  1.00  0.00    -0.206 F 
ATOM     73  C   UNL A   1      45.034  26.774  26.310  1.00  0.00     0.006 A 
ENDBRANCH  45  66
BRANCH  57  74
ATOM     74  C   UNL A   1      42.560  35.916  28.881  1.00  0.00     0.057 A 
ATOM     75  C   UNL A   1      43.126  37.003  29.565  1.00  0.00     0.134 A 
ATOM     76  C   UNL A   1      42.050  36.228  27.598  1.00  0.00     0.134 A 
ATOM     77  F   UNL A   1      43.755  36.848  30.737  1.00  0.00    -0.206 F 
ATOM     78  C   UNL A   1      43.131  38.305  29.044  1.00  0.00     0.040 A 
ATOM     79  C   UNL A   1      42.103  37.511  27.044  1.00  0.00     0.040 A 
ATOM     80  F   UNL A   1      41.502  35.293  26.809  1.00  0.00    -0.206 F 
ATOM     81  C   UNL A   1      42.631  38.562  27.774  1.00  0.00     0.006 A 
ENDBRANCH  57  74
ENDBRANCH  31  32
ENDBRANCH  23  26
ENDBRANCH  21  22
ENDBRANCH   1  21
TORSDOF 13
ENDMDL
MODEL 2
REMARK VINA RESULT:     -12.4      4.483      9.898
REMARK SMILES Cc1ccc([C@H](CC2CCCC2)C(=O)NCCCNC(=O)c2ccc(-c3c4nc(c(-c5c(F)cccc5F)c5ccc([nH]5)c(-c5c(F)cccc5F)c5nc(c(-c6c(F)cccc6F)c6ccc3[nH]6)C=C5)C=C4)cc2)cc1
REMARK SMILES IDX 17 1 16 2 15 3 13 4 14 5 6 7 5 8 1 9 2 10 3 11 77 12 4 13
REMARK SMILES IDX 76 14 7 15 8 16 9 17 12 18 10 19 11 20 18 21 19 22 20 23
REMARK SMILES IDX 21 25 22 26 23 27 75 28 24 29 74 30 25 31 26 32 27 33 68 34
REMARK SMILES IDX 28 35 73 36 67 37 69 38 29 39 72 40 66 41 65 42 30 44 56 45
REMARK SMILES IDX 39 46 55 47 40 48 43 49 54 50 70 51 41 52 42 53 53 55 71 56
REMARK SMILES IDX 44 57 31 58 32 59 37 60 33 61 34 62 36 63 38 64 35 65 57 66
REMARK SMILES IDX 58 67 63 68 59 69 60 70 62 71 64 72 61 73 45 74 46 75 51 76
REMARK SMILES IDX 47 77 48 78 50 79 52 80 49 81
REMARK H PARENT 15 6 19 24 69 43 43 54
REMARK Flexibility Score: inf
ROOT
ATOM      1  C   UNL A   1      33.304  31.220  27.217  1.00  0.00     0.042 C 
ENDROOT
BRANCH   1   2
ATOM      2  C   UNL A   1      32.484  30.244  26.397  1.00  0.00     0.117 C 
BRANCH   2   3
ATOM      3  N   UNL A   1      33.226  29.680  25.276  1.00  0.00    -0.356 N 
ATOM      4  C   UNL A   1      32.765  29.048  24.152  1.00  0.00     0.227 C 
ATOM      5  O   UNL A   1      33.590  28.801  23.268  1.00  0.00    -0.274 OA
ATOM      6  H   UNL A   1      34.205  29.766  25.336  1.00  0.00     0.163 HD
BRANCH   4   7
ATOM      7  C   UNL A   1      31.298  28.619  23.997  1.00  0.00     0.109 C 
BRANCH   7   8
ATOM      8  C   UNL A   1      30.983  27.174  24.420  1.00  0.00    -0.036 A 
ATOM      9  C   UNL A   1      30.960  22.965  25.412  1.00  0.00     0.044 C 
ATOM     10  C   UNL A   1      30.883  24.421  25.071  1.00  0.00    -0.051 A 
ATOM     11  C   UNL A   1      30.742  24.839  23.747  1.00  0.00     0.004 A 
ATOM     12  C   UNL A   1      30.916  25.388  26.078  1.00  0.00     0.004 A 
ATOM     13  C   UNL A   1      30.786  26.198  23.428  1.00  0.00     0.005 A 
ATOM     14  C   UNL A   1      30.925  26.748  25.756  1.00  0.00     0.005 A 
ENDBRANCH   7   8
BRANCH   7  15
ATOM     15  C   UNL A   1      30.793  28.928  22.556  1.00  0.00     0.022 C 
BRANCH  15  16
ATOM     16  C   UNL A   1      29.468  29.701  22.476  1.00  0.00    -0.010 C 
ATOM     17  C   UNL A   1      28.208  28.882  22.751  1.00  0.00     0.003 C 
ATOM     18  C   UNL A   1      29.389  30.762  23.579  1.00  0.00     0.003 C 
ATOM     19  C   UNL A   1      27.153  29.932  23.097  1.00  0.00     0.000 C 
ATOM     20  C   UNL A   1      27.914  31.132  23.657  1.00  0.00     0.000 C 
ENDBRANCH  15  16
ENDBRANCH   7  15
ENDBRANCH   4   7
ENDBRANCH   2   3
ENDBRANCH   1   2
BRANCH   1  21
ATOM     21  C   UNL A   1      34.576  30.603  27.762  1.00  0.00     0.118 C 
BRANCH  21  22
ATOM     22  N   UNL A   1      35.521  31.558  28.337  1.00  0.00    -0.352 N 
ATOM     23  C   UNL A   1      36.799  31.352  28.837  1.00  0.00     0.251 C 
ATOM     24  H   UNL A   1      35.202  32.489  28.375  1.00  0.00     0.163 HD
ATOM     25  O   UNL A   1      37.433  32.288  29.294  1.00  0.00    -0.269 OA
BRANCH  23  26
ATOM     26  C   UNL A   1      37.451  30.027  28.662  1.00  0.00     0.039 A 
ATOM     27  C   UNL A   1      37.503  29.175  29.773  1.00  0.00     0.014 A 
ATOM     28  C   UNL A   1      38.233  29.762  27.547  1.00  0.00     0.014 A 
ATOM     29  C   UNL A   1      38.552  28.269  29.881  1.00  0.00     0.010 A 
ATOM     30  C   UNL A   1      39.358  28.989  27.716  1.00  0.00     0.010 A 
ATOM     31  C   UNL A   1      39.551  28.298  28.915  1.00  0.00    -0.014 A 
BRANCH  31  32
ATOM     32  C   UNL A   1      40.869  27.707  29.083  1.00  0.00     0.031 A 
ATOM     33  C   UNL A   1      41.076  26.295  28.711  1.00  0.00     0.074 A 
ATOM     34  C   UNL A   1      41.908  28.500  29.429  1.00  0.00     0.049 A 
ATOM     35  N   UNL A   1      42.125  25.615  29.017  1.00  0.00    -0.248 NA
ATOM     36  C   UNL A   1      40.064  25.499  28.020  1.00  0.00     0.031 C 
ATOM     37  C   UNL A   1      43.335  28.203  29.309  1.00  0.00     0.029 A 
ATOM     38  N   UNL A   1      41.866  29.685  30.182  1.00  0.00    -0.354 N 
ATOM     39  C   UNL A   1      42.070  24.428  28.326  1.00  0.00     0.074 A 
ATOM     40  C   UNL A   1      40.719  24.349  27.838  1.00  0.00     0.031 C 
ATOM     41  C   UNL A   1      44.012  28.968  30.179  1.00  0.00     0.029 A 
ATOM     42  C   UNL A   1      43.026  29.659  30.992  1.00  0.00     0.049 A 
ATOM     43  H   UNL A   1      41.175  30.386  30.152  1.00  0.00     0.167 HD
ATOM     44  C   UNL A   1      43.229  23.738  28.142  1.00  0.00     0.037 A 
ATOM     45  C   UNL A   1      42.941  29.564  32.350  1.00  0.00     0.037 A 
ATOM     46  C   UNL A   1      44.262  24.239  29.055  1.00  0.00     0.049 A 
ATOM     47  C   UNL A   1      43.613  28.336  32.921  1.00  0.00     0.074 A 
ATOM     48  C   UNL A   1      45.385  25.031  28.887  1.00  0.00     0.029 A 
ATOM     49  N   UNL A   1      44.035  24.168  30.429  1.00  0.00    -0.354 N 
ATOM     50  N   UNL A   1      43.906  27.273  32.222  1.00  0.00    -0.248 NA
ATOM     51  C   UNL A   1      43.997  28.204  34.322  1.00  0.00     0.031 C 
ATOM     52  C   UNL A   1      45.771  25.516  30.168  1.00  0.00     0.029 A 
ATOM     53  C   UNL A   1      44.910  24.983  31.115  1.00  0.00     0.049 A 
ATOM     54  H   UNL A   1      43.342  23.609  30.851  1.00  0.00     0.167 HD
ATOM     55  C   UNL A   1      44.476  26.328  33.036  1.00  0.00     0.074 A 
ATOM     56  C   UNL A   1      44.531  26.969  34.337  1.00  0.00     0.031 C 
ATOM     57  C   UNL A   1      44.836  25.096  32.568  1.00  0.00     0.037 A 
BRANCH  44  58
ATOM     58  C   UNL A   1      43.507  22.766  27.007  1.00  0.00     0.057 A 
ATOM     59  C   UNL A   1      42.842  21.522  26.968  1.00  0.00     0.134 A 
ATOM     60  C   UNL A   1      44.492  22.909  26.007  1.00  0.00     0.134 A 
ATOM     61  F   UNL A   1      41.870  21.219  27.840  1.00  0.00    -0.206 F 
ATOM     62  C   UNL A   1      43.153  20.509  26.046  1.00  0.00     0.040 A 
ATOM     63  C   UNL A   1      44.789  21.919  25.059  1.00  0.00     0.040 A 
ATOM     64  F   UNL A   1      45.265  23.991  25.897  1.00  0.00    -0.206 F 
ATOM     65  C   UNL A   1      44.130  20.704  25.084  1.00  0.00     0.006 A 
ENDBRANCH  44  58
BRANCH  45  66
ATOM     66  C   UNL A   1      41.729  30.225  32.903  1.00  0.00     0.057 A 
ATOM     67  C   UNL A   1      41.723  31.628  33.007  1.00  0.00     0.134 A 
ATOM     68  C   UNL A   1      40.488  29.582  32.934  1.00  0.00     0.134 A 
ATOM     69  F   UNL A   1      42.881  32.308  32.990  1.00  0.00    -0.206 F 
ATOM     70  C   UNL A   1      40.536  32.365  33.007  1.00  0.00     0.040 A 
ATOM     71  C   UNL A   1      39.292  30.311  32.950  1.00  0.00     0.040 A 
ATOM     72  F   UNL A   1      40.407  28.249  32.817  1.00  0.00    -0.206 F 
ATOM     73  C   UNL A   1      39.314  31.705  32.941  1.00  0.00     0.006 A 
ENDBRANCH  45  66
BRANCH  57  74
ATOM     74  C   UNL A   1      45.220  23.897  33.411  1.00  0.00     0.057 A 
ATOM     75  C   UNL A   1      46.467  23.723  34.030  1.00  0.00     0.134 A 
ATOM     76  C   UNL A   1      44.251  22.925  33.754  1.00  0.00     0.134 A 
ATOM     77  F   UNL A   1      47.451  24.622  33.901  1.00  0.00    -0.206 F 
ATOM     78  C   UNL A   1      46.748  22.638  34.874  1.00  0.00     0.040 A 
ATOM     79  C   UNL A   1      44.502  21.873  34.640  1.00  0.00     0.040 A 
ATOM     80  F   UNL A   1      43.003  22.968  33.267  1.00  0.00    -0.206 F 
ATOM     81  C   UNL A   1      45.761  21.715  35.193  1.00  0.00     0.006 A 
ENDBRANCH  57  74
ENDBRANCH  31  32
ENDBRANCH  23  26
ENDBRANCH  21  22
ENDBRANCH   1  21
TORSDOF 13
ENDMDL
MODEL 3
REMARK VINA RESULT:     -12.3      4.428      9.841
REMARK SMILES Cc1ccc([C@H](CC2CCCC2)C(=O)NCCCNC(=O)c2ccc(-c3c4nc(c(-c5c(F)cccc5F)c5ccc([nH]5)c(-c5c(F)cccc5F)c5nc(c(-c6c(F)cccc6F)c6ccc3[nH]6)C=C5)C=C4)cc2)cc1
REMARK SMILES IDX 17 1 16 2 15 3 13 4 14 5 6 7 5 8 1 9 2 10 3 11 77 12 4 13
REMARK SMILES IDX 76 14 7 15 8 16 9 17 12 18 10 19 11 20 18 21 19 22 20 23
REMARK SMILES IDX 21 25 22 26 23 27 75 28 24 29 74 30 25 31 26 32 27 33 68 34
REMARK SMILES IDX 28 35 73 36 67 37 69 38 29 39 72 40 66 41 65 42 30 44 56 45
REMARK SMILES IDX 39 46 55 47 40 48 43 49 54 50 70 51 41 52 42 53 53 55 71 56
REMARK SMILES IDX 44 57 31 58 32 59 37 60 33 61 34 62 36 63 38 64 35 65 57 66
REMARK SMILES IDX 58 67 63 68 59 69 60 70 62 71 64 72 61 73 45 74 46 75 51 76
REMARK SMILES IDX 47 77 48 78 50 79 52 80 49 81
REMARK H PARENT 15 6 19 24 69 43 43 54
REMARK Flexibility Score: inf
ROOT
ATOM      1  C   UNL A   1      32.584  31.176  26.857  1.00  0.00     0.042 C 
ENDROOT
BRANCH   1   2
ATOM      2  C   UNL A   1      31.797  30.102  26.133  1.00  0.00     0.117 C 
BRANCH   2   3
ATOM      3  N   UNL A   1      32.425  29.680  24.888  1.00  0.00    -0.356 N 
ATOM      4  C   UNL A   1      31.890  29.004  23.824  1.00  0.00     0.227 C 
ATOM      5  O   UNL A   1      32.590  28.904  22.811  1.00  0.00    -0.274 OA
ATOM      6  H   UNL A   1      33.377  29.915  24.798  1.00  0.00     0.163 HD
BRANCH   4   7
ATOM      7  C   UNL A   1      30.499  28.356  23.881  1.00  0.00     0.109 C 
BRANCH   7   8
ATOM      8  C   UNL A   1      30.474  26.877  24.305  1.00  0.00    -0.036 A 
ATOM      9  C   UNL A   1      31.259  22.724  25.218  1.00  0.00     0.044 C 
ATOM     10  C   UNL A   1      30.904  24.147  24.913  1.00  0.00    -0.051 A 
ATOM     11  C   UNL A   1      30.570  24.537  23.616  1.00  0.00     0.004 A 
ATOM     12  C   UNL A   1      30.868  25.103  25.930  1.00  0.00     0.004 A 
ATOM     13  C   UNL A   1      30.353  25.884  23.318  1.00  0.00     0.005 A 
ATOM     14  C   UNL A   1      30.615  26.445  25.633  1.00  0.00     0.005 A 
ENDBRANCH   7   8
BRANCH   7  15
ATOM     15  C   UNL A   1      29.735  28.590  22.543  1.00  0.00     0.022 C 
BRANCH  15  16
ATOM     16  C   UNL A   1      28.729  29.750  22.556  1.00  0.00    -0.010 C 
ATOM     17  C   UNL A   1      28.920  30.778  23.669  1.00  0.00     0.003 C 
ATOM     18  C   UNL A   1      28.886  30.622  21.305  1.00  0.00     0.003 C 
ATOM     19  C   UNL A   1      28.164  32.009  23.170  1.00  0.00     0.000 C 
ATOM     20  C   UNL A   1      28.167  31.921  21.645  1.00  0.00     0.000 C 
ENDBRANCH  15  16
ENDBRANCH   7  15
ENDBRANCH   4   7
ENDBRANCH   2   3
ENDBRANCH   1   2
BRANCH   1  21
ATOM     21  C   UNL A   1      33.765  30.620  27.625  1.00  0.00     0.118 C 
BRANCH  21  22
ATOM     22  N   UNL A   1      34.503  31.607  28.410  1.00  0.00    -0.352 N 
ATOM     23  C   UNL A   1      35.716  31.488  29.074  1.00  0.00     0.251 C 
ATOM     24  H   UNL A   1      34.074  32.490  28.479  1.00  0.00     0.163 HD
ATOM     25  O   UNL A   1      36.167  32.435  29.695  1.00  0.00    -0.269 OA
BRANCH  23  26
ATOM     26  C   UNL A   1      36.538  30.263  28.886  1.00  0.00     0.039 A 
ATOM     27  C   UNL A   1      36.624  29.365  29.958  1.00  0.00     0.014 A 
ATOM     28  C   UNL A   1      37.418  30.154  27.818  1.00  0.00     0.014 A 
ATOM     29  C   UNL A   1      37.769  28.589  30.099  1.00  0.00     0.010 A 
ATOM     30  C   UNL A   1      38.616  29.515  28.031  1.00  0.00     0.010 A 
ATOM     31  C   UNL A   1      38.816  28.790  29.208  1.00  0.00    -0.014 A 
BRANCH  31  32
ATOM     32  C   UNL A   1      40.184  28.355  29.442  1.00  0.00     0.031 A 
ATOM     33  C   UNL A   1      40.614  27.035  28.945  1.00  0.00     0.074 A 
ATOM     34  C   UNL A   1      41.072  29.227  29.972  1.00  0.00     0.049 A 
ATOM     35  N   UNL A   1      41.717  26.461  29.279  1.00  0.00    -0.248 NA
ATOM     36  C   UNL A   1      39.781  26.204  28.076  1.00  0.00     0.031 C 
ATOM     37  C   UNL A   1      42.531  29.130  29.962  1.00  0.00     0.029 A 
ATOM     38  N   UNL A   1      40.805  30.299  30.838  1.00  0.00    -0.354 N 
ATOM     39  C   UNL A   1      41.883  25.368  28.463  1.00  0.00     0.074 A 
ATOM     40  C   UNL A   1      40.601  25.177  27.839  1.00  0.00     0.031 C 
ATOM     41  C   UNL A   1      43.021  29.865  30.971  1.00  0.00     0.029 A 
ATOM     42  C   UNL A   1      41.885  30.325  31.751  1.00  0.00     0.049 A 
ATOM     43  H   UNL A   1      40.029  30.905  30.815  1.00  0.00     0.167 HD
ATOM     44  C   UNL A   1      43.137  24.857  28.323  1.00  0.00     0.037 A 
ATOM     45  C   UNL A   1      41.700  30.059  33.077  1.00  0.00     0.037 A 
ATOM     46  C   UNL A   1      44.011  25.373  29.381  1.00  0.00     0.049 A 
ATOM     47  C   UNL A   1      42.484  28.868  33.578  1.00  0.00     0.074 A 
ATOM     48  C   UNL A   1      45.024  26.315  29.410  1.00  0.00     0.029 A 
ATOM     49  N   UNL A   1      43.681  25.111  30.710  1.00  0.00    -0.354 N 
ATOM     50  N   UNL A   1      42.978  27.941  32.802  1.00  0.00    -0.248 NA
ATOM     51  C   UNL A   1      42.764  28.620  34.988  1.00  0.00     0.031 C 
ATOM     52  C   UNL A   1      45.231  26.690  30.767  1.00  0.00     0.029 A 
ATOM     53  C   UNL A   1      44.376  25.944  31.563  1.00  0.00     0.049 A 
ATOM     54  H   UNL A   1      43.039  24.423  31.000  1.00  0.00     0.167 HD
ATOM     55  C   UNL A   1      43.601  26.986  33.563  1.00  0.00     0.074 A 
ATOM     56  C   UNL A   1      43.458  27.469  34.924  1.00  0.00     0.031 C 
ATOM     57  C   UNL A   1      44.165  25.873  33.005  1.00  0.00     0.037 A 
BRANCH  44  58
ATOM     58  C   UNL A   1      43.640  24.069  27.124  1.00  0.00     0.057 A 
ATOM     59  C   UNL A   1      44.341  24.730  26.092  1.00  0.00     0.134 A 
ATOM     60  C   UNL A   1      43.369  22.713  26.842  1.00  0.00     0.134 A 
ATOM     61  F   UNL A   1      44.689  26.020  26.196  1.00  0.00    -0.206 F 
ATOM     62  C   UNL A   1      44.702  24.109  24.885  1.00  0.00     0.040 A 
ATOM     63  C   UNL A   1      43.755  22.073  25.655  1.00  0.00     0.040 A 
ATOM     64  F   UNL A   1      42.680  21.923  27.667  1.00  0.00    -0.206 F 
ATOM     65  C   UNL A   1      44.411  22.773  24.661  1.00  0.00     0.006 A 
ENDBRANCH  44  58
BRANCH  45  66
ATOM     66  C   UNL A   1      40.367  30.491  33.574  1.00  0.00     0.057 A 
ATOM     67  C   UNL A   1      40.174  31.853  33.867  1.00  0.00     0.134 A 
ATOM     68  C   UNL A   1      39.220  29.716  33.376  1.00  0.00     0.134 A 
ATOM     69  F   UNL A   1      41.232  32.653  34.074  1.00  0.00    -0.206 F 
ATOM     70  C   UNL A   1      38.909  32.446  33.834  1.00  0.00     0.040 A 
ATOM     71  C   UNL A   1      37.945  30.297  33.357  1.00  0.00     0.040 A 
ATOM     72  F   UNL A   1      39.320  28.415  33.070  1.00  0.00    -0.206 F 
ATOM     73  C   UNL A   1      37.792  31.671  33.540  1.00  0.00     0.006 A 
ENDBRANCH  45  66
BRANCH  57  74
ATOM     74  C   UNL A   1      44.638  24.641  33.749  1.00  0.00     0.057 A 
ATOM     75  C   UNL A   1      43.792  23.707  34.366  1.00  0.00     0.134 A 
ATOM     76  C   UNL A   1      46.005  24.275  33.730  1.00  0.00     0.134 A 
ATOM     77  F   UNL A   1      42.461  23.851  34.361  1.00  0.00    -0.206 F 
ATOM     78  C   UNL A   1      44.271  22.535  34.969  1.00  0.00     0.040 A 
ATOM     79  C   UNL A   1      46.486  23.081  34.275  1.00  0.00     0.040 A 
ATOM     80  F   UNL A   1      46.936  25.049  33.153  1.00  0.00    -0.206 F 
ATOM     81  C   UNL A   1      45.620  22.210  34.913  1.00  0.00     0.006 A 
ENDBRANCH  57  74
ENDBRANCH  31  32
ENDBRANCH  23  26
ENDBRANCH  21  22
ENDBRANCH   1  21
TORSDOF 13
ENDMDL
