MODEL 1
REMARK VINA RESULT:     -10.9      0.000      0.000
REMARK SMILES CCOc1ccc([C@H](C)[C@](O)(C(=O)NCCCNC(=O)c2ccc(-c3c4nc(c(-c5c(F)cccc5F)c5ccc([nH]5)c(-c5c(F)cccc5F)c5nc(c(-c6c(F)cccc6F)c6ccc3[nH]6)C=C5)C=C4)cc2)C(C)C)cc1
REMARK SMILES IDX 15 1 14 2 12 3 13 4 10 6 8 7 9 8 7 9 4 10 5 11 79 12 6 13
REMARK SMILES IDX 78 14 3 15 2 16 1 17 75 18 76 19 77 20 11 21 16 23 17 24
REMARK SMILES IDX 18 25 19 26 20 28 21 29 22 30 74 31 23 32 73 33 24 34 25 35
REMARK SMILES IDX 26 36 67 37 27 38 72 39 66 40 68 41 28 42 71 43 65 44 64 45
REMARK SMILES IDX 29 47 55 48 38 49 54 50 39 51 42 52 53 53 69 54 40 55 41 56
REMARK SMILES IDX 52 58 70 59 43 60 30 61 31 62 36 63 32 64 33 65 35 66 37 67
REMARK SMILES IDX 34 68 56 69 57 70 62 71 58 72 59 73 61 74 63 75 60 76 44 77
REMARK SMILES IDX 45 78 50 79 46 80 47 81 49 82 51 83 48 84
REMARK H PARENT 14 5 11 22 18 27 68 46 42 57
REMARK Flexibility Score: inf
ROOT
ATOM      1  C   UNL A   1      36.454  20.874  24.718  1.00  0.00     0.117 C 
ENDROOT
BRANCH   1   2
ATOM      2  N   UNL A   1      35.707  21.145  25.934  1.00  0.00    -0.354 N 
ATOM      3  C   UNL A   1      34.534  21.771  26.214  1.00  0.00     0.252 C 
ATOM      4  O   UNL A   1      34.176  21.672  27.393  1.00  0.00    -0.272 OA
ATOM      5  H   UNL A   1      36.152  20.793  26.739  1.00  0.00     0.163 HD
BRANCH   3   6
ATOM      6  C   UNL A   1      33.653  22.480  25.112  1.00  0.00     0.151 C 
BRANCH   6   7
ATOM      7  C   UNL A   1      34.526  23.698  24.580  1.00  0.00     0.058 C 
ATOM      8  C   UNL A   1      35.143  23.338  23.198  1.00  0.00     0.016 C 
BRANCH   7   9
ATOM      9  C   UNL A   1      34.025  25.145  24.640  1.00  0.00    -0.041 A 
ATOM     10  C   UNL A   1      33.401  27.890  24.822  1.00  0.00     0.119 A 
ATOM     11  C   UNL A   1      33.111  27.184  23.661  1.00  0.00     0.047 A 
ATOM     12  C   UNL A   1      33.824  27.201  25.947  1.00  0.00     0.047 A 
ATOM     13  C   UNL A   1      33.389  25.812  23.588  1.00  0.00     0.008 A 
ATOM     14  C   UNL A   1      34.126  25.845  25.856  1.00  0.00     0.008 A 
BRANCH  10  15
ATOM     15  O   UNL A   1      33.181  29.237  24.836  1.00  0.00    -0.494 OA
BRANCH  15  16
ATOM     16  C   UNL A   1      31.873  29.587  25.316  1.00  0.00     0.226 C 
ATOM     17  C   UNL A   1      31.938  30.234  26.692  1.00  0.00     0.049 C 
ENDBRANCH  15  16
ENDBRANCH  10  15
ENDBRANCH   7   9
ENDBRANCH   6   7
BRANCH   6  18
ATOM     18  C   UNL A   1      33.275  21.366  24.045  1.00  0.00     0.025 C 
ATOM     19  C   UNL A   1      32.729  20.083  24.716  1.00  0.00     0.011 C 
ATOM     20  C   UNL A   1      32.246  21.757  22.980  1.00  0.00     0.011 C 
ENDBRANCH   6  18
BRANCH   6  21
ATOM     21  O   UNL A   1      32.422  22.938  25.684  1.00  0.00    -0.379 OA
ATOM     22  H   UNL A   1      31.676  22.567  25.188  1.00  0.00     0.212 HD
ENDBRANCH   6  21
ENDBRANCH   3   6
ENDBRANCH   1   2
BRANCH   1  23
ATOM     23  C   UNL A   1      37.523  19.819  24.944  1.00  0.00     0.042 C 
BRANCH  23  24
ATOM     24  C   UNL A   1      38.754  20.333  25.679  1.00  0.00     0.118 C 
BRANCH  24  25
ATOM     25  N   UNL A   1      39.831  19.355  25.738  1.00  0.00    -0.352 N 
ATOM     26  C   UNL A   1      41.158  19.523  26.061  1.00  0.00     0.251 C 
ATOM     27  H   UNL A   1      39.570  18.433  25.512  1.00  0.00     0.163 HD
ATOM     28  O   UNL A   1      41.952  18.610  25.880  1.00  0.00    -0.269 OA
BRANCH  26  29
ATOM     29  C   UNL A   1      41.627  20.818  26.598  1.00  0.00     0.039 A 
ATOM     30  C   UNL A   1      42.145  21.769  25.717  1.00  0.00     0.014 A 
ATOM     31  C   UNL A   1      41.543  21.099  27.963  1.00  0.00     0.014 A 
ATOM     32  C   UNL A   1      42.503  23.031  26.196  1.00  0.00     0.010 A 
ATOM     33  C   UNL A   1      41.800  22.386  28.420  1.00  0.00     0.010 A 
ATOM     34  C   UNL A   1      42.291  23.365  27.544  1.00  0.00    -0.014 A 
BRANCH  34  35
ATOM     35  C   UNL A   1      42.586  24.725  28.062  1.00  0.00     0.031 A 
ATOM     36  C   UNL A   1      43.984  25.081  28.490  1.00  0.00     0.074 A 
ATOM     37  C   UNL A   1      41.587  25.617  28.210  1.00  0.00     0.049 A 
ATOM     38  N   UNL A   1      44.426  26.187  29.033  1.00  0.00    -0.248 NA
ATOM     39  C   UNL A   1      45.015  24.045  28.317  1.00  0.00     0.031 C 
ATOM     40  C   UNL A   1      40.180  25.376  27.881  1.00  0.00     0.029 A 
ATOM     41  N   UNL A   1      41.600  26.905  28.684  1.00  0.00    -0.354 N 
ATOM     42  C   UNL A   1      45.777  25.972  29.278  1.00  0.00     0.074 A 
ATOM     43  C   UNL A   1      46.068  24.611  28.886  1.00  0.00     0.031 C 
ATOM     44  C   UNL A   1      39.472  26.488  28.135  1.00  0.00     0.029 A 
ATOM     45  C   UNL A   1      40.363  27.505  28.685  1.00  0.00     0.049 A 
ATOM     46  H   UNL A   1      42.417  27.356  28.994  1.00  0.00     0.167 HD
ATOM     47  C   UNL A   1      46.699  26.840  29.758  1.00  0.00     0.037 A 
ATOM     48  C   UNL A   1      39.990  28.733  29.091  1.00  0.00     0.037 A 
ATOM     49  C   UNL A   1      46.412  28.201  30.123  1.00  0.00     0.049 A 
ATOM     50  C   UNL A   1      41.030  29.673  29.634  1.00  0.00     0.074 A 
ATOM     51  C   UNL A   1      47.287  29.180  30.558  1.00  0.00     0.029 A 
ATOM     52  N   UNL A   1      45.149  28.775  30.097  1.00  0.00    -0.354 N 
ATOM     53  N   UNL A   1      42.318  29.483  29.787  1.00  0.00    -0.248 NA
ATOM     54  C   UNL A   1      40.566  31.003  30.056  1.00  0.00     0.031 C 
ATOM     55  C   UNL A   1      46.548  30.330  30.847  1.00  0.00     0.029 A 
ATOM     56  C   UNL A   1      45.219  30.087  30.536  1.00  0.00     0.049 A 
ATOM     57  H   UNL A   1      44.326  28.318  29.809  1.00  0.00     0.167 HD
ATOM     58  C   UNL A   1      42.822  30.673  30.295  1.00  0.00     0.074 A 
ATOM     59  C   UNL A   1      41.702  31.585  30.409  1.00  0.00     0.031 C 
ATOM     60  C   UNL A   1      44.096  30.985  30.637  1.00  0.00     0.037 A 
BRANCH  47  61
ATOM     61  C   UNL A   1      48.107  26.340  29.911  1.00  0.00     0.057 A 
ATOM     62  C   UNL A   1      49.043  26.433  28.872  1.00  0.00     0.134 A 
ATOM     63  C   UNL A   1      48.541  25.786  31.122  1.00  0.00     0.134 A 
ATOM     64  F   UNL A   1      48.690  26.941  27.681  1.00  0.00    -0.206 F 
ATOM     65  C   UNL A   1      50.350  25.966  29.021  1.00  0.00     0.040 A 
ATOM     66  C   UNL A   1      49.855  25.344  31.294  1.00  0.00     0.040 A 
ATOM     67  F   UNL A   1      47.700  25.673  32.161  1.00  0.00    -0.206 F 
ATOM     68  C   UNL A   1      50.761  25.426  30.239  1.00  0.00     0.006 A 
ENDBRANCH  47  61
BRANCH  48  69
ATOM     69  C   UNL A   1      38.569  29.154  28.982  1.00  0.00     0.057 A 
ATOM     70  C   UNL A   1      38.044  29.618  27.770  1.00  0.00     0.134 A 
ATOM     71  C   UNL A   1      37.707  29.116  30.085  1.00  0.00     0.134 A 
ATOM     72  F   UNL A   1      38.825  29.695  26.682  1.00  0.00    -0.206 F 
ATOM     73  C   UNL A   1      36.721  30.050  27.662  1.00  0.00     0.040 A 
ATOM     74  C   UNL A   1      36.374  29.519  29.984  1.00  0.00     0.040 A 
ATOM     75  F   UNL A   1      38.144  28.673  31.272  1.00  0.00    -0.206 F 
ATOM     76  C   UNL A   1      35.881  29.996  28.771  1.00  0.00     0.006 A 
ENDBRANCH  48  69
BRANCH  60  77
ATOM     77  C   UNL A   1      44.357  32.377  31.132  1.00  0.00     0.057 A 
ATOM     78  C   UNL A   1      44.681  33.425  30.263  1.00  0.00     0.134 A 
ATOM     79  C   UNL A   1      44.232  32.682  32.495  1.00  0.00     0.134 A 
ATOM     80  F   UNL A   1      44.828  33.198  28.948  1.00  0.00    -0.206 F 
ATOM     81  C   UNL A   1      44.894  34.723  30.732  1.00  0.00     0.040 A 
ATOM     82  C   UNL A   1      44.414  33.980  32.972  1.00  0.00     0.040 A 
ATOM     83  F   UNL A   1      43.913  31.726  33.380  1.00  0.00    -0.206 F 
ATOM     84  C   UNL A   1      44.752  35.004  32.090  1.00  0.00     0.006 A 
ENDBRANCH  60  77
ENDBRANCH  34  35
ENDBRANCH  26  29
ENDBRANCH  24  25
ENDBRANCH  23  24
ENDBRANCH   1  23
TORSDOF 16
ENDMDL
MODEL 2
REMARK VINA RESULT:     -10.7      1.517      3.924
REMARK SMILES CCOc1ccc([C@H](C)[C@](O)(C(=O)NCCCNC(=O)c2ccc(-c3c4nc(c(-c5c(F)cccc5F)c5ccc([nH]5)c(-c5c(F)cccc5F)c5nc(c(-c6c(F)cccc6F)c6ccc3[nH]6)C=C5)C=C4)cc2)C(C)C)cc1
REMARK SMILES IDX 15 1 14 2 12 3 13 4 10 6 8 7 9 8 7 9 4 10 5 11 79 12 6 13
REMARK SMILES IDX 78 14 3 15 2 16 1 17 75 18 76 19 77 20 11 21 16 23 17 24
REMARK SMILES IDX 18 25 19 26 20 28 21 29 22 30 74 31 23 32 73 33 24 34 25 35
REMARK SMILES IDX 26 36 67 37 27 38 72 39 66 40 68 41 28 42 71 43 65 44 64 45
REMARK SMILES IDX 29 47 55 48 38 49 54 50 39 51 42 52 53 53 69 54 40 55 41 56
REMARK SMILES IDX 52 58 70 59 43 60 30 61 31 62 36 63 32 64 33 65 35 66 37 67
REMARK SMILES IDX 34 68 56 69 57 70 62 71 58 72 59 73 61 74 63 75 60 76 44 77
REMARK SMILES IDX 45 78 50 79 46 80 47 81 49 82 51 83 48 84
REMARK H PARENT 14 5 11 22 18 27 68 46 42 57
REMARK Flexibility Score: inf
ROOT
ATOM      1  C   UNL A   1      36.409  20.678  25.071  1.00  0.00     0.117 C 
ENDROOT
BRANCH   1   2
ATOM      2  N   UNL A   1      36.170  21.558  23.940  1.00  0.00    -0.354 N 
ATOM      3  C   UNL A   1      35.403  22.660  23.734  1.00  0.00     0.252 C 
ATOM      4  O   UNL A   1      35.582  23.206  22.639  1.00  0.00    -0.272 OA
ATOM      5  H   UNL A   1      36.680  21.295  23.140  1.00  0.00     0.163 HD
BRANCH   3   6
ATOM      6  C   UNL A   1      34.438  23.255  24.833  1.00  0.00     0.151 C 
BRANCH   6   7
ATOM      7  C   UNL A   1      33.020  22.583  24.570  1.00  0.00     0.058 C 
ATOM      8  C   UNL A   1      32.308  23.303  23.390  1.00  0.00     0.016 C 
BRANCH   7   9
ATOM      9  C   UNL A   1      32.837  21.062  24.526  1.00  0.00    -0.041 A 
ATOM     10  C   UNL A   1      32.737  18.258  24.232  1.00  0.00     0.119 A 
ATOM     11  C   UNL A   1      32.917  18.822  25.489  1.00  0.00     0.047 A 
ATOM     12  C   UNL A   1      32.424  19.077  23.160  1.00  0.00     0.047 A 
ATOM     13  C   UNL A   1      32.930  20.216  25.636  1.00  0.00     0.008 A 
ATOM     14  C   UNL A   1      32.468  20.460  23.309  1.00  0.00     0.008 A 
BRANCH  10  15
ATOM     15  O   UNL A   1      32.799  16.899  24.114  1.00  0.00    -0.494 OA
BRANCH  15  16
ATOM     16  C   UNL A   1      34.134  16.417  23.890  1.00  0.00     0.226 C 
ATOM     17  C   UNL A   1      34.761  15.891  25.173  1.00  0.00     0.049 C 
ENDBRANCH  15  16
ENDBRANCH  10  15
ENDBRANCH   7   9
ENDBRANCH   6   7
BRANCH   6  18
ATOM     18  C   UNL A   1      35.109  22.953  26.240  1.00  0.00     0.025 C 
ATOM     19  C   UNL A   1      36.290  23.908  26.535  1.00  0.00     0.011 C 
ATOM     20  C   UNL A   1      34.194  23.022  27.466  1.00  0.00     0.011 C 
ENDBRANCH   6  18
BRANCH   6  21
ATOM     21  O   UNL A   1      34.365  24.680  24.708  1.00  0.00    -0.379 OA
ATOM     22  H   UNL A   1      33.446  24.969  24.824  1.00  0.00     0.212 HD
ENDBRANCH   6  21
ENDBRANCH   3   6
ENDBRANCH   1   2
BRANCH   1  23
ATOM     23  C   UNL A   1      37.670  19.854  24.878  1.00  0.00     0.042 C 
BRANCH  23  24
ATOM     24  C   UNL A   1      38.858  20.339  25.698  1.00  0.00     0.118 C 
BRANCH  24  25
ATOM     25  N   UNL A   1      39.942  19.369  25.756  1.00  0.00    -0.352 N 
ATOM     26  C   UNL A   1      41.270  19.547  26.074  1.00  0.00     0.251 C 
ATOM     27  H   UNL A   1      39.688  18.445  25.534  1.00  0.00     0.163 HD
ATOM     28  O   UNL A   1      42.069  18.640  25.893  1.00  0.00    -0.269 OA
BRANCH  26  29
ATOM     29  C   UNL A   1      41.730  20.848  26.605  1.00  0.00     0.039 A 
ATOM     30  C   UNL A   1      42.241  21.799  25.719  1.00  0.00     0.014 A 
ATOM     31  C   UNL A   1      41.646  21.134  27.969  1.00  0.00     0.014 A 
ATOM     32  C   UNL A   1      42.592  23.065  26.193  1.00  0.00     0.010 A 
ATOM     33  C   UNL A   1      41.895  22.425  28.420  1.00  0.00     0.010 A 
ATOM     34  C   UNL A   1      42.379  23.403  27.540  1.00  0.00    -0.014 A 
BRANCH  34  35
ATOM     35  C   UNL A   1      42.666  24.767  28.051  1.00  0.00     0.031 A 
ATOM     36  C   UNL A   1      44.064  25.137  28.468  1.00  0.00     0.074 A 
ATOM     37  C   UNL A   1      41.660  25.650  28.205  1.00  0.00     0.049 A 
ATOM     38  N   UNL A   1      44.500  26.249  29.004  1.00  0.00    -0.248 NA
ATOM     39  C   UNL A   1      45.103  24.110  28.288  1.00  0.00     0.031 C 
ATOM     40  C   UNL A   1      40.252  25.396  27.888  1.00  0.00     0.029 A 
ATOM     41  N   UNL A   1      41.665  26.939  28.676  1.00  0.00    -0.354 N 
ATOM     42  C   UNL A   1      45.855  26.047  29.237  1.00  0.00     0.074 A 
ATOM     43  C   UNL A   1      46.155  24.688  28.847  1.00  0.00     0.031 C 
ATOM     44  C   UNL A   1      39.536  26.502  28.146  1.00  0.00     0.029 A 
ATOM     45  C   UNL A   1      40.422  27.528  28.686  1.00  0.00     0.049 A 
ATOM     46  H   UNL A   1      42.480  27.399  28.978  1.00  0.00     0.167 HD
ATOM     47  C   UNL A   1      46.773  26.925  29.708  1.00  0.00     0.037 A 
ATOM     48  C   UNL A   1      40.041  28.754  29.092  1.00  0.00     0.037 A 
ATOM     49  C   UNL A   1      46.476  28.284  30.071  1.00  0.00     0.049 A 
ATOM     50  C   UNL A   1      41.077  29.705  29.624  1.00  0.00     0.074 A 
ATOM     51  C   UNL A   1      47.346  29.272  30.497  1.00  0.00     0.029 A 
ATOM     52  N   UNL A   1      45.208  28.847  30.054  1.00  0.00    -0.354 N 
ATOM     53  N   UNL A   1      42.368  29.528  29.766  1.00  0.00    -0.248 NA
ATOM     54  C   UNL A   1      40.604  31.032  30.046  1.00  0.00     0.031 C 
ATOM     55  C   UNL A   1      46.598  30.416  30.789  1.00  0.00     0.029 A 
ATOM     56  C   UNL A   1      45.270  30.160  30.489  1.00  0.00     0.049 A 
ATOM     57  H   UNL A   1      44.387  28.381  29.775  1.00  0.00     0.167 HD
ATOM     58  C   UNL A   1      42.865  30.724  30.267  1.00  0.00     0.074 A 
ATOM     59  C   UNL A   1      41.738  31.625  30.388  1.00  0.00     0.031 C 
ATOM     60  C   UNL A   1      44.139  31.048  30.597  1.00  0.00     0.037 A 
BRANCH  47  61
ATOM     61  C   UNL A   1      48.187  26.438  29.851  1.00  0.00     0.057 A 
ATOM     62  C   UNL A   1      48.642  25.821  31.024  1.00  0.00     0.134 A 
ATOM     63  C   UNL A   1      49.096  26.562  28.793  1.00  0.00     0.134 A 
ATOM     64  F   UNL A   1      47.827  25.683  32.080  1.00  0.00    -0.206 F 
ATOM     65  C   UNL A   1      49.958  25.372  31.150  1.00  0.00     0.040 A 
ATOM     66  C   UNL A   1      50.405  26.088  28.896  1.00  0.00     0.040 A 
ATOM     67  F   UNL A   1      48.725  27.136  27.638  1.00  0.00    -0.206 F 
ATOM     68  C   UNL A   1      50.841  25.498  30.080  1.00  0.00     0.006 A 
ENDBRANCH  47  61
BRANCH  48  69
ATOM     69  C   UNL A   1      38.615  29.162  28.994  1.00  0.00     0.057 A 
ATOM     70  C   UNL A   1      37.764  29.083  30.102  1.00  0.00     0.134 A 
ATOM     71  C   UNL A   1      38.067  29.626  27.792  1.00  0.00     0.134 A 
ATOM     72  F   UNL A   1      38.227  28.630  31.277  1.00  0.00    -0.206 F 
ATOM     73  C   UNL A   1      36.415  29.430  30.015  1.00  0.00     0.040 A 
ATOM     74  C   UNL A   1      36.726  30.002  27.699  1.00  0.00     0.040 A 
ATOM     75  F   UNL A   1      38.830  29.733  26.695  1.00  0.00    -0.206 F 
ATOM     76  C   UNL A   1      35.894  29.896  28.811  1.00  0.00     0.006 A 
ENDBRANCH  48  69
BRANCH  60  77
ATOM     77  C   UNL A   1      44.391  32.444  31.087  1.00  0.00     0.057 A 
ATOM     78  C   UNL A   1      44.390  32.762  32.451  1.00  0.00     0.134 A 
ATOM     79  C   UNL A   1      44.688  33.472  30.183  1.00  0.00     0.134 A 
ATOM     80  F   UNL A   1      44.101  31.826  33.368  1.00  0.00    -0.206 F 
ATOM     81  C   UNL A   1      44.654  34.059  32.897  1.00  0.00     0.040 A 
ATOM     82  C   UNL A   1      44.981  34.765  30.618  1.00  0.00     0.040 A 
ATOM     83  F   UNL A   1      44.715  33.232  28.863  1.00  0.00    -0.206 F 
ATOM     84  C   UNL A   1      44.959  35.062  31.979  1.00  0.00     0.006 A 
ENDBRANCH  60  77
ENDBRANCH  34  35
ENDBRANCH  26  29
ENDBRANCH  24  25
ENDBRANCH  23  24
ENDBRANCH   1  23
TORSDOF 16
ENDMDL
MODEL 3
REMARK VINA RESULT:     -10.7      2.597      7.463
REMARK SMILES CCOc1ccc([C@H](C)[C@](O)(C(=O)NCCCNC(=O)c2ccc(-c3c4nc(c(-c5c(F)cccc5F)c5ccc([nH]5)c(-c5c(F)cccc5F)c5nc(c(-c6c(F)cccc6F)c6ccc3[nH]6)C=C5)C=C4)cc2)C(C)C)cc1
REMARK SMILES IDX 15 1 14 2 12 3 13 4 10 6 8 7 9 8 7 9 4 10 5 11 79 12 6 13
REMARK SMILES IDX 78 14 3 15 2 16 1 17 75 18 76 19 77 20 11 21 16 23 17 24
REMARK SMILES IDX 18 25 19 26 20 28 21 29 22 30 74 31 23 32 73 33 24 34 25 35
REMARK SMILES IDX 26 36 67 37 27 38 72 39 66 40 68 41 28 42 71 43 65 44 64 45
REMARK SMILES IDX 29 47 55 48 38 49 54 50 39 51 42 52 53 53 69 54 40 55 41 56
REMARK SMILES IDX 52 58 70 59 43 60 30 61 31 62 36 63 32 64 33 65 35 66 37 67
REMARK SMILES IDX 34 68 56 69 57 70 62 71 58 72 59 73 61 74 63 75 60 76 44 77
REMARK SMILES IDX 45 78 50 79 46 80 47 81 49 82 51 83 48 84
REMARK H PARENT 14 5 11 22 18 27 68 46 42 57
REMARK Flexibility Score: inf
ROOT
ATOM      1  C   UNL A   1      31.729  27.712  26.392  1.00  0.00     0.117 C 
ENDROOT
BRANCH   1   2
ATOM      2  N   UNL A   1      30.971  26.501  26.651  1.00  0.00    -0.354 N 
ATOM      3  C   UNL A   1      30.991  25.238  26.151  1.00  0.00     0.252 C 
ATOM      4  O   UNL A   1      30.250  24.446  26.745  1.00  0.00    -0.272 OA
ATOM      5  H   UNL A   1      30.287  26.623  27.349  1.00  0.00     0.163 HD
BRANCH   3   6
ATOM      6  C   UNL A   1      31.948  24.791  24.978  1.00  0.00     0.151 C 
BRANCH   6   7
ATOM      7  C   UNL A   1      31.138  25.057  23.636  1.00  0.00     0.058 C 
ATOM      8  C   UNL A   1      30.472  23.736  23.154  1.00  0.00     0.016 C 
BRANCH   7   9
ATOM      9  C   UNL A   1      30.219  26.272  23.468  1.00  0.00    -0.041 A 
ATOM     10  C   UNL A   1      28.583  28.484  22.847  1.00  0.00     0.119 A 
ATOM     11  C   UNL A   1      28.067  27.416  23.570  1.00  0.00     0.047 A 
ATOM     12  C   UNL A   1      29.944  28.540  22.596  1.00  0.00     0.047 A 
ATOM     13  C   UNL A   1      28.893  26.335  23.908  1.00  0.00     0.008 A 
ATOM     14  C   UNL A   1      30.751  27.449  22.909  1.00  0.00     0.008 A 
BRANCH  10  15
ATOM     15  O   UNL A   1      27.735  29.488  22.475  1.00  0.00    -0.494 OA
BRANCH  15  16
ATOM     16  C   UNL A   1      28.301  30.796  22.660  1.00  0.00     0.226 C 
ATOM     17  C   UNL A   1      27.543  31.589  23.716  1.00  0.00     0.049 C 
ENDBRANCH  15  16
ENDBRANCH  10  15
ENDBRANCH   7   9
ENDBRANCH   6   7
BRANCH   6  18
ATOM     18  C   UNL A   1      33.299  25.606  25.157  1.00  0.00     0.025 C 
ATOM     19  C   UNL A   1      34.397  24.763  25.847  1.00  0.00     0.011 C 
ATOM     20  C   UNL A   1      33.935  26.169  23.883  1.00  0.00     0.011 C 
ENDBRANCH   6  18
BRANCH   6  21
ATOM     21  O   UNL A   1      32.282  23.404  25.114  1.00  0.00    -0.379 OA
ATOM     22  H   UNL A   1      31.554  22.861  24.773  1.00  0.00     0.212 HD
ENDBRANCH   6  21
ENDBRANCH   3   6
ENDBRANCH   1   2
BRANCH   1  23
ATOM     23  C   UNL A   1      32.551  28.124  27.601  1.00  0.00     0.042 C 
BRANCH  23  24
ATOM     24  C   UNL A   1      33.807  28.912  27.255  1.00  0.00     0.118 C 
BRANCH  24  25
ATOM     25  N   UNL A   1      33.817  30.248  27.834  1.00  0.00    -0.352 N 
ATOM     26  C   UNL A   1      34.800  30.892  28.551  1.00  0.00     0.251 C 
ATOM     27  H   UNL A   1      32.996  30.771  27.691  1.00  0.00     0.163 HD
ATOM     28  O   UNL A   1      34.555  31.951  29.111  1.00  0.00    -0.269 OA
BRANCH  26  29
ATOM     29  C   UNL A   1      36.144  30.284  28.667  1.00  0.00     0.039 A 
ATOM     30  C   UNL A   1      37.004  30.330  27.568  1.00  0.00     0.014 A 
ATOM     31  C   UNL A   1      36.557  29.683  29.857  1.00  0.00     0.014 A 
ATOM     32  C   UNL A   1      38.308  29.844  27.692  1.00  0.00     0.010 A 
ATOM     33  C   UNL A   1      37.884  29.299  30.012  1.00  0.00     0.010 A 
ATOM     34  C   UNL A   1      38.772  29.366  28.929  1.00  0.00    -0.014 A 
BRANCH  34  35
ATOM     35  C   UNL A   1      40.177  28.921  29.110  1.00  0.00     0.031 A 
ATOM     36  C   UNL A   1      41.197  29.862  29.691  1.00  0.00     0.074 A 
ATOM     37  C   UNL A   1      40.551  27.696  28.690  1.00  0.00     0.049 A 
ATOM     38  N   UNL A   1      42.483  29.686  29.862  1.00  0.00    -0.248 NA
ATOM     39  C   UNL A   1      40.714  31.189  30.106  1.00  0.00     0.031 C 
ATOM     40  C   UNL A   1      39.669  26.710  28.061  1.00  0.00     0.029 A 
ATOM     41  N   UNL A   1      41.774  27.075  28.720  1.00  0.00    -0.354 N 
ATOM     42  C   UNL A   1      42.960  30.881  30.386  1.00  0.00     0.074 A 
ATOM     43  C   UNL A   1      41.841  31.795  30.446  1.00  0.00     0.031 C 
ATOM     44  C   UNL A   1      40.373  25.598  27.793  1.00  0.00     0.029 A 
ATOM     45  C   UNL A   1      41.762  25.807  28.188  1.00  0.00     0.049 A 
ATOM     46  H   UNL A   1      42.583  27.497  29.087  1.00  0.00     0.167 HD
ATOM     47  C   UNL A   1      44.212  31.180  30.808  1.00  0.00     0.037 A 
ATOM     48  C   UNL A   1      42.760  24.918  28.031  1.00  0.00     0.037 A 
ATOM     49  C   UNL A   1      45.316  30.260  30.772  1.00  0.00     0.049 A 
ATOM     50  C   UNL A   1      44.144  25.279  28.494  1.00  0.00     0.074 A 
ATOM     51  C   UNL A   1      46.607  30.445  31.234  1.00  0.00     0.029 A 
ATOM     52  N   UNL A   1      45.260  28.981  30.238  1.00  0.00    -0.354 N 
ATOM     53  N   UNL A   1      44.565  26.384  29.061  1.00  0.00    -0.248 NA
ATOM     54  C   UNL A   1      45.193  24.267  28.303  1.00  0.00     0.031 C 
ATOM     55  C   UNL A   1      47.347  29.298  30.933  1.00  0.00     0.029 A 
ATOM     56  C   UNL A   1      46.503  28.375  30.335  1.00  0.00     0.049 A 
ATOM     57  H   UNL A   1      44.458  28.566  29.848  1.00  0.00     0.167 HD
ATOM     58  C   UNL A   1      45.916  26.191  29.317  1.00  0.00     0.074 A 
ATOM     59  C   UNL A   1      46.241  24.856  28.860  1.00  0.00     0.031 C 
ATOM     60  C   UNL A   1      46.808  27.042  29.881  1.00  0.00     0.037 A 
BRANCH  47  61
ATOM     61  C   UNL A   1      44.448  32.561  31.350  1.00  0.00     0.057 A 
ATOM     62  C   UNL A   1      44.289  32.860  32.710  1.00  0.00     0.134 A 
ATOM     63  C   UNL A   1      44.868  33.598  30.508  1.00  0.00     0.134 A 
ATOM     64  F   UNL A   1      43.877  31.916  33.571  1.00  0.00    -0.206 F 
ATOM     65  C   UNL A   1      44.510  34.145  33.207  1.00  0.00     0.040 A 
ATOM     66  C   UNL A   1      45.122  34.880  30.998  1.00  0.00     0.040 A 
ATOM     67  F   UNL A   1      45.047  33.381  29.195  1.00  0.00    -0.206 F 
ATOM     68  C   UNL A   1      44.936  35.158  32.350  1.00  0.00     0.006 A 
ENDBRANCH  47  61
BRANCH  48  69
ATOM     69  C   UNL A   1      42.487  23.589  27.424  1.00  0.00     0.057 A 
ATOM     70  C   UNL A   1      42.152  22.487  28.220  1.00  0.00     0.134 A 
ATOM     71  C   UNL A   1      42.564  23.385  26.041  1.00  0.00     0.134 A 
ATOM     72  F   UNL A   1      42.079  22.615  29.553  1.00  0.00    -0.206 F 
ATOM     73  C   UNL A   1      41.926  21.225  27.666  1.00  0.00     0.040 A 
ATOM     74  C   UNL A   1      42.314  22.135  25.472  1.00  0.00     0.040 A 
ATOM     75  F   UNL A   1      42.871  24.401  25.222  1.00  0.00    -0.206 F 
ATOM     76  C   UNL A   1      42.003  21.049  26.287  1.00  0.00     0.006 A 
ENDBRANCH  48  69
BRANCH  60  77
ATOM     77  C   UNL A   1      48.212  26.545  30.068  1.00  0.00     0.057 A 
ATOM     78  C   UNL A   1      49.215  26.782  29.121  1.00  0.00     0.134 A 
ATOM     79  C   UNL A   1      48.575  25.864  31.238  1.00  0.00     0.134 A 
ATOM     80  F   UNL A   1      48.930  27.418  27.974  1.00  0.00    -0.206 F 
ATOM     81  C   UNL A   1      50.524  26.339  29.318  1.00  0.00     0.040 A 
ATOM     82  C   UNL A   1      49.887  25.442  31.460  1.00  0.00     0.040 A 
ATOM     83  F   UNL A   1      47.665  25.613  32.191  1.00  0.00    -0.206 F 
ATOM     84  C   UNL A   1      50.864  25.675  30.495  1.00  0.00     0.006 A 
ENDBRANCH  60  77
ENDBRANCH  34  35
ENDBRANCH  26  29
ENDBRANCH  24  25
ENDBRANCH  23  24
ENDBRANCH   1  23
TORSDOF 16
ENDMDL
