MODEL 1
REMARK VINA RESULT:     -12.6      0.000      0.000
REMARK SMILES O=C(NCCCNC(=O)[C@H]1C[C@@H](C(=O)N2CCCC2)C[N@@H+](Cc2cccnc2)C1)c1ccc(-c2c3nc(c(-c4c(F)cccc4F)c4ccc([nH]4)c(-c4c(F)cccc4F)c4nc(c(-c5c(F)cccc5F)c5ccc2[nH]5)C=C4)C=C3)cc1
REMARK SMILES IDX 5 1 4 2 3 3 1 4 2 5 30 7 31 8 83 9 32 10 82 11 33 12 34 13
REMARK SMILES IDX 35 14 76 15 36 16 81 17 75 18 77 19 37 20 80 21 74 22 73 23
REMARK SMILES IDX 38 25 64 26 47 27 63 28 48 29 51 30 62 31 78 32 49 33 50 34
REMARK SMILES IDX 61 36 79 37 52 38 39 39 40 40 45 41 41 42 42 43 44 44 46 45
REMARK SMILES IDX 43 46 65 47 66 48 71 49 67 50 68 51 70 52 72 53 69 54 53 55
REMARK SMILES IDX 54 56 59 57 55 58 56 59 58 60 60 61 57 62 6 63 7 64 8 65
REMARK SMILES IDX 9 67 10 68 11 69 29 70 12 71 21 72 20 73 13 75 14 76 15 77
REMARK SMILES IDX 16 78 19 79 17 80 18 81 22 82 23 83 24 84 28 85 25 86 27 87
REMARK SMILES IDX 26 88
REMARK H PARENT 3 6 77 24 51 35 7 66 21 74
REMARK Flexibility Score: inf
ROOT
ATOM      1  C   UNL A   1      31.403  32.290  26.503  1.00  0.00     0.042 C 
ENDROOT
BRANCH   1   2
ATOM      2  C   UNL A   1      32.702  32.924  26.973  1.00  0.00     0.118 C 
BRANCH   2   3
ATOM      3  N   UNL A   1      32.496  34.204  27.626  1.00  0.00    -0.352 N 
ATOM      4  O   UNL A   1      32.621  35.764  29.239  1.00  0.00    -0.269 OA
ATOM      5  C   UNL A   1      33.093  34.743  28.739  1.00  0.00     0.251 C 
ATOM      6  H   UNL A   1      31.818  34.779  27.203  1.00  0.00     0.163 HD
BRANCH   5   7
ATOM      7  C   UNL A   1      34.276  34.104  29.362  1.00  0.00     0.039 A 
ATOM      8  C   UNL A   1      35.573  34.523  29.064  1.00  0.00     0.014 A 
ATOM      9  C   UNL A   1      34.082  33.082  30.298  1.00  0.00     0.014 A 
ATOM     10  C   UNL A   1      36.664  33.813  29.555  1.00  0.00     0.010 A 
ATOM     11  C   UNL A   1      35.182  32.441  30.878  1.00  0.00     0.010 A 
ATOM     12  C   UNL A   1      36.486  32.770  30.477  1.00  0.00    -0.014 A 
BRANCH  12  13
ATOM     13  C   UNL A   1      37.677  32.068  31.026  1.00  0.00     0.031 A 
ATOM     14  C   UNL A   1      38.150  32.323  32.433  1.00  0.00     0.074 A 
ATOM     15  C   UNL A   1      38.317  31.165  30.258  1.00  0.00     0.049 A 
ATOM     16  N   UNL A   1      39.141  31.765  33.084  1.00  0.00    -0.248 NA
ATOM     17  C   UNL A   1      37.427  33.341  33.208  1.00  0.00     0.031 C 
ATOM     18  C   UNL A   1      37.967  30.837  28.873  1.00  0.00     0.029 A 
ATOM     19  N   UNL A   1      39.378  30.340  30.533  1.00  0.00    -0.354 N 
ATOM     20  C   UNL A   1      39.175  32.376  34.331  1.00  0.00     0.074 A 
ATOM     21  C   UNL A   1      38.124  33.372  34.336  1.00  0.00     0.031 C 
ATOM     22  C   UNL A   1      38.758  29.845  28.441  1.00  0.00     0.029 A 
ATOM     23  C   UNL A   1      39.713  29.509  29.491  1.00  0.00     0.049 A 
ATOM     24  H   UNL A   1      39.854  30.343  31.396  1.00  0.00     0.167 HD
ATOM     25  C   UNL A   1      39.998  32.127  35.379  1.00  0.00     0.037 A 
ATOM     26  C   UNL A   1      40.685  28.585  29.385  1.00  0.00     0.037 A 
ATOM     27  C   UNL A   1      41.033  31.124  35.376  1.00  0.00     0.049 A 
ATOM     28  C   UNL A   1      41.597  28.346  30.554  1.00  0.00     0.074 A 
ATOM     29  C   UNL A   1      41.890  30.767  36.404  1.00  0.00     0.029 A 
ATOM     30  N   UNL A   1      41.359  30.325  34.291  1.00  0.00    -0.354 N 
ATOM     31  N   UNL A   1      41.583  28.899  31.742  1.00  0.00    -0.248 NA
ATOM     32  C   UNL A   1      42.659  27.349  30.367  1.00  0.00     0.031 C 
ATOM     33  C   UNL A   1      42.770  29.792  35.923  1.00  0.00     0.029 A 
ATOM     34  C   UNL A   1      42.420  29.494  34.616  1.00  0.00     0.049 A 
ATOM     35  H   UNL A   1      40.904  30.344  33.418  1.00  0.00     0.167 HD
ATOM     36  C   UNL A   1      42.608  28.293  32.455  1.00  0.00     0.074 A 
ATOM     37  C   UNL A   1      43.215  27.322  31.569  1.00  0.00     0.031 C 
ATOM     38  C   UNL A   1      43.010  28.522  33.730  1.00  0.00     0.037 A 
BRANCH  25  39
ATOM     39  C   UNL A   1      39.830  32.969  36.613  1.00  0.00     0.057 A 
ATOM     40  C   UNL A   1      38.883  32.666  37.601  1.00  0.00     0.134 A 
ATOM     41  C   UNL A   1      40.656  34.080  36.834  1.00  0.00     0.134 A 
ATOM     42  F   UNL A   1      38.052  31.624  37.450  1.00  0.00    -0.206 F 
ATOM     43  C   UNL A   1      38.746  33.452  38.748  1.00  0.00     0.040 A 
ATOM     44  C   UNL A   1      40.548  34.856  37.989  1.00  0.00     0.040 A 
ATOM     45  F   UNL A   1      41.591  34.423  35.935  1.00  0.00    -0.206 F 
ATOM     46  C   UNL A   1      39.585  34.547  38.947  1.00  0.00     0.006 A 
ENDBRANCH  25  39
BRANCH  26  47
ATOM     47  C   UNL A   1      40.840  27.810  28.128  1.00  0.00     0.057 A 
ATOM     48  C   UNL A   1      40.225  26.563  27.967  1.00  0.00     0.134 A 
ATOM     49  C   UNL A   1      41.610  28.291  27.063  1.00  0.00     0.134 A 
ATOM     50  F   UNL A   1      39.488  26.041  28.958  1.00  0.00    -0.206 F 
ATOM     51  C   UNL A   1      40.388  25.813  26.802  1.00  0.00     0.040 A 
ATOM     52  C   UNL A   1      41.755  27.567  25.880  1.00  0.00     0.040 A 
ATOM     53  F   UNL A   1      42.217  29.484  27.150  1.00  0.00    -0.206 F 
ATOM     54  C   UNL A   1      41.151  26.318  25.751  1.00  0.00     0.006 A 
ENDBRANCH  26  47
BRANCH  38  55
ATOM     55  C   UNL A   1      44.121  27.662  34.261  1.00  0.00     0.057 A 
ATOM     56  C   UNL A   1      43.886  26.401  34.827  1.00  0.00     0.134 A 
ATOM     57  C   UNL A   1      45.450  28.100  34.192  1.00  0.00     0.134 A 
ATOM     58  F   UNL A   1      42.636  25.927  34.936  1.00  0.00    -0.206 F 
ATOM     59  C   UNL A   1      44.929  25.624  35.334  1.00  0.00     0.040 A 
ATOM     60  C   UNL A   1      46.504  27.319  34.668  1.00  0.00     0.040 A 
ATOM     61  F   UNL A   1      45.748  29.293  33.656  1.00  0.00    -0.206 F 
ATOM     62  C   UNL A   1      46.243  26.080  35.250  1.00  0.00     0.006 A 
ENDBRANCH  38  55
ENDBRANCH  12  13
ENDBRANCH   5   7
ENDBRANCH   2   3
ENDBRANCH   1   2
BRANCH   1  63
ATOM     63  C   UNL A   1      31.490  30.786  26.231  1.00  0.00     0.117 C 
BRANCH  63  64
ATOM     64  N   UNL A   1      32.495  30.119  27.046  1.00  0.00    -0.356 N 
ATOM     65  C   UNL A   1      33.305  29.053  26.770  1.00  0.00     0.228 C 
ATOM     66  H   UNL A   1      32.612  30.501  27.946  1.00  0.00     0.163 HD
ATOM     67  O   UNL A   1      34.121  28.732  27.635  1.00  0.00    -0.275 OA
BRANCH  65  68
ATOM     68  C   UNL A   1      33.165  28.291  25.449  1.00  0.00     0.134 C 
ATOM     69  C   UNL A   1      33.977  26.983  25.463  1.00  0.00     0.038 C 
ATOM     70  C   UNL A   1      31.695  27.945  25.250  1.00  0.00     0.276 C 
ATOM     71  C   UNL A   1      33.646  26.054  24.271  1.00  0.00     0.134 C 
ATOM     72  N   UNL A   1      31.430  27.192  24.026  1.00  0.00    -0.330 N 
ATOM     73  C   UNL A   1      32.135  25.908  24.085  1.00  0.00     0.276 C 
ATOM     74  H   UNL A   1      31.788  27.711  23.223  1.00  0.00     0.348 HD
BRANCH  71  75
ATOM     75  C   UNL A   1      34.412  24.737  24.495  1.00  0.00     0.231 C 
ATOM     76  O   UNL A   1      35.260  24.684  25.391  1.00  0.00    -0.274 OA
ATOM     77  N   UNL A   1      33.921  23.583  23.934  1.00  0.00    -0.342 N 
ATOM     78  C   UNL A   1      33.727  23.231  22.538  1.00  0.00     0.119 C 
ATOM     79  C   UNL A   1      33.644  22.423  24.762  1.00  0.00     0.119 C 
ATOM     80  C   UNL A   1      32.507  22.335  22.618  1.00  0.00     0.023 C 
ATOM     81  C   UNL A   1      32.800  21.505  23.871  1.00  0.00     0.023 C 
ENDBRANCH  71  75
BRANCH  72  82
ATOM     82  C   UNL A   1      29.975  27.039  23.785  1.00  0.00     0.300 C 
BRANCH  82  83
ATOM     83  C   UNL A   1      29.265  28.202  23.127  1.00  0.00     0.025 A 
ATOM     84  C   UNL A   1      27.898  28.451  23.296  1.00  0.00     0.013 A 
ATOM     85  C   UNL A   1      29.958  29.063  22.282  1.00  0.00     0.120 A 
ATOM     86  C   UNL A   1      27.278  29.471  22.581  1.00  0.00     0.021 A 
ATOM     87  N   UNL A   1      29.389  30.075  21.587  1.00  0.00    -0.264 NA
ATOM     88  C   UNL A   1      28.059  30.249  21.746  1.00  0.00     0.111 A 
ENDBRANCH  82  83
ENDBRANCH  72  82
ENDBRANCH  65  68
ENDBRANCH  63  64
ENDBRANCH   1  63
TORSDOF 13
ENDMDL
MODEL 2
REMARK VINA RESULT:     -12.5      5.008     10.446
REMARK SMILES O=C(NCCCNC(=O)[C@H]1C[C@@H](C(=O)N2CCCC2)C[N@@H+](Cc2cccnc2)C1)c1ccc(-c2c3nc(c(-c4c(F)cccc4F)c4ccc([nH]4)c(-c4c(F)cccc4F)c4nc(c(-c5c(F)cccc5F)c5ccc2[nH]5)C=C4)C=C3)cc1
REMARK SMILES IDX 5 1 4 2 3 3 1 4 2 5 30 7 31 8 83 9 32 10 82 11 33 12 34 13
REMARK SMILES IDX 35 14 76 15 36 16 81 17 75 18 77 19 37 20 80 21 74 22 73 23
REMARK SMILES IDX 38 25 64 26 47 27 63 28 48 29 51 30 62 31 78 32 49 33 50 34
REMARK SMILES IDX 61 36 79 37 52 38 39 39 40 40 45 41 41 42 42 43 44 44 46 45
REMARK SMILES IDX 43 46 65 47 66 48 71 49 67 50 68 51 70 52 72 53 69 54 53 55
REMARK SMILES IDX 54 56 59 57 55 58 56 59 58 60 60 61 57 62 6 63 7 64 8 65
REMARK SMILES IDX 9 67 10 68 11 69 29 70 12 71 21 72 20 73 13 75 14 76 15 77
REMARK SMILES IDX 16 78 19 79 17 80 18 81 22 82 23 83 24 84 28 85 25 86 27 87
REMARK SMILES IDX 26 88
REMARK H PARENT 3 6 77 24 51 35 7 66 21 74
REMARK Flexibility Score: inf
ROOT
ATOM      1  C   UNL A   1      38.164  19.204  24.953  1.00  0.00     0.042 C 
ENDROOT
BRANCH   1   2
ATOM      2  C   UNL A   1      39.311  19.765  25.777  1.00  0.00     0.118 C 
BRANCH   2   3
ATOM      3  N   UNL A   1      40.443  18.858  25.851  1.00  0.00    -0.352 N 
ATOM      4  O   UNL A   1      42.595  18.210  25.885  1.00  0.00    -0.269 OA
ATOM      5  C   UNL A   1      41.776  19.112  26.063  1.00  0.00     0.251 C 
ATOM      6  H   UNL A   1      40.219  17.908  25.730  1.00  0.00     0.163 HD
BRANCH   5   7
ATOM      7  C   UNL A   1      42.247  20.456  26.474  1.00  0.00     0.039 A 
ATOM      8  C   UNL A   1      42.226  20.859  27.809  1.00  0.00     0.014 A 
ATOM      9  C   UNL A   1      42.757  21.323  25.502  1.00  0.00     0.014 A 
ATOM     10  C   UNL A   1      42.541  22.171  28.145  1.00  0.00     0.010 A 
ATOM     11  C   UNL A   1      43.179  22.608  25.858  1.00  0.00     0.010 A 
ATOM     12  C   UNL A   1      43.032  23.062  27.178  1.00  0.00    -0.014 A 
BRANCH  12  13
ATOM     13  C   UNL A   1      43.414  24.442  27.581  1.00  0.00     0.031 A 
ATOM     14  C   UNL A   1      44.845  24.903  27.520  1.00  0.00     0.074 A 
ATOM     15  C   UNL A   1      42.451  25.299  27.973  1.00  0.00     0.049 A 
ATOM     16  N   UNL A   1      45.344  26.084  27.791  1.00  0.00    -0.248 NA
ATOM     17  C   UNL A   1      45.851  23.911  27.112  1.00  0.00     0.031 C 
ATOM     18  C   UNL A   1      41.027  24.972  28.090  1.00  0.00     0.029 A 
ATOM     19  N   UNL A   1      42.513  26.624  28.324  1.00  0.00    -0.354 N 
ATOM     20  C   UNL A   1      46.718  25.973  27.609  1.00  0.00     0.074 A 
ATOM     21  C   UNL A   1      46.979  24.599  27.235  1.00  0.00     0.031 C 
ATOM     22  C   UNL A   1      40.346  26.076  28.427  1.00  0.00     0.029 A 
ATOM     23  C   UNL A   1      41.288  27.174  28.615  1.00  0.00     0.049 A 
ATOM     24  H   UNL A   1      43.356  27.132  28.363  1.00  0.00     0.167 HD
ATOM     25  C   UNL A   1      47.672  26.927  27.734  1.00  0.00     0.037 A 
ATOM     26  C   UNL A   1      40.956  28.419  29.001  1.00  0.00     0.037 A 
ATOM     27  C   UNL A   1      47.407  28.298  28.092  1.00  0.00     0.049 A 
ATOM     28  C   UNL A   1      42.037  29.450  29.152  1.00  0.00     0.074 A 
ATOM     29  C   UNL A   1      48.302  29.349  28.201  1.00  0.00     0.029 A 
ATOM     30  N   UNL A   1      46.156  28.807  28.408  1.00  0.00    -0.354 N 
ATOM     31  N   UNL A   1      43.324  29.340  28.929  1.00  0.00    -0.248 NA
ATOM     32  C   UNL A   1      41.617  30.782  29.607  1.00  0.00     0.031 C 
ATOM     33  C   UNL A   1      47.602  30.479  28.637  1.00  0.00     0.029 A 
ATOM     34  C   UNL A   1      46.260  30.150  28.736  1.00  0.00     0.049 A 
ATOM     35  H   UNL A   1      45.318  28.291  28.400  1.00  0.00     0.167 HD
ATOM     36  C   UNL A   1      43.862  30.594  29.181  1.00  0.00     0.074 A 
ATOM     37  C   UNL A   1      42.759  31.452  29.562  1.00  0.00     0.031 C 
ATOM     38  C   UNL A   1      45.154  30.998  29.103  1.00  0.00     0.037 A 
BRANCH  25  39
ATOM     39  C   UNL A   1      49.101  26.518  27.503  1.00  0.00     0.057 A 
ATOM     40  C   UNL A   1      49.930  26.080  28.544  1.00  0.00     0.134 A 
ATOM     41  C   UNL A   1      49.643  26.528  26.210  1.00  0.00     0.134 A 
ATOM     42  F   UNL A   1      49.480  26.055  29.807  1.00  0.00    -0.206 F 
ATOM     43  C   UNL A   1      51.253  25.693  28.312  1.00  0.00     0.040 A 
ATOM     44  C   UNL A   1      50.953  26.117  25.962  1.00  0.00     0.040 A 
ATOM     45  F   UNL A   1      48.903  26.927  25.164  1.00  0.00    -0.206 F 
ATOM     46  C   UNL A   1      51.765  25.705  27.016  1.00  0.00     0.006 A 
ENDBRANCH  25  39
BRANCH  26  47
ATOM     47  C   UNL A   1      39.535  28.764  29.260  1.00  0.00     0.057 A 
ATOM     48  C   UNL A   1      38.704  29.225  28.233  1.00  0.00     0.134 A 
ATOM     49  C   UNL A   1      38.976  28.646  30.538  1.00  0.00     0.134 A 
ATOM     50  F   UNL A   1      39.186  29.375  26.991  1.00  0.00    -0.206 F 
ATOM     51  C   UNL A   1      37.375  29.580  28.471  1.00  0.00     0.040 A 
ATOM     52  C   UNL A   1      37.641  28.966  30.784  1.00  0.00     0.040 A 
ATOM     53  F   UNL A   1      39.717  28.199  31.564  1.00  0.00    -0.206 F 
ATOM     54  C   UNL A   1      36.839  29.444  29.751  1.00  0.00     0.006 A 
ENDBRANCH  26  47
BRANCH  38  55
ATOM     55  C   UNL A   1      45.435  32.448  29.376  1.00  0.00     0.057 A 
ATOM     56  C   UNL A   1      45.737  32.923  30.660  1.00  0.00     0.134 A 
ATOM     57  C   UNL A   1      45.415  33.382  28.331  1.00  0.00     0.134 A 
ATOM     58  F   UNL A   1      45.758  32.084  31.707  1.00  0.00    -0.206 F 
ATOM     59  C   UNL A   1      45.975  34.278  30.899  1.00  0.00     0.040 A 
ATOM     60  C   UNL A   1      45.683  34.734  28.553  1.00  0.00     0.040 A 
ATOM     61  F   UNL A   1      45.141  32.995  27.076  1.00  0.00    -0.206 F 
ATOM     62  C   UNL A   1      45.954  35.186  29.842  1.00  0.00     0.006 A 
ENDBRANCH  38  55
ENDBRANCH  12  13
ENDBRANCH   5   7
ENDBRANCH   2   3
ENDBRANCH   1   2
BRANCH   1  63
ATOM     63  C   UNL A   1      36.878  20.032  25.004  1.00  0.00     0.117 C 
BRANCH  63  64
ATOM     64  N   UNL A   1      37.117  21.460  24.858  1.00  0.00    -0.356 N 
ATOM     65  C   UNL A   1      36.337  22.534  25.183  1.00  0.00     0.228 C 
ATOM     66  H   UNL A   1      37.988  21.691  24.459  1.00  0.00     0.163 HD
ATOM     67  O   UNL A   1      36.822  23.652  25.006  1.00  0.00    -0.275 OA
BRANCH  65  68
ATOM     68  C   UNL A   1      34.915  22.330  25.717  1.00  0.00     0.134 C 
ATOM     69  C   UNL A   1      34.148  23.662  25.803  1.00  0.00     0.038 C 
ATOM     70  C   UNL A   1      34.174  21.406  24.760  1.00  0.00     0.276 C 
ATOM     71  C   UNL A   1      32.636  23.472  26.066  1.00  0.00     0.134 C 
ATOM     72  N   UNL A   1      32.789  21.148  25.149  1.00  0.00    -0.330 N 
ATOM     73  C   UNL A   1      32.042  22.409  25.142  1.00  0.00     0.276 C 
ATOM     74  H   UNL A   1      32.767  20.774  26.098  1.00  0.00     0.348 HD
BRANCH  71  75
ATOM     75  C   UNL A   1      31.980  24.862  25.978  1.00  0.00     0.231 C 
ATOM     76  O   UNL A   1      31.348  25.287  26.950  1.00  0.00    -0.274 OA
ATOM     77  N   UNL A   1      32.376  25.718  24.979  1.00  0.00    -0.342 N 
ATOM     78  C   UNL A   1      32.275  25.582  23.536  1.00  0.00     0.119 C 
ATOM     79  C   UNL A   1      32.863  27.047  25.301  1.00  0.00     0.119 C 
ATOM     80  C   UNL A   1      33.513  26.325  23.075  1.00  0.00     0.023 C 
ATOM     81  C   UNL A   1      33.525  27.539  24.009  1.00  0.00     0.023 C 
ENDBRANCH  71  75
BRANCH  72  82
ATOM     82  C   UNL A   1      32.169  20.106  24.295  1.00  0.00     0.300 C 
BRANCH  82  83
ATOM     83  C   UNL A   1      32.716  18.701  24.425  1.00  0.00     0.025 A 
ATOM     84  C   UNL A   1      33.316  18.019  23.361  1.00  0.00     0.013 A 
ATOM     85  C   UNL A   1      32.605  18.011  25.628  1.00  0.00     0.120 A 
ATOM     86  C   UNL A   1      33.703  16.691  23.509  1.00  0.00     0.021 A 
ATOM     87  N   UNL A   1      32.988  16.726  25.810  1.00  0.00    -0.264 NA
ATOM     88  C   UNL A   1      33.520  16.093  24.743  1.00  0.00     0.111 A 
ENDBRANCH  82  83
ENDBRANCH  72  82
ENDBRANCH  65  68
ENDBRANCH  63  64
ENDBRANCH   1  63
TORSDOF 13
ENDMDL
MODEL 3
REMARK VINA RESULT:     -12.5      4.416      9.704
REMARK SMILES O=C(NCCCNC(=O)[C@H]1C[C@@H](C(=O)N2CCCC2)C[N@@H+](Cc2cccnc2)C1)c1ccc(-c2c3nc(c(-c4c(F)cccc4F)c4ccc([nH]4)c(-c4c(F)cccc4F)c4nc(c(-c5c(F)cccc5F)c5ccc2[nH]5)C=C4)C=C3)cc1
REMARK SMILES IDX 5 1 4 2 3 3 1 4 2 5 30 7 31 8 83 9 32 10 82 11 33 12 34 13
REMARK SMILES IDX 35 14 76 15 36 16 81 17 75 18 77 19 37 20 80 21 74 22 73 23
REMARK SMILES IDX 38 25 64 26 47 27 63 28 48 29 51 30 62 31 78 32 49 33 50 34
REMARK SMILES IDX 61 36 79 37 52 38 39 39 40 40 45 41 41 42 42 43 44 44 46 45
REMARK SMILES IDX 43 46 65 47 66 48 71 49 67 50 68 51 70 52 72 53 69 54 53 55
REMARK SMILES IDX 54 56 59 57 55 58 56 59 58 60 60 61 57 62 6 63 7 64 8 65
REMARK SMILES IDX 9 67 10 68 11 69 29 70 12 71 21 72 20 73 13 75 14 76 15 77
REMARK SMILES IDX 16 78 19 79 17 80 18 81 22 82 23 83 24 84 28 85 25 86 27 87
REMARK SMILES IDX 26 88
REMARK H PARENT 3 6 77 24 51 35 7 66 21 74
REMARK Flexibility Score: inf
ROOT
ATOM      1  C   UNL A   1      38.639  19.666  24.945  1.00  0.00     0.042 C 
ENDROOT
BRANCH   1   2
ATOM      2  C   UNL A   1      39.533  19.498  26.163  1.00  0.00     0.118 C 
BRANCH   2   3
ATOM      3  N   UNL A   1      40.850  18.988  25.824  1.00  0.00    -0.352 N 
ATOM      4  O   UNL A   1      43.035  19.044  25.303  1.00  0.00    -0.269 OA
ATOM      5  C   UNL A   1      42.073  19.612  25.821  1.00  0.00     0.251 C 
ATOM      6  H   UNL A   1      40.868  18.042  25.554  1.00  0.00     0.163 HD
BRANCH   5   7
ATOM      7  C   UNL A   1      42.249  20.963  26.403  1.00  0.00     0.039 A 
ATOM      8  C   UNL A   1      42.468  22.081  25.598  1.00  0.00     0.014 A 
ATOM      9  C   UNL A   1      42.154  21.122  27.790  1.00  0.00     0.014 A 
ATOM     10  C   UNL A   1      42.769  23.309  26.178  1.00  0.00     0.010 A 
ATOM     11  C   UNL A   1      42.347  22.382  28.368  1.00  0.00     0.010 A 
ATOM     12  C   UNL A   1      42.702  23.481  27.570  1.00  0.00    -0.014 A 
BRANCH  12  13
ATOM     13  C   UNL A   1      42.974  24.821  28.154  1.00  0.00     0.031 A 
ATOM     14  C   UNL A   1      44.376  25.251  28.497  1.00  0.00     0.074 A 
ATOM     15  C   UNL A   1      41.948  25.673  28.344  1.00  0.00     0.049 A 
ATOM     16  N   UNL A   1      44.795  26.399  28.970  1.00  0.00    -0.248 NA
ATOM     17  C   UNL A   1      45.447  24.264  28.293  1.00  0.00     0.031 C 
ATOM     18  C   UNL A   1      40.541  25.373  28.067  1.00  0.00     0.029 A 
ATOM     19  N   UNL A   1      41.925  26.970  28.791  1.00  0.00    -0.354 N 
ATOM     20  C   UNL A   1      46.168  26.267  29.141  1.00  0.00     0.074 A 
ATOM     21  C   UNL A   1      46.508  24.915  28.750  1.00  0.00     0.031 C 
ATOM     22  C   UNL A   1      39.802  26.469  28.294  1.00  0.00     0.029 A 
ATOM     23  C   UNL A   1      40.669  27.528  28.795  1.00  0.00     0.049 A 
ATOM     24  H   UNL A   1      42.732  27.454  29.082  1.00  0.00     0.167 HD
ATOM     25  C   UNL A   1      47.063  27.188  29.574  1.00  0.00     0.037 A 
ATOM     26  C   UNL A   1      40.257  28.753  29.168  1.00  0.00     0.037 A 
ATOM     27  C   UNL A   1      46.723  28.538  29.947  1.00  0.00     0.049 A 
ATOM     28  C   UNL A   1      41.268  29.746  29.666  1.00  0.00     0.074 A 
ATOM     29  C   UNL A   1      47.565  29.558  30.357  1.00  0.00     0.029 A 
ATOM     30  N   UNL A   1      45.436  29.055  29.965  1.00  0.00    -0.354 N 
ATOM     31  N   UNL A   1      42.568  29.619  29.775  1.00  0.00    -0.248 NA
ATOM     32  C   UNL A   1      40.753  31.054  30.089  1.00  0.00     0.031 C 
ATOM     33  C   UNL A   1      46.783  30.673  30.676  1.00  0.00     0.029 A 
ATOM     34  C   UNL A   1      45.459  30.370  30.402  1.00  0.00     0.049 A 
ATOM     35  H   UNL A   1      44.625  28.560  29.705  1.00  0.00     0.167 HD
ATOM     36  C   UNL A   1      43.030  30.841  30.245  1.00  0.00     0.074 A 
ATOM     37  C   UNL A   1      41.871  31.698  30.387  1.00  0.00     0.031 C 
ATOM     38  C   UNL A   1      44.301  31.219  30.531  1.00  0.00     0.037 A 
BRANCH  25  39
ATOM     39  C   UNL A   1      48.500  26.761  29.692  1.00  0.00     0.057 A 
ATOM     40  C   UNL A   1      49.422  26.946  28.653  1.00  0.00     0.134 A 
ATOM     41  C   UNL A   1      48.976  26.189  30.880  1.00  0.00     0.134 A 
ATOM     42  F   UNL A   1      49.033  27.478  27.485  1.00  0.00    -0.206 F 
ATOM     43  C   UNL A   1      50.757  26.554  28.782  1.00  0.00     0.040 A 
ATOM     44  C   UNL A   1      50.314  25.819  31.031  1.00  0.00     0.040 A 
ATOM     45  F   UNL A   1      48.151  25.990  31.920  1.00  0.00    -0.206 F 
ATOM     46  C   UNL A   1      51.207  25.994  29.976  1.00  0.00     0.006 A 
ENDBRANCH  25  39
BRANCH  26  47
ATOM     47  C   UNL A   1      38.819  29.114  29.076  1.00  0.00     0.057 A 
ATOM     48  C   UNL A   1      37.983  29.044  30.196  1.00  0.00     0.134 A 
ATOM     49  C   UNL A   1      38.246  29.530  27.869  1.00  0.00     0.134 A 
ATOM     50  F   UNL A   1      38.469  28.636  31.377  1.00  0.00    -0.206 F 
ATOM     51  C   UNL A   1      36.624  29.352  30.114  1.00  0.00     0.040 A 
ATOM     52  C   UNL A   1      36.897  29.873  27.779  1.00  0.00     0.040 A 
ATOM     53  F   UNL A   1      38.996  29.629  26.761  1.00  0.00    -0.206 F 
ATOM     54  C   UNL A   1      36.079  29.774  28.903  1.00  0.00     0.006 A 
ENDBRANCH  26  47
BRANCH  38  55
ATOM     55  C   UNL A   1      44.510  32.640  30.968  1.00  0.00     0.057 A 
ATOM     56  C   UNL A   1      44.729  33.679  30.055  1.00  0.00     0.134 A 
ATOM     57  C   UNL A   1      44.478  32.973  32.329  1.00  0.00     0.134 A 
ATOM     58  F   UNL A   1      44.785  33.427  28.738  1.00  0.00    -0.206 F 
ATOM     59  C   UNL A   1      44.941  34.992  30.481  1.00  0.00     0.040 A 
ATOM     60  C   UNL A   1      44.658  34.287  32.765  1.00  0.00     0.040 A 
ATOM     61  F   UNL A   1      44.265  32.029  33.258  1.00  0.00    -0.206 F 
ATOM     62  C   UNL A   1      44.900  35.299  31.840  1.00  0.00     0.006 A 
ENDBRANCH  38  55
ENDBRANCH  12  13
ENDBRANCH   5   7
ENDBRANCH   2   3
ENDBRANCH   1   2
BRANCH   1  63
ATOM     63  C   UNL A   1      37.474  20.640  25.139  1.00  0.00     0.117 C 
BRANCH  63  64
ATOM     64  N   UNL A   1      37.369  21.619  24.067  1.00  0.00    -0.356 N 
ATOM     65  C   UNL A   1      36.483  22.642  23.876  1.00  0.00     0.228 C 
ATOM     66  H   UNL A   1      38.051  21.530  23.362  1.00  0.00     0.163 HD
ATOM     67  O   UNL A   1      36.669  23.367  22.898  1.00  0.00    -0.275 OA
BRANCH  65  68
ATOM     68  C   UNL A   1      35.305  22.841  24.835  1.00  0.00     0.134 C 
ATOM     69  C   UNL A   1      34.839  24.308  24.860  1.00  0.00     0.038 C 
ATOM     70  C   UNL A   1      34.148  21.975  24.355  1.00  0.00     0.276 C 
ATOM     71  C   UNL A   1      33.490  24.501  25.591  1.00  0.00     0.134 C 
ATOM     72  N   UNL A   1      32.947  22.092  25.180  1.00  0.00    -0.330 N 
ATOM     73  C   UNL A   1      32.457  23.472  25.128  1.00  0.00     0.276 C 
ATOM     74  H   UNL A   1      33.178  21.876  26.150  1.00  0.00     0.348 HD
BRANCH  71  75
ATOM     75  C   UNL A   1      33.080  25.973  25.409  1.00  0.00     0.231 C 
ATOM     76  O   UNL A   1      33.096  26.723  26.390  1.00  0.00    -0.274 OA
ATOM     77  N   UNL A   1      33.026  26.493  24.138  1.00  0.00    -0.342 N 
ATOM     78  C   UNL A   1      32.186  26.122  23.012  1.00  0.00     0.119 C 
ATOM     79  C   UNL A   1      33.785  27.681  23.798  1.00  0.00     0.119 C 
ATOM     80  C   UNL A   1      33.105  26.412  21.842  1.00  0.00     0.023 C 
ATOM     81  C   UNL A   1      33.758  27.731  22.266  1.00  0.00     0.023 C 
ENDBRANCH  71  75
BRANCH  72  82
ATOM     82  C   UNL A   1      31.918  21.100  24.786  1.00  0.00     0.300 C 
BRANCH  82  83
ATOM     83  C   UNL A   1      32.400  19.700  24.475  1.00  0.00     0.025 A 
ATOM     84  C   UNL A   1      32.418  19.174  23.178  1.00  0.00     0.013 A 
ATOM     85  C   UNL A   1      32.819  18.856  25.499  1.00  0.00     0.120 A 
ATOM     86  C   UNL A   1      32.771  17.845  22.967  1.00  0.00     0.021 A 
ATOM     87  N   UNL A   1      33.185  17.565  25.324  1.00  0.00    -0.264 NA
ATOM     88  C   UNL A   1      33.144  17.087  24.063  1.00  0.00     0.111 A 
ENDBRANCH  82  83
ENDBRANCH  72  82
ENDBRANCH  65  68
ENDBRANCH  63  64
ENDBRANCH   1  63
TORSDOF 13
ENDMDL
