MODEL 1
REMARK VINA RESULT:     -12.0      0.000      0.000
REMARK SMILES CC(C)=CC(=O)N1[C@H](C(=O)NCCCNC(=O)c2ccc(-c3c4nc(c(-c5c(F)cccc5F)c5ccc([nH]5)c(-c5c(F)cccc5F)c5nc(c(-c6c(F)cccc6F)c6ccc3[nH]6)C=C5)C=C4)cc2)COC12CCCCC2
REMARK SMILES IDX 13 1 12 2 11 3 9 4 10 5 8 7 7 8 74 9 72 10 73 11 75 12 79 13
REMARK SMILES IDX 76 14 78 15 77 16 5 17 6 18 4 19 1 20 2 21 3 22 14 23 15 24
REMARK SMILES IDX 16 25 17 27 18 28 19 29 71 30 20 31 70 32 21 33 22 34 23 35
REMARK SMILES IDX 64 36 24 37 69 38 63 39 65 40 25 41 68 42 62 43 61 44 26 46
REMARK SMILES IDX 52 47 35 48 51 49 36 50 39 51 50 52 66 53 37 54 38 55 49 57
REMARK SMILES IDX 67 58 40 59 27 60 28 61 33 62 29 63 30 64 32 65 34 66 31 67
REMARK SMILES IDX 53 68 54 69 59 70 55 71 56 72 58 73 60 74 57 75 41 76 42 77
REMARK SMILES IDX 47 78 43 79 44 80 46 81 48 82 45 83
REMARK H PARENT 11 6 15 26 65 45 39 56
REMARK Flexibility Score: inf
ROOT
ATOM      1  C   UNL A   1      31.048  31.762  26.106  1.00  0.00     0.042 C 
ENDROOT
BRANCH   1   2
ATOM      2  C   UNL A   1      31.085  30.328  25.582  1.00  0.00     0.117 C 
BRANCH   2   3
ATOM      3  N   UNL A   1      32.263  30.074  24.770  1.00  0.00    -0.354 N 
ATOM      4  C   UNL A   1      32.771  28.893  24.301  1.00  0.00     0.245 C 
ATOM      5  O   UNL A   1      33.725  28.948  23.520  1.00  0.00    -0.273 OA
ATOM      6  H   UNL A   1      32.775  30.876  24.517  1.00  0.00     0.163 HD
BRANCH   4   7
ATOM      7  C   UNL A   1      32.159  27.555  24.750  1.00  0.00     0.203 C 
ATOM      8  N   UNL A   1      31.776  26.663  23.667  1.00  0.00    -0.296 N 
ATOM      9  C   UNL A   1      32.324  25.324  23.887  1.00  0.00     0.144 C 
ATOM     10  C   UNL A   1      33.229  26.772  25.478  1.00  0.00     0.198 C 
ATOM     11  O   UNL A   1      32.962  25.398  25.190  1.00  0.00    -0.353 OA
ATOM     12  C   UNL A   1      31.288  24.194  24.031  1.00  0.00     0.059 C 
ATOM     13  C   UNL A   1      33.402  24.954  22.851  1.00  0.00     0.059 C 
ATOM     14  C   UNL A   1      31.932  22.838  24.323  1.00  0.00     0.005 C 
ATOM     15  C   UNL A   1      34.023  23.578  23.125  1.00  0.00     0.005 C 
ATOM     16  C   UNL A   1      32.965  22.487  23.256  1.00  0.00     0.000 C 
BRANCH   8  17
ATOM     17  C   UNL A   1      30.883  27.139  22.742  1.00  0.00     0.249 C 
ATOM     18  O   UNL A   1      31.144  27.225  21.542  1.00  0.00    -0.270 OA
BRANCH  17  19
ATOM     19  C   UNL A   1      29.573  27.649  23.188  1.00  0.00     0.070 C 
ATOM     20  C   UNL A   1      30.010  29.821  21.981  1.00  0.00     0.039 C 
ATOM     21  C   UNL A   1      29.150  28.855  22.757  1.00  0.00    -0.071 C 
ATOM     22  C   UNL A   1      27.755  29.341  23.029  1.00  0.00     0.039 C 
ENDBRANCH  17  19
ENDBRANCH   8  17
ENDBRANCH   4   7
ENDBRANCH   2   3
ENDBRANCH   1   2
BRANCH   1  23
ATOM     23  C   UNL A   1      32.293  32.182  26.888  1.00  0.00     0.118 C 
BRANCH  23  24
ATOM     24  N   UNL A   1      32.262  33.574  27.309  1.00  0.00    -0.352 N 
ATOM     25  C   UNL A   1      33.068  34.267  28.177  1.00  0.00     0.251 C 
ATOM     26  H   UNL A   1      31.543  34.109  26.902  1.00  0.00     0.163 HD
ATOM     27  O   UNL A   1      32.768  35.422  28.473  1.00  0.00    -0.269 OA
BRANCH  25  28
ATOM     28  C   UNL A   1      34.273  33.653  28.786  1.00  0.00     0.039 A 
ATOM     29  C   UNL A   1      34.096  32.549  29.628  1.00  0.00     0.014 A 
ATOM     30  C   UNL A   1      35.556  34.171  28.596  1.00  0.00     0.014 A 
ATOM     31  C   UNL A   1      35.199  31.941  30.233  1.00  0.00     0.010 A 
ATOM     32  C   UNL A   1      36.666  33.519  29.142  1.00  0.00     0.010 A 
ATOM     33  C   UNL A   1      36.499  32.401  29.974  1.00  0.00    -0.014 A 
BRANCH  33  34
ATOM     34  C   UNL A   1      37.679  31.717  30.568  1.00  0.00     0.031 A 
ATOM     35  C   UNL A   1      38.123  32.025  31.972  1.00  0.00     0.074 A 
ATOM     36  C   UNL A   1      38.375  30.831  29.828  1.00  0.00     0.049 A 
ATOM     37  N   UNL A   1      39.124  31.522  32.652  1.00  0.00    -0.248 NA
ATOM     38  C   UNL A   1      37.357  33.046  32.703  1.00  0.00     0.031 C 
ATOM     39  C   UNL A   1      38.082  30.476  28.438  1.00  0.00     0.029 A 
ATOM     40  N   UNL A   1      39.470  30.065  30.142  1.00  0.00    -0.354 N 
ATOM     41  C   UNL A   1      39.113  32.169  33.881  1.00  0.00     0.074 A 
ATOM     42  C   UNL A   1      38.040  33.139  33.835  1.00  0.00     0.031 C 
ATOM     43  C   UNL A   1      38.955  29.541  28.030  1.00  0.00     0.029 A 
ATOM     44  C   UNL A   1      39.886  29.252  29.116  1.00  0.00     0.049 A 
ATOM     45  H   UNL A   1      39.915  30.095  31.020  1.00  0.00     0.167 HD
ATOM     46  C   UNL A   1      39.907  31.961  34.960  1.00  0.00     0.037 A 
ATOM     47  C   UNL A   1      40.901  28.368  29.056  1.00  0.00     0.037 A 
ATOM     48  C   UNL A   1      40.963  30.983  35.016  1.00  0.00     0.049 A 
ATOM     49  C   UNL A   1      41.764  28.150  30.267  1.00  0.00     0.074 A 
ATOM     50  C   UNL A   1      41.789  30.663  36.081  1.00  0.00     0.029 A 
ATOM     51  N   UNL A   1      41.342  30.167  33.960  1.00  0.00    -0.354 N 
ATOM     52  N   UNL A   1      41.696  28.720  31.446  1.00  0.00    -0.248 NA
ATOM     53  C   UNL A   1      42.837  27.153  30.145  1.00  0.00     0.031 C 
ATOM     54  C   UNL A   1      42.694  29.684  35.658  1.00  0.00     0.029 A 
ATOM     55  C   UNL A   1      42.399  29.357  34.344  1.00  0.00     0.049 A 
ATOM     56  H   UNL A   1      40.922  30.164  33.069  1.00  0.00     0.167 HD
ATOM     57  C   UNL A   1      42.690  28.128  32.213  1.00  0.00     0.074 A 
ATOM     58  C   UNL A   1      43.341  27.147  31.370  1.00  0.00     0.031 C 
ATOM     59  C   UNL A   1      43.032  28.375  33.501  1.00  0.00     0.037 A 
BRANCH  46  60
ATOM     60  C   UNL A   1      39.658  32.806  36.177  1.00  0.00     0.057 A 
ATOM     61  C   UNL A   1      40.353  34.002  36.400  1.00  0.00     0.134 A 
ATOM     62  C   UNL A   1      38.689  32.438  37.119  1.00  0.00     0.134 A 
ATOM     63  F   UNL A   1      41.302  34.407  35.543  1.00  0.00    -0.206 F 
ATOM     64  C   UNL A   1      40.113  34.788  37.530  1.00  0.00     0.040 A 
ATOM     65  C   UNL A   1      38.420  33.230  38.237  1.00  0.00     0.040 A 
ATOM     66  F   UNL A   1      37.980  31.310  36.963  1.00  0.00    -0.206 F 
ATOM     67  C   UNL A   1      39.138  34.405  38.448  1.00  0.00     0.006 A 
ENDBRANCH  46  60
BRANCH  47  68
ATOM     68  C   UNL A   1      41.136  27.593  27.812  1.00  0.00     0.057 A 
ATOM     69  C   UNL A   1      41.935  28.105  26.782  1.00  0.00     0.134 A 
ATOM     70  C   UNL A   1      40.565  26.330  27.617  1.00  0.00     0.134 A 
ATOM     71  F   UNL A   1      42.494  29.319  26.902  1.00  0.00    -0.206 F 
ATOM     72  C   UNL A   1      42.140  27.400  25.596  1.00  0.00     0.040 A 
ATOM     73  C   UNL A   1      40.783  25.602  26.447  1.00  0.00     0.040 A 
ATOM     74  F   UNL A   1      39.797  25.780  28.570  1.00  0.00    -0.206 F 
ATOM     75  C   UNL A   1      41.566  26.141  25.428  1.00  0.00     0.006 A 
ENDBRANCH  47  68
BRANCH  59  76
ATOM     76  C   UNL A   1      44.127  27.536  34.094  1.00  0.00     0.057 A 
ATOM     77  C   UNL A   1      45.469  27.937  34.067  1.00  0.00     0.134 A 
ATOM     78  C   UNL A   1      43.829  26.319  34.721  1.00  0.00     0.134 A 
ATOM     79  F   UNL A   1      45.825  29.085  33.472  1.00  0.00    -0.206 F 
ATOM     80  C   UNL A   1      46.478  27.143  34.617  1.00  0.00     0.040 A 
ATOM     81  C   UNL A   1      44.825  25.531  35.298  1.00  0.00     0.040 A 
ATOM     82  F   UNL A   1      42.563  25.880  34.789  1.00  0.00    -0.206 F 
ATOM     83  C   UNL A   1      46.156  25.938  35.239  1.00  0.00     0.006 A 
ENDBRANCH  59  76
ENDBRANCH  33  34
ENDBRANCH  25  28
ENDBRANCH  23  24
ENDBRANCH   1  23
TORSDOF 12
ENDMDL
MODEL 2
REMARK VINA RESULT:     -11.9      2.536      4.197
REMARK SMILES CC(C)=CC(=O)N1[C@H](C(=O)NCCCNC(=O)c2ccc(-c3c4nc(c(-c5c(F)cccc5F)c5ccc([nH]5)c(-c5c(F)cccc5F)c5nc(c(-c6c(F)cccc6F)c6ccc3[nH]6)C=C5)C=C4)cc2)COC12CCCCC2
REMARK SMILES IDX 13 1 12 2 11 3 9 4 10 5 8 7 7 8 74 9 72 10 73 11 75 12 79 13
REMARK SMILES IDX 76 14 78 15 77 16 5 17 6 18 4 19 1 20 2 21 3 22 14 23 15 24
REMARK SMILES IDX 16 25 17 27 18 28 19 29 71 30 20 31 70 32 21 33 22 34 23 35
REMARK SMILES IDX 64 36 24 37 69 38 63 39 65 40 25 41 68 42 62 43 61 44 26 46
REMARK SMILES IDX 52 47 35 48 51 49 36 50 39 51 50 52 66 53 37 54 38 55 49 57
REMARK SMILES IDX 67 58 40 59 27 60 28 61 33 62 29 63 30 64 32 65 34 66 31 67
REMARK SMILES IDX 53 68 54 69 59 70 55 71 56 72 58 73 60 74 57 75 41 76 42 77
REMARK SMILES IDX 47 78 43 79 44 80 46 81 48 82 45 83
REMARK H PARENT 11 6 15 26 65 45 39 56
REMARK Flexibility Score: inf
ROOT
ATOM      1  C   UNL A   1      33.469  28.850  24.580  1.00  0.00     0.042 C 
ENDROOT
BRANCH   1   2
ATOM      2  C   UNL A   1      32.049  28.287  24.568  1.00  0.00     0.117 C 
BRANCH   2   3
ATOM      3  N   UNL A   1      31.780  27.463  25.735  1.00  0.00    -0.354 N 
ATOM      4  C   UNL A   1      31.590  26.111  25.834  1.00  0.00     0.245 C 
ATOM      5  O   UNL A   1      31.499  25.624  26.964  1.00  0.00    -0.273 OA
ATOM      6  H   UNL A   1      31.727  27.952  26.588  1.00  0.00     0.163 HD
BRANCH   4   7
ATOM      7  C   UNL A   1      31.493  25.249  24.563  1.00  0.00     0.203 C 
ATOM      8  N   UNL A   1      32.645  24.398  24.310  1.00  0.00    -0.296 N 
ATOM      9  C   UNL A   1      32.220  23.021  24.053  1.00  0.00     0.144 C 
ATOM     10  C   UNL A   1      30.368  24.256  24.756  1.00  0.00     0.198 C 
ATOM     11  O   UNL A   1      30.768  23.080  24.049  1.00  0.00    -0.353 OA
ATOM     12  C   UNL A   1      32.584  22.459  22.667  1.00  0.00     0.059 C 
ATOM     13  C   UNL A   1      32.652  22.055  25.171  1.00  0.00     0.059 C 
ATOM     14  C   UNL A   1      32.051  21.042  22.448  1.00  0.00     0.005 C 
ATOM     15  C   UNL A   1      32.147  20.626  24.933  1.00  0.00     0.005 C 
ATOM     16  C   UNL A   1      32.532  20.105  23.552  1.00  0.00     0.000 C 
BRANCH   8  17
ATOM     17  C   UNL A   1      33.869  25.007  24.201  1.00  0.00     0.249 C 
ATOM     18  O   UNL A   1      34.177  25.724  23.249  1.00  0.00    -0.270 OA
BRANCH  17  19
ATOM     19  C   UNL A   1      34.906  24.747  25.216  1.00  0.00     0.070 C 
ATOM     20  C   UNL A   1      36.004  23.087  23.664  1.00  0.00     0.039 C 
ATOM     21  C   UNL A   1      35.931  23.922  24.918  1.00  0.00    -0.071 C 
ATOM     22  C   UNL A   1      37.105  23.766  25.842  1.00  0.00     0.039 C 
ENDBRANCH  17  19
ENDBRANCH   8  17
ENDBRANCH   4   7
ENDBRANCH   2   3
ENDBRANCH   1   2
BRANCH   1  23
ATOM     23  C   UNL A   1      34.103  28.940  25.968  1.00  0.00     0.118 C 
BRANCH  23  24
ATOM     24  N   UNL A   1      33.808  30.189  26.652  1.00  0.00    -0.352 N 
ATOM     25  C   UNL A   1      34.475  30.839  27.659  1.00  0.00     0.251 C 
ATOM     26  H   UNL A   1      32.994  30.645  26.338  1.00  0.00     0.163 HD
ATOM     27  O   UNL A   1      33.960  31.833  28.168  1.00  0.00    -0.269 OA
BRANCH  25  28
ATOM     28  C   UNL A   1      35.783  30.361  28.168  1.00  0.00     0.039 A 
ATOM     29  C   UNL A   1      35.803  29.661  29.380  1.00  0.00     0.014 A 
ATOM     30  C   UNL A   1      36.988  30.634  27.515  1.00  0.00     0.014 A 
ATOM     31  C   UNL A   1      37.012  29.198  29.907  1.00  0.00     0.010 A 
ATOM     32  C   UNL A   1      38.188  30.107  28.003  1.00  0.00     0.010 A 
ATOM     33  C   UNL A   1      38.214  29.390  29.209  1.00  0.00    -0.014 A 
BRANCH  33  34
ATOM     34  C   UNL A   1      39.494  28.844  29.736  1.00  0.00     0.031 A 
ATOM     35  C   UNL A   1      40.138  29.434  30.962  1.00  0.00     0.074 A 
ATOM     36  C   UNL A   1      40.096  27.825  29.092  1.00  0.00     0.049 A 
ATOM     37  N   UNL A   1      41.247  29.083  31.563  1.00  0.00    -0.248 NA
ATOM     38  C   UNL A   1      39.460  30.583  31.581  1.00  0.00     0.031 C 
ATOM     39  C   UNL A   1      39.606  27.192  27.867  1.00  0.00     0.029 A 
ATOM     40  N   UNL A   1      41.251  27.141  29.379  1.00  0.00    -0.354 N 
ATOM     41  C   UNL A   1      41.404  29.969  32.622  1.00  0.00     0.074 A 
ATOM     42  C   UNL A   1      40.306  30.908  32.549  1.00  0.00     0.031 C 
ATOM     43  C   UNL A   1      40.436  26.193  27.525  1.00  0.00     0.029 A 
ATOM     44  C   UNL A   1      41.532  26.135  28.487  1.00  0.00     0.049 A 
ATOM     45  H   UNL A   1      41.825  27.351  30.151  1.00  0.00     0.167 HD
ATOM     46  C   UNL A   1      42.361  29.988  33.581  1.00  0.00     0.037 A 
ATOM     47  C   UNL A   1      42.555  25.258  28.448  1.00  0.00     0.037 A 
ATOM     48  C   UNL A   1      43.445  29.043  33.668  1.00  0.00     0.049 A 
ATOM     49  C   UNL A   1      43.600  25.295  29.528  1.00  0.00     0.074 A 
ATOM     50  C   UNL A   1      44.434  28.950  34.633  1.00  0.00     0.029 A 
ATOM     51  N   UNL A   1      43.684  28.028  32.753  1.00  0.00    -0.354 N 
ATOM     52  N   UNL A   1      43.695  26.095  30.562  1.00  0.00    -0.248 NA
ATOM     53  C   UNL A   1      44.674  24.294  29.443  1.00  0.00     0.031 C 
ATOM     54  C   UNL A   1      45.296  27.905  34.280  1.00  0.00     0.029 A 
ATOM     55  C   UNL A   1      44.814  27.315  33.123  1.00  0.00     0.049 A 
ATOM     56  H   UNL A   1      43.132  27.841  31.960  1.00  0.00     0.167 HD
ATOM     57  C   UNL A   1      44.814  25.674  31.267  1.00  0.00     0.074 A 
ATOM     58  C   UNL A   1      45.360  24.541  30.549  1.00  0.00     0.031 C 
ATOM     59  C   UNL A   1      45.342  26.181  32.408  1.00  0.00     0.037 A 
BRANCH  46  60
ATOM     60  C   UNL A   1      42.274  31.064  34.626  1.00  0.00     0.057 A 
ATOM     61  C   UNL A   1      41.537  30.893  35.805  1.00  0.00     0.134 A 
ATOM     62  C   UNL A   1      42.964  32.273  34.468  1.00  0.00     0.134 A 
ATOM     63  F   UNL A   1      40.844  29.763  36.015  1.00  0.00    -0.206 F 
ATOM     64  C   UNL A   1      41.466  31.894  36.776  1.00  0.00     0.040 A 
ATOM     65  C   UNL A   1      42.924  33.270  35.445  1.00  0.00     0.040 A 
ATOM     66  F   UNL A   1      43.697  32.501  33.367  1.00  0.00    -0.206 F 
ATOM     67  C   UNL A   1      42.168  33.084  36.599  1.00  0.00     0.006 A 
ENDBRANCH  46  60
BRANCH  47  68
ATOM     68  C   UNL A   1      42.621  24.244  27.366  1.00  0.00     0.057 A 
ATOM     69  C   UNL A   1      42.105  22.955  27.553  1.00  0.00     0.134 A 
ATOM     70  C   UNL A   1      43.205  24.531  26.127  1.00  0.00     0.134 A 
ATOM     71  F   UNL A   1      41.550  22.614  28.726  1.00  0.00    -0.206 F 
ATOM     72  C   UNL A   1      42.187  21.983  26.556  1.00  0.00     0.040 A 
ATOM     73  C   UNL A   1      43.269  23.577  25.111  1.00  0.00     0.040 A 
ATOM     74  F   UNL A   1      43.709  25.750  25.883  1.00  0.00    -0.206 F 
ATOM     75  C   UNL A   1      42.767  22.295  25.327  1.00  0.00     0.006 A 
ENDBRANCH  47  68
BRANCH  59  76
ATOM     76  C   UNL A   1      46.542  25.482  32.979  1.00  0.00     0.057 A 
ATOM     77  C   UNL A   1      47.849  25.842  32.627  1.00  0.00     0.134 A 
ATOM     78  C   UNL A   1      46.386  24.450  33.913  1.00  0.00     0.134 A 
ATOM     79  F   UNL A   1      48.070  26.814  31.729  1.00  0.00    -0.206 F 
ATOM     80  C   UNL A   1      48.957  25.179  33.161  1.00  0.00     0.040 A 
ATOM     81  C   UNL A   1      47.484  23.800  34.475  1.00  0.00     0.040 A 
ATOM     82  F   UNL A   1      45.161  24.062  34.301  1.00  0.00    -0.206 F 
ATOM     83  C   UNL A   1      48.775  24.158  34.092  1.00  0.00     0.006 A 
ENDBRANCH  59  76
ENDBRANCH  33  34
ENDBRANCH  25  28
ENDBRANCH  23  24
ENDBRANCH   1  23
TORSDOF 12
ENDMDL
MODEL 3
REMARK VINA RESULT:     -11.9      4.391      8.792
REMARK SMILES CC(C)=CC(=O)N1[C@H](C(=O)NCCCNC(=O)c2ccc(-c3c4nc(c(-c5c(F)cccc5F)c5ccc([nH]5)c(-c5c(F)cccc5F)c5nc(c(-c6c(F)cccc6F)c6ccc3[nH]6)C=C5)C=C4)cc2)COC12CCCCC2
REMARK SMILES IDX 13 1 12 2 11 3 9 4 10 5 8 7 7 8 74 9 72 10 73 11 75 12 79 13
REMARK SMILES IDX 76 14 78 15 77 16 5 17 6 18 4 19 1 20 2 21 3 22 14 23 15 24
REMARK SMILES IDX 16 25 17 27 18 28 19 29 71 30 20 31 70 32 21 33 22 34 23 35
REMARK SMILES IDX 64 36 24 37 69 38 63 39 65 40 25 41 68 42 62 43 61 44 26 46
REMARK SMILES IDX 52 47 35 48 51 49 36 50 39 51 50 52 66 53 37 54 38 55 49 57
REMARK SMILES IDX 67 58 40 59 27 60 28 61 33 62 29 63 30 64 32 65 34 66 31 67
REMARK SMILES IDX 53 68 54 69 59 70 55 71 56 72 58 73 60 74 57 75 41 76 42 77
REMARK SMILES IDX 47 78 43 79 44 80 46 81 48 82 45 83
REMARK H PARENT 11 6 15 26 65 45 39 56
REMARK Flexibility Score: inf
ROOT
ATOM      1  C   UNL A   1      37.369  19.548  24.967  1.00  0.00     0.042 C 
ENDROOT
BRANCH   1   2
ATOM      2  C   UNL A   1      36.199  20.501  24.728  1.00  0.00     0.117 C 
BRANCH   2   3
ATOM      3  N   UNL A   1      35.677  21.045  25.971  1.00  0.00    -0.354 N 
ATOM      4  C   UNL A   1      34.725  22.005  26.180  1.00  0.00     0.245 C 
ATOM      5  O   UNL A   1      34.360  22.210  27.341  1.00  0.00    -0.273 OA
ATOM      6  H   UNL A   1      36.068  20.664  26.789  1.00  0.00     0.163 HD
BRANCH   4   7
ATOM      7  C   UNL A   1      34.145  22.792  24.991  1.00  0.00     0.203 C 
ATOM      8  N   UNL A   1      32.693  22.811  24.919  1.00  0.00    -0.296 N 
ATOM      9  C   UNL A   1      32.205  24.182  24.756  1.00  0.00     0.144 C 
ATOM     10  C   UNL A   1      34.499  24.252  25.180  1.00  0.00     0.198 C 
ATOM     11  O   UNL A   1      33.407  24.986  24.622  1.00  0.00    -0.353 OA
ATOM     12  C   UNL A   1      31.413  24.458  23.465  1.00  0.00     0.059 C 
ATOM     13  C   UNL A   1      31.435  24.681  25.992  1.00  0.00     0.059 C 
ATOM     14  C   UNL A   1      30.993  25.923  23.334  1.00  0.00     0.005 C 
ATOM     15  C   UNL A   1      30.984  26.140  25.845  1.00  0.00     0.005 C 
ATOM     16  C   UNL A   1      30.200  26.371  24.557  1.00  0.00     0.000 C 
BRANCH   8  17
ATOM     17  C   UNL A   1      32.048  21.603  24.858  1.00  0.00     0.249 C 
ATOM     18  O   UNL A   1      31.268  21.216  25.729  1.00  0.00    -0.270 OA
BRANCH  17  19
ATOM     19  C   UNL A   1      32.341  20.674  23.752  1.00  0.00     0.070 C 
ATOM     20  C   UNL A   1      32.824  18.843  25.420  1.00  0.00     0.039 C 
ATOM     21  C   UNL A   1      32.614  19.382  24.027  1.00  0.00    -0.071 C 
ATOM     22  C   UNL A   1      32.738  18.357  22.935  1.00  0.00     0.039 C 
ENDBRANCH  17  19
ENDBRANCH   8  17
ENDBRANCH   4   7
ENDBRANCH   2   3
ENDBRANCH   1   2
BRANCH   1  23
ATOM     23  C   UNL A   1      38.594  20.198  25.609  1.00  0.00     0.118 C 
BRANCH  23  24
ATOM     24  N   UNL A   1      39.747  19.313  25.668  1.00  0.00    -0.352 N 
ATOM     25  C   UNL A   1      41.042  19.552  26.052  1.00  0.00     0.251 C 
ATOM     26  H   UNL A   1      39.566  18.387  25.387  1.00  0.00     0.163 HD
ATOM     27  O   UNL A   1      41.881  18.665  25.898  1.00  0.00    -0.269 OA
BRANCH  25  28
ATOM     28  C   UNL A   1      41.463  20.855  26.621  1.00  0.00     0.039 A 
ATOM     29  C   UNL A   1      41.921  21.841  25.739  1.00  0.00     0.014 A 
ATOM     30  C   UNL A   1      41.473  21.106  27.995  1.00  0.00     0.014 A 
ATOM     31  C   UNL A   1      42.337  23.083  26.227  1.00  0.00     0.010 A 
ATOM     32  C   UNL A   1      41.820  22.372  28.476  1.00  0.00     0.010 A 
ATOM     33  C   UNL A   1      42.264  23.373  27.598  1.00  0.00    -0.014 A 
BRANCH  33  34
ATOM     34  C   UNL A   1      42.648  24.715  28.112  1.00  0.00     0.031 A 
ATOM     35  C   UNL A   1      41.610  25.784  28.328  1.00  0.00     0.074 A 
ATOM     36  C   UNL A   1      43.944  24.985  28.363  1.00  0.00     0.049 A 
ATOM     37  N   UNL A   1      41.763  27.006  28.773  1.00  0.00    -0.248 NA
ATOM     38  C   UNL A   1      40.223  25.443  27.977  1.00  0.00     0.031 C 
ATOM     39  C   UNL A   1      45.056  24.057  28.152  1.00  0.00     0.029 A 
ATOM     40  N   UNL A   1      44.546  26.118  28.852  1.00  0.00    -0.354 N 
ATOM     41  C   UNL A   1      40.498  27.581  28.748  1.00  0.00     0.074 A 
ATOM     42  C   UNL A   1      39.599  26.593  28.193  1.00  0.00     0.031 C 
ATOM     43  C   UNL A   1      46.200  24.646  28.538  1.00  0.00     0.029 A 
ATOM     44  C   UNL A   1      45.907  26.001  28.994  1.00  0.00     0.049 A 
ATOM     45  H   UNL A   1      44.049  26.937  29.078  1.00  0.00     0.167 HD
ATOM     46  C   UNL A   1      40.114  28.811  29.169  1.00  0.00     0.037 A 
ATOM     47  C   UNL A   1      46.820  26.884  29.444  1.00  0.00     0.037 A 
ATOM     48  C   UNL A   1      41.003  29.790  29.739  1.00  0.00     0.049 A 
ATOM     49  C   UNL A   1      46.368  28.239  29.912  1.00  0.00     0.074 A 
ATOM     50  C   UNL A   1      40.699  31.045  30.242  1.00  0.00     0.029 A 
ATOM     51  N   UNL A   1      42.373  29.626  29.881  1.00  0.00    -0.354 N 
ATOM     52  N   UNL A   1      45.158  28.742  29.947  1.00  0.00    -0.248 NA
ATOM     53  C   UNL A   1      47.409  29.146  30.418  1.00  0.00     0.031 C 
ATOM     54  C   UNL A   1      41.889  31.656  30.649  1.00  0.00     0.029 A 
ATOM     55  C   UNL A   1      42.929  30.763  30.449  1.00  0.00     0.049 A 
ATOM     56  H   UNL A   1      42.876  28.822  29.619  1.00  0.00     0.167 HD
ATOM     57  C   UNL A   1      45.287  30.006  30.508  1.00  0.00     0.074 A 
ATOM     58  C   UNL A   1      46.692  30.189  30.809  1.00  0.00     0.031 C 
ATOM     59  C   UNL A   1      44.327  30.930  30.754  1.00  0.00     0.037 A 
BRANCH  46  60
ATOM     60  C   UNL A   1      38.661  29.167  29.035  1.00  0.00     0.057 A 
ATOM     61  C   UNL A   1      37.782  29.108  30.125  1.00  0.00     0.134 A 
ATOM     62  C   UNL A   1      38.140  29.607  27.811  1.00  0.00     0.134 A 
ATOM     63  F   UNL A   1      38.213  28.685  31.323  1.00  0.00    -0.206 F 
ATOM     64  C   UNL A   1      36.434  29.447  29.997  1.00  0.00     0.040 A 
ATOM     65  C   UNL A   1      36.800  29.976  27.678  1.00  0.00     0.040 A 
ATOM     66  F   UNL A   1      38.927  29.695  26.728  1.00  0.00    -0.206 F 
ATOM     67  C   UNL A   1      35.942  29.890  28.771  1.00  0.00     0.006 A 
ENDBRANCH  46  60
BRANCH  47  68
ATOM     68  C   UNL A   1      48.252  26.500  29.512  1.00  0.00     0.057 A 
ATOM     69  C   UNL A   1      49.129  26.799  28.461  1.00  0.00     0.134 A 
ATOM     70  C   UNL A   1      48.778  25.822  30.617  1.00  0.00     0.134 A 
ATOM     71  F   UNL A   1      48.680  27.431  27.366  1.00  0.00    -0.206 F 
ATOM     72  C   UNL A   1      50.471  26.418  28.498  1.00  0.00     0.040 A 
ATOM     73  C   UNL A   1      50.124  25.459  30.679  1.00  0.00     0.040 A 
ATOM     74  F   UNL A   1      47.992  25.515  31.659  1.00  0.00    -0.206 F 
ATOM     75  C   UNL A   1      50.973  25.750  29.613  1.00  0.00     0.006 A 
ENDBRANCH  47  68
BRANCH  59  76
ATOM     76  C   UNL A   1      44.756  32.204  31.425  1.00  0.00     0.057 A 
ATOM     77  C   UNL A   1      45.143  33.335  30.696  1.00  0.00     0.134 A 
ATOM     78  C   UNL A   1      44.758  32.304  32.822  1.00  0.00     0.134 A 
ATOM     79  F   UNL A   1      45.174  33.303  29.355  1.00  0.00    -0.206 F 
ATOM     80  C   UNL A   1      45.545  34.511  31.333  1.00  0.00     0.040 A 
ATOM     81  C   UNL A   1      45.131  33.482  33.470  1.00  0.00     0.040 A 
ATOM     82  F   UNL A   1      44.390  31.260  33.581  1.00  0.00    -0.206 F 
ATOM     83  C   UNL A   1      45.535  34.587  32.724  1.00  0.00     0.006 A 
ENDBRANCH  59  76
ENDBRANCH  33  34
ENDBRANCH  25  28
ENDBRANCH  23  24
ENDBRANCH   1  23
TORSDOF 12
ENDMDL
