MODEL 1
REMARK VINA RESULT:     -12.4      0.000      0.000
REMARK SMILES COCc1nc2ccccc2n1CC(=O)NCCCNC(=O)c1ccc(-c2c3nc(c(-c4c(F)cccc4F)c4ccc([nH]4)c(-c4c(F)cccc4F)c4nc(c(-c5c(F)cccc5F)c5ccc2[nH]5)C=C4)C=C3)cc1
REMARK SMILES IDX 17 1 16 2 14 3 15 4 13 6 12 7 4 8 5 9 6 10 11 11 7 12 10 13
REMARK SMILES IDX 8 14 9 15 3 16 2 17 1 18 18 19 19 20 20 21 21 22 22 24 23 25
REMARK SMILES IDX 24 26 76 27 25 28 75 29 26 30 27 31 28 32 69 33 29 34 74 35
REMARK SMILES IDX 68 36 70 37 30 38 73 39 67 40 66 41 31 43 57 44 40 45 56 46
REMARK SMILES IDX 41 47 44 48 55 49 71 50 42 51 43 52 54 54 72 55 45 56 32 57
REMARK SMILES IDX 33 58 38 59 34 60 35 61 37 62 39 63 36 64 58 65 59 66 64 67
REMARK SMILES IDX 60 68 61 69 63 70 65 71 62 72 46 73 47 74 52 75 48 76 49 77
REMARK SMILES IDX 51 78 53 79 50 80
REMARK H PARENT 16 5 20 23 70 42 44 53
REMARK Flexibility Score: inf
ROOT
ATOM      1  C   UNL A   1      33.660  28.895  27.230  1.00  0.00     0.117 C 
ENDROOT
BRANCH   1   2
ATOM      2  N   UNL A   1      33.874  29.176  25.818  1.00  0.00    -0.354 N 
ATOM      3  C   UNL A   1      32.989  29.117  24.792  1.00  0.00     0.240 C 
ATOM      4  O   UNL A   1      33.407  29.399  23.645  1.00  0.00    -0.273 OA
ATOM      5  H   UNL A   1      34.789  29.444  25.573  1.00  0.00     0.163 HD
BRANCH   3   6
ATOM      6  C   UNL A   1      31.541  28.747  25.009  1.00  0.00     0.223 C 
BRANCH   6   7
ATOM      7  N   UNL A   1      30.727  28.870  23.812  1.00  0.00    -0.316 N 
ATOM      8  C   UNL A   1      30.565  27.909  22.829  1.00  0.00     0.136 A 
ATOM      9  N   UNL A   1      29.700  28.331  21.927  1.00  0.00    -0.231 NA
ATOM     10  C   UNL A   1      29.251  29.545  22.348  1.00  0.00     0.089 A 
ATOM     11  C   UNL A   1      29.899  29.936  23.513  1.00  0.00     0.069 A 
ATOM     12  C   UNL A   1      28.250  30.352  21.793  1.00  0.00     0.030 A 
ATOM     13  C   UNL A   1      29.600  31.148  24.155  1.00  0.00     0.028 A 
ATOM     14  C   UNL A   1      27.910  31.541  22.442  1.00  0.00     0.002 A 
ATOM     15  C   UNL A   1      28.577  31.931  23.604  1.00  0.00     0.002 A 
BRANCH   8  16
ATOM     16  C   UNL A   1      31.204  26.548  22.869  1.00  0.00     0.235 C 
BRANCH  16  17
ATOM     17  O   UNL A   1      31.884  26.270  21.639  1.00  0.00    -0.377 OA
ATOM     18  C   UNL A   1      32.960  25.349  21.783  1.00  0.00     0.195 C 
ENDBRANCH  16  17
ENDBRANCH   8  16
ENDBRANCH   6   7
ENDBRANCH   3   6
ENDBRANCH   1   2
BRANCH   1  19
ATOM     19  C   UNL A   1      34.846  29.315  28.101  1.00  0.00     0.042 C 
BRANCH  19  20
ATOM     20  C   UNL A   1      35.935  30.030  27.309  1.00  0.00     0.118 C 
BRANCH  20  21
ATOM     21  N   UNL A   1      36.952  30.598  28.159  1.00  0.00    -0.352 N 
ATOM     22  C   UNL A   1      38.279  30.395  28.342  1.00  0.00     0.251 C 
ATOM     23  H   UNL A   1      36.596  31.302  28.747  1.00  0.00     0.163 HD
ATOM     24  O   UNL A   1      38.857  31.274  28.988  1.00  0.00    -0.269 OA
BRANCH  22  25
ATOM     25  C   UNL A   1      39.004  29.148  28.030  1.00  0.00     0.039 A 
ATOM     26  C   UNL A   1      39.095  27.957  28.743  1.00  0.00     0.014 A 
ATOM     27  C   UNL A   1      39.865  29.311  26.946  1.00  0.00     0.014 A 
ATOM     28  C   UNL A   1      40.301  27.221  28.610  1.00  0.00     0.010 A 
ATOM     29  C   UNL A   1      40.734  28.311  26.608  1.00  0.00     0.010 A 
ATOM     30  C   UNL A   1      41.293  27.628  27.664  1.00  0.00    -0.014 A 
BRANCH  30  31
ATOM     31  C   UNL A   1      42.545  26.876  27.259  1.00  0.00     0.031 A 
ATOM     32  C   UNL A   1      42.005  25.397  27.193  1.00  0.00     0.074 A 
ATOM     33  C   UNL A   1      43.822  27.423  26.932  1.00  0.00     0.049 A 
ATOM     34  N   UNL A   1      42.112  24.543  28.168  1.00  0.00    -0.248 NA
ATOM     35  C   UNL A   1      40.900  24.911  26.284  1.00  0.00     0.031 C 
ATOM     36  C   UNL A   1      44.414  28.827  26.923  1.00  0.00     0.029 A 
ATOM     37  N   UNL A   1      45.030  26.770  26.558  1.00  0.00    -0.354 N 
ATOM     38  C   UNL A   1      41.582  23.330  27.710  1.00  0.00     0.074 A 
ATOM     39  C   UNL A   1      40.628  23.674  26.722  1.00  0.00     0.031 C 
ATOM     40  C   UNL A   1      45.633  28.900  26.276  1.00  0.00     0.029 A 
ATOM     41  C   UNL A   1      46.079  27.566  25.910  1.00  0.00     0.049 A 
ATOM     42  H   UNL A   1      45.158  25.809  26.730  1.00  0.00     0.167 HD
ATOM     43  C   UNL A   1      42.319  22.197  27.888  1.00  0.00     0.037 A 
ATOM     44  C   UNL A   1      47.327  27.154  25.408  1.00  0.00     0.037 A 
ATOM     45  C   UNL A   1      43.326  22.498  28.881  1.00  0.00     0.049 A 
ATOM     46  C   UNL A   1      47.536  25.793  25.959  1.00  0.00     0.074 A 
ATOM     47  C   UNL A   1      43.301  22.825  30.218  1.00  0.00     0.029 A 
ATOM     48  N   UNL A   1      44.415  23.117  28.329  1.00  0.00    -0.354 N 
ATOM     49  N   UNL A   1      47.723  25.611  27.237  1.00  0.00    -0.248 NA
ATOM     50  C   UNL A   1      46.833  24.749  25.225  1.00  0.00     0.031 C 
ATOM     51  C   UNL A   1      44.268  23.861  30.381  1.00  0.00     0.029 A 
ATOM     52  C   UNL A   1      45.002  23.976  29.206  1.00  0.00     0.049 A 
ATOM     53  H   UNL A   1      44.735  22.961  27.411  1.00  0.00     0.167 HD
ATOM     54  C   UNL A   1      46.714  24.728  27.578  1.00  0.00     0.074 A 
ATOM     55  C   UNL A   1      46.198  24.222  26.281  1.00  0.00     0.031 C 
ATOM     56  C   UNL A   1      46.121  24.783  28.814  1.00  0.00     0.037 A 
BRANCH  43  57
ATOM     57  C   UNL A   1      42.590  21.135  26.832  1.00  0.00     0.057 A 
ATOM     58  C   UNL A   1      43.487  21.245  25.747  1.00  0.00     0.134 A 
ATOM     59  C   UNL A   1      42.198  19.817  27.142  1.00  0.00     0.134 A 
ATOM     60  F   UNL A   1      43.969  22.419  25.328  1.00  0.00    -0.206 F 
ATOM     61  C   UNL A   1      44.010  20.125  25.082  1.00  0.00     0.040 A 
ATOM     62  C   UNL A   1      42.761  18.693  26.527  1.00  0.00     0.040 A 
ATOM     63  F   UNL A   1      41.311  19.583  28.121  1.00  0.00    -0.206 F 
ATOM     64  C   UNL A   1      43.685  18.844  25.503  1.00  0.00     0.006 A 
ENDBRANCH  43  57
BRANCH  44  65
ATOM     65  C   UNL A   1      48.146  27.538  24.160  1.00  0.00     0.057 A 
ATOM     66  C   UNL A   1      47.416  27.991  23.058  1.00  0.00     0.134 A 
ATOM     67  C   UNL A   1      49.502  27.204  23.836  1.00  0.00     0.134 A 
ATOM     68  F   UNL A   1      46.105  28.217  23.191  1.00  0.00    -0.206 F 
ATOM     69  C   UNL A   1      47.946  28.133  21.761  1.00  0.00     0.040 A 
ATOM     70  C   UNL A   1      50.061  27.372  22.531  1.00  0.00     0.040 A 
ATOM     71  F   UNL A   1      50.324  26.651  24.744  1.00  0.00    -0.206 F 
ATOM     72  C   UNL A   1      49.273  27.838  21.487  1.00  0.00     0.006 A 
ENDBRANCH  44  65
BRANCH  56  73
ATOM     73  C   UNL A   1      46.701  25.693  29.868  1.00  0.00     0.057 A 
ATOM     74  C   UNL A   1      45.886  26.740  30.289  1.00  0.00     0.134 A 
ATOM     75  C   UNL A   1      48.014  25.689  30.375  1.00  0.00     0.134 A 
ATOM     76  F   UNL A   1      44.685  26.918  29.720  1.00  0.00    -0.206 F 
ATOM     77  C   UNL A   1      46.300  27.668  31.242  1.00  0.00     0.040 A 
ATOM     78  C   UNL A   1      48.427  26.578  31.380  1.00  0.00     0.040 A 
ATOM     79  F   UNL A   1      48.959  24.899  29.857  1.00  0.00    -0.206 F 
ATOM     80  C   UNL A   1      47.552  27.556  31.836  1.00  0.00     0.006 A 
ENDBRANCH  56  73
ENDBRANCH  30  31
ENDBRANCH  22  25
ENDBRANCH  20  21
ENDBRANCH  19  20
ENDBRANCH   1  19
TORSDOF 13
ENDMDL
MODEL 2
REMARK VINA RESULT:     -12.4      1.474      2.684
REMARK SMILES COCc1nc2ccccc2n1CC(=O)NCCCNC(=O)c1ccc(-c2c3nc(c(-c4c(F)cccc4F)c4ccc([nH]4)c(-c4c(F)cccc4F)c4nc(c(-c5c(F)cccc5F)c5ccc2[nH]5)C=C4)C=C3)cc1
REMARK SMILES IDX 17 1 16 2 14 3 15 4 13 6 12 7 4 8 5 9 6 10 11 11 7 12 10 13
REMARK SMILES IDX 8 14 9 15 3 16 2 17 1 18 18 19 19 20 20 21 21 22 22 24 23 25
REMARK SMILES IDX 24 26 76 27 25 28 75 29 26 30 27 31 28 32 69 33 29 34 74 35
REMARK SMILES IDX 68 36 70 37 30 38 73 39 67 40 66 41 31 43 57 44 40 45 56 46
REMARK SMILES IDX 41 47 44 48 55 49 71 50 42 51 43 52 54 54 72 55 45 56 32 57
REMARK SMILES IDX 33 58 38 59 34 60 35 61 37 62 39 63 36 64 58 65 59 66 64 67
REMARK SMILES IDX 60 68 61 69 63 70 65 71 62 72 46 73 47 74 52 75 48 76 49 77
REMARK SMILES IDX 51 78 53 79 50 80
REMARK H PARENT 16 5 20 23 70 42 44 53
REMARK Flexibility Score: inf
ROOT
ATOM      1  C   UNL A   1      34.016  29.539  26.817  1.00  0.00     0.117 C 
ENDROOT
BRANCH   1   2
ATOM      2  N   UNL A   1      32.920  28.866  27.500  1.00  0.00    -0.354 N 
ATOM      3  C   UNL A   1      31.860  28.207  26.969  1.00  0.00     0.240 C 
ATOM      4  O   UNL A   1      31.030  27.707  27.763  1.00  0.00    -0.273 OA
ATOM      5  H   UNL A   1      32.953  28.894  28.484  1.00  0.00     0.163 HD
BRANCH   3   6
ATOM      6  C   UNL A   1      31.683  28.054  25.477  1.00  0.00     0.223 C 
BRANCH   6   7
ATOM      7  N   UNL A   1      31.604  26.670  25.044  1.00  0.00    -0.316 N 
ATOM      8  C   UNL A   1      30.520  26.065  24.430  1.00  0.00     0.136 A 
ATOM      9  N   UNL A   1      30.823  24.821  24.110  1.00  0.00    -0.231 NA
ATOM     10  C   UNL A   1      32.123  24.628  24.462  1.00  0.00     0.089 A 
ATOM     11  C   UNL A   1      32.641  25.756  25.086  1.00  0.00     0.069 A 
ATOM     12  C   UNL A   1      32.938  23.511  24.236  1.00  0.00     0.030 A 
ATOM     13  C   UNL A   1      33.971  25.812  25.531  1.00  0.00     0.028 A 
ATOM     14  C   UNL A   1      34.276  23.565  24.634  1.00  0.00     0.002 A 
ATOM     15  C   UNL A   1      34.781  24.698  25.271  1.00  0.00     0.002 A 
BRANCH   8  16
ATOM     16  C   UNL A   1      29.241  26.777  24.087  1.00  0.00     0.235 C 
BRANCH  16  17
ATOM     17  O   UNL A   1      29.482  27.823  23.138  1.00  0.00    -0.377 OA
ATOM     18  C   UNL A   1      28.317  28.578  22.820  1.00  0.00     0.195 C 
ENDBRANCH  16  17
ENDBRANCH   8  16
ENDBRANCH   6   7
ENDBRANCH   3   6
ENDBRANCH   1   2
BRANCH   1  19
ATOM     19  C   UNL A   1      34.999  30.197  27.788  1.00  0.00     0.042 C 
BRANCH  19  20
ATOM     20  C   UNL A   1      36.416  29.652  27.653  1.00  0.00     0.118 C 
BRANCH  20  21
ATOM     21  N   UNL A   1      37.057  29.458  28.931  1.00  0.00    -0.352 N 
ATOM     22  C   UNL A   1      38.331  29.507  29.387  1.00  0.00     0.251 C 
ATOM     23  H   UNL A   1      36.412  29.238  29.641  1.00  0.00     0.163 HD
ATOM     24  O   UNL A   1      38.444  29.538  30.616  1.00  0.00    -0.269 OA
BRANCH  22  25
ATOM     25  C   UNL A   1      39.541  29.309  28.566  1.00  0.00     0.039 A 
ATOM     26  C   UNL A   1      39.711  29.365  27.185  1.00  0.00     0.014 A 
ATOM     27  C   UNL A   1      40.599  28.804  29.320  1.00  0.00     0.014 A 
ATOM     28  C   UNL A   1      40.712  28.527  26.629  1.00  0.00     0.010 A 
ATOM     29  C   UNL A   1      41.752  28.410  28.700  1.00  0.00     0.010 A 
ATOM     30  C   UNL A   1      41.590  27.789  27.482  1.00  0.00    -0.014 A 
BRANCH  30  31
ATOM     31  C   UNL A   1      42.817  26.996  27.079  1.00  0.00     0.031 A 
ATOM     32  C   UNL A   1      42.232  25.533  27.032  1.00  0.00     0.074 A 
ATOM     33  C   UNL A   1      44.109  27.501  26.741  1.00  0.00     0.049 A 
ATOM     34  N   UNL A   1      42.318  24.687  28.015  1.00  0.00    -0.248 NA
ATOM     35  C   UNL A   1      41.109  25.072  26.132  1.00  0.00     0.031 C 
ATOM     36  C   UNL A   1      44.743  28.886  26.715  1.00  0.00     0.029 A 
ATOM     37  N   UNL A   1      45.295  26.807  26.369  1.00  0.00    -0.354 N 
ATOM     38  C   UNL A   1      41.750  23.486  27.571  1.00  0.00     0.074 A 
ATOM     39  C   UNL A   1      40.801  23.848  26.584  1.00  0.00     0.031 C 
ATOM     40  C   UNL A   1      45.961  28.914  26.062  1.00  0.00     0.029 A 
ATOM     41  C   UNL A   1      46.364  27.565  25.708  1.00  0.00     0.049 A 
ATOM     42  H   UNL A   1      45.395  25.844  26.550  1.00  0.00     0.167 HD
ATOM     43  C   UNL A   1      42.453  22.333  27.758  1.00  0.00     0.037 A 
ATOM     44  C   UNL A   1      47.597  27.109  25.205  1.00  0.00     0.037 A 
ATOM     45  C   UNL A   1      43.473  22.613  28.743  1.00  0.00     0.049 A 
ATOM     46  C   UNL A   1      47.767  25.748  25.769  1.00  0.00     0.074 A 
ATOM     47  C   UNL A   1      43.463  22.955  30.078  1.00  0.00     0.029 A 
ATOM     48  N   UNL A   1      44.578  23.193  28.180  1.00  0.00    -0.354 N 
ATOM     49  N   UNL A   1      47.955  25.574  27.048  1.00  0.00    -0.248 NA
ATOM     50  C   UNL A   1      47.029  24.718  25.049  1.00  0.00     0.031 C 
ATOM     51  C   UNL A   1      44.463  23.962  30.225  1.00  0.00     0.029 A 
ATOM     52  C   UNL A   1      45.194  24.042  29.045  1.00  0.00     0.049 A 
ATOM     53  H   UNL A   1      44.888  23.018  27.262  1.00  0.00     0.167 HD
ATOM     54  C   UNL A   1      46.921  24.726  27.403  1.00  0.00     0.074 A 
ATOM     55  C   UNL A   1      46.384  24.222  26.113  1.00  0.00     0.031 C 
ATOM     56  C   UNL A   1      46.335  24.812  28.641  1.00  0.00     0.037 A 
BRANCH  43  57
ATOM     57  C   UNL A   1      42.686  21.252  26.712  1.00  0.00     0.057 A 
ATOM     58  C   UNL A   1      43.597  21.315  25.635  1.00  0.00     0.134 A 
ATOM     59  C   UNL A   1      42.235  19.955  27.028  1.00  0.00     0.134 A 
ATOM     60  F   UNL A   1      44.132  22.464  25.211  1.00  0.00    -0.206 F 
ATOM     61  C   UNL A   1      44.076  20.168  24.982  1.00  0.00     0.040 A 
ATOM     62  C   UNL A   1      42.754  18.803  26.426  1.00  0.00     0.040 A 
ATOM     63  F   UNL A   1      41.330  19.766  28.001  1.00  0.00    -0.206 F 
ATOM     64  C   UNL A   1      43.693  18.906  25.409  1.00  0.00     0.006 A 
ENDBRANCH  43  57
BRANCH  44  65
ATOM     65  C   UNL A   1      48.422  27.455  23.949  1.00  0.00     0.057 A 
ATOM     66  C   UNL A   1      47.701  27.927  22.849  1.00  0.00     0.134 A 
ATOM     67  C   UNL A   1      49.763  27.070  23.620  1.00  0.00     0.134 A 
ATOM     68  F   UNL A   1      46.400  28.201  22.988  1.00  0.00    -0.206 F 
ATOM     69  C   UNL A   1      48.228  28.041  21.548  1.00  0.00     0.040 A 
ATOM     70  C   UNL A   1      50.319  27.210  22.310  1.00  0.00     0.040 A 
ATOM     71  F   UNL A   1      50.570  26.495  24.527  1.00  0.00    -0.206 F 
ATOM     72  C   UNL A   1      49.542  27.697  21.267  1.00  0.00     0.006 A 
ENDBRANCH  44  65
BRANCH  56  73
ATOM     73  C   UNL A   1      46.948  25.714  29.683  1.00  0.00     0.057 A 
ATOM     74  C   UNL A   1      46.176  26.803  30.079  1.00  0.00     0.134 A 
ATOM     75  C   UNL A   1      48.256  25.662  30.199  1.00  0.00     0.134 A 
ATOM     76  F   UNL A   1      44.988  27.022  29.499  1.00  0.00    -0.206 F 
ATOM     77  C   UNL A   1      46.624  27.728  31.019  1.00  0.00     0.040 A 
ATOM     78  C   UNL A   1      48.701  26.551  31.190  1.00  0.00     0.040 A 
ATOM     79  F   UNL A   1      49.169  24.823  29.701  1.00  0.00    -0.206 F 
ATOM     80  C   UNL A   1      47.866  27.573  31.624  1.00  0.00     0.006 A 
ENDBRANCH  56  73
ENDBRANCH  30  31
ENDBRANCH  22  25
ENDBRANCH  20  21
ENDBRANCH  19  20
ENDBRANCH   1  19
TORSDOF 13
ENDMDL
MODEL 3
REMARK VINA RESULT:     -11.7      2.838      5.681
REMARK SMILES COCc1nc2ccccc2n1CC(=O)NCCCNC(=O)c1ccc(-c2c3nc(c(-c4c(F)cccc4F)c4ccc([nH]4)c(-c4c(F)cccc4F)c4nc(c(-c5c(F)cccc5F)c5ccc2[nH]5)C=C4)C=C3)cc1
REMARK SMILES IDX 17 1 16 2 14 3 15 4 13 6 12 7 4 8 5 9 6 10 11 11 7 12 10 13
REMARK SMILES IDX 8 14 9 15 3 16 2 17 1 18 18 19 19 20 20 21 21 22 22 24 23 25
REMARK SMILES IDX 24 26 76 27 25 28 75 29 26 30 27 31 28 32 69 33 29 34 74 35
REMARK SMILES IDX 68 36 70 37 30 38 73 39 67 40 66 41 31 43 57 44 40 45 56 46
REMARK SMILES IDX 41 47 44 48 55 49 71 50 42 51 43 52 54 54 72 55 45 56 32 57
REMARK SMILES IDX 33 58 38 59 34 60 35 61 37 62 39 63 36 64 58 65 59 66 64 67
REMARK SMILES IDX 60 68 61 69 63 70 65 71 62 72 46 73 47 74 52 75 48 76 49 77
REMARK SMILES IDX 51 78 53 79 50 80
REMARK H PARENT 16 5 20 23 70 42 44 53
REMARK Flexibility Score: inf
ROOT
ATOM      1  C   UNL A   1      33.462  30.009  27.176  1.00  0.00     0.117 C 
ENDROOT
BRANCH   1   2
ATOM      2  N   UNL A   1      33.729  29.876  25.751  1.00  0.00    -0.354 N 
ATOM      3  C   UNL A   1      32.944  29.345  24.781  1.00  0.00     0.240 C 
ATOM      4  O   UNL A   1      33.392  29.333  23.611  1.00  0.00    -0.273 OA
ATOM      5  H   UNL A   1      34.603  30.217  25.450  1.00  0.00     0.163 HD
BRANCH   3   6
ATOM      6  C   UNL A   1      31.566  28.805  25.079  1.00  0.00     0.223 C 
BRANCH   6   7
ATOM      7  N   UNL A   1      30.672  28.835  23.933  1.00  0.00    -0.316 N 
ATOM      8  C   UNL A   1      30.397  27.780  23.081  1.00  0.00     0.136 A 
ATOM      9  N   UNL A   1      29.487  28.143  22.197  1.00  0.00    -0.231 NA
ATOM     10  C   UNL A   1      29.126  29.418  22.504  1.00  0.00     0.089 A 
ATOM     11  C   UNL A   1      29.873  29.903  23.569  1.00  0.00     0.069 A 
ATOM     12  C   UNL A   1      28.124  30.210  21.928  1.00  0.00     0.030 A 
ATOM     13  C   UNL A   1      29.677  31.194  24.085  1.00  0.00     0.028 A 
ATOM     14  C   UNL A   1      27.885  31.481  22.457  1.00  0.00     0.002 A 
ATOM     15  C   UNL A   1      28.652  31.962  23.518  1.00  0.00     0.002 A 
BRANCH   8  16
ATOM     16  C   UNL A   1      30.975  26.400  23.235  1.00  0.00     0.235 C 
BRANCH  16  17
ATOM     17  O   UNL A   1      31.583  25.965  22.013  1.00  0.00    -0.377 OA
ATOM     18  C   UNL A   1      32.914  26.442  21.841  1.00  0.00     0.195 C 
ENDBRANCH  16  17
ENDBRANCH   8  16
ENDBRANCH   6   7
ENDBRANCH   3   6
ENDBRANCH   1   2
BRANCH   1  19
ATOM     19  C   UNL A   1      32.981  31.411  27.557  1.00  0.00     0.042 C 
BRANCH  19  20
ATOM     20  C   UNL A   1      34.117  32.321  28.008  1.00  0.00     0.118 C 
BRANCH  20  21
ATOM     21  N   UNL A   1      34.575  32.014  29.341  1.00  0.00    -0.352 N 
ATOM     22  C   UNL A   1      35.759  31.664  29.897  1.00  0.00     0.251 C 
ATOM     23  H   UNL A   1      33.851  32.073  30.006  1.00  0.00     0.163 HD
ATOM     24  O   UNL A   1      35.801  31.742  31.128  1.00  0.00    -0.269 OA
BRANCH  22  25
ATOM     25  C   UNL A   1      36.878  31.015  29.185  1.00  0.00     0.039 A 
ATOM     26  C   UNL A   1      36.882  29.935  28.309  1.00  0.00     0.014 A 
ATOM     27  C   UNL A   1      38.113  31.468  29.647  1.00  0.00     0.014 A 
ATOM     28  C   UNL A   1      38.044  29.120  28.301  1.00  0.00     0.010 A 
ATOM     29  C   UNL A   1      39.264  30.868  29.217  1.00  0.00     0.010 A 
ATOM     30  C   UNL A   1      39.198  29.503  29.054  1.00  0.00    -0.014 A 
BRANCH  30  31
ATOM     31  C   UNL A   1      40.572  28.865  29.025  1.00  0.00     0.031 A 
ATOM     32  C   UNL A   1      40.842  28.655  30.564  1.00  0.00     0.074 A 
ATOM     33  C   UNL A   1      41.330  28.480  27.878  1.00  0.00     0.049 A 
ATOM     34  N   UNL A   1      41.521  29.485  31.299  1.00  0.00    -0.248 NA
ATOM     35  C   UNL A   1      39.998  27.813  31.491  1.00  0.00     0.031 C 
ATOM     36  C   UNL A   1      41.129  28.600  26.373  1.00  0.00     0.029 A 
ATOM     37  N   UNL A   1      42.623  27.891  27.791  1.00  0.00    -0.354 N 
ATOM     38  C   UNL A   1      41.603  28.924  32.580  1.00  0.00     0.074 A 
ATOM     39  C   UNL A   1      40.457  28.103  32.716  1.00  0.00     0.031 C 
ATOM     40  C   UNL A   1      42.023  27.841  25.642  1.00  0.00     0.029 A 
ATOM     41  C   UNL A   1      43.009  27.249  26.529  1.00  0.00     0.049 A 
ATOM     42  H   UNL A   1      43.241  27.913  28.557  1.00  0.00     0.167 HD
ATOM     43  C   UNL A   1      42.826  28.864  33.179  1.00  0.00     0.037 A 
ATOM     44  C   UNL A   1      44.194  26.562  26.206  1.00  0.00     0.037 A 
ATOM     45  C   UNL A   1      43.694  29.773  32.466  1.00  0.00     0.049 A 
ATOM     46  C   UNL A   1      45.144  26.894  27.296  1.00  0.00     0.074 A 
ATOM     47  C   UNL A   1      43.727  31.138  32.284  1.00  0.00     0.029 A 
ATOM     48  N   UNL A   1      44.219  29.197  31.340  1.00  0.00    -0.354 N 
ATOM     49  N   UNL A   1      45.603  28.107  27.435  1.00  0.00    -0.248 NA
ATOM     50  C   UNL A   1      44.948  26.104  28.505  1.00  0.00     0.031 C 
ATOM     51  C   UNL A   1      44.057  31.336  30.910  1.00  0.00     0.029 A 
ATOM     52  C   UNL A   1      44.431  30.115  30.359  1.00  0.00     0.049 A 
ATOM     53  H   UNL A   1      44.418  28.237  31.251  1.00  0.00     0.167 HD
ATOM     54  C   UNL A   1      45.244  28.430  28.731  1.00  0.00     0.074 A 
ATOM     55  C   UNL A   1      44.846  27.139  29.349  1.00  0.00     0.031 C 
ATOM     56  C   UNL A   1      44.914  29.719  29.068  1.00  0.00     0.037 A 
BRANCH  43  57
ATOM     57  C   UNL A   1      43.415  27.648  33.881  1.00  0.00     0.057 A 
ATOM     58  C   UNL A   1      43.867  26.463  33.261  1.00  0.00     0.134 A 
ATOM     59  C   UNL A   1      43.878  27.839  35.198  1.00  0.00     0.134 A 
ATOM     60  F   UNL A   1      43.532  26.133  32.010  1.00  0.00    -0.206 F 
ATOM     61  C   UNL A   1      44.771  25.584  33.878  1.00  0.00     0.040 A 
ATOM     62  C   UNL A   1      44.827  27.002  35.797  1.00  0.00     0.040 A 
ATOM     63  F   UNL A   1      43.482  28.902  35.913  1.00  0.00    -0.206 F 
ATOM     64  C   UNL A   1      45.291  25.877  35.130  1.00  0.00     0.006 A 
ENDBRANCH  43  57
BRANCH  44  65
ATOM     65  C   UNL A   1      44.494  25.297  25.377  1.00  0.00     0.057 A 
ATOM     66  C   UNL A   1      43.479  24.338  25.327  1.00  0.00     0.134 A 
ATOM     67  C   UNL A   1      45.758  24.803  24.916  1.00  0.00     0.134 A 
ATOM     68  F   UNL A   1      42.280  24.626  25.845  1.00  0.00    -0.206 F 
ATOM     69  C   UNL A   1      43.656  23.023  24.855  1.00  0.00     0.040 A 
ATOM     70  C   UNL A   1      45.944  23.481  24.405  1.00  0.00     0.040 A 
ATOM     71  F   UNL A   1      46.873  25.550  24.990  1.00  0.00    -0.206 F 
ATOM     72  C   UNL A   1      44.883  22.585  24.378  1.00  0.00     0.006 A 
ENDBRANCH  44  65
BRANCH  56  73
ATOM     73  C   UNL A   1      45.125  30.819  28.058  1.00  0.00     0.057 A 
ATOM     74  C   UNL A   1      46.384  31.414  28.055  1.00  0.00     0.134 A 
ATOM     75  C   UNL A   1      44.163  31.405  27.215  1.00  0.00     0.134 A 
ATOM     76  F   UNL A   1      47.302  31.032  28.954  1.00  0.00    -0.206 F 
ATOM     77  C   UNL A   1      46.713  32.454  27.190  1.00  0.00     0.040 A 
ATOM     78  C   UNL A   1      44.493  32.412  26.295  1.00  0.00     0.040 A 
ATOM     79  F   UNL A   1      42.866  31.096  27.316  1.00  0.00    -0.206 F 
ATOM     80  C   UNL A   1      45.786  32.919  26.263  1.00  0.00     0.006 A 
ENDBRANCH  56  73
ENDBRANCH  30  31
ENDBRANCH  22  25
ENDBRANCH  20  21
ENDBRANCH  19  20
ENDBRANCH   1  19
TORSDOF 13
ENDMDL
