MODEL 1
REMARK VINA RESULT:     -12.5      0.000      0.000
REMARK SMILES CCN(CC)c1ccc([C@@H]2[NH2+][C@@H](C(=O)NCCCNC(=O)c3ccc(-c4c5nc(c(-c6c(F)cccc6F)c6ccc([nH]6)c(-c6c(F)cccc6F)c6nc(c(-c7c(F)cccc7F)c7ccc4[nH]7)C=C6)C=C5)cc3)Cc3c2[nH]c2ccccc32)cc1
REMARK SMILES IDX 16 1 15 2 13 3 14 4 12 6 10 7 11 8 78 9 77 12 79 13 76 14
REMARK SMILES IDX 85 15 80 16 84 18 81 19 83 20 82 21 9 22 6 23 7 24 87 25
REMARK SMILES IDX 8 26 86 27 3 28 2 29 1 30 4 31 5 32 17 33 18 34 19 35 20 36
REMARK SMILES IDX 21 38 22 39 23 40 75 41 24 42 74 43 25 44 26 45 27 46 68 47
REMARK SMILES IDX 28 48 73 49 67 50 69 51 29 52 72 53 66 54 65 55 30 57 56 58
REMARK SMILES IDX 39 59 55 60 40 61 43 62 54 63 70 64 41 65 42 66 53 68 71 69
REMARK SMILES IDX 44 70 31 71 32 72 37 73 33 74 34 75 36 76 38 77 35 78 57 79
REMARK SMILES IDX 58 80 63 81 59 82 60 83 62 84 64 85 61 86 45 87 46 88 51 89
REMARK SMILES IDX 47 90 48 91 50 92 52 93 49 94
REMARK H PARENT 15 5 11 10 11 11 79 17 19 37 69 56 43 67
REMARK Flexibility Score: inf
ROOT
ATOM      1  C   UNL A   1      31.680  27.983  25.484  1.00  0.00     0.118 C 
ENDROOT
BRANCH   1   2
ATOM      2  N   UNL A   1      30.969  28.197  24.240  1.00  0.00    -0.351 N 
ATOM      3  C   UNL A   1      31.094  27.544  23.044  1.00  0.00     0.278 C 
ATOM      4  O   UNL A   1      30.524  28.053  22.072  1.00  0.00    -0.268 OA
ATOM      5  H   UNL A   1      30.298  28.918  24.257  1.00  0.00     0.163 HD
BRANCH   3   6
ATOM      6  C   UNL A   1      31.851  26.198  22.889  1.00  0.00     0.277 C 
ATOM      7  C   UNL A   1      31.838  24.469  24.807  1.00  0.00     0.262 C 
ATOM      8  N   UNL A   1      31.157  25.141  23.663  1.00  0.00    -0.325 N 
ATOM      9  C   UNL A   1      33.268  24.884  24.854  1.00  0.00     0.083 A 
ATOM     10  H   UNL A   1      30.306  25.562  24.037  1.00  0.00     0.347 HD
ATOM     11  H   UNL A   1      31.054  24.388  22.982  1.00  0.00     0.347 HD
ATOM     12  C   UNL A   1      34.028  25.340  23.803  1.00  0.00    -0.006 A 
ATOM     13  N   UNL A   1      34.184  24.888  25.877  1.00  0.00    -0.353 N 
ATOM     14  C   UNL A   1      33.400  26.286  22.858  1.00  0.00     0.114 C 
ATOM     15  C   UNL A   1      35.110  24.428  23.918  1.00  0.00     0.003 A 
ATOM     16  C   UNL A   1      35.356  24.423  25.299  1.00  0.00     0.046 A 
ATOM     17  H   UNL A   1      34.041  25.161  26.811  1.00  0.00     0.166 HD
ATOM     18  C   UNL A   1      35.843  23.519  23.127  1.00  0.00     0.010 A 
ATOM     19  C   UNL A   1      36.482  23.853  25.888  1.00  0.00     0.026 A 
ATOM     20  C   UNL A   1      36.803  22.708  23.768  1.00  0.00     0.001 A 
ATOM     21  C   UNL A   1      37.171  22.934  25.098  1.00  0.00     0.002 A 
BRANCH   7  22
ATOM     22  C   UNL A   1      31.631  22.951  24.551  1.00  0.00     0.016 A 
ATOM     23  C   UNL A   1      32.404  20.240  24.181  1.00  0.00     0.037 A 
ATOM     24  C   UNL A   1      31.869  20.694  25.391  1.00  0.00     0.026 A 
ATOM     25  C   UNL A   1      32.304  21.118  23.100  1.00  0.00     0.026 A 
ATOM     26  C   UNL A   1      31.469  22.022  25.575  1.00  0.00     0.012 A 
ATOM     27  C   UNL A   1      31.882  22.440  23.265  1.00  0.00     0.012 A 
BRANCH  23  28
ATOM     28  N   UNL A   1      33.022  19.005  24.055  1.00  0.00    -0.372 N 
BRANCH  28  29
ATOM     29  C   UNL A   1      32.608  18.084  22.977  1.00  0.00     0.113 C 
ATOM     30  C   UNL A   1      33.603  16.965  22.703  1.00  0.00     0.027 C 
ENDBRANCH  28  29
BRANCH  28  31
ATOM     31  C   UNL A   1      34.312  18.750  24.703  1.00  0.00     0.113 C 
ATOM     32  C   UNL A   1      35.150  20.003  24.938  1.00  0.00     0.027 C 
ENDBRANCH  28  31
ENDBRANCH  23  28
ENDBRANCH   7  22
ENDBRANCH   3   6
ENDBRANCH   1   2
BRANCH   1  33
ATOM     33  C   UNL A   1      32.997  28.743  25.544  1.00  0.00     0.042 C 
BRANCH  33  34
ATOM     34  C   UNL A   1      33.633  28.774  26.926  1.00  0.00     0.118 C 
BRANCH  34  35
ATOM     35  N   UNL A   1      33.652  30.108  27.520  1.00  0.00    -0.352 N 
ATOM     36  C   UNL A   1      34.626  30.746  28.247  1.00  0.00     0.251 C 
ATOM     37  H   UNL A   1      32.833  30.635  27.376  1.00  0.00     0.163 HD
ATOM     38  O   UNL A   1      34.368  31.828  28.788  1.00  0.00    -0.269 OA
BRANCH  36  39
ATOM     39  C   UNL A   1      35.968  30.148  28.432  1.00  0.00     0.039 A 
ATOM     40  C   UNL A   1      36.890  30.212  27.381  1.00  0.00     0.014 A 
ATOM     41  C   UNL A   1      36.327  29.511  29.621  1.00  0.00     0.014 A 
ATOM     42  C   UNL A   1      38.189  29.725  27.560  1.00  0.00     0.010 A 
ATOM     43  C   UNL A   1      37.646  29.118  29.833  1.00  0.00     0.010 A 
ATOM     44  C   UNL A   1      38.595  29.220  28.804  1.00  0.00    -0.014 A 
BRANCH  44  45
ATOM     45  C   UNL A   1      40.002  28.802  29.053  1.00  0.00     0.031 A 
ATOM     46  C   UNL A   1      40.984  29.758  29.675  1.00  0.00     0.074 A 
ATOM     47  C   UNL A   1      40.418  27.584  28.652  1.00  0.00     0.049 A 
ATOM     48  N   UNL A   1      42.265  29.601  29.899  1.00  0.00    -0.248 NA
ATOM     49  C   UNL A   1      40.465  31.077  30.074  1.00  0.00     0.031 C 
ATOM     50  C   UNL A   1      39.584  26.581  27.988  1.00  0.00     0.029 A 
ATOM     51  N   UNL A   1      41.653  26.989  28.729  1.00  0.00    -0.354 N 
ATOM     52  C   UNL A   1      42.705  30.801  30.446  1.00  0.00     0.074 A 
ATOM     53  C   UNL A   1      41.568  31.695  30.467  1.00  0.00     0.031 C 
ATOM     54  C   UNL A   1      40.323  25.488  27.739  1.00  0.00     0.029 A 
ATOM     55  C   UNL A   1      41.693  25.729  28.182  1.00  0.00     0.049 A 
ATOM     56  H   UNL A   1      42.436  27.424  29.137  1.00  0.00     0.167 HD
ATOM     57  C   UNL A   1      43.937  31.123  30.909  1.00  0.00     0.037 A 
ATOM     58  C   UNL A   1      42.718  24.867  28.040  1.00  0.00     0.037 A 
ATOM     59  C   UNL A   1      45.063  30.226  30.904  1.00  0.00     0.049 A 
ATOM     60  C   UNL A   1      44.080  25.250  28.551  1.00  0.00     0.074 A 
ATOM     61  C   UNL A   1      46.334  30.437  31.411  1.00  0.00     0.029 A 
ATOM     62  N   UNL A   1      45.058  28.951  30.358  1.00  0.00    -0.354 N 
ATOM     63  N   UNL A   1      44.461  26.360  29.136  1.00  0.00    -0.248 NA
ATOM     64  C   UNL A   1      45.153  24.259  28.388  1.00  0.00     0.031 C 
ATOM     65  C   UNL A   1      47.113  29.312  31.120  1.00  0.00     0.029 A 
ATOM     66  C   UNL A   1      46.311  28.376  30.489  1.00  0.00     0.049 A 
ATOM     67  H   UNL A   1      44.278  28.520  29.940  1.00  0.00     0.167 HD
ATOM     68  C   UNL A   1      45.807  26.189  29.437  1.00  0.00     0.074 A 
ATOM     69  C   UNL A   1      46.171  24.863  28.983  1.00  0.00     0.031 C 
ATOM     70  C   UNL A   1      46.663  27.053  30.036  1.00  0.00     0.037 A 
BRANCH  57  71
ATOM     71  C   UNL A   1      44.130  32.509  31.458  1.00  0.00     0.057 A 
ATOM     72  C   UNL A   1      43.930  32.805  32.813  1.00  0.00     0.134 A 
ATOM     73  C   UNL A   1      44.552  33.555  30.626  1.00  0.00     0.134 A 
ATOM     74  F   UNL A   1      43.518  31.853  33.665  1.00  0.00    -0.206 F 
ATOM     75  C   UNL A   1      44.108  34.096  33.314  1.00  0.00     0.040 A 
ATOM     76  C   UNL A   1      44.763  34.842  31.122  1.00  0.00     0.040 A 
ATOM     77  F   UNL A   1      44.771  33.341  29.320  1.00  0.00    -0.206 F 
ATOM     78  C   UNL A   1      44.533  35.119  32.467  1.00  0.00     0.006 A 
ENDBRANCH  57  71
BRANCH  58  79
ATOM     79  C   UNL A   1      42.496  23.547  27.394  1.00  0.00     0.057 A 
ATOM     80  C   UNL A   1      42.109  22.429  28.144  1.00  0.00     0.134 A 
ATOM     81  C   UNL A   1      42.670  23.369  26.016  1.00  0.00     0.134 A 
ATOM     82  F   UNL A   1      41.944  22.530  29.471  1.00  0.00    -0.206 F 
ATOM     83  C   UNL A   1      41.924  21.178  27.551  1.00  0.00     0.040 A 
ATOM     84  C   UNL A   1      42.460  22.130  25.406  1.00  0.00     0.040 A 
ATOM     85  F   UNL A   1      43.030  24.401  25.239  1.00  0.00    -0.206 F 
ATOM     86  C   UNL A   1      42.095  21.028  26.176  1.00  0.00     0.006 A 
ENDBRANCH  58  79
BRANCH  70  87
ATOM     87  C   UNL A   1      48.069  26.579  30.271  1.00  0.00     0.057 A 
ATOM     88  C   UNL A   1      48.435  25.884  31.431  1.00  0.00     0.134 A 
ATOM     89  C   UNL A   1      49.062  26.790  29.305  1.00  0.00     0.134 A 
ATOM     90  F   UNL A   1      47.536  25.660  32.402  1.00  0.00    -0.206 F 
ATOM     91  C   UNL A   1      49.742  25.436  31.632  1.00  0.00     0.040 A 
ATOM     92  C   UNL A   1      50.364  26.321  29.480  1.00  0.00     0.040 A 
ATOM     93  F   UNL A   1      48.778  27.441  28.167  1.00  0.00    -0.206 F 
ATOM     94  C   UNL A   1      50.709  25.648  30.651  1.00  0.00     0.006 A 
ENDBRANCH  70  87
ENDBRANCH  44  45
ENDBRANCH  36  39
ENDBRANCH  34  35
ENDBRANCH  33  34
ENDBRANCH   1  33
TORSDOF 14
ENDMDL
MODEL 2
REMARK VINA RESULT:     -12.4      3.054      8.341
REMARK SMILES CCN(CC)c1ccc([C@@H]2[NH2+][C@@H](C(=O)NCCCNC(=O)c3ccc(-c4c5nc(c(-c6c(F)cccc6F)c6ccc([nH]6)c(-c6c(F)cccc6F)c6nc(c(-c7c(F)cccc7F)c7ccc4[nH]7)C=C6)C=C5)cc3)Cc3c2[nH]c2ccccc32)cc1
REMARK SMILES IDX 16 1 15 2 13 3 14 4 12 6 10 7 11 8 78 9 77 12 79 13 76 14
REMARK SMILES IDX 85 15 80 16 84 18 81 19 83 20 82 21 9 22 6 23 7 24 87 25
REMARK SMILES IDX 8 26 86 27 3 28 2 29 1 30 4 31 5 32 17 33 18 34 19 35 20 36
REMARK SMILES IDX 21 38 22 39 23 40 75 41 24 42 74 43 25 44 26 45 27 46 68 47
REMARK SMILES IDX 28 48 73 49 67 50 69 51 29 52 72 53 66 54 65 55 30 57 56 58
REMARK SMILES IDX 39 59 55 60 40 61 43 62 54 63 70 64 41 65 42 66 53 68 71 69
REMARK SMILES IDX 44 70 31 71 32 72 37 73 33 74 34 75 36 76 38 77 35 78 57 79
REMARK SMILES IDX 58 80 63 81 59 82 60 83 62 84 64 85 61 86 45 87 46 88 51 89
REMARK SMILES IDX 47 90 48 91 50 92 52 93 49 94
REMARK H PARENT 15 5 11 10 11 11 79 17 19 37 69 56 43 67
REMARK Flexibility Score: inf
ROOT
ATOM      1  C   UNL A   1      34.908  22.475  24.183  1.00  0.00     0.118 C 
ENDROOT
BRANCH   1   2
ATOM      2  N   UNL A   1      33.913  21.460  24.461  1.00  0.00    -0.351 N 
ATOM      3  C   UNL A   1      32.678  21.588  25.039  1.00  0.00     0.278 C 
ATOM      4  O   UNL A   1      32.104  20.541  25.360  1.00  0.00    -0.268 OA
ATOM      5  H   UNL A   1      34.160  20.544  24.198  1.00  0.00     0.163 HD
BRANCH   3   6
ATOM      6  C   UNL A   1      31.975  22.958  25.238  1.00  0.00     0.277 C 
ATOM      7  C   UNL A   1      32.408  24.896  23.588  1.00  0.00     0.262 C 
ATOM      8  N   UNL A   1      31.748  23.601  23.921  1.00  0.00    -0.325 N 
ATOM      9  C   UNL A   1      33.082  25.443  24.799  1.00  0.00     0.083 A 
ATOM     10  H   UNL A   1      32.046  22.930  23.212  1.00  0.00     0.347 HD
ATOM     11  H   UNL A   1      30.759  23.848  23.954  1.00  0.00     0.347 HD
ATOM     12  C   UNL A   1      32.761  25.178  26.109  1.00  0.00    -0.006 A 
ATOM     13  N   UNL A   1      34.112  26.338  24.944  1.00  0.00    -0.353 N 
ATOM     14  C   UNL A   1      32.429  23.784  26.469  1.00  0.00     0.114 C 
ATOM     15  C   UNL A   1      32.608  26.516  26.559  1.00  0.00     0.003 A 
ATOM     16  C   UNL A   1      33.721  27.155  25.994  1.00  0.00     0.046 A 
ATOM     17  H   UNL A   1      34.943  26.389  24.420  1.00  0.00     0.166 HD
ATOM     18  C   UNL A   1      31.673  27.325  27.238  1.00  0.00     0.010 A 
ATOM     19  C   UNL A   1      34.142  28.438  26.338  1.00  0.00     0.026 A 
ATOM     20  C   UNL A   1      31.945  28.706  27.343  1.00  0.00     0.001 A 
ATOM     21  C   UNL A   1      33.189  29.229  26.979  1.00  0.00     0.002 A 
BRANCH   7  22
ATOM     22  C   UNL A   1      31.262  25.792  23.046  1.00  0.00     0.016 A 
ATOM     23  C   UNL A   1      29.488  28.015  23.002  1.00  0.00     0.037 A 
ATOM     24  C   UNL A   1      30.607  27.950  22.166  1.00  0.00     0.026 A 
ATOM     25  C   UNL A   1      29.152  26.834  23.667  1.00  0.00     0.026 A 
ATOM     26  C   UNL A   1      31.475  26.852  22.168  1.00  0.00     0.012 A 
ATOM     27  C   UNL A   1      29.997  25.720  23.657  1.00  0.00     0.012 A 
BRANCH  23  28
ATOM     28  N   UNL A   1      28.760  29.180  23.187  1.00  0.00    -0.372 N 
BRANCH  28  29
ATOM     29  C   UNL A   1      29.464  30.455  23.429  1.00  0.00     0.113 C 
ATOM     30  C   UNL A   1      28.537  31.634  23.692  1.00  0.00     0.027 C 
ENDBRANCH  28  29
BRANCH  28  31
ATOM     31  C   UNL A   1      27.356  29.252  22.771  1.00  0.00     0.113 C 
ATOM     32  C   UNL A   1      26.424  28.336  23.558  1.00  0.00     0.027 C 
ENDBRANCH  28  31
ENDBRANCH  23  28
ENDBRANCH   7  22
ENDBRANCH   3   6
ENDBRANCH   1   2
BRANCH   1  33
ATOM     33  C   UNL A   1      35.748  22.821  25.403  1.00  0.00     0.042 C 
BRANCH  33  34
ATOM     34  C   UNL A   1      37.066  23.508  25.075  1.00  0.00     0.118 C 
BRANCH  34  35
ATOM     35  N   UNL A   1      38.234  22.682  25.369  1.00  0.00    -0.352 N 
ATOM     36  C   UNL A   1      39.389  22.981  26.046  1.00  0.00     0.251 C 
ATOM     37  H   UNL A   1      38.184  21.760  25.024  1.00  0.00     0.163 HD
ATOM     38  O   UNL A   1      40.321  22.167  26.045  1.00  0.00    -0.269 OA
BRANCH  36  39
ATOM     39  C   UNL A   1      39.562  24.275  26.746  1.00  0.00     0.039 A 
ATOM     40  C   UNL A   1      39.009  24.435  28.021  1.00  0.00     0.014 A 
ATOM     41  C   UNL A   1      40.248  25.339  26.156  1.00  0.00     0.014 A 
ATOM     42  C   UNL A   1      39.225  25.620  28.733  1.00  0.00     0.010 A 
ATOM     43  C   UNL A   1      40.548  26.475  26.904  1.00  0.00     0.010 A 
ATOM     44  C   UNL A   1      40.041  26.631  28.202  1.00  0.00    -0.014 A 
BRANCH  44  45
ATOM     45  C   UNL A   1      40.380  27.849  28.986  1.00  0.00     0.031 A 
ATOM     46  C   UNL A   1      41.684  27.940  29.732  1.00  0.00     0.074 A 
ATOM     47  C   UNL A   1      39.481  28.849  29.090  1.00  0.00     0.049 A 
ATOM     48  N   UNL A   1      42.120  28.885  30.527  1.00  0.00    -0.248 NA
ATOM     49  C   UNL A   1      42.610  26.805  29.588  1.00  0.00     0.031 C 
ATOM     50  C   UNL A   1      38.158  28.866  28.462  1.00  0.00     0.029 A 
ATOM     51  N   UNL A   1      39.538  30.038  29.774  1.00  0.00    -0.354 N 
ATOM     52  C   UNL A   1      43.358  28.451  30.988  1.00  0.00     0.074 A 
ATOM     53  C   UNL A   1      43.577  27.135  30.430  1.00  0.00     0.031 C 
ATOM     54  C   UNL A   1      37.539  30.016  28.772  1.00  0.00     0.029 A 
ATOM     55  C   UNL A   1      38.398  30.798  29.656  1.00  0.00     0.049 A 
ATOM     56  H   UNL A   1      40.321  30.320  30.300  1.00  0.00     0.167 HD
ATOM     57  C   UNL A   1      44.242  29.098  31.785  1.00  0.00     0.037 A 
ATOM     58  C   UNL A   1      38.074  31.983  30.207  1.00  0.00     0.037 A 
ATOM     59  C   UNL A   1      44.031  30.417  32.325  1.00  0.00     0.049 A 
ATOM     60  C   UNL A   1      39.067  32.678  31.098  1.00  0.00     0.074 A 
ATOM     61  C   UNL A   1      44.895  31.183  33.089  1.00  0.00     0.029 A 
ATOM     62  N   UNL A   1      42.871  31.160  32.167  1.00  0.00    -0.354 N 
ATOM     63  N   UNL A   1      40.265  32.290  31.462  1.00  0.00    -0.248 NA
ATOM     64  C   UNL A   1      38.664  33.980  31.650  1.00  0.00     0.031 C 
ATOM     65  C   UNL A   1      44.236  32.365  33.440  1.00  0.00     0.029 A 
ATOM     66  C   UNL A   1      42.986  32.364  32.843  1.00  0.00     0.049 A 
ATOM     67  H   UNL A   1      42.083  30.875  31.650  1.00  0.00     0.167 HD
ATOM     68  C   UNL A   1      40.770  33.309  32.259  1.00  0.00     0.074 A 
ATOM     69  C   UNL A   1      39.754  34.340  32.313  1.00  0.00     0.031 C 
ATOM     70  C   UNL A   1      41.968  33.385  32.889  1.00  0.00     0.037 A 
BRANCH  57  71
ATOM     71  C   UNL A   1      45.521  28.385  32.124  1.00  0.00     0.057 A 
ATOM     72  C   UNL A   1      46.672  28.509  31.334  1.00  0.00     0.134 A 
ATOM     73  C   UNL A   1      45.612  27.587  33.273  1.00  0.00     0.134 A 
ATOM     74  F   UNL A   1      46.654  29.250  30.215  1.00  0.00    -0.206 F 
ATOM     75  C   UNL A   1      47.855  27.839  31.654  1.00  0.00     0.040 A 
ATOM     76  C   UNL A   1      46.797  26.938  33.620  1.00  0.00     0.040 A 
ATOM     77  F   UNL A   1      44.552  27.431  34.080  1.00  0.00    -0.206 F 
ATOM     78  C   UNL A   1      47.921  27.055  32.805  1.00  0.00     0.006 A 
ENDBRANCH  57  71
BRANCH  58  79
ATOM     79  C   UNL A   1      36.752  32.598  29.922  1.00  0.00     0.057 A 
ATOM     80  C   UNL A   1      36.579  33.482  28.849  1.00  0.00     0.134 A 
ATOM     81  C   UNL A   1      35.632  32.324  30.717  1.00  0.00     0.134 A 
ATOM     82  F   UNL A   1      37.617  33.799  28.062  1.00  0.00    -0.206 F 
ATOM     83  C   UNL A   1      35.347  34.087  28.590  1.00  0.00     0.040 A 
ATOM     84  C   UNL A   1      34.387  32.900  30.451  1.00  0.00     0.040 A 
ATOM     85  F   UNL A   1      35.727  31.480  31.754  1.00  0.00    -0.206 F 
ATOM     86  C   UNL A   1      34.245  33.791  29.390  1.00  0.00     0.006 A 
ENDBRANCH  58  79
BRANCH  70  87
ATOM     87  C   UNL A   1      42.265  34.639  33.660  1.00  0.00     0.057 A 
ATOM     88  C   UNL A   1      42.846  35.762  33.058  1.00  0.00     0.134 A 
ATOM     89  C   UNL A   1      41.927  34.737  35.017  1.00  0.00     0.134 A 
ATOM     90  F   UNL A   1      43.206  35.732  31.766  1.00  0.00    -0.206 F 
ATOM     91  C   UNL A   1      43.104  36.928  33.782  1.00  0.00     0.040 A 
ATOM     92  C   UNL A   1      42.151  35.906  35.744  1.00  0.00     0.040 A 
ATOM     93  F   UNL A   1      41.358  33.702  35.654  1.00  0.00    -0.206 F 
ATOM     94  C   UNL A   1      42.748  37.004  35.128  1.00  0.00     0.006 A 
ENDBRANCH  70  87
ENDBRANCH  44  45
ENDBRANCH  36  39
ENDBRANCH  34  35
ENDBRANCH  33  34
ENDBRANCH   1  33
TORSDOF 14
ENDMDL
MODEL 3
REMARK VINA RESULT:     -12.1      3.249      7.041
REMARK SMILES CCN(CC)c1ccc([C@@H]2[NH2+][C@@H](C(=O)NCCCNC(=O)c3ccc(-c4c5nc(c(-c6c(F)cccc6F)c6ccc([nH]6)c(-c6c(F)cccc6F)c6nc(c(-c7c(F)cccc7F)c7ccc4[nH]7)C=C6)C=C5)cc3)Cc3c2[nH]c2ccccc32)cc1
REMARK SMILES IDX 16 1 15 2 13 3 14 4 12 6 10 7 11 8 78 9 77 12 79 13 76 14
REMARK SMILES IDX 85 15 80 16 84 18 81 19 83 20 82 21 9 22 6 23 7 24 87 25
REMARK SMILES IDX 8 26 86 27 3 28 2 29 1 30 4 31 5 32 17 33 18 34 19 35 20 36
REMARK SMILES IDX 21 38 22 39 23 40 75 41 24 42 74 43 25 44 26 45 27 46 68 47
REMARK SMILES IDX 28 48 73 49 67 50 69 51 29 52 72 53 66 54 65 55 30 57 56 58
REMARK SMILES IDX 39 59 55 60 40 61 43 62 54 63 70 64 41 65 42 66 53 68 71 69
REMARK SMILES IDX 44 70 31 71 32 72 37 73 33 74 34 75 36 76 38 77 35 78 57 79
REMARK SMILES IDX 58 80 63 81 59 82 60 83 62 84 64 85 61 86 45 87 46 88 51 89
REMARK SMILES IDX 47 90 48 91 50 92 52 93 49 94
REMARK H PARENT 15 5 11 10 11 11 79 17 19 37 69 56 43 67
REMARK Flexibility Score: inf
ROOT
ATOM      1  C   UNL A   1      31.945  28.551  25.220  1.00  0.00     0.118 C 
ENDROOT
BRANCH   1   2
ATOM      2  N   UNL A   1      30.825  27.889  24.581  1.00  0.00    -0.351 N 
ATOM      3  C   UNL A   1      30.686  26.578  24.213  1.00  0.00     0.278 C 
ATOM      4  O   UNL A   1      29.719  26.304  23.493  1.00  0.00    -0.268 OA
ATOM      5  H   UNL A   1      30.052  28.466  24.383  1.00  0.00     0.163 HD
BRANCH   3   6
ATOM      6  C   UNL A   1      31.637  25.454  24.705  1.00  0.00     0.277 C 
ATOM      7  C   UNL A   1      33.363  24.412  23.092  1.00  0.00     0.262 C 
ATOM      8  N   UNL A   1      32.925  25.532  23.973  1.00  0.00    -0.325 N 
ATOM      9  C   UNL A   1      32.446  23.250  23.262  1.00  0.00     0.083 A 
ATOM     10  H   UNL A   1      32.878  26.365  23.385  1.00  0.00     0.347 HD
ATOM     11  H   UNL A   1      33.616  25.519  24.723  1.00  0.00     0.347 HD
ATOM     12  C   UNL A   1      31.673  22.966  24.363  1.00  0.00    -0.006 A 
ATOM     13  N   UNL A   1      32.164  22.182  22.447  1.00  0.00    -0.353 N 
ATOM     14  C   UNL A   1      30.973  24.089  25.021  1.00  0.00     0.114 C 
ATOM     15  C   UNL A   1      32.118  21.638  24.593  1.00  0.00     0.003 A 
ATOM     16  C   UNL A   1      32.118  21.091  23.302  1.00  0.00     0.046 A 
ATOM     17  H   UNL A   1      32.025  22.189  21.473  1.00  0.00     0.166 HD
ATOM     18  C   UNL A   1      32.633  20.838  25.635  1.00  0.00     0.010 A 
ATOM     19  C   UNL A   1      32.261  19.732  23.031  1.00  0.00     0.026 A 
ATOM     20  C   UNL A   1      33.065  19.533  25.316  1.00  0.00     0.001 A 
ATOM     21  C   UNL A   1      32.803  18.969  24.064  1.00  0.00     0.002 A 
BRANCH   7  22
ATOM     22  C   UNL A   1      34.828  24.125  23.520  1.00  0.00     0.016 A 
ATOM     23  C   UNL A   1      36.952  22.693  24.757  1.00  0.00     0.037 A 
ATOM     24  C   UNL A   1      36.740  22.649  23.376  1.00  0.00     0.026 A 
ATOM     25  C   UNL A   1      36.230  23.665  25.455  1.00  0.00     0.026 A 
ATOM     26  C   UNL A   1      35.710  23.365  22.757  1.00  0.00     0.012 A 
ATOM     27  C   UNL A   1      35.215  24.406  24.843  1.00  0.00     0.012 A 
BRANCH  23  28
ATOM     28  N   UNL A   1      37.803  21.817  25.411  1.00  0.00    -0.372 N 
BRANCH  28  29
ATOM     29  C   UNL A   1      37.895  20.412  24.966  1.00  0.00     0.113 C 
ATOM     30  C   UNL A   1      36.558  19.687  24.924  1.00  0.00     0.027 C 
ENDBRANCH  28  29
BRANCH  28  31
ATOM     31  C   UNL A   1      38.881  22.327  26.265  1.00  0.00     0.113 C 
ATOM     32  C   UNL A   1      40.073  21.384  26.395  1.00  0.00     0.027 C 
ENDBRANCH  28  31
ENDBRANCH  23  28
ENDBRANCH   7  22
ENDBRANCH   3   6
ENDBRANCH   1   2
BRANCH   1  33
ATOM     33  C   UNL A   1      31.735  30.051  25.363  1.00  0.00     0.042 C 
BRANCH  33  34
ATOM     34  C   UNL A   1      31.859  30.561  26.792  1.00  0.00     0.118 C 
BRANCH  34  35
ATOM     35  N   UNL A   1      31.861  32.017  26.884  1.00  0.00    -0.352 N 
ATOM     36  C   UNL A   1      32.767  32.873  27.458  1.00  0.00     0.251 C 
ATOM     37  H   UNL A   1      31.085  32.458  26.466  1.00  0.00     0.163 HD
ATOM     38  O   UNL A   1      32.491  34.076  27.554  1.00  0.00    -0.269 OA
BRANCH  36  39
ATOM     39  C   UNL A   1      34.054  32.383  28.003  1.00  0.00     0.039 A 
ATOM     40  C   UNL A   1      35.093  33.296  28.216  1.00  0.00     0.014 A 
ATOM     41  C   UNL A   1      34.258  31.032  28.293  1.00  0.00     0.014 A 
ATOM     42  C   UNL A   1      36.289  32.871  28.802  1.00  0.00     0.010 A 
ATOM     43  C   UNL A   1      35.408  30.629  28.968  1.00  0.00     0.010 A 
ATOM     44  C   UNL A   1      36.439  31.543  29.232  1.00  0.00    -0.014 A 
BRANCH  44  45
ATOM     45  C   UNL A   1      37.656  31.093  29.961  1.00  0.00     0.031 A 
ATOM     46  C   UNL A   1      38.642  30.166  29.302  1.00  0.00     0.074 A 
ATOM     47  C   UNL A   1      37.839  31.459  31.245  1.00  0.00     0.049 A 
ATOM     48  N   UNL A   1      39.716  29.609  29.801  1.00  0.00    -0.248 NA
ATOM     49  C   UNL A   1      38.370  29.795  27.904  1.00  0.00     0.031 C 
ATOM     50  C   UNL A   1      36.934  32.309  32.021  1.00  0.00     0.029 A 
ATOM     51  N   UNL A   1      38.841  31.149  32.131  1.00  0.00    -0.354 N 
ATOM     52  C   UNL A   1      40.236  28.810  28.789  1.00  0.00     0.074 A 
ATOM     53  C   UNL A   1      39.328  28.912  27.667  1.00  0.00     0.031 C 
ATOM     54  C   UNL A   1      37.432  32.470  33.257  1.00  0.00     0.029 A 
ATOM     55  C   UNL A   1      38.665  31.700  33.378  1.00  0.00     0.049 A 
ATOM     56  H   UNL A   1      39.613  30.584  31.896  1.00  0.00     0.167 HD
ATOM     57  C   UNL A   1      41.376  28.078  28.784  1.00  0.00     0.037 A 
ATOM     58  C   UNL A   1      39.405  31.588  34.498  1.00  0.00     0.037 A 
ATOM     59  C   UNL A   1      42.287  27.992  29.895  1.00  0.00     0.049 A 
ATOM     60  C   UNL A   1      40.660  30.759  34.473  1.00  0.00     0.074 A 
ATOM     61  C   UNL A   1      43.500  27.329  29.965  1.00  0.00     0.029 A 
ATOM     62  N   UNL A   1      42.082  28.580  31.134  1.00  0.00    -0.354 N 
ATOM     63  N   UNL A   1      41.179  30.074  33.483  1.00  0.00    -0.248 NA
ATOM     64  C   UNL A   1      41.437  30.695  35.720  1.00  0.00     0.031 C 
ATOM     65  C   UNL A   1      44.001  27.468  31.263  1.00  0.00     0.029 A 
ATOM     66  C   UNL A   1      43.132  28.271  31.984  1.00  0.00     0.049 A 
ATOM     67  H   UNL A   1      41.306  29.136  31.374  1.00  0.00     0.167 HD
ATOM     68  C   UNL A   1      42.354  29.522  33.977  1.00  0.00     0.074 A 
ATOM     69  C   UNL A   1      42.480  29.965  35.350  1.00  0.00     0.031 C 
ATOM     70  C   UNL A   1      43.249  28.720  33.349  1.00  0.00     0.037 A 
BRANCH  57  71
ATOM     71  C   UNL A   1      41.698  27.306  27.535  1.00  0.00     0.057 A 
ATOM     72  C   UNL A   1      42.424  27.872  26.479  1.00  0.00     0.134 A 
ATOM     73  C   UNL A   1      41.303  25.968  27.400  1.00  0.00     0.134 A 
ATOM     74  F   UNL A   1      42.827  29.151  26.538  1.00  0.00    -0.206 F 
ATOM     75  C   UNL A   1      42.716  27.149  25.321  1.00  0.00     0.040 A 
ATOM     76  C   UNL A   1      41.615  25.226  26.260  1.00  0.00     0.040 A 
ATOM     77  F   UNL A   1      40.612  25.359  28.375  1.00  0.00    -0.206 F 
ATOM     78  C   UNL A   1      42.316  25.818  25.212  1.00  0.00     0.006 A 
ENDBRANCH  57  71
BRANCH  58  79
ATOM     79  C   UNL A   1      38.985  32.289  35.739  1.00  0.00     0.057 A 
ATOM     80  C   UNL A   1      38.224  31.639  36.718  1.00  0.00     0.134 A 
ATOM     81  C   UNL A   1      39.328  33.626  35.975  1.00  0.00     0.134 A 
ATOM     82  F   UNL A   1      37.848  30.363  36.543  1.00  0.00    -0.206 F 
ATOM     83  C   UNL A   1      37.802  32.297  37.875  1.00  0.00     0.040 A 
ATOM     84  C   UNL A   1      38.937  34.288  37.141  1.00  0.00     0.040 A 
ATOM     85  F   UNL A   1      40.063  34.305  35.082  1.00  0.00    -0.206 F 
ATOM     86  C   UNL A   1      38.164  33.625  38.091  1.00  0.00     0.006 A 
ENDBRANCH  58  79
BRANCH  70  87
ATOM     87  C   UNL A   1      44.464  28.300  34.126  1.00  0.00     0.057 A 
ATOM     88  C   UNL A   1      44.503  27.106  34.858  1.00  0.00     0.134 A 
ATOM     89  C   UNL A   1      45.625  29.085  34.109  1.00  0.00     0.134 A 
ATOM     90  F   UNL A   1      43.422  26.315  34.926  1.00  0.00    -0.206 F 
ATOM     91  C   UNL A   1      45.644  26.720  35.564  1.00  0.00     0.040 A 
ATOM     92  C   UNL A   1      46.781  28.695  34.786  1.00  0.00     0.040 A 
ATOM     93  F   UNL A   1      45.660  30.237  33.421  1.00  0.00    -0.206 F 
ATOM     94  C   UNL A   1      46.789  27.512  35.523  1.00  0.00     0.006 A 
ENDBRANCH  70  87
ENDBRANCH  44  45
ENDBRANCH  36  39
ENDBRANCH  34  35
ENDBRANCH  33  34
ENDBRANCH   1  33
TORSDOF 14
ENDMDL
