MODEL 1
REMARK VINA RESULT:     -13.4      0.000      0.000
REMARK SMILES CCc1cc(S(F)(F)(F)(F)F)cc2c1O[C@@H](C(F)(F)F)C(C(=O)NCCCNC(=O)c1ccc(-c3c4nc(c(-c5c(F)cccc5F)c5ccc([nH]5)c(-c5c(F)cccc5F)c5nc(c(-c6c(F)cccc6F)c6ccc3[nH]6)C=C5)C=C4)cc1)=C2
REMARK SMILES IDX 26 1 25 2 24 3 22 4 23 5 21 7 3 8 4 9 14 10 5 11 13 12 15 13
REMARK SMILES IDX 12 14 85 15 16 16 2 17 1 18 6 19 7 20 8 21 9 22 10 23 11 24
REMARK SMILES IDX 17 25 18 26 19 27 20 28 27 29 28 30 29 31 30 33 31 34 32 35
REMARK SMILES IDX 84 36 33 37 83 38 34 39 35 40 36 41 77 42 37 43 82 44 76 45
REMARK SMILES IDX 78 46 38 47 81 48 75 49 74 50 39 52 65 53 48 54 64 55 49 56
REMARK SMILES IDX 52 57 63 58 79 59 50 60 51 61 62 63 80 64 53 65 40 66 41 67
REMARK SMILES IDX 46 68 42 69 43 70 45 71 47 72 44 73 66 74 67 75 72 76 68 77
REMARK SMILES IDX 69 78 71 79 73 80 70 81 54 82 55 83 60 84 56 85 57 86 59 87
REMARK SMILES IDX 61 88 58 89
REMARK H PARENT 24 6 28 32 78 51 52 62
REMARK Flexibility Score: inf
ROOT
ATOM      1  C   UNL A   1      38.149  23.883  26.281  1.00  0.00     0.042 C 
ENDROOT
BRANCH   1   2
ATOM      2  C   UNL A   1      37.364  22.648  25.870  1.00  0.00     0.118 C 
BRANCH   2   3
ATOM      3  N   UNL A   1      37.319  22.562  24.403  1.00  0.00    -0.352 N 
ATOM      4  C   UNL A   1      36.142  23.054  23.673  1.00  0.00     0.251 C 
ATOM      5  O   UNL A   1      36.103  22.979  22.405  1.00  0.00    -0.270 OA
ATOM      6  H   UNL A   1      38.077  22.173  23.909  1.00  0.00     0.163 HD
BRANCH   4   7
ATOM      7  C   UNL A   1      34.971  23.653  24.435  1.00  0.00     0.067 C 
ATOM      8  C   UNL A   1      31.489  25.259  26.091  1.00  0.00    -0.004 A 
ATOM      9  C   UNL A   1      31.458  26.586  26.481  1.00  0.00     0.032 A 
ATOM     10  C   UNL A   1      32.629  24.771  25.500  1.00  0.00     0.131 A 
ATOM     11  C   UNL A   1      32.539  27.405  26.280  1.00  0.00     0.108 A 
ATOM     12  C   UNL A   1      33.745  25.562  25.298  1.00  0.00     0.019 A 
ATOM     13  O   UNL A   1      32.605  23.486  25.017  1.00  0.00    -0.475 OA
ATOM     14  C   UNL A   1      33.680  26.893  25.697  1.00  0.00     0.036 A 
ATOM     15  C   UNL A   1      34.888  24.964  24.630  1.00  0.00     0.025 C 
ATOM     16  C   UNL A   1      33.868  22.763  24.991  1.00  0.00     0.314 C 
BRANCH   8  17
ATOM     17  C   UNL A   1      30.293  24.347  26.311  1.00  0.00     0.036 C 
ATOM     18  C   UNL A   1      30.736  23.099  27.056  1.00  0.00     0.009 C 
ENDBRANCH   8  17
BRANCH  11  19
ATOM     19  S   UNL A   1      32.469  29.145  26.774  1.00  0.00     0.310 S 
ATOM     20  F   UNL A   1      31.408  28.847  27.915  1.00  0.00    -0.094 F 
ATOM     21  F   UNL A   1      31.253  29.342  25.791  1.00  0.00    -0.094 F 
ATOM     22  F   UNL A   1      32.409  30.640  27.193  1.00  0.00    -0.094 F 
ATOM     23  F   UNL A   1      33.593  28.894  27.855  1.00  0.00    -0.094 F 
ATOM     24  F   UNL A   1      32.466  27.599  26.440  1.00  0.00    -0.094 F 
ENDBRANCH  11  19
BRANCH  16  25
ATOM     25  C   UNL A   1      33.720  21.540  24.099  1.00  0.00     0.429 C 
ATOM     26  F   UNL A   1      33.606  21.928  22.832  1.00  0.00    -0.167 F 
ATOM     27  F   UNL A   1      34.793  20.764  24.230  1.00  0.00    -0.167 F 
ATOM     28  F   UNL A   1      32.634  20.862  24.454  1.00  0.00    -0.167 F 
ENDBRANCH  16  25
ENDBRANCH   4   7
ENDBRANCH   2   3
ENDBRANCH   1   2
BRANCH   1  29
ATOM     29  C   UNL A   1      39.432  23.459  26.976  1.00  0.00     0.118 C 
BRANCH  29  30
ATOM     30  N   UNL A   1      40.564  23.606  26.049  1.00  0.00    -0.352 N 
ATOM     31  C   UNL A   1      41.486  24.742  26.189  1.00  0.00     0.251 C 
ATOM     32  H   UNL A   1      40.703  22.944  25.334  1.00  0.00     0.163 HD
ATOM     33  O   UNL A   1      42.465  24.869  25.387  1.00  0.00    -0.269 OA
BRANCH  31  34
ATOM     34  C   UNL A   1      41.270  25.765  27.293  1.00  0.00     0.039 A 
ATOM     35  C   UNL A   1      40.456  25.464  28.372  1.00  0.00     0.014 A 
ATOM     36  C   UNL A   1      41.882  26.939  27.198  1.00  0.00     0.014 A 
ATOM     37  C   UNL A   1      40.116  26.585  29.165  1.00  0.00     0.010 A 
ATOM     38  C   UNL A   1      41.602  27.947  28.090  1.00  0.00     0.010 A 
ATOM     39  C   UNL A   1      40.761  27.738  29.146  1.00  0.00    -0.014 A 
BRANCH  39  40
ATOM     40  C   UNL A   1      40.576  28.776  30.241  1.00  0.00     0.031 A 
ATOM     41  C   UNL A   1      39.572  29.731  30.077  1.00  0.00     0.074 A 
ATOM     42  C   UNL A   1      41.415  28.717  31.341  1.00  0.00     0.049 A 
ATOM     43  N   UNL A   1      39.224  30.701  30.925  1.00  0.00    -0.248 NA
ATOM     44  C   UNL A   1      38.703  29.818  28.894  1.00  0.00     0.031 C 
ATOM     45  C   UNL A   1      42.426  27.751  31.518  1.00  0.00     0.029 A 
ATOM     46  N   UNL A   1      41.434  29.551  32.436  1.00  0.00    -0.354 N 
ATOM     47  C   UNL A   1      38.205  31.404  30.428  1.00  0.00     0.074 A 
ATOM     48  C   UNL A   1      37.858  30.851  29.112  1.00  0.00     0.031 C 
ATOM     49  C   UNL A   1      43.051  28.006  32.696  1.00  0.00     0.029 A 
ATOM     50  C   UNL A   1      42.443  29.135  33.277  1.00  0.00     0.049 A 
ATOM     51  H   UNL A   1      40.830  30.313  32.592  1.00  0.00     0.167 HD
ATOM     52  C   UNL A   1      37.549  32.484  31.021  1.00  0.00     0.037 A 
ATOM     53  C   UNL A   1      42.826  29.697  34.484  1.00  0.00     0.037 A 
ATOM     54  C   UNL A   1      37.906  33.019  32.249  1.00  0.00     0.049 A 
ATOM     55  C   UNL A   1      42.208  30.814  35.051  1.00  0.00     0.074 A 
ATOM     56  C   UNL A   1      37.251  34.103  32.865  1.00  0.00     0.029 A 
ATOM     57  N   UNL A   1      38.930  32.619  33.078  1.00  0.00    -0.354 N 
ATOM     58  N   UNL A   1      41.165  31.493  34.572  1.00  0.00    -0.248 NA
ATOM     59  C   UNL A   1      42.628  31.438  36.313  1.00  0.00     0.031 C 
ATOM     60  C   UNL A   1      37.877  34.359  34.045  1.00  0.00     0.029 A 
ATOM     61  C   UNL A   1      38.934  33.439  34.184  1.00  0.00     0.049 A 
ATOM     62  H   UNL A   1      39.552  31.875  32.909  1.00  0.00     0.167 HD
ATOM     63  C   UNL A   1      40.844  32.488  35.402  1.00  0.00     0.074 A 
ATOM     64  C   UNL A   1      41.786  32.472  36.529  1.00  0.00     0.031 C 
ATOM     65  C   UNL A   1      39.802  33.407  35.266  1.00  0.00     0.037 A 
BRANCH  52  66
ATOM     66  C   UNL A   1      36.379  33.109  30.279  1.00  0.00     0.057 A 
ATOM     67  C   UNL A   1      35.102  32.662  30.578  1.00  0.00     0.134 A 
ATOM     68  C   UNL A   1      36.585  34.038  29.353  1.00  0.00     0.134 A 
ATOM     69  F   UNL A   1      34.822  31.933  31.653  1.00  0.00    -0.206 F 
ATOM     70  C   UNL A   1      34.123  33.053  29.634  1.00  0.00     0.040 A 
ATOM     71  C   UNL A   1      35.553  34.473  28.557  1.00  0.00     0.040 A 
ATOM     72  F   UNL A   1      37.801  34.553  29.196  1.00  0.00    -0.206 F 
ATOM     73  C   UNL A   1      34.276  34.029  28.757  1.00  0.00     0.006 A 
ENDBRANCH  52  66
BRANCH  53  74
ATOM     74  C   UNL A   1      43.986  29.062  35.234  1.00  0.00     0.057 A 
ATOM     75  C   UNL A   1      43.699  28.079  36.165  1.00  0.00     0.134 A 
ATOM     76  C   UNL A   1      45.238  29.430  34.985  1.00  0.00     0.134 A 
ATOM     77  F   UNL A   1      42.504  27.503  36.268  1.00  0.00    -0.206 F 
ATOM     78  C   UNL A   1      44.791  27.742  37.000  1.00  0.00     0.040 A 
ATOM     79  C   UNL A   1      46.273  28.956  35.754  1.00  0.00     0.040 A 
ATOM     80  F   UNL A   1      45.492  30.265  33.981  1.00  0.00    -0.206 F 
ATOM     81  C   UNL A   1      46.053  28.026  36.732  1.00  0.00     0.006 A 
ENDBRANCH  53  74
BRANCH  65  82
ATOM     82  C   UNL A   1      39.607  34.434  36.368  1.00  0.00     0.057 A 
ATOM     83  C   UNL A   1      40.168  35.694  36.240  1.00  0.00     0.134 A 
ATOM     84  C   UNL A   1      38.898  34.102  37.440  1.00  0.00     0.134 A 
ATOM     85  F   UNL A   1      40.663  36.155  35.094  1.00  0.00    -0.206 F 
ATOM     86  C   UNL A   1      40.166  36.448  37.437  1.00  0.00     0.040 A 
ATOM     87  C   UNL A   1      38.829  34.947  38.522  1.00  0.00     0.040 A 
ATOM     88  F   UNL A   1      38.248  32.942  37.468  1.00  0.00    -0.206 F 
ATOM     89  C   UNL A   1      39.410  36.184  38.487  1.00  0.00     0.006 A 
ENDBRANCH  65  82
ENDBRANCH  39  40
ENDBRANCH  31  34
ENDBRANCH  29  30
ENDBRANCH   1  29
TORSDOF 13
ENDMDL
MODEL 2
REMARK VINA RESULT:     -13.3      5.131      9.967
REMARK SMILES CCc1cc(S(F)(F)(F)(F)F)cc2c1O[C@@H](C(F)(F)F)C(C(=O)NCCCNC(=O)c1ccc(-c3c4nc(c(-c5c(F)cccc5F)c5ccc([nH]5)c(-c5c(F)cccc5F)c5nc(c(-c6c(F)cccc6F)c6ccc3[nH]6)C=C5)C=C4)cc1)=C2
REMARK SMILES IDX 26 1 25 2 24 3 22 4 23 5 21 7 3 8 4 9 14 10 5 11 13 12 15 13
REMARK SMILES IDX 12 14 85 15 16 16 2 17 1 18 6 19 7 20 8 21 9 22 10 23 11 24
REMARK SMILES IDX 17 25 18 26 19 27 20 28 27 29 28 30 29 31 30 33 31 34 32 35
REMARK SMILES IDX 84 36 33 37 83 38 34 39 35 40 36 41 77 42 37 43 82 44 76 45
REMARK SMILES IDX 78 46 38 47 81 48 75 49 74 50 39 52 65 53 48 54 64 55 49 56
REMARK SMILES IDX 52 57 63 58 79 59 50 60 51 61 62 63 80 64 53 65 40 66 41 67
REMARK SMILES IDX 46 68 42 69 43 70 45 71 47 72 44 73 66 74 67 75 72 76 68 77
REMARK SMILES IDX 69 78 71 79 73 80 70 81 54 82 55 83 60 84 56 85 57 86 59 87
REMARK SMILES IDX 61 88 58 89
REMARK H PARENT 24 6 28 32 78 51 52 62
REMARK Flexibility Score: inf
ROOT
ATOM      1  C   UNL A   1      34.520  30.543  26.890  1.00  0.00     0.042 C 
ENDROOT
BRANCH   1   2
ATOM      2  C   UNL A   1      33.651  29.546  26.141  1.00  0.00     0.118 C 
BRANCH   2   3
ATOM      3  N   UNL A   1      32.514  29.154  26.988  1.00  0.00    -0.352 N 
ATOM      4  C   UNL A   1      31.982  27.786  26.916  1.00  0.00     0.251 C 
ATOM      5  O   UNL A   1      31.000  27.446  27.647  1.00  0.00    -0.270 OA
ATOM      6  H   UNL A   1      32.109  29.807  27.602  1.00  0.00     0.163 HD
BRANCH   4   7
ATOM      7  C   UNL A   1      32.607  26.776  25.966  1.00  0.00     0.067 C 
ATOM      8  C   UNL A   1      33.908  23.713  23.443  1.00  0.00    -0.004 A 
ATOM      9  C   UNL A   1      35.022  22.964  23.782  1.00  0.00     0.032 A 
ATOM     10  C   UNL A   1      33.470  24.678  24.316  1.00  0.00     0.131 A 
ATOM     11  C   UNL A   1      35.677  23.174  24.968  1.00  0.00     0.108 A 
ATOM     12  C   UNL A   1      34.117  24.931  25.513  1.00  0.00     0.019 A 
ATOM     13  O   UNL A   1      32.301  25.333  24.019  1.00  0.00    -0.475 OA
ATOM     14  C   UNL A   1      35.230  24.158  25.826  1.00  0.00     0.036 A 
ATOM     15  C   UNL A   1      33.554  25.946  26.386  1.00  0.00     0.025 C 
ATOM     16  C   UNL A   1      32.160  26.696  24.513  1.00  0.00     0.314 C 
BRANCH   8  17
ATOM     17  C   UNL A   1      33.178  23.483  22.130  1.00  0.00     0.036 C 
ATOM     18  C   UNL A   1      32.425  22.164  22.192  1.00  0.00     0.009 C 
ENDBRANCH   8  17
BRANCH  11  19
ATOM     19  S   UNL A   1      37.116  22.168  25.404  1.00  0.00     0.310 S 
ATOM     20  F   UNL A   1      37.291  21.652  23.914  1.00  0.00    -0.094 F 
ATOM     21  F   UNL A   1      36.150  20.946  25.640  1.00  0.00    -0.094 F 
ATOM     22  F   UNL A   1      38.350  21.302  25.784  1.00  0.00    -0.094 F 
ATOM     23  F   UNL A   1      38.079  23.361  25.027  1.00  0.00    -0.094 F 
ATOM     24  F   UNL A   1      35.884  23.025  24.908  1.00  0.00    -0.094 F 
ENDBRANCH  11  19
BRANCH  16  25
ATOM     25  C   UNL A   1      30.699  27.107  24.419  1.00  0.00     0.429 C 
ATOM     26  F   UNL A   1      29.985  26.409  25.299  1.00  0.00    -0.167 F 
ATOM     27  F   UNL A   1      30.586  28.405  24.688  1.00  0.00    -0.167 F 
ATOM     28  F   UNL A   1      30.248  26.865  23.192  1.00  0.00    -0.167 F 
ENDBRANCH  16  25
ENDBRANCH   4   7
ENDBRANCH   2   3
ENDBRANCH   1   2
BRANCH   1  29
ATOM     29  C   UNL A   1      35.263  29.829  28.007  1.00  0.00     0.118 C 
BRANCH  29  30
ATOM     30  N   UNL A   1      35.085  30.568  29.265  1.00  0.00    -0.352 N 
ATOM     31  C   UNL A   1      36.241  30.821  30.138  1.00  0.00     0.251 C 
ATOM     32  H   UNL A   1      34.193  30.893  29.523  1.00  0.00     0.163 HD
ATOM     33  O   UNL A   1      36.088  31.461  31.226  1.00  0.00    -0.269 OA
BRANCH  31  34
ATOM     34  C   UNL A   1      37.619  30.319  29.739  1.00  0.00     0.039 A 
ATOM     35  C   UNL A   1      38.019  30.361  28.414  1.00  0.00     0.014 A 
ATOM     36  C   UNL A   1      38.422  29.850  30.687  1.00  0.00     0.014 A 
ATOM     37  C   UNL A   1      39.188  29.611  28.143  1.00  0.00     0.010 A 
ATOM     38  C   UNL A   1      39.614  29.250  30.358  1.00  0.00     0.010 A 
ATOM     39  C   UNL A   1      40.044  29.202  29.062  1.00  0.00    -0.014 A 
BRANCH  39  40
ATOM     40  C   UNL A   1      41.434  28.707  28.697  1.00  0.00     0.031 A 
ATOM     41  C   UNL A   1      41.586  27.356  28.379  1.00  0.00     0.074 A 
ATOM     42  C   UNL A   1      42.472  29.622  28.700  1.00  0.00     0.049 A 
ATOM     43  N   UNL A   1      42.702  26.729  28.003  1.00  0.00    -0.248 NA
ATOM     44  C   UNL A   1      40.492  26.374  28.409  1.00  0.00     0.031 C 
ATOM     45  C   UNL A   1      42.326  30.989  29.011  1.00  0.00     0.029 A 
ATOM     46  N   UNL A   1      43.800  29.396  28.413  1.00  0.00    -0.354 N 
ATOM     47  C   UNL A   1      42.449  25.441  27.766  1.00  0.00     0.074 A 
ATOM     48  C   UNL A   1      41.026  25.192  28.030  1.00  0.00     0.031 C 
ATOM     49  C   UNL A   1      43.548  31.575  28.924  1.00  0.00     0.029 A 
ATOM     50  C   UNL A   1      44.480  30.586  28.557  1.00  0.00     0.049 A 
ATOM     51  H   UNL A   1      44.195  28.533  28.151  1.00  0.00     0.167 HD
ATOM     52  C   UNL A   1      43.350  24.463  27.338  1.00  0.00     0.037 A 
ATOM     53  C   UNL A   1      45.836  30.814  28.384  1.00  0.00     0.037 A 
ATOM     54  C   UNL A   1      44.697  24.702  27.124  1.00  0.00     0.049 A 
ATOM     55  C   UNL A   1      46.748  29.823  28.012  1.00  0.00     0.074 A 
ATOM     56  C   UNL A   1      45.617  23.729  26.686  1.00  0.00     0.029 A 
ATOM     57  N   UNL A   1      45.382  25.885  27.292  1.00  0.00    -0.354 N 
ATOM     58  N   UNL A   1      46.488  28.544  27.739  1.00  0.00    -0.248 NA
ATOM     59  C   UNL A   1      48.192  30.046  27.859  1.00  0.00     0.031 C 
ATOM     60  C   UNL A   1      46.842  24.316  26.599  1.00  0.00     0.029 A 
ATOM     61  C   UNL A   1      46.706  25.663  26.982  1.00  0.00     0.049 A 
ATOM     62  H   UNL A   1      44.992  26.741  27.582  1.00  0.00     0.167 HD
ATOM     63  C   UNL A   1      47.612  27.907  27.401  1.00  0.00     0.074 A 
ATOM     64  C   UNL A   1      48.726  28.863  27.482  1.00  0.00     0.031 C 
ATOM     65  C   UNL A   1      47.754  26.570  27.027  1.00  0.00     0.037 A 
BRANCH  52  66
ATOM     66  C   UNL A   1      42.822  23.059  27.095  1.00  0.00     0.057 A 
ATOM     67  C   UNL A   1      42.482  22.704  25.799  1.00  0.00     0.134 A 
ATOM     68  C   UNL A   1      42.668  22.210  28.104  1.00  0.00     0.134 A 
ATOM     69  F   UNL A   1      42.846  23.411  24.734  1.00  0.00    -0.206 F 
ATOM     70  C   UNL A   1      41.712  21.519  25.713  1.00  0.00     0.040 A 
ATOM     71  C   UNL A   1      42.026  21.010  27.918  1.00  0.00     0.040 A 
ATOM     72  F   UNL A   1      43.142  22.524  29.307  1.00  0.00    -0.206 F 
ATOM     73  C   UNL A   1      41.610  20.621  26.676  1.00  0.00     0.006 A 
ENDBRANCH  52  66
BRANCH  53  74
ATOM     74  C   UNL A   1      46.361  32.221  28.612  1.00  0.00     0.057 A 
ATOM     75  C   UNL A   1      46.791  32.558  29.884  1.00  0.00     0.134 A 
ATOM     76  C   UNL A   1      46.422  33.094  27.611  1.00  0.00     0.134 A 
ATOM     77  F   UNL A   1      46.986  31.660  30.846  1.00  0.00    -0.206 F 
ATOM     78  C   UNL A   1      47.003  33.945  30.070  1.00  0.00     0.040 A 
ATOM     79  C   UNL A   1      46.769  34.402  27.844  1.00  0.00     0.040 A 
ATOM     80  F   UNL A   1      46.145  32.695  26.372  1.00  0.00    -0.206 F 
ATOM     81  C   UNL A   1      47.148  34.818  29.090  1.00  0.00     0.006 A 
ENDBRANCH  53  74
BRANCH  65  82
ATOM     82  C   UNL A   1      49.140  26.079  26.646  1.00  0.00     0.057 A 
ATOM     83  C   UNL A   1      49.913  25.410  27.581  1.00  0.00     0.134 A 
ATOM     84  C   UNL A   1      49.587  26.300  25.416  1.00  0.00     0.134 A 
ATOM     85  F   UNL A   1      49.424  24.946  28.728  1.00  0.00    -0.206 F 
ATOM     86  C   UNL A   1      51.270  25.265  27.207  1.00  0.00     0.040 A 
ATOM     87  C   UNL A   1      50.888  26.009  25.081  1.00  0.00     0.040 A 
ATOM     88  F   UNL A   1      48.769  26.809  24.499  1.00  0.00    -0.206 F 
ATOM     89  C   UNL A   1      51.725  25.402  25.974  1.00  0.00     0.006 A 
ENDBRANCH  65  82
ENDBRANCH  39  40
ENDBRANCH  31  34
ENDBRANCH  29  30
ENDBRANCH   1  29
TORSDOF 13
ENDMDL
MODEL 3
REMARK VINA RESULT:     -13.2      5.137      9.935
REMARK SMILES CCc1cc(S(F)(F)(F)(F)F)cc2c1O[C@@H](C(F)(F)F)C(C(=O)NCCCNC(=O)c1ccc(-c3c4nc(c(-c5c(F)cccc5F)c5ccc([nH]5)c(-c5c(F)cccc5F)c5nc(c(-c6c(F)cccc6F)c6ccc3[nH]6)C=C5)C=C4)cc1)=C2
REMARK SMILES IDX 26 1 25 2 24 3 22 4 23 5 21 7 3 8 4 9 14 10 5 11 13 12 15 13
REMARK SMILES IDX 12 14 85 15 16 16 2 17 1 18 6 19 7 20 8 21 9 22 10 23 11 24
REMARK SMILES IDX 17 25 18 26 19 27 20 28 27 29 28 30 29 31 30 33 31 34 32 35
REMARK SMILES IDX 84 36 33 37 83 38 34 39 35 40 36 41 77 42 37 43 82 44 76 45
REMARK SMILES IDX 78 46 38 47 81 48 75 49 74 50 39 52 65 53 48 54 64 55 49 56
REMARK SMILES IDX 52 57 63 58 79 59 50 60 51 61 62 63 80 64 53 65 40 66 41 67
REMARK SMILES IDX 46 68 42 69 43 70 45 71 47 72 44 73 66 74 67 75 72 76 68 77
REMARK SMILES IDX 69 78 71 79 73 80 70 81 54 82 55 83 60 84 56 85 57 86 59 87
REMARK SMILES IDX 61 88 58 89
REMARK H PARENT 24 6 28 32 78 51 52 62
REMARK Flexibility Score: inf
ROOT
ATOM      1  C   UNL A   1      34.600  30.474  26.910  1.00  0.00     0.042 C 
ENDROOT
BRANCH   1   2
ATOM      2  C   UNL A   1      33.711  29.505  26.146  1.00  0.00     0.118 C 
BRANCH   2   3
ATOM      3  N   UNL A   1      32.563  29.129  26.984  1.00  0.00    -0.352 N 
ATOM      4  C   UNL A   1      32.009  27.770  26.905  1.00  0.00     0.251 C 
ATOM      5  O   UNL A   1      31.016  27.445  27.628  1.00  0.00    -0.270 OA
ATOM      6  H   UNL A   1      32.165  29.787  27.598  1.00  0.00     0.163 HD
BRANCH   4   7
ATOM      7  C   UNL A   1      32.623  26.753  25.955  1.00  0.00     0.067 C 
ATOM      8  C   UNL A   1      33.893  23.672  23.438  1.00  0.00    -0.004 A 
ATOM      9  C   UNL A   1      35.005  22.920  23.774  1.00  0.00     0.032 A 
ATOM     10  C   UNL A   1      33.465  24.644  24.309  1.00  0.00     0.131 A 
ATOM     11  C   UNL A   1      35.668  23.132  24.954  1.00  0.00     0.108 A 
ATOM     12  C   UNL A   1      34.121  24.898  25.501  1.00  0.00     0.019 A 
ATOM     13  O   UNL A   1      32.298  25.304  24.016  1.00  0.00    -0.475 OA
ATOM     14  C   UNL A   1      35.232  24.121  25.811  1.00  0.00     0.036 A 
ATOM     15  C   UNL A   1      33.568  25.920  26.374  1.00  0.00     0.025 C 
ATOM     16  C   UNL A   1      32.166  26.669  24.505  1.00  0.00     0.314 C 
BRANCH   8  17
ATOM     17  C   UNL A   1      33.154  23.441  22.130  1.00  0.00     0.036 C 
ATOM     18  C   UNL A   1      32.432  22.104  22.186  1.00  0.00     0.009 C 
ENDBRANCH   8  17
BRANCH  11  19
ATOM     19  S   UNL A   1      37.105  22.120  25.386  1.00  0.00     0.310 S 
ATOM     20  F   UNL A   1      37.314  21.655  23.884  1.00  0.00    -0.094 F 
ATOM     21  F   UNL A   1      36.143  20.885  25.562  1.00  0.00    -0.094 F 
ATOM     22  F   UNL A   1      38.337  21.249  25.763  1.00  0.00    -0.094 F 
ATOM     23  F   UNL A   1      38.068  23.331  25.069  1.00  0.00    -0.094 F 
ATOM     24  F   UNL A   1      35.877  22.986  24.893  1.00  0.00    -0.094 F 
ENDBRANCH  11  19
BRANCH  16  25
ATOM     25  C   UNL A   1      30.707  27.087  24.419  1.00  0.00     0.429 C 
ATOM     26  F   UNL A   1      30.251  26.853  23.191  1.00  0.00    -0.167 F 
ATOM     27  F   UNL A   1      29.993  26.388  25.297  1.00  0.00    -0.167 F 
ATOM     28  F   UNL A   1      30.601  28.384  24.691  1.00  0.00    -0.167 F 
ENDBRANCH  16  25
ENDBRANCH   4   7
ENDBRANCH   2   3
ENDBRANCH   1   2
BRANCH   1  29
ATOM     29  C   UNL A   1      35.291  29.739  28.046  1.00  0.00     0.118 C 
BRANCH  29  30
ATOM     30  N   UNL A   1      35.099  30.482  29.300  1.00  0.00    -0.352 N 
ATOM     31  C   UNL A   1      36.249  30.764  30.170  1.00  0.00     0.251 C 
ATOM     32  H   UNL A   1      34.200  30.790  29.556  1.00  0.00     0.163 HD
ATOM     33  O   UNL A   1      36.083  31.408  31.254  1.00  0.00    -0.269 OA
BRANCH  31  34
ATOM     34  C   UNL A   1      37.638  30.288  29.774  1.00  0.00     0.039 A 
ATOM     35  C   UNL A   1      38.083  30.445  28.472  1.00  0.00     0.014 A 
ATOM     36  C   UNL A   1      38.405  29.730  30.702  1.00  0.00     0.014 A 
ATOM     37  C   UNL A   1      39.256  29.713  28.175  1.00  0.00     0.010 A 
ATOM     38  C   UNL A   1      39.604  29.151  30.362  1.00  0.00     0.010 A 
ATOM     39  C   UNL A   1      40.078  29.216  29.081  1.00  0.00    -0.014 A 
BRANCH  39  40
ATOM     40  C   UNL A   1      41.477  28.744  28.719  1.00  0.00     0.031 A 
ATOM     41  C   UNL A   1      42.512  29.680  28.745  1.00  0.00     0.074 A 
ATOM     42  C   UNL A   1      41.646  27.411  28.384  1.00  0.00     0.049 A 
ATOM     43  N   UNL A   1      43.806  29.469  28.495  1.00  0.00    -0.248 NA
ATOM     44  C   UNL A   1      42.329  31.103  29.066  1.00  0.00     0.031 C 
ATOM     45  C   UNL A   1      40.609  26.459  28.364  1.00  0.00     0.029 A 
ATOM     46  N   UNL A   1      42.811  26.774  28.017  1.00  0.00    -0.354 N 
ATOM     47  C   UNL A   1      44.493  30.604  28.638  1.00  0.00     0.074 A 
ATOM     48  C   UNL A   1      43.552  31.673  29.001  1.00  0.00     0.031 C 
ATOM     49  C   UNL A   1      41.137  25.267  27.980  1.00  0.00     0.029 A 
ATOM     50  C   UNL A   1      42.514  25.454  27.754  1.00  0.00     0.049 A 
ATOM     51  H   UNL A   1      43.701  27.189  27.954  1.00  0.00     0.167 HD
ATOM     52  C   UNL A   1      45.867  30.791  28.480  1.00  0.00     0.037 A 
ATOM     53  C   UNL A   1      43.381  24.457  27.338  1.00  0.00     0.037 A 
ATOM     54  C   UNL A   1      46.741  29.782  28.106  1.00  0.00     0.049 A 
ATOM     55  C   UNL A   1      44.747  24.656  27.124  1.00  0.00     0.074 A 
ATOM     56  C   UNL A   1      48.130  29.951  27.950  1.00  0.00     0.029 A 
ATOM     57  N   UNL A   1      46.440  28.470  27.819  1.00  0.00    -0.354 N 
ATOM     58  N   UNL A   1      45.440  25.781  27.303  1.00  0.00    -0.248 NA
ATOM     59  C   UNL A   1      45.669  23.614  26.650  1.00  0.00     0.031 C 
ATOM     60  C   UNL A   1      48.659  28.758  27.566  1.00  0.00     0.029 A 
ATOM     61  C   UNL A   1      47.609  27.826  27.474  1.00  0.00     0.049 A 
ATOM     62  H   UNL A   1      45.545  28.061  27.854  1.00  0.00     0.167 HD
ATOM     63  C   UNL A   1      46.727  25.580  27.014  1.00  0.00     0.074 A 
ATOM     64  C   UNL A   1      46.891  24.185  26.583  1.00  0.00     0.031 C 
ATOM     65  C   UNL A   1      47.772  26.502  27.096  1.00  0.00     0.037 A 
BRANCH  52  66
ATOM     66  C   UNL A   1      46.438  32.177  28.735  1.00  0.00     0.057 A 
ATOM     67  C   UNL A   1      46.842  32.491  30.022  1.00  0.00     0.134 A 
ATOM     68  C   UNL A   1      46.519  33.064  27.751  1.00  0.00     0.134 A 
ATOM     69  F   UNL A   1      47.017  31.577  30.971  1.00  0.00    -0.206 F 
ATOM     70  C   UNL A   1      47.051  33.875  30.234  1.00  0.00     0.040 A 
ATOM     71  C   UNL A   1      46.862  34.369  28.012  1.00  0.00     0.040 A 
ATOM     72  F   UNL A   1      46.266  32.687  26.500  1.00  0.00    -0.206 F 
ATOM     73  C   UNL A   1      47.216  34.764  29.272  1.00  0.00     0.006 A 
ENDBRANCH  52  66
BRANCH  53  74
ATOM     74  C   UNL A   1      42.814  23.067  27.099  1.00  0.00     0.057 A 
ATOM     75  C   UNL A   1      42.503  22.705  25.799  1.00  0.00     0.134 A 
ATOM     76  C   UNL A   1      42.642  22.221  28.109  1.00  0.00     0.134 A 
ATOM     77  F   UNL A   1      42.887  23.409  24.738  1.00  0.00    -0.206 F 
ATOM     78  C   UNL A   1      41.737  21.519  25.702  1.00  0.00     0.040 A 
ATOM     79  C   UNL A   1      42.006  21.019  27.915  1.00  0.00     0.040 A 
ATOM     80  F   UNL A   1      43.090  22.542  29.320  1.00  0.00    -0.206 F 
ATOM     81  C   UNL A   1      41.618  20.623  26.665  1.00  0.00     0.006 A 
ENDBRANCH  53  74
BRANCH  65  82
ATOM     82  C   UNL A   1      49.173  26.026  26.750  1.00  0.00     0.057 A 
ATOM     83  C   UNL A   1      49.946  25.404  27.717  1.00  0.00     0.134 A 
ATOM     84  C   UNL A   1      49.633  26.218  25.519  1.00  0.00     0.134 A 
ATOM     85  F   UNL A   1      49.450  24.966  28.871  1.00  0.00    -0.206 F 
ATOM     86  C   UNL A   1      51.310  25.274  27.365  1.00  0.00     0.040 A 
ATOM     87  C   UNL A   1      50.944  25.942  25.211  1.00  0.00     0.040 A 
ATOM     88  F   UNL A   1      48.818  26.680  24.576  1.00  0.00    -0.206 F 
ATOM     89  C   UNL A   1      51.780  25.381  26.135  1.00  0.00     0.006 A 
ENDBRANCH  65  82
ENDBRANCH  39  40
ENDBRANCH  31  34
ENDBRANCH  29  30
ENDBRANCH   1  29
TORSDOF 13
ENDMDL
