MODEL 1
REMARK VINA RESULT:     -11.8      0.000      0.000
REMARK SMILES Cc1cc(C(=O)Nc2nc(CC(=O)NCCCNC(=O)c3ccc(-c4c5nc(c(-c6c(F)cccc6F)c6ccc([nH]6)c(-c6c(F)cccc6F)c6nc(c(-c7c(F)cccc7F)c7ccc4[nH]7)C=C6)C=C5)cc3)cs2)sc1C
REMARK SMILES IDX 15 1 14 2 12 3 13 4 11 6 10 7 8 8 9 9 76 10 75 11 7 12 5 13
REMARK SMILES IDX 6 14 4 16 1 17 2 18 3 19 78 20 77 21 79 22 16 23 17 24 18 25
REMARK SMILES IDX 19 26 20 28 21 29 22 30 74 31 23 32 73 33 24 34 25 35 26 36
REMARK SMILES IDX 67 37 27 38 72 39 66 40 68 41 28 42 71 43 65 44 64 45 29 47
REMARK SMILES IDX 55 48 38 49 54 50 39 51 42 52 53 53 69 54 40 55 41 56 52 58
REMARK SMILES IDX 70 59 43 60 30 61 31 62 36 63 32 64 33 65 35 66 37 67 34 68
REMARK SMILES IDX 56 69 57 70 62 71 58 72 59 73 61 74 63 75 60 76 44 77 45 78
REMARK SMILES IDX 50 79 46 80 47 81 49 82 51 83 48 84
REMARK H PARENT 14 5 7 15 18 27 68 46 42 57
REMARK Flexibility Score: inf
ROOT
ATOM      1  C   UNL A   1      36.451  20.517  25.011  1.00  0.00     0.117 C 
ENDROOT
BRANCH   1   2
ATOM      2  N   UNL A   1      36.621  21.738  25.782  1.00  0.00    -0.356 N 
ATOM      3  C   UNL A   1      36.461  23.032  25.379  1.00  0.00     0.226 C 
ATOM      4  O   UNL A   1      36.748  23.932  26.171  1.00  0.00    -0.275 OA
ATOM      5  H   UNL A   1      36.885  21.613  26.722  1.00  0.00     0.163 HD
BRANCH   3   6
ATOM      6  C   UNL A   1      35.916  23.340  24.002  1.00  0.00     0.157 C 
BRANCH   6   7
ATOM      7  C   UNL A   1      34.456  23.062  23.888  1.00  0.00     0.063 A 
ATOM      8  C   UNL A   1      32.469  22.763  24.793  1.00  0.00     0.189 A 
ATOM      9  N   UNL A   1      33.742  22.873  25.063  1.00  0.00    -0.224 NA
ATOM     10  S   UNL A   1      32.058  22.626  23.145  1.00  0.00    -0.105 S 
ATOM     11  C   UNL A   1      33.691  22.988  22.737  1.00  0.00     0.093 A 
BRANCH   8  12
ATOM     12  N   UNL A   1      31.419  22.738  25.657  1.00  0.00    -0.297 N 
ATOM     13  C   UNL A   1      30.830  23.819  26.277  1.00  0.00     0.267 C 
ATOM     14  O   UNL A   1      30.193  23.562  27.305  1.00  0.00    -0.268 OA
ATOM     15  H   UNL A   1      31.038  21.854  25.861  1.00  0.00     0.172 HD
BRANCH  13  16
ATOM     16  C   UNL A   1      30.848  25.176  25.724  1.00  0.00     0.093 A 
ATOM     17  C   UNL A   1      29.594  27.745  23.251  1.00  0.00     0.045 C 
ATOM     18  C   UNL A   1      30.294  27.024  24.354  1.00  0.00    -0.037 A 
ATOM     19  C   UNL A   1      30.046  25.651  24.696  1.00  0.00     0.029 A 
ATOM     20  C   UNL A   1      31.244  27.567  25.202  1.00  0.00     0.005 A 
ATOM     21  S   UNL A   1      32.049  26.344  26.076  1.00  0.00    -0.135 S 
ATOM     22  C   UNL A   1      31.676  28.984  25.368  1.00  0.00     0.056 C 
ENDBRANCH  13  16
ENDBRANCH   8  12
ENDBRANCH   6   7
ENDBRANCH   3   6
ENDBRANCH   1   2
BRANCH   1  23
ATOM     23  C   UNL A   1      37.776  19.797  24.772  1.00  0.00     0.042 C 
BRANCH  23  24
ATOM     24  C   UNL A   1      38.879  20.157  25.763  1.00  0.00     0.118 C 
BRANCH  24  25
ATOM     25  N   UNL A   1      39.931  19.154  25.823  1.00  0.00    -0.352 N 
ATOM     26  C   UNL A   1      41.274  19.293  26.056  1.00  0.00     0.251 C 
ATOM     27  H   UNL A   1      39.629  18.230  25.672  1.00  0.00     0.163 HD
ATOM     28  O   UNL A   1      42.019  18.325  25.887  1.00  0.00    -0.269 OA
BRANCH  26  29
ATOM     29  C   UNL A   1      41.849  20.586  26.487  1.00  0.00     0.039 A 
ATOM     30  C   UNL A   1      42.278  21.486  25.507  1.00  0.00     0.014 A 
ATOM     31  C   UNL A   1      42.003  20.904  27.840  1.00  0.00     0.014 A 
ATOM     32  C   UNL A   1      42.796  22.729  25.879  1.00  0.00     0.010 A 
ATOM     33  C   UNL A   1      42.459  22.170  28.210  1.00  0.00     0.010 A 
ATOM     34  C   UNL A   1      42.855  23.097  27.233  1.00  0.00    -0.014 A 
BRANCH  34  35
ATOM     35  C   UNL A   1      43.292  24.457  27.639  1.00  0.00     0.031 A 
ATOM     36  C   UNL A   1      42.284  25.501  28.031  1.00  0.00     0.074 A 
ATOM     37  C   UNL A   1      44.600  24.773  27.584  1.00  0.00     0.049 A 
ATOM     38  N   UNL A   1      42.478  26.759  28.343  1.00  0.00    -0.248 NA
ATOM     39  C   UNL A   1      40.874  25.087  28.050  1.00  0.00     0.031 C 
ATOM     40  C   UNL A   1      45.672  23.863  27.174  1.00  0.00     0.029 A 
ATOM     41  N   UNL A   1      45.251  25.950  27.858  1.00  0.00    -0.354 N 
ATOM     42  C   UNL A   1      41.217  27.288  28.581  1.00  0.00     0.074 A 
ATOM     43  C   UNL A   1      40.262  26.228  28.336  1.00  0.00     0.031 C 
ATOM     44  C   UNL A   1      46.846  24.510  27.235  1.00  0.00     0.029 A 
ATOM     45  C   UNL A   1      46.608  25.889  27.652  1.00  0.00     0.049 A 
ATOM     46  H   UNL A   1      44.789  26.760  28.173  1.00  0.00     0.167 HD
ATOM     47  C   UNL A   1      40.886  28.539  28.983  1.00  0.00     0.037 A 
ATOM     48  C   UNL A   1      47.554  26.839  27.769  1.00  0.00     0.037 A 
ATOM     49  C   UNL A   1      41.839  29.585  29.250  1.00  0.00     0.049 A 
ATOM     50  C   UNL A   1      47.161  28.221  28.211  1.00  0.00     0.074 A 
ATOM     51  C   UNL A   1      41.606  30.858  29.741  1.00  0.00     0.029 A 
ATOM     52  N   UNL A   1      43.206  29.483  29.038  1.00  0.00    -0.354 N 
ATOM     53  N   UNL A   1      45.972  28.685  28.508  1.00  0.00    -0.248 NA
ATOM     54  C   UNL A   1      48.241  29.209  28.333  1.00  0.00     0.031 C 
ATOM     55  C   UNL A   1      42.826  31.543  29.780  1.00  0.00     0.029 A 
ATOM     56  C   UNL A   1      43.825  30.681  29.357  1.00  0.00     0.049 A 
ATOM     57  H   UNL A   1      43.668  28.677  28.710  1.00  0.00     0.167 HD
ATOM     58  C   UNL A   1      46.161  30.012  28.868  1.00  0.00     0.074 A 
ATOM     59  C   UNL A   1      47.582  30.274  28.770  1.00  0.00     0.031 C 
ATOM     60  C   UNL A   1      45.239  30.932  29.244  1.00  0.00     0.037 A 
BRANCH  47  61
ATOM     61  C   UNL A   1      39.427  28.848  29.157  1.00  0.00     0.057 A 
ATOM     62  C   UNL A   1      38.782  28.706  30.393  1.00  0.00     0.134 A 
ATOM     63  C   UNL A   1      38.666  29.330  28.084  1.00  0.00     0.134 A 
ATOM     64  F   UNL A   1      39.449  28.240  31.459  1.00  0.00    -0.206 F 
ATOM     65  C   UNL A   1      37.427  29.006  30.549  1.00  0.00     0.040 A 
ATOM     66  C   UNL A   1      37.317  29.659  28.233  1.00  0.00     0.040 A 
ATOM     67  F   UNL A   1      39.223  29.499  26.875  1.00  0.00    -0.206 F 
ATOM     68  C   UNL A   1      36.692  29.490  29.468  1.00  0.00     0.006 A 
ENDBRANCH  47  61
BRANCH  48  69
ATOM     69  C   UNL A   1      48.970  26.510  27.471  1.00  0.00     0.057 A 
ATOM     70  C   UNL A   1      49.839  26.086  28.481  1.00  0.00     0.134 A 
ATOM     71  C   UNL A   1      49.482  26.600  26.172  1.00  0.00     0.134 A 
ATOM     72  F   UNL A   1      49.410  25.997  29.749  1.00  0.00    -0.206 F 
ATOM     73  C   UNL A   1      51.173  25.773  28.214  1.00  0.00     0.040 A 
ATOM     74  C   UNL A   1      50.807  26.269  25.886  1.00  0.00     0.040 A 
ATOM     75  F   UNL A   1      48.697  26.993  25.159  1.00  0.00    -0.206 F 
ATOM     76  C   UNL A   1      51.658  25.858  26.910  1.00  0.00     0.006 A 
ENDBRANCH  48  69
BRANCH  60  77
ATOM     77  C   UNL A   1      45.741  32.304  29.587  1.00  0.00     0.057 A 
ATOM     78  C   UNL A   1      45.803  33.324  28.631  1.00  0.00     0.134 A 
ATOM     79  C   UNL A   1      46.129  32.619  30.896  1.00  0.00     0.134 A 
ATOM     80  F   UNL A   1      45.460  33.083  27.356  1.00  0.00    -0.206 F 
ATOM     81  C   UNL A   1      46.254  34.604  28.958  1.00  0.00     0.040 A 
ATOM     82  C   UNL A   1      46.557  33.901  31.241  1.00  0.00     0.040 A 
ATOM     83  F   UNL A   1      46.086  31.688  31.862  1.00  0.00    -0.206 F 
ATOM     84  C   UNL A   1      46.624  34.897  30.270  1.00  0.00     0.006 A 
ENDBRANCH  60  77
ENDBRANCH  34  35
ENDBRANCH  26  29
ENDBRANCH  24  25
ENDBRANCH  23  24
ENDBRANCH   1  23
TORSDOF 13
ENDMDL
MODEL 2
REMARK VINA RESULT:     -11.8      1.318      2.039
REMARK SMILES Cc1cc(C(=O)Nc2nc(CC(=O)NCCCNC(=O)c3ccc(-c4c5nc(c(-c6c(F)cccc6F)c6ccc([nH]6)c(-c6c(F)cccc6F)c6nc(c(-c7c(F)cccc7F)c7ccc4[nH]7)C=C6)C=C5)cc3)cs2)sc1C
REMARK SMILES IDX 15 1 14 2 12 3 13 4 11 6 10 7 8 8 9 9 76 10 75 11 7 12 5 13
REMARK SMILES IDX 6 14 4 16 1 17 2 18 3 19 78 20 77 21 79 22 16 23 17 24 18 25
REMARK SMILES IDX 19 26 20 28 21 29 22 30 74 31 23 32 73 33 24 34 25 35 26 36
REMARK SMILES IDX 67 37 27 38 72 39 66 40 68 41 28 42 71 43 65 44 64 45 29 47
REMARK SMILES IDX 55 48 38 49 54 50 39 51 42 52 53 53 69 54 40 55 41 56 52 58
REMARK SMILES IDX 70 59 43 60 30 61 31 62 36 63 32 64 33 65 35 66 37 67 34 68
REMARK SMILES IDX 56 69 57 70 62 71 58 72 59 73 61 74 63 75 60 76 44 77 45 78
REMARK SMILES IDX 50 79 46 80 47 81 49 82 51 83 48 84
REMARK H PARENT 14 5 7 15 18 27 68 46 42 57
REMARK Flexibility Score: inf
ROOT
ATOM      1  C   UNL A   1      36.469  20.458  24.999  1.00  0.00     0.117 C 
ENDROOT
BRANCH   1   2
ATOM      2  N   UNL A   1      36.717  21.813  25.465  1.00  0.00    -0.356 N 
ATOM      3  C   UNL A   1      36.628  22.985  24.771  1.00  0.00     0.226 C 
ATOM      4  O   UNL A   1      36.974  24.027  25.334  1.00  0.00    -0.275 OA
ATOM      5  H   UNL A   1      36.983  21.895  26.410  1.00  0.00     0.163 HD
BRANCH   3   6
ATOM      6  C   UNL A   1      36.088  22.995  23.358  1.00  0.00     0.157 C 
BRANCH   6   7
ATOM      7  C   UNL A   1      34.644  23.359  23.299  1.00  0.00     0.063 A 
ATOM      8  C   UNL A   1      33.013  24.703  22.676  1.00  0.00     0.189 A 
ATOM      9  N   UNL A   1      34.311  24.595  22.764  1.00  0.00    -0.224 NA
ATOM     10  S   UNL A   1      32.102  23.478  23.433  1.00  0.00    -0.105 S 
ATOM     11  C   UNL A   1      33.558  22.598  23.695  1.00  0.00     0.093 A 
BRANCH   8  12
ATOM     12  N   UNL A   1      32.283  25.670  22.058  1.00  0.00    -0.297 N 
ATOM     13  C   UNL A   1      31.645  26.736  22.655  1.00  0.00     0.267 C 
ATOM     14  O   UNL A   1      30.724  27.240  22.001  1.00  0.00    -0.268 OA
ATOM     15  H   UNL A   1      32.202  25.602  21.079  1.00  0.00     0.172 HD
BRANCH  13  16
ATOM     16  C   UNL A   1      32.073  27.324  23.928  1.00  0.00     0.093 A 
ATOM     17  C   UNL A   1      31.404  28.196  27.544  1.00  0.00     0.045 C 
ATOM     18  C   UNL A   1      32.007  28.003  26.194  1.00  0.00    -0.037 A 
ATOM     19  C   UNL A   1      31.338  27.345  25.105  1.00  0.00     0.029 A 
ATOM     20  C   UNL A   1      33.276  28.399  25.808  1.00  0.00     0.005 A 
ATOM     21  S   UNL A   1      33.451  28.321  24.114  1.00  0.00    -0.135 S 
ATOM     22  C   UNL A   1      34.400  28.930  26.632  1.00  0.00     0.056 C 
ENDBRANCH  13  16
ENDBRANCH   8  12
ENDBRANCH   6   7
ENDBRANCH   3   6
ENDBRANCH   1   2
BRANCH   1  23
ATOM     23  C   UNL A   1      37.764  19.683  24.765  1.00  0.00     0.042 C 
BRANCH  23  24
ATOM     24  C   UNL A   1      38.930  20.121  25.646  1.00  0.00     0.118 C 
BRANCH  24  25
ATOM     25  N   UNL A   1      39.955  19.096  25.773  1.00  0.00    -0.352 N 
ATOM     26  C   UNL A   1      41.297  19.212  26.021  1.00  0.00     0.251 C 
ATOM     27  H   UNL A   1      39.631  18.173  25.666  1.00  0.00     0.163 HD
ATOM     28  O   UNL A   1      42.019  18.218  25.913  1.00  0.00    -0.269 OA
BRANCH  26  29
ATOM     29  C   UNL A   1      41.900  20.510  26.395  1.00  0.00     0.039 A 
ATOM     30  C   UNL A   1      42.344  21.358  25.376  1.00  0.00     0.014 A 
ATOM     31  C   UNL A   1      42.065  20.883  27.732  1.00  0.00     0.014 A 
ATOM     32  C   UNL A   1      42.889  22.605  25.693  1.00  0.00     0.010 A 
ATOM     33  C   UNL A   1      42.548  22.153  28.046  1.00  0.00     0.010 A 
ATOM     34  C   UNL A   1      42.960  23.029  27.030  1.00  0.00    -0.014 A 
BRANCH  34  35
ATOM     35  C   UNL A   1      43.426  24.397  27.377  1.00  0.00     0.031 A 
ATOM     36  C   UNL A   1      42.452  25.447  27.831  1.00  0.00     0.074 A 
ATOM     37  C   UNL A   1      44.725  24.712  27.210  1.00  0.00     0.049 A 
ATOM     38  N   UNL A   1      42.667  26.709  28.106  1.00  0.00    -0.248 NA
ATOM     39  C   UNL A   1      41.048  25.032  27.973  1.00  0.00     0.031 C 
ATOM     40  C   UNL A   1      45.761  23.796  26.729  1.00  0.00     0.029 A 
ATOM     41  N   UNL A   1      45.393  25.894  27.410  1.00  0.00    -0.354 N 
ATOM     42  C   UNL A   1      41.429  27.242  28.436  1.00  0.00     0.074 A 
ATOM     43  C   UNL A   1      40.459  26.178  28.288  1.00  0.00     0.031 C 
ATOM     44  C   UNL A   1      46.935  24.445  26.684  1.00  0.00     0.029 A 
ATOM     45  C   UNL A   1      46.729  25.830  27.095  1.00  0.00     0.049 A 
ATOM     46  H   UNL A   1      44.957  26.709  27.748  1.00  0.00     0.167 HD
ATOM     47  C   UNL A   1      41.129  28.500  28.844  1.00  0.00     0.037 A 
ATOM     48  C   UNL A   1      47.680  26.783  27.119  1.00  0.00     0.037 A 
ATOM     49  C   UNL A   1      42.099  29.550  29.014  1.00  0.00     0.049 A 
ATOM     50  C   UNL A   1      47.322  28.171  27.568  1.00  0.00     0.074 A 
ATOM     51  C   UNL A   1      41.905  30.831  29.501  1.00  0.00     0.029 A 
ATOM     52  N   UNL A   1      43.444  29.445  28.693  1.00  0.00    -0.354 N 
ATOM     53  N   UNL A   1      46.160  28.640  27.953  1.00  0.00    -0.248 NA
ATOM     54  C   UNL A   1      48.406  29.162  27.585  1.00  0.00     0.031 C 
ATOM     55  C   UNL A   1      43.122  31.517  29.429  1.00  0.00     0.029 A 
ATOM     56  C   UNL A   1      44.085  30.649  28.941  1.00  0.00     0.049 A 
ATOM     57  H   UNL A   1      43.879  28.634  28.343  1.00  0.00     0.167 HD
ATOM     58  C   UNL A   1      46.375  29.973  28.275  1.00  0.00     0.074 A 
ATOM     59  C   UNL A   1      47.783  30.234  28.056  1.00  0.00     0.031 C 
ATOM     60  C   UNL A   1      45.485  30.898  28.709  1.00  0.00     0.037 A 
BRANCH  47  61
ATOM     61  C   UNL A   1      39.689  28.810  29.130  1.00  0.00     0.057 A 
ATOM     62  C   UNL A   1      39.139  28.658  30.410  1.00  0.00     0.134 A 
ATOM     63  C   UNL A   1      38.851  29.304  28.123  1.00  0.00     0.134 A 
ATOM     64  F   UNL A   1      39.884  28.182  31.419  1.00  0.00    -0.206 F 
ATOM     65  C   UNL A   1      37.801  28.961  30.671  1.00  0.00     0.040 A 
ATOM     66  C   UNL A   1      37.518  29.635  28.377  1.00  0.00     0.040 A 
ATOM     67  F   UNL A   1      39.314  29.482  26.876  1.00  0.00    -0.206 F 
ATOM     68  C   UNL A   1      36.988  29.457  29.654  1.00  0.00     0.006 A 
ENDBRANCH  47  61
BRANCH  48  69
ATOM     69  C   UNL A   1      49.067  26.449  26.713  1.00  0.00     0.057 A 
ATOM     70  C   UNL A   1      49.513  26.684  25.408  1.00  0.00     0.134 A 
ATOM     71  C   UNL A   1      49.981  25.900  27.620  1.00  0.00     0.134 A 
ATOM     72  F   UNL A   1      48.677  27.191  24.490  1.00  0.00    -0.206 F 
ATOM     73  C   UNL A   1      50.815  26.374  25.014  1.00  0.00     0.040 A 
ATOM     74  C   UNL A   1      51.293  25.607  27.246  1.00  0.00     0.040 A 
ATOM     75  F   UNL A   1      49.617  25.659  28.887  1.00  0.00    -0.206 F 
ATOM     76  C   UNL A   1      51.712  25.839  25.937  1.00  0.00     0.006 A 
ENDBRANCH  48  69
BRANCH  60  77
ATOM     77  C   UNL A   1      46.011  32.277  28.987  1.00  0.00     0.057 A 
ATOM     78  C   UNL A   1      46.554  32.618  30.231  1.00  0.00     0.134 A 
ATOM     79  C   UNL A   1      46.007  33.260  27.990  1.00  0.00     0.134 A 
ATOM     80  F   UNL A   1      46.573  31.727  31.233  1.00  0.00    -0.206 F 
ATOM     81  C   UNL A   1      47.058  33.896  30.481  1.00  0.00     0.040 A 
ATOM     82  C   UNL A   1      46.531  34.532  28.218  1.00  0.00     0.040 A 
ATOM     83  F   UNL A   1      45.507  32.994  26.773  1.00  0.00    -0.206 F 
ATOM     84  C   UNL A   1      47.055  34.855  29.468  1.00  0.00     0.006 A 
ENDBRANCH  60  77
ENDBRANCH  34  35
ENDBRANCH  26  29
ENDBRANCH  24  25
ENDBRANCH  23  24
ENDBRANCH   1  23
TORSDOF 13
ENDMDL
MODEL 3
REMARK VINA RESULT:     -11.7      5.109     10.052
REMARK SMILES Cc1cc(C(=O)Nc2nc(CC(=O)NCCCNC(=O)c3ccc(-c4c5nc(c(-c6c(F)cccc6F)c6ccc([nH]6)c(-c6c(F)cccc6F)c6nc(c(-c7c(F)cccc7F)c7ccc4[nH]7)C=C6)C=C5)cc3)cs2)sc1C
REMARK SMILES IDX 15 1 14 2 12 3 13 4 11 6 10 7 8 8 9 9 76 10 75 11 7 12 5 13
REMARK SMILES IDX 6 14 4 16 1 17 2 18 3 19 78 20 77 21 79 22 16 23 17 24 18 25
REMARK SMILES IDX 19 26 20 28 21 29 22 30 74 31 23 32 73 33 24 34 25 35 26 36
REMARK SMILES IDX 67 37 27 38 72 39 66 40 68 41 28 42 71 43 65 44 64 45 29 47
REMARK SMILES IDX 55 48 38 49 54 50 39 51 42 52 53 53 69 54 40 55 41 56 52 58
REMARK SMILES IDX 70 59 43 60 30 61 31 62 36 63 32 64 33 65 35 66 37 67 34 68
REMARK SMILES IDX 56 69 57 70 62 71 58 72 59 73 61 74 63 75 60 76 44 77 45 78
REMARK SMILES IDX 50 79 46 80 47 81 49 82 51 83 48 84
REMARK H PARENT 14 5 7 15 18 27 68 46 42 57
REMARK Flexibility Score: inf
ROOT
ATOM      1  C   UNL A   1      31.527  30.558  25.732  1.00  0.00     0.117 C 
ENDROOT
BRANCH   1   2
ATOM      2  N   UNL A   1      32.710  29.840  26.176  1.00  0.00    -0.356 N 
ATOM      3  C   UNL A   1      32.787  28.690  26.909  1.00  0.00     0.226 C 
ATOM      4  O   UNL A   1      33.901  28.295  27.262  1.00  0.00    -0.275 OA
ATOM      5  H   UNL A   1      33.572  30.236  25.912  1.00  0.00     0.163 HD
BRANCH   3   6
ATOM      6  C   UNL A   1      31.533  27.916  27.245  1.00  0.00     0.157 C 
BRANCH   6   7
ATOM      7  C   UNL A   1      31.291  26.782  26.308  1.00  0.00     0.063 A 
ATOM      8  C   UNL A   1      31.157  24.625  25.877  1.00  0.00     0.189 A 
ATOM      9  N   UNL A   1      31.532  25.498  26.773  1.00  0.00    -0.224 NA
ATOM     10  S   UNL A   1      30.732  25.251  24.350  1.00  0.00    -0.105 S 
ATOM     11  C   UNL A   1      30.821  26.839  25.007  1.00  0.00     0.093 A 
BRANCH   8  12
ATOM     12  N   UNL A   1      31.062  23.274  25.997  1.00  0.00    -0.297 N 
ATOM     13  C   UNL A   1      31.958  22.335  25.535  1.00  0.00     0.267 C 
ATOM     14  O   UNL A   1      31.503  21.196  25.376  1.00  0.00    -0.268 OA
ATOM     15  H   UNL A   1      30.267  22.929  26.465  1.00  0.00     0.172 HD
BRANCH  13  16
ATOM     16  C   UNL A   1      33.385  22.609  25.337  1.00  0.00     0.093 A 
ATOM     17  C   UNL A   1      36.391  22.949  23.071  1.00  0.00     0.045 C 
ATOM     18  C   UNL A   1      35.455  22.917  24.232  1.00  0.00    -0.037 A 
ATOM     19  C   UNL A   1      34.050  22.632  24.119  1.00  0.00     0.029 A 
ATOM     20  C   UNL A   1      35.788  23.173  25.551  1.00  0.00     0.005 A 
ATOM     21  S   UNL A   1      34.535  22.691  26.601  1.00  0.00    -0.135 S 
ATOM     22  C   UNL A   1      37.057  23.703  26.127  1.00  0.00     0.056 C 
ENDBRANCH  13  16
ENDBRANCH   8  12
ENDBRANCH   6   7
ENDBRANCH   3   6
ENDBRANCH   1   2
BRANCH   1  23
ATOM     23  C   UNL A   1      31.308  31.851  26.516  1.00  0.00     0.042 C 
BRANCH  23  24
ATOM     24  C   UNL A   1      32.576  32.444  27.121  1.00  0.00     0.118 C 
BRANCH  24  25
ATOM     25  N   UNL A   1      32.419  33.840  27.499  1.00  0.00    -0.352 N 
ATOM     26  C   UNL A   1      33.068  34.578  28.453  1.00  0.00     0.251 C 
ATOM     27  H   UNL A   1      31.738  34.333  26.986  1.00  0.00     0.163 HD
ATOM     28  O   UNL A   1      32.654  35.706  28.730  1.00  0.00    -0.269 OA
BRANCH  26  29
ATOM     29  C   UNL A   1      34.243  34.040  29.172  1.00  0.00     0.039 A 
ATOM     30  C   UNL A   1      34.029  33.165  30.242  1.00  0.00     0.014 A 
ATOM     31  C   UNL A   1      35.546  34.413  28.829  1.00  0.00     0.014 A 
ATOM     32  C   UNL A   1      35.117  32.613  30.922  1.00  0.00     0.010 A 
ATOM     33  C   UNL A   1      36.633  33.812  29.465  1.00  0.00     0.010 A 
ATOM     34  C   UNL A   1      36.429  32.902  30.514  1.00  0.00    -0.014 A 
BRANCH  34  35
ATOM     35  C   UNL A   1      37.594  32.233  31.148  1.00  0.00     0.031 A 
ATOM     36  C   UNL A   1      38.334  31.139  30.432  1.00  0.00     0.074 A 
ATOM     37  C   UNL A   1      37.940  32.565  32.408  1.00  0.00     0.049 A 
ATOM     38  N   UNL A   1      39.326  30.396  30.859  1.00  0.00    -0.248 NA
ATOM     39  C   UNL A   1      37.888  30.820  29.068  1.00  0.00     0.031 C 
ATOM     40  C   UNL A   1      37.270  33.577  33.227  1.00  0.00     0.029 A 
ATOM     41  N   UNL A   1      38.928  32.078  33.224  1.00  0.00    -0.354 N 
ATOM     42  C   UNL A   1      39.610  29.514  29.825  1.00  0.00     0.074 A 
ATOM     43  C   UNL A   1      38.661  29.785  28.767  1.00  0.00     0.031 C 
ATOM     44  C   UNL A   1      37.874  33.644  34.424  1.00  0.00     0.029 A 
ATOM     45  C   UNL A   1      38.948  32.656  34.470  1.00  0.00     0.049 A 
ATOM     46  H   UNL A   1      39.564  31.380  32.943  1.00  0.00     0.167 HD
ATOM     47  C   UNL A   1      40.586  28.576  29.758  1.00  0.00     0.037 A 
ATOM     48  C   UNL A   1      39.731  32.409  35.537  1.00  0.00     0.037 A 
ATOM     49  C   UNL A   1      41.544  28.324  30.802  1.00  0.00     0.049 A 
ATOM     50  C   UNL A   1      40.801  31.359  35.440  1.00  0.00     0.074 A 
ATOM     51  C   UNL A   1      42.620  27.453  30.793  1.00  0.00     0.029 A 
ATOM     52  N   UNL A   1      41.537  28.937  32.047  1.00  0.00    -0.354 N 
ATOM     53  N   UNL A   1      41.110  30.587  34.427  1.00  0.00    -0.248 NA
ATOM     54  C   UNL A   1      41.631  31.146  36.633  1.00  0.00     0.031 C 
ATOM     55  C   UNL A   1      43.235  27.502  32.049  1.00  0.00     0.029 A 
ATOM     56  C   UNL A   1      42.570  28.438  32.824  1.00  0.00     0.049 A 
ATOM     57  H   UNL A   1      40.894  29.625  32.333  1.00  0.00     0.167 HD
ATOM     58  C   UNL A   1      42.178  29.809  34.852  1.00  0.00     0.074 A 
ATOM     59  C   UNL A   1      42.476  30.215  36.210  1.00  0.00     0.031 C 
ATOM     60  C   UNL A   1      42.849  28.844  34.179  1.00  0.00     0.037 A 
BRANCH  47  61
ATOM     61  C   UNL A   1      40.662  27.745  28.509  1.00  0.00     0.057 A 
ATOM     62  C   UNL A   1      39.985  26.524  28.389  1.00  0.00     0.134 A 
ATOM     63  C   UNL A   1      41.391  28.190  27.399  1.00  0.00     0.134 A 
ATOM     64  F   UNL A   1      39.276  26.036  29.418  1.00  0.00    -0.206 F 
ATOM     65  C   UNL A   1      40.052  25.764  27.220  1.00  0.00     0.040 A 
ATOM     66  C   UNL A   1      41.444  27.452  26.215  1.00  0.00     0.040 A 
ATOM     67  F   UNL A   1      42.056  29.355  27.442  1.00  0.00    -0.206 F 
ATOM     68  C   UNL A   1      40.778  26.230  26.126  1.00  0.00     0.006 A 
ENDBRANCH  47  61
BRANCH  48  69
ATOM     69  C   UNL A   1      39.535  33.181  36.789  1.00  0.00     0.057 A 
ATOM     70  C   UNL A   1      38.607  32.770  37.752  1.00  0.00     0.134 A 
ATOM     71  C   UNL A   1      40.276  34.338  37.057  1.00  0.00     0.134 A 
ATOM     72  F   UNL A   1      37.855  31.679  37.543  1.00  0.00    -0.206 F 
ATOM     73  C   UNL A   1      38.414  33.488  38.933  1.00  0.00     0.040 A 
ATOM     74  C   UNL A   1      40.109  35.052  38.244  1.00  0.00     0.040 A 
ATOM     75  F   UNL A   1      41.186  34.779  36.176  1.00  0.00    -0.206 F 
ATOM     76  C   UNL A   1      39.172  34.630  39.184  1.00  0.00     0.006 A 
ENDBRANCH  48  69
BRANCH  60  77
ATOM     77  C   UNL A   1      43.980  28.167  34.898  1.00  0.00     0.057 A 
ATOM     78  C   UNL A   1      43.790  26.980  35.614  1.00  0.00     0.134 A 
ATOM     79  C   UNL A   1      45.279  28.688  34.841  1.00  0.00     0.134 A 
ATOM     80  F   UNL A   1      42.567  26.438  35.719  1.00  0.00    -0.206 F 
ATOM     81  C   UNL A   1      44.847  26.344  36.267  1.00  0.00     0.040 A 
ATOM     82  C   UNL A   1      46.349  28.049  35.467  1.00  0.00     0.040 A 
ATOM     83  F   UNL A   1      45.530  29.819  34.164  1.00  0.00    -0.206 F 
ATOM     84  C   UNL A   1      46.134  26.875  36.186  1.00  0.00     0.006 A 
ENDBRANCH  60  77
ENDBRANCH  34  35
ENDBRANCH  26  29
ENDBRANCH  24  25
ENDBRANCH  23  24
ENDBRANCH   1  23
TORSDOF 13
ENDMDL
