MODEL 1
REMARK VINA RESULT:     -10.3      0.000      0.000
REMARK SMILES CCc1ccsc1CNC(=O)N[C@@H](CCO)C(=O)NCCCNC(=O)c1ccc(-c2c3nc(c(-c4c(F)cccc4F)c4ccc([nH]4)c(-c4c(F)cccc4F)c4nc(c(-c5c(F)cccc5F)c5ccc2[nH]5)C=C4)C=C3)cc1
REMARK SMILES IDX 20 1 19 2 17 3 18 4 13 6 12 7 9 8 10 9 11 11 8 13 7 14 3 15
REMARK SMILES IDX 4 16 5 17 6 18 2 19 1 20 14 21 15 22 16 23 21 25 22 26 23 27
REMARK SMILES IDX 24 28 25 30 26 31 27 32 79 33 28 34 78 35 29 36 30 37 31 38
REMARK SMILES IDX 72 39 32 40 77 41 71 42 73 43 33 44 76 45 70 46 69 47 34 49
REMARK SMILES IDX 60 50 43 51 59 52 44 53 47 54 58 55 74 56 45 57 46 58 57 60
REMARK SMILES IDX 75 61 48 62 35 63 36 64 41 65 37 66 38 67 40 68 42 69 39 70
REMARK SMILES IDX 61 71 62 72 67 73 63 74 64 75 66 76 68 77 65 78 49 79 50 80
REMARK SMILES IDX 55 81 51 82 52 83 54 84 56 85 53 86
REMARK H PARENT 19 5 9 10 12 12 16 24 23 29 73 48 47 59
REMARK Flexibility Score: inf
ROOT
ATOM      1  C   UNL A   1      36.476  21.347  25.171  1.00  0.00     0.117 C 
ENDROOT
BRANCH   1   2
ATOM      2  N   UNL A   1      35.316  20.708  25.766  1.00  0.00    -0.354 N 
ATOM      3  C   UNL A   1      34.019  21.077  25.922  1.00  0.00     0.242 C 
ATOM      4  O   UNL A   1      33.255  20.170  26.270  1.00  0.00    -0.273 OA
ATOM      5  H   UNL A   1      35.511  19.817  26.135  1.00  0.00     0.163 HD
BRANCH   3   6
ATOM      6  C   UNL A   1      33.449  22.438  25.484  1.00  0.00     0.175 C 
BRANCH   6   7
ATOM      7  N   UNL A   1      32.902  22.485  24.130  1.00  0.00    -0.326 N 
ATOM      8  N   UNL A   1      33.804  24.426  23.126  1.00  0.00    -0.333 N 
ATOM      9  C   UNL A   1      33.189  23.244  23.066  1.00  0.00     0.315 C 
ATOM     10  H   UNL A   1      34.090  24.753  22.243  1.00  0.00     0.165 HD
ATOM     11  O   UNL A   1      32.840  22.820  21.963  1.00  0.00    -0.249 OA
ATOM     12  H   UNL A   1      32.184  21.831  23.970  1.00  0.00     0.166 HD
BRANCH   8  13
ATOM     13  C   UNL A   1      34.142  25.334  24.199  1.00  0.00     0.165 C 
BRANCH  13  14
ATOM     14  C   UNL A   1      33.724  26.756  23.906  1.00  0.00     0.027 A 
ATOM     15  C   UNL A   1      33.473  27.760  24.843  1.00  0.00    -0.033 A 
ATOM     16  C   UNL A   1      33.076  28.979  24.192  1.00  0.00     0.016 A 
ATOM     17  C   UNL A   1      33.056  28.875  22.822  1.00  0.00     0.065 A 
ATOM     18  S   UNL A   1      33.520  27.327  22.297  1.00  0.00    -0.147 S 
BRANCH  15  19
ATOM     19  C   UNL A   1      33.616  27.570  26.334  1.00  0.00     0.033 C 
ATOM     20  C   UNL A   1      33.102  28.712  27.195  1.00  0.00     0.009 C 
ENDBRANCH  15  19
ENDBRANCH  13  14
ENDBRANCH   8  13
ENDBRANCH   6   7
BRANCH   6  21
ATOM     21  C   UNL A   1      32.510  23.073  26.525  1.00  0.00     0.063 C 
BRANCH  21  22
ATOM     22  C   UNL A   1      31.011  23.042  26.243  1.00  0.00     0.158 C 
BRANCH  22  23
ATOM     23  O   UNL A   1      30.504  21.723  26.108  1.00  0.00    -0.396 OA
ATOM     24  H   UNL A   1      30.283  21.371  26.984  1.00  0.00     0.210 HD
ENDBRANCH  22  23
ENDBRANCH  21  22
ENDBRANCH   6  21
ENDBRANCH   3   6
ENDBRANCH   1   2
BRANCH   1  25
ATOM     25  C   UNL A   1      37.626  20.381  24.954  1.00  0.00     0.042 C 
BRANCH  25  26
ATOM     26  C   UNL A   1      38.887  20.750  25.723  1.00  0.00     0.118 C 
BRANCH  26  27
ATOM     27  N   UNL A   1      39.876  19.679  25.754  1.00  0.00    -0.352 N 
ATOM     28  C   UNL A   1      41.216  19.717  26.060  1.00  0.00     0.251 C 
ATOM     29  H   UNL A   1      39.531  18.788  25.518  1.00  0.00     0.163 HD
ATOM     30  O   UNL A   1      41.922  18.733  25.862  1.00  0.00    -0.269 OA
BRANCH  28  31
ATOM     31  C   UNL A   1      41.808  20.955  26.598  1.00  0.00     0.039 A 
ATOM     32  C   UNL A   1      42.289  21.924  25.715  1.00  0.00     0.014 A 
ATOM     33  C   UNL A   1      41.858  21.170  27.976  1.00  0.00     0.014 A 
ATOM     34  C   UNL A   1      42.734  23.149  26.215  1.00  0.00     0.010 A 
ATOM     35  C   UNL A   1      42.192  22.426  28.461  1.00  0.00     0.010 A 
ATOM     36  C   UNL A   1      42.641  23.427  27.588  1.00  0.00    -0.014 A 
BRANCH  36  37
ATOM     37  C   UNL A   1      43.022  24.747  28.148  1.00  0.00     0.031 A 
ATOM     38  C   UNL A   1      41.959  25.782  28.402  1.00  0.00     0.074 A 
ATOM     39  C   UNL A   1      44.321  25.047  28.339  1.00  0.00     0.049 A 
ATOM     40  N   UNL A   1      42.090  27.036  28.753  1.00  0.00    -0.248 NA
ATOM     41  C   UNL A   1      40.563  25.363  28.188  1.00  0.00     0.031 C 
ATOM     42  C   UNL A   1      45.450  24.153  28.070  1.00  0.00     0.029 A 
ATOM     43  N   UNL A   1      44.913  26.200  28.791  1.00  0.00    -0.354 N 
ATOM     44  C   UNL A   1      40.802  27.557  28.771  1.00  0.00     0.074 A 
ATOM     45  C   UNL A   1      39.911  26.506  28.336  1.00  0.00     0.031 C 
ATOM     46  C   UNL A   1      46.594  24.781  28.387  1.00  0.00     0.029 A 
ATOM     47  C   UNL A   1      46.285  26.132  28.841  1.00  0.00     0.049 A 
ATOM     48  H   UNL A   1      44.403  27.000  29.053  1.00  0.00     0.167 HD
ATOM     49  C   UNL A   1      40.395  28.792  29.144  1.00  0.00     0.037 A 
ATOM     50  C   UNL A   1      47.190  27.059  29.207  1.00  0.00     0.037 A 
ATOM     51  C   UNL A   1      41.279  29.819  29.627  1.00  0.00     0.049 A 
ATOM     52  C   UNL A   1      46.708  28.413  29.653  1.00  0.00     0.074 A 
ATOM     53  C   UNL A   1      40.962  31.081  30.095  1.00  0.00     0.029 A 
ATOM     54  N   UNL A   1      42.657  29.691  29.715  1.00  0.00    -0.354 N 
ATOM     55  N   UNL A   1      45.483  28.873  29.720  1.00  0.00    -0.248 NA
ATOM     56  C   UNL A   1      47.736  29.373  30.080  1.00  0.00     0.031 C 
ATOM     57  C   UNL A   1      42.152  31.729  30.440  1.00  0.00     0.029 A 
ATOM     58  C   UNL A   1      43.206  30.855  30.225  1.00  0.00     0.049 A 
ATOM     59  H   UNL A   1      43.169  28.892  29.455  1.00  0.00     0.167 HD
ATOM     60  C   UNL A   1      45.589  30.163  30.222  1.00  0.00     0.074 A 
ATOM     61  C   UNL A   1      46.997  30.407  30.455  1.00  0.00     0.031 C 
ATOM     62  C   UNL A   1      44.610  31.068  30.465  1.00  0.00     0.037 A 
BRANCH  49  63
ATOM     63  C   UNL A   1      38.926  29.089  29.068  1.00  0.00     0.057 A 
ATOM     64  C   UNL A   1      38.094  28.979  30.191  1.00  0.00     0.134 A 
ATOM     65  C   UNL A   1      38.341  29.512  27.869  1.00  0.00     0.134 A 
ATOM     66  F   UNL A   1      38.589  28.563  31.365  1.00  0.00    -0.206 F 
ATOM     67  C   UNL A   1      36.728  29.254  30.117  1.00  0.00     0.040 A 
ATOM     68  C   UNL A   1      36.980  29.817  27.789  1.00  0.00     0.040 A 
ATOM     69  F   UNL A   1      39.081  29.643  26.758  1.00  0.00    -0.206 F 
ATOM     70  C   UNL A   1      36.169  29.681  28.913  1.00  0.00     0.006 A 
ENDBRANCH  49  63
BRANCH  50  71
ATOM     71  C   UNL A   1      48.638  26.736  29.197  1.00  0.00     0.057 A 
ATOM     72  C   UNL A   1      49.422  26.977  28.061  1.00  0.00     0.134 A 
ATOM     73  C   UNL A   1      49.271  26.166  30.307  1.00  0.00     0.134 A 
ATOM     74  F   UNL A   1      48.867  27.506  26.960  1.00  0.00    -0.206 F 
ATOM     75  C   UNL A   1      50.775  26.642  28.021  1.00  0.00     0.040 A 
ATOM     76  C   UNL A   1      50.631  25.848  30.289  1.00  0.00     0.040 A 
ATOM     77  F   UNL A   1      48.579  25.918  31.428  1.00  0.00    -0.206 F 
ATOM     78  C   UNL A   1      51.384  26.078  29.140  1.00  0.00     0.006 A 
ENDBRANCH  50  71
BRANCH  62  79
ATOM     79  C   UNL A   1      45.023  32.384  31.050  1.00  0.00     0.057 A 
ATOM     80  C   UNL A   1      45.126  32.578  32.432  1.00  0.00     0.134 A 
ATOM     81  C   UNL A   1      45.365  33.456  30.215  1.00  0.00     0.134 A 
ATOM     82  F   UNL A   1      44.801  31.593  33.284  1.00  0.00    -0.206 F 
ATOM     83  C   UNL A   1      45.536  33.800  32.967  1.00  0.00     0.040 A 
ATOM     84  C   UNL A   1      45.799  34.675  30.737  1.00  0.00     0.040 A 
ATOM     85  F   UNL A   1      45.295  33.331  28.882  1.00  0.00    -0.206 F 
ATOM     86  C   UNL A   1      45.880  34.850  32.118  1.00  0.00     0.006 A 
ENDBRANCH  62  79
ENDBRANCH  36  37
ENDBRANCH  28  31
ENDBRANCH  26  27
ENDBRANCH  25  26
ENDBRANCH   1  25
TORSDOF 17
ENDMDL
MODEL 2
REMARK VINA RESULT:     -10.3      2.650      7.314
REMARK SMILES CCc1ccsc1CNC(=O)N[C@@H](CCO)C(=O)NCCCNC(=O)c1ccc(-c2c3nc(c(-c4c(F)cccc4F)c4ccc([nH]4)c(-c4c(F)cccc4F)c4nc(c(-c5c(F)cccc5F)c5ccc2[nH]5)C=C4)C=C3)cc1
REMARK SMILES IDX 20 1 19 2 17 3 18 4 13 6 12 7 9 8 10 9 11 11 8 13 7 14 3 15
REMARK SMILES IDX 4 16 5 17 6 18 2 19 1 20 14 21 15 22 16 23 21 25 22 26 23 27
REMARK SMILES IDX 24 28 25 30 26 31 27 32 79 33 28 34 78 35 29 36 30 37 31 38
REMARK SMILES IDX 72 39 32 40 77 41 71 42 73 43 33 44 76 45 70 46 69 47 34 49
REMARK SMILES IDX 60 50 43 51 59 52 44 53 47 54 58 55 74 56 45 57 46 58 57 60
REMARK SMILES IDX 75 61 48 62 35 63 36 64 41 65 37 66 38 67 40 68 42 69 39 70
REMARK SMILES IDX 61 71 62 72 67 73 63 74 64 75 66 76 68 77 65 78 49 79 50 80
REMARK SMILES IDX 55 81 51 82 52 83 54 84 56 85 53 86
REMARK H PARENT 19 5 9 10 12 12 16 24 23 29 73 48 47 59
REMARK Flexibility Score: inf
ROOT
ATOM      1  C   UNL A   1      32.208  26.658  26.428  1.00  0.00     0.117 C 
ENDROOT
BRANCH   1   2
ATOM      2  N   UNL A   1      31.187  26.397  25.429  1.00  0.00    -0.354 N 
ATOM      3  C   UNL A   1      31.073  26.687  24.108  1.00  0.00     0.242 C 
ATOM      4  O   UNL A   1      30.160  26.096  23.520  1.00  0.00    -0.273 OA
ATOM      5  H   UNL A   1      30.414  25.904  25.785  1.00  0.00     0.163 HD
BRANCH   3   6
ATOM      6  C   UNL A   1      32.111  27.491  23.307  1.00  0.00     0.175 C 
BRANCH   6   7
ATOM      7  N   UNL A   1      32.524  26.898  22.038  1.00  0.00    -0.326 N 
ATOM      8  N   UNL A   1      33.715  24.932  22.589  1.00  0.00    -0.333 N 
ATOM      9  C   UNL A   1      33.063  25.713  21.728  1.00  0.00     0.315 C 
ATOM     10  H   UNL A   1      33.883  24.029  22.236  1.00  0.00     0.165 HD
ATOM     11  O   UNL A   1      32.960  25.337  20.558  1.00  0.00    -0.249 OA
ATOM     12  H   UNL A   1      32.376  27.483  21.259  1.00  0.00     0.166 HD
BRANCH   8  13
ATOM     13  C   UNL A   1      34.232  25.117  23.928  1.00  0.00     0.165 C 
BRANCH  13  14
ATOM     14  C   UNL A   1      34.282  23.827  24.711  1.00  0.00     0.027 A 
ATOM     15  C   UNL A   1      35.429  23.152  25.133  1.00  0.00    -0.033 A 
ATOM     16  C   UNL A   1      35.083  21.946  25.836  1.00  0.00     0.016 A 
ATOM     17  C   UNL A   1      33.727  21.756  25.942  1.00  0.00     0.065 A 
ATOM     18  S   UNL A   1      32.851  23.016  25.213  1.00  0.00    -0.147 S 
BRANCH  15  19
ATOM     19  C   UNL A   1      36.833  23.648  24.882  1.00  0.00     0.033 C 
ATOM     20  C   UNL A   1      37.748  23.673  26.096  1.00  0.00     0.009 C 
ENDBRANCH  15  19
ENDBRANCH  13  14
ENDBRANCH   8  13
ENDBRANCH   6   7
BRANCH   6  21
ATOM     21  C   UNL A   1      31.763  28.985  23.177  1.00  0.00     0.063 C 
BRANCH  21  22
ATOM     22  C   UNL A   1      30.461  29.353  22.472  1.00  0.00     0.158 C 
BRANCH  22  23
ATOM     23  O   UNL A   1      30.669  30.119  21.295  1.00  0.00    -0.396 OA
ATOM     24  H   UNL A   1      31.615  30.305  21.194  1.00  0.00     0.210 HD
ENDBRANCH  22  23
ENDBRANCH  21  22
ENDBRANCH   6  21
ENDBRANCH   3   6
ENDBRANCH   1   2
BRANCH   1  25
ATOM     25  C   UNL A   1      32.231  28.109  26.872  1.00  0.00     0.042 C 
BRANCH  25  26
ATOM     26  C   UNL A   1      33.633  28.648  27.122  1.00  0.00     0.118 C 
BRANCH  26  27
ATOM     27  N   UNL A   1      33.640  30.004  27.661  1.00  0.00    -0.352 N 
ATOM     28  C   UNL A   1      34.623  30.684  28.339  1.00  0.00     0.251 C 
ATOM     29  H   UNL A   1      32.810  30.512  27.518  1.00  0.00     0.163 HD
ATOM     30  O   UNL A   1      34.376  31.765  28.864  1.00  0.00    -0.269 OA
BRANCH  28  31
ATOM     31  C   UNL A   1      35.970  30.094  28.459  1.00  0.00     0.039 A 
ATOM     32  C   UNL A   1      36.871  30.227  27.401  1.00  0.00     0.014 A 
ATOM     33  C   UNL A   1      36.350  29.439  29.631  1.00  0.00     0.014 A 
ATOM     34  C   UNL A   1      38.185  29.783  27.558  1.00  0.00     0.010 A 
ATOM     35  C   UNL A   1      37.680  29.103  29.827  1.00  0.00     0.010 A 
ATOM     36  C   UNL A   1      38.613  29.263  28.792  1.00  0.00    -0.014 A 
BRANCH  36  37
ATOM     37  C   UNL A   1      40.021  28.861  29.026  1.00  0.00     0.031 A 
ATOM     38  C   UNL A   1      40.984  29.845  29.634  1.00  0.00     0.074 A 
ATOM     39  C   UNL A   1      40.454  27.654  28.612  1.00  0.00     0.049 A 
ATOM     40  N   UNL A   1      42.279  29.745  29.796  1.00  0.00    -0.248 NA
ATOM     41  C   UNL A   1      40.423  31.132  30.079  1.00  0.00     0.031 C 
ATOM     42  C   UNL A   1      39.633  26.636  27.951  1.00  0.00     0.029 A 
ATOM     43  N   UNL A   1      41.701  27.085  28.672  1.00  0.00    -0.354 N 
ATOM     44  C   UNL A   1      42.686  30.962  30.328  1.00  0.00     0.074 A 
ATOM     45  C   UNL A   1      41.515  31.806  30.406  1.00  0.00     0.031 C 
ATOM     46  C   UNL A   1      40.392  25.559  27.692  1.00  0.00     0.029 A 
ATOM     47  C   UNL A   1      41.759  25.824  28.128  1.00  0.00     0.049 A 
ATOM     48  H   UNL A   1      42.481  27.538  29.066  1.00  0.00     0.167 HD
ATOM     49  C   UNL A   1      43.918  31.334  30.744  1.00  0.00     0.037 A 
ATOM     50  C   UNL A   1      42.799  24.980  27.994  1.00  0.00     0.037 A 
ATOM     51  C   UNL A   1      45.070  30.473  30.715  1.00  0.00     0.049 A 
ATOM     52  C   UNL A   1      44.152  25.404  28.497  1.00  0.00     0.074 A 
ATOM     53  C   UNL A   1      46.349  30.727  31.174  1.00  0.00     0.029 A 
ATOM     54  N   UNL A   1      45.074  29.182  30.208  1.00  0.00    -0.354 N 
ATOM     55  N   UNL A   1      44.509  26.537  29.052  1.00  0.00    -0.248 NA
ATOM     56  C   UNL A   1      45.244  24.429  28.361  1.00  0.00     0.031 C 
ATOM     57  C   UNL A   1      47.136  29.600  30.919  1.00  0.00     0.029 A 
ATOM     58  C   UNL A   1      46.336  28.629  30.337  1.00  0.00     0.049 A 
ATOM     59  H   UNL A   1      44.295  28.727  29.814  1.00  0.00     0.167 HD
ATOM     60  C   UNL A   1      45.857  26.401  29.356  1.00  0.00     0.074 A 
ATOM     61  C   UNL A   1      46.250  25.071  28.937  1.00  0.00     0.031 C 
ATOM     62  C   UNL A   1      46.698  27.297  29.929  1.00  0.00     0.037 A 
BRANCH  49  63
ATOM     63  C   UNL A   1      44.075  32.723  31.288  1.00  0.00     0.057 A 
ATOM     64  C   UNL A   1      43.952  32.995  32.658  1.00  0.00     0.134 A 
ATOM     65  C   UNL A   1      44.377  33.795  30.441  1.00  0.00     0.134 A 
ATOM     66  F   UNL A   1      43.648  32.015  33.521  1.00  0.00    -0.206 F 
ATOM     67  C   UNL A   1      44.097  34.288  33.161  1.00  0.00     0.040 A 
ATOM     68  C   UNL A   1      44.551  35.089  30.937  1.00  0.00     0.040 A 
ATOM     69  F   UNL A   1      44.513  33.604  29.121  1.00  0.00    -0.206 F 
ATOM     70  C   UNL A   1      44.405  35.339  32.299  1.00  0.00     0.006 A 
ENDBRANCH  49  63
BRANCH  50  71
ATOM     71  C   UNL A   1      42.603  23.642  27.382  1.00  0.00     0.057 A 
ATOM     72  C   UNL A   1      42.812  23.439  26.012  1.00  0.00     0.134 A 
ATOM     73  C   UNL A   1      42.189  22.542  28.141  1.00  0.00     0.134 A 
ATOM     74  F   UNL A   1      43.193  24.460  25.230  1.00  0.00    -0.206 F 
ATOM     75  C   UNL A   1      42.593  22.198  25.415  1.00  0.00     0.040 A 
ATOM     76  C   UNL A   1      41.990  21.287  27.561  1.00  0.00     0.040 A 
ATOM     77  F   UNL A   1      41.981  22.668  29.459  1.00  0.00    -0.206 F 
ATOM     78  C   UNL A   1      42.183  21.116  26.191  1.00  0.00     0.006 A 
ENDBRANCH  50  71
BRANCH  62  79
ATOM     79  C   UNL A   1      48.108  26.854  30.172  1.00  0.00     0.057 A 
ATOM     80  C   UNL A   1      49.133  27.116  29.255  1.00  0.00     0.134 A 
ATOM     81  C   UNL A   1      48.452  26.198  31.361  1.00  0.00     0.134 A 
ATOM     82  F   UNL A   1      48.865  27.731  28.093  1.00  0.00    -0.206 F 
ATOM     83  C   UNL A   1      50.449  26.723  29.502  1.00  0.00     0.040 A 
ATOM     84  C   UNL A   1      49.768  25.821  31.630  1.00  0.00     0.040 A 
ATOM     85  F   UNL A   1      47.517  25.926  32.284  1.00  0.00    -0.206 F 
ATOM     86  C   UNL A   1      50.769  26.079  30.696  1.00  0.00     0.006 A 
ENDBRANCH  62  79
ENDBRANCH  36  37
ENDBRANCH  28  31
ENDBRANCH  26  27
ENDBRANCH  25  26
ENDBRANCH   1  25
TORSDOF 17
ENDMDL
MODEL 3
REMARK VINA RESULT:     -10.3      4.050      8.867
REMARK SMILES CCc1ccsc1CNC(=O)N[C@@H](CCO)C(=O)NCCCNC(=O)c1ccc(-c2c3nc(c(-c4c(F)cccc4F)c4ccc([nH]4)c(-c4c(F)cccc4F)c4nc(c(-c5c(F)cccc5F)c5ccc2[nH]5)C=C4)C=C3)cc1
REMARK SMILES IDX 20 1 19 2 17 3 18 4 13 6 12 7 9 8 10 9 11 11 8 13 7 14 3 15
REMARK SMILES IDX 4 16 5 17 6 18 2 19 1 20 14 21 15 22 16 23 21 25 22 26 23 27
REMARK SMILES IDX 24 28 25 30 26 31 27 32 79 33 28 34 78 35 29 36 30 37 31 38
REMARK SMILES IDX 72 39 32 40 77 41 71 42 73 43 33 44 76 45 70 46 69 47 34 49
REMARK SMILES IDX 60 50 43 51 59 52 44 53 47 54 58 55 74 56 45 57 46 58 57 60
REMARK SMILES IDX 75 61 48 62 35 63 36 64 41 65 37 66 38 67 40 68 42 69 39 70
REMARK SMILES IDX 61 71 62 72 67 73 63 74 64 75 66 76 68 77 65 78 49 79 50 80
REMARK SMILES IDX 55 81 51 82 52 83 54 84 56 85 53 86
REMARK H PARENT 19 5 9 10 12 12 16 24 23 29 73 48 47 59
REMARK Flexibility Score: inf
ROOT
ATOM      1  C   UNL A   1      31.736  30.297  26.084  1.00  0.00     0.117 C 
ENDROOT
BRANCH   1   2
ATOM      2  N   UNL A   1      31.368  30.143  24.688  1.00  0.00    -0.354 N 
ATOM      3  C   UNL A   1      31.303  29.080  23.847  1.00  0.00     0.242 C 
ATOM      4  O   UNL A   1      30.717  29.292  22.779  1.00  0.00    -0.273 OA
ATOM      5  H   UNL A   1      31.110  30.991  24.259  1.00  0.00     0.163 HD
BRANCH   3   6
ATOM      6  C   UNL A   1      31.697  27.645  24.238  1.00  0.00     0.175 C 
BRANCH   6   7
ATOM      7  N   UNL A   1      30.595  26.779  24.649  1.00  0.00    -0.326 N 
ATOM      8  N   UNL A   1      31.454  25.390  26.358  1.00  0.00    -0.333 N 
ATOM      9  C   UNL A   1      30.446  25.932  25.674  1.00  0.00     0.315 C 
ATOM     10  H   UNL A   1      31.159  24.940  27.182  1.00  0.00     0.165 HD
ATOM     11  O   UNL A   1      29.294  25.624  25.986  1.00  0.00    -0.249 OA
ATOM     12  H   UNL A   1      29.809  26.829  24.057  1.00  0.00     0.166 HD
BRANCH   8  13
ATOM     13  C   UNL A   1      32.884  25.316  26.158  1.00  0.00     0.165 C 
BRANCH  13  14
ATOM     14  C   UNL A   1      33.434  23.933  26.420  1.00  0.00     0.027 A 
ATOM     15  C   UNL A   1      34.663  23.430  25.993  1.00  0.00    -0.033 A 
ATOM     16  C   UNL A   1      34.833  22.067  26.415  1.00  0.00     0.016 A 
ATOM     17  C   UNL A   1      33.770  21.594  27.144  1.00  0.00     0.065 A 
ATOM     18  S   UNL A   1      32.563  22.773  27.343  1.00  0.00    -0.147 S 
BRANCH  15  19
ATOM     19  C   UNL A   1      35.668  24.234  25.202  1.00  0.00     0.033 C 
ATOM     20  C   UNL A   1      37.007  23.557  24.959  1.00  0.00     0.009 C 
ENDBRANCH  15  19
ENDBRANCH  13  14
ENDBRANCH   8  13
ENDBRANCH   6   7
BRANCH   6  21
ATOM     21  C   UNL A   1      32.635  26.968  23.221  1.00  0.00     0.063 C 
BRANCH  21  22
ATOM     22  C   UNL A   1      32.005  26.064  22.166  1.00  0.00     0.158 C 
BRANCH  22  23
ATOM     23  O   UNL A   1      31.115  26.759  21.306  1.00  0.00    -0.396 OA
ATOM     24  H   UNL A   1      31.322  26.544  20.384  1.00  0.00     0.210 HD
ENDBRANCH  22  23
ENDBRANCH  21  22
ENDBRANCH   6  21
ENDBRANCH   3   6
ENDBRANCH   1   2
BRANCH   1  25
ATOM     25  C   UNL A   1      31.474  31.699  26.604  1.00  0.00     0.042 C 
BRANCH  25  26
ATOM     26  C   UNL A   1      32.724  32.405  27.110  1.00  0.00     0.118 C 
BRANCH  26  27
ATOM     27  N   UNL A   1      32.468  33.764  27.575  1.00  0.00    -0.352 N 
ATOM     28  C   UNL A   1      33.119  34.513  28.526  1.00  0.00     0.251 C 
ATOM     29  H   UNL A   1      31.710  34.216  27.140  1.00  0.00     0.163 HD
ATOM     30  O   UNL A   1      32.645  35.582  28.900  1.00  0.00    -0.269 OA
BRANCH  28  31
ATOM     31  C   UNL A   1      34.374  34.014  29.118  1.00  0.00     0.039 A 
ATOM     32  C   UNL A   1      34.322  33.245  30.282  1.00  0.00     0.014 A 
ATOM     33  C   UNL A   1      35.597  34.280  28.502  1.00  0.00     0.014 A 
ATOM     34  C   UNL A   1      35.493  32.666  30.775  1.00  0.00     0.010 A 
ATOM     35  C   UNL A   1      36.737  33.613  28.925  1.00  0.00     0.010 A 
ATOM     36  C   UNL A   1      36.701  32.804  30.070  1.00  0.00    -0.014 A 
BRANCH  36  37
ATOM     37  C   UNL A   1      37.947  32.133  30.513  1.00  0.00     0.031 A 
ATOM     38  C   UNL A   1      38.805  32.778  31.569  1.00  0.00     0.074 A 
ATOM     39  C   UNL A   1      38.354  31.000  29.906  1.00  0.00     0.049 A 
ATOM     40  N   UNL A   1      39.992  32.433  31.997  1.00  0.00    -0.248 NA
ATOM     41  C   UNL A   1      38.275  34.001  32.195  1.00  0.00     0.031 C 
ATOM     42  C   UNL A   1      37.644  30.311  28.826  1.00  0.00     0.029 A 
ATOM     43  N   UNL A   1      39.477  30.237  30.103  1.00  0.00    -0.354 N 
ATOM     44  C   UNL A   1      40.359  33.410  32.913  1.00  0.00     0.074 A 
ATOM     45  C   UNL A   1      39.300  34.393  32.936  1.00  0.00     0.031 C 
ATOM     46  C   UNL A   1      38.335  29.214  28.475  1.00  0.00     0.029 A 
ATOM     47  C   UNL A   1      39.553  29.144  29.274  1.00  0.00     0.049 A 
ATOM     48  H   UNL A   1      40.163  30.452  30.775  1.00  0.00     0.167 HD
ATOM     49  C   UNL A   1      41.465  33.469  33.690  1.00  0.00     0.037 A 
ATOM     50  C   UNL A   1      40.503  28.196  29.168  1.00  0.00     0.037 A 
ATOM     51  C   UNL A   1      42.492  32.461  33.704  1.00  0.00     0.049 A 
ATOM     52  C   UNL A   1      41.706  28.264  30.068  1.00  0.00     0.074 A 
ATOM     53  C   UNL A   1      43.620  32.390  34.501  1.00  0.00     0.029 A 
ATOM     54  N   UNL A   1      42.504  31.340  32.887  1.00  0.00    -0.354 N 
ATOM     55  N   UNL A   1      42.012  29.163  30.972  1.00  0.00    -0.248 NA
ATOM     56  C   UNL A   1      42.692  27.182  29.937  1.00  0.00     0.031 C 
ATOM     57  C   UNL A   1      44.330  31.238  34.147  1.00  0.00     0.029 A 
ATOM     58  C   UNL A   1      43.624  30.573  33.158  1.00  0.00     0.049 A 
ATOM     59  H   UNL A   1      41.818  31.122  32.216  1.00  0.00     0.167 HD
ATOM     60  C   UNL A   1      43.208  28.742  31.536  1.00  0.00     0.074 A 
ATOM     61  C   UNL A   1      43.565  27.499  30.883  1.00  0.00     0.031 C 
ATOM     62  C   UNL A   1      43.949  29.331  32.506  1.00  0.00     0.037 A 
BRANCH  49  63
ATOM     63  C   UNL A   1      41.607  34.649  34.605  1.00  0.00     0.057 A 
ATOM     64  C   UNL A   1      42.247  35.827  34.193  1.00  0.00     0.134 A 
ATOM     65  C   UNL A   1      41.080  34.620  35.901  1.00  0.00     0.134 A 
ATOM     66  F   UNL A   1      42.788  35.913  32.970  1.00  0.00    -0.206 F 
ATOM     67  C   UNL A   1      42.379  36.923  35.047  1.00  0.00     0.040 A 
ATOM     68  C   UNL A   1      41.182  35.720  36.755  1.00  0.00     0.040 A 
ATOM     69  F   UNL A   1      40.452  33.526  36.358  1.00  0.00    -0.206 F 
ATOM     70  C   UNL A   1      41.839  36.872  36.330  1.00  0.00     0.006 A 
ENDBRANCH  49  63
BRANCH  50  71
ATOM     71  C   UNL A   1      40.347  27.086  28.195  1.00  0.00     0.057 A 
ATOM     72  C   UNL A   1      40.932  27.155  26.924  1.00  0.00     0.134 A 
ATOM     73  C   UNL A   1      39.600  25.942  28.499  1.00  0.00     0.134 A 
ATOM     74  F   UNL A   1      41.644  28.235  26.568  1.00  0.00    -0.206 F 
ATOM     75  C   UNL A   1      40.761  26.139  25.983  1.00  0.00     0.040 A 
ATOM     76  C   UNL A   1      39.442  24.906  27.576  1.00  0.00     0.040 A 
ATOM     77  F   UNL A   1      39.022  25.811  29.701  1.00  0.00    -0.206 F 
ATOM     78  C   UNL A   1      40.016  25.008  26.310  1.00  0.00     0.006 A 
ENDBRANCH  50  71
BRANCH  62  79
ATOM     79  C   UNL A   1      45.191  28.619  32.947  1.00  0.00     0.057 A 
ATOM     80  C   UNL A   1      45.166  27.642  33.950  1.00  0.00     0.134 A 
ATOM     81  C   UNL A   1      46.419  28.884  32.329  1.00  0.00     0.134 A 
ATOM     82  F   UNL A   1      44.022  27.352  34.588  1.00  0.00    -0.206 F 
ATOM     83  C   UNL A   1      46.323  26.966  34.336  1.00  0.00     0.040 A 
ATOM     84  C   UNL A   1      47.579  28.198  32.689  1.00  0.00     0.040 A 
ATOM     85  F   UNL A   1      46.508  29.802  31.355  1.00  0.00    -0.206 F 
ATOM     86  C   UNL A   1      47.533  27.239  33.700  1.00  0.00     0.006 A 
ENDBRANCH  62  79
ENDBRANCH  36  37
ENDBRANCH  28  31
ENDBRANCH  26  27
ENDBRANCH  25  26
ENDBRANCH   1  25
TORSDOF 17
ENDMDL
