MODEL 1
REMARK VINA RESULT:     -12.1      0.000      0.000
REMARK SMILES Cc1ccc(S(=O)(=O)n2cc(C(=O)C(=O)N[C@@H](Cc3c[nH]c4ccccc34)C(=O)NCCCNC(=O)c3ccc(-c4c5nc(c(-c6c(F)cccc6F)c6ccc([nH]6)c(-c6c(F)cccc6F)c6nc(c(-c7c(F)cccc7F)c7ccc4[nH]7)C=C6)C=C5)cc3)c3ccccc32)cc1
REMARK SMILES IDX 28 1 29 2 30 3 17 5 16 6 14 7 15 8 12 10 13 11 11 12 9 13
REMARK SMILES IDX 10 14 96 15 91 16 95 17 92 18 94 19 93 20 6 21 7 22 8 23
REMARK SMILES IDX 5 24 1 25 2 26 3 27 98 28 4 29 97 30 18 31 19 32 20 33 27 34
REMARK SMILES IDX 21 35 22 36 26 37 23 39 25 40 24 41 31 42 32 43 33 44 34 45
REMARK SMILES IDX 35 46 36 48 37 49 38 50 90 51 39 52 89 53 40 54 41 55 42 56
REMARK SMILES IDX 83 57 43 58 88 59 82 60 84 61 44 62 87 63 81 64 80 65 45 67
REMARK SMILES IDX 71 68 54 69 70 70 55 71 58 72 69 73 85 74 56 75 57 76 68 78
REMARK SMILES IDX 86 79 59 80 46 81 47 82 52 83 48 84 49 85 51 86 53 87 50 88
REMARK SMILES IDX 72 89 73 90 78 91 74 92 75 93 77 94 79 95 76 96 60 97 61 98
REMARK SMILES IDX 66 99 62 100 63 101 65 102 67 103 64 104
REMARK H PARENT 30 4 16 9 21 38 34 47 84 66 58 77
REMARK Flexibility Score: inf
ROOT
ATOM      1  C   UNL A   1      38.973  24.083  26.275  1.00  0.00     0.242 C 
ATOM      2  O   UNL A   1      38.211  24.462  25.375  1.00  0.00    -0.273 OA
ATOM      3  N   UNL A   1      39.610  25.076  26.951  1.00  0.00    -0.354 N 
ATOM      4  H   UNL A   1      39.827  25.860  26.395  1.00  0.00     0.163 HD
ENDROOT
BRANCH   1   5
ATOM      5  C   UNL A   1      39.053  22.575  26.615  1.00  0.00     0.176 C 
BRANCH   5   6
ATOM      6  N   UNL A   1      38.660  21.649  25.536  1.00  0.00    -0.337 N 
ATOM      7  C   UNL A   1      37.390  21.193  25.150  1.00  0.00     0.293 C 
ATOM      8  O   UNL A   1      37.278  20.296  24.347  1.00  0.00    -0.265 OA
ATOM      9  H   UNL A   1      39.407  21.295  25.002  1.00  0.00     0.164 HD
BRANCH   7  10
ATOM     10  C   UNL A   1      36.125  21.878  25.701  1.00  0.00     0.252 C 
ATOM     11  O   UNL A   1      35.884  21.652  26.887  1.00  0.00    -0.283 OA
BRANCH  10  12
ATOM     12  C   UNL A   1      35.191  22.673  24.869  1.00  0.00     0.054 A 
ATOM     13  N   UNL A   1      34.008  24.262  23.743  1.00  0.00    -0.240 N 
ATOM     14  C   UNL A   1      35.051  24.056  24.656  1.00  0.00     0.117 A 
ATOM     15  C   UNL A   1      33.638  22.998  23.246  1.00  0.00     0.065 A 
ATOM     16  C   UNL A   1      34.082  22.076  24.188  1.00  0.00     0.012 A 
ATOM     17  C   UNL A   1      32.718  22.637  22.239  1.00  0.00     0.028 A 
ATOM     18  C   UNL A   1      33.432  20.825  24.258  1.00  0.00     0.011 A 
ATOM     19  C   UNL A   1      32.042  21.426  22.375  1.00  0.00     0.002 A 
ATOM     20  C   UNL A   1      32.363  20.548  23.399  1.00  0.00     0.001 A 
BRANCH  13  21
ATOM     21  S   UNL A   1      32.598  25.288  23.957  1.00  0.00     0.268 S 
ATOM     22  O   UNL A   1      31.604  24.368  24.484  1.00  0.00    -0.201 OA
ATOM     23  O   UNL A   1      32.451  25.875  22.631  1.00  0.00    -0.201 OA
BRANCH  21  24
ATOM     24  C   UNL A   1      32.456  26.728  24.954  1.00  0.00     0.088 A 
ATOM     25  C   UNL A   1      31.820  30.735  26.462  1.00  0.00     0.044 C 
ATOM     26  C   UNL A   1      32.022  29.321  25.993  1.00  0.00    -0.051 A 
ATOM     27  C   UNL A   1      31.415  28.955  24.802  1.00  0.00     0.005 A 
ATOM     28  C   UNL A   1      32.829  28.376  26.667  1.00  0.00     0.005 A 
ATOM     29  C   UNL A   1      31.622  27.679  24.306  1.00  0.00     0.022 A 
ATOM     30  C   UNL A   1      33.058  27.070  26.151  1.00  0.00     0.022 A 
ENDBRANCH  21  24
ENDBRANCH  13  21
ENDBRANCH  10  12
ENDBRANCH   7  10
ENDBRANCH   5   6
BRANCH   5  31
ATOM     31  C   UNL A   1      40.351  22.176  27.382  1.00  0.00     0.072 C 
BRANCH  31  32
ATOM     32  C   UNL A   1      41.597  21.852  26.596  1.00  0.00    -0.020 A 
ATOM     33  C   UNL A   1      42.274  22.725  25.755  1.00  0.00     0.087 A 
ATOM     34  C   UNL A   1      42.320  20.611  26.541  1.00  0.00     0.003 A 
ATOM     35  N   UNL A   1      43.274  22.036  25.118  1.00  0.00    -0.361 N 
ATOM     36  C   UNL A   1      43.268  20.721  25.521  1.00  0.00     0.046 A 
ATOM     37  C   UNL A   1      42.207  19.374  27.207  1.00  0.00     0.010 A 
ATOM     38  H   UNL A   1      43.904  22.426  24.469  1.00  0.00     0.166 HD
ATOM     39  C   UNL A   1      44.014  19.632  25.055  1.00  0.00     0.026 A 
ATOM     40  C   UNL A   1      42.918  18.267  26.733  1.00  0.00     0.001 A 
ATOM     41  C   UNL A   1      43.789  18.390  25.655  1.00  0.00     0.002 A 
ENDBRANCH  31  32
ENDBRANCH   5  31
ENDBRANCH   1   5
BRANCH   3  42
ATOM     42  C   UNL A   1      40.035  25.203  28.332  1.00  0.00     0.117 C 
BRANCH  42  43
ATOM     43  C   UNL A   1      39.315  26.273  29.131  1.00  0.00     0.042 C 
BRANCH  43  44
ATOM     44  C   UNL A   1      39.344  27.621  28.422  1.00  0.00     0.118 C 
BRANCH  44  45
ATOM     45  N   UNL A   1      38.099  28.391  28.403  1.00  0.00    -0.352 N 
ATOM     46  C   UNL A   1      37.713  29.418  29.262  1.00  0.00     0.251 C 
ATOM     47  H   UNL A   1      37.457  28.154  27.696  1.00  0.00     0.163 HD
ATOM     48  O   UNL A   1      36.643  29.998  29.114  1.00  0.00    -0.269 OA
BRANCH  46  49
ATOM     49  C   UNL A   1      38.695  29.893  30.272  1.00  0.00     0.039 A 
ATOM     50  C   UNL A   1      39.647  30.815  29.833  1.00  0.00     0.014 A 
ATOM     51  C   UNL A   1      38.939  29.096  31.384  1.00  0.00     0.014 A 
ATOM     52  C   UNL A   1      40.963  30.667  30.260  1.00  0.00     0.010 A 
ATOM     53  C   UNL A   1      40.261  28.864  31.713  1.00  0.00     0.010 A 
ATOM     54  C   UNL A   1      41.282  29.581  31.076  1.00  0.00    -0.014 A 
BRANCH  54  55
ATOM     55  C   UNL A   1      42.637  29.042  31.171  1.00  0.00     0.031 A 
ATOM     56  C   UNL A   1      43.090  27.998  30.233  1.00  0.00     0.074 A 
ATOM     57  C   UNL A   1      43.516  29.500  32.095  1.00  0.00     0.049 A 
ATOM     58  N   UNL A   1      43.978  27.108  30.528  1.00  0.00    -0.248 NA
ATOM     59  C   UNL A   1      42.555  27.860  28.886  1.00  0.00     0.031 C 
ATOM     60  C   UNL A   1      44.948  29.212  32.168  1.00  0.00     0.029 A 
ATOM     61  N   UNL A   1      43.242  30.173  33.291  1.00  0.00    -0.354 N 
ATOM     62  C   UNL A   1      44.327  26.472  29.362  1.00  0.00     0.074 A 
ATOM     63  C   UNL A   1      43.375  26.936  28.379  1.00  0.00     0.031 C 
ATOM     64  C   UNL A   1      45.372  29.421  33.423  1.00  0.00     0.029 A 
ATOM     65  C   UNL A   1      44.215  29.753  34.229  1.00  0.00     0.049 A 
ATOM     66  H   UNL A   1      42.512  30.815  33.449  1.00  0.00     0.167 HD
ATOM     67  C   UNL A   1      45.462  25.715  29.315  1.00  0.00     0.037 A 
ATOM     68  C   UNL A   1      43.849  29.138  35.391  1.00  0.00     0.037 A 
ATOM     69  C   UNL A   1      46.163  25.694  30.598  1.00  0.00     0.049 A 
ATOM     70  C   UNL A   1      44.302  27.696  35.500  1.00  0.00     0.074 A 
ATOM     71  C   UNL A   1      47.265  26.361  31.108  1.00  0.00     0.029 A 
ATOM     72  N   UNL A   1      45.551  25.096  31.685  1.00  0.00    -0.354 N 
ATOM     73  N   UNL A   1      45.058  27.087  34.628  1.00  0.00    -0.248 NA
ATOM     74  C   UNL A   1      43.839  26.793  36.557  1.00  0.00     0.031 C 
ATOM     75  C   UNL A   1      47.313  26.140  32.515  1.00  0.00     0.029 A 
ATOM     76  C   UNL A   1      46.239  25.340  32.858  1.00  0.00     0.049 A 
ATOM     77  H   UNL A   1      44.726  24.563  31.629  1.00  0.00     0.167 HD
ATOM     78  C   UNL A   1      45.096  25.747  34.920  1.00  0.00     0.074 A 
ATOM     79  C   UNL A   1      44.333  25.614  36.145  1.00  0.00     0.031 C 
ATOM     80  C   UNL A   1      45.698  24.828  34.106  1.00  0.00     0.037 A 
BRANCH  67  81
ATOM     81  C   UNL A   1      46.049  25.219  28.017  1.00  0.00     0.057 A 
ATOM     82  C   UNL A   1      46.945  26.007  27.275  1.00  0.00     0.134 A 
ATOM     83  C   UNL A   1      45.734  23.983  27.426  1.00  0.00     0.134 A 
ATOM     84  F   UNL A   1      47.450  27.149  27.760  1.00  0.00    -0.206 F 
ATOM     85  C   UNL A   1      47.370  25.664  25.985  1.00  0.00     0.040 A 
ATOM     86  C   UNL A   1      46.096  23.653  26.112  1.00  0.00     0.040 A 
ATOM     87  F   UNL A   1      45.099  23.022  28.111  1.00  0.00    -0.206 F 
ATOM     88  C   UNL A   1      46.904  24.507  25.379  1.00  0.00     0.006 A 
ENDBRANCH  67  81
BRANCH  68  89
ATOM     89  C   UNL A   1      42.579  29.692  35.929  1.00  0.00     0.057 A 
ATOM     90  C   UNL A   1      42.636  30.926  36.603  1.00  0.00     0.134 A 
ATOM     91  C   UNL A   1      41.340  29.294  35.426  1.00  0.00     0.134 A 
ATOM     92  F   UNL A   1      43.795  31.359  37.124  1.00  0.00    -0.206 F 
ATOM     93  C   UNL A   1      41.549  31.801  36.625  1.00  0.00     0.040 A 
ATOM     94  C   UNL A   1      40.237  30.151  35.467  1.00  0.00     0.040 A 
ATOM     95  F   UNL A   1      41.210  28.135  34.765  1.00  0.00    -0.206 F 
ATOM     96  C   UNL A   1      40.356  31.429  36.014  1.00  0.00     0.006 A 
ENDBRANCH  68  89
BRANCH  80  97
ATOM     97  C   UNL A   1      45.791  23.359  34.427  1.00  0.00     0.057 A 
ATOM     98  C   UNL A   1      44.674  22.512  34.420  1.00  0.00     0.134 A 
ATOM     99  C   UNL A   1      46.991  22.768  34.873  1.00  0.00     0.134 A 
ATOM    100  F   UNL A   1      43.456  22.975  34.101  1.00  0.00    -0.206 F 
ATOM    101  C   UNL A   1      44.756  21.158  34.770  1.00  0.00     0.040 A 
ATOM    102  C   UNL A   1      47.076  21.432  35.275  1.00  0.00     0.040 A 
ATOM    103  F   UNL A   1      48.143  23.453  34.923  1.00  0.00    -0.206 F 
ATOM    104  C   UNL A   1      45.958  20.615  35.208  1.00  0.00     0.006 A 
ENDBRANCH  80  97
ENDBRANCH  54  55
ENDBRANCH  46  49
ENDBRANCH  44  45
ENDBRANCH  43  44
ENDBRANCH  42  43
ENDBRANCH   3  42
TORSDOF 17
ENDMDL
MODEL 2
REMARK VINA RESULT:     -11.7      5.876     12.703
REMARK SMILES Cc1ccc(S(=O)(=O)n2cc(C(=O)C(=O)N[C@@H](Cc3c[nH]c4ccccc34)C(=O)NCCCNC(=O)c3ccc(-c4c5nc(c(-c6c(F)cccc6F)c6ccc([nH]6)c(-c6c(F)cccc6F)c6nc(c(-c7c(F)cccc7F)c7ccc4[nH]7)C=C6)C=C5)cc3)c3ccccc32)cc1
REMARK SMILES IDX 28 1 29 2 30 3 17 5 16 6 14 7 15 8 12 10 13 11 11 12 9 13
REMARK SMILES IDX 10 14 96 15 91 16 95 17 92 18 94 19 93 20 6 21 7 22 8 23
REMARK SMILES IDX 5 24 1 25 2 26 3 27 98 28 4 29 97 30 18 31 19 32 20 33 27 34
REMARK SMILES IDX 21 35 22 36 26 37 23 39 25 40 24 41 31 42 32 43 33 44 34 45
REMARK SMILES IDX 35 46 36 48 37 49 38 50 90 51 39 52 89 53 40 54 41 55 42 56
REMARK SMILES IDX 83 57 43 58 88 59 82 60 84 61 44 62 87 63 81 64 80 65 45 67
REMARK SMILES IDX 71 68 54 69 70 70 55 71 58 72 69 73 85 74 56 75 57 76 68 78
REMARK SMILES IDX 86 79 59 80 46 81 47 82 52 83 48 84 49 85 51 86 53 87 50 88
REMARK SMILES IDX 72 89 73 90 78 91 74 92 75 93 77 94 79 95 76 96 60 97 61 98
REMARK SMILES IDX 66 99 62 100 63 101 65 102 67 103 64 104
REMARK H PARENT 30 4 16 9 21 38 34 47 84 66 58 77
REMARK Flexibility Score: inf
ROOT
ATOM      1  C   UNL A   1      46.002  28.936  37.521  1.00  0.00     0.242 C 
ATOM      2  O   UNL A   1      45.375  30.000  37.428  1.00  0.00    -0.273 OA
ATOM      3  N   UNL A   1      47.340  29.068  37.723  1.00  0.00    -0.354 N 
ATOM      4  H   UNL A   1      47.733  29.855  37.280  1.00  0.00     0.163 HD
ENDROOT
BRANCH   1   5
ATOM      5  C   UNL A   1      45.227  27.596  37.508  1.00  0.00     0.176 C 
BRANCH   5   6
ATOM      6  N   UNL A   1      44.768  27.104  38.820  1.00  0.00    -0.337 N 
ATOM      7  C   UNL A   1      45.117  25.943  39.527  1.00  0.00     0.293 C 
ATOM      8  O   UNL A   1      44.504  25.620  40.518  1.00  0.00    -0.265 OA
ATOM      9  H   UNL A   1      44.113  27.683  39.274  1.00  0.00     0.164 HD
BRANCH   7  10
ATOM     10  C   UNL A   1      46.330  25.105  39.080  1.00  0.00     0.252 C 
ATOM     11  O   UNL A   1      47.381  25.352  39.674  1.00  0.00    -0.283 OA
BRANCH  10  12
ATOM     12  C   UNL A   1      46.296  24.140  37.956  1.00  0.00     0.054 A 
ATOM     13  N   UNL A   1      45.915  22.439  36.489  1.00  0.00    -0.240 N 
ATOM     14  C   UNL A   1      45.586  22.943  37.754  1.00  0.00     0.117 A 
ATOM     15  C   UNL A   1      46.676  23.427  35.836  1.00  0.00     0.065 A 
ATOM     16  C   UNL A   1      47.191  24.236  36.843  1.00  0.00     0.012 A 
ATOM     17  C   UNL A   1      47.178  23.482  34.518  1.00  0.00     0.028 A 
ATOM     18  C   UNL A   1      48.373  24.961  36.581  1.00  0.00     0.011 A 
ATOM     19  C   UNL A   1      48.384  24.147  34.306  1.00  0.00     0.002 A 
ATOM     20  C   UNL A   1      49.000  24.841  35.335  1.00  0.00     0.001 A 
BRANCH  13  21
ATOM     21  S   UNL A   1      46.519  20.833  36.111  1.00  0.00     0.268 S 
ATOM     22  O   UNL A   1      45.466  20.279  35.276  1.00  0.00    -0.201 OA
ATOM     23  O   UNL A   1      46.788  20.294  37.438  1.00  0.00    -0.201 OA
BRANCH  21  24
ATOM     24  C   UNL A   1      48.016  20.410  35.294  1.00  0.00     0.088 A 
ATOM     25  C   UNL A   1      52.150  19.909  34.114  1.00  0.00     0.044 C 
ATOM     26  C   UNL A   1      50.702  20.027  34.498  1.00  0.00    -0.051 A 
ATOM     27  C   UNL A   1      50.418  20.310  35.825  1.00  0.00     0.005 A 
ATOM     28  C   UNL A   1      49.632  19.919  33.580  1.00  0.00     0.005 A 
ATOM     29  C   UNL A   1      49.100  20.482  36.209  1.00  0.00     0.022 A 
ATOM     30  C   UNL A   1      48.278  20.115  33.968  1.00  0.00     0.022 A 
ENDBRANCH  21  24
ENDBRANCH  13  21
ENDBRANCH  10  12
ENDBRANCH   7  10
ENDBRANCH   5   6
BRANCH   5  31
ATOM     31  C   UNL A   1      44.172  27.496  36.363  1.00  0.00     0.072 C 
BRANCH  31  32
ATOM     32  C   UNL A   1      43.616  26.142  35.996  1.00  0.00    -0.020 A 
ATOM     33  C   UNL A   1      42.883  25.313  36.835  1.00  0.00     0.087 A 
ATOM     34  C   UNL A   1      43.730  25.440  34.747  1.00  0.00     0.003 A 
ATOM     35  N   UNL A   1      42.669  24.120  36.194  1.00  0.00    -0.361 N 
ATOM     36  C   UNL A   1      43.250  24.144  34.948  1.00  0.00     0.046 A 
ATOM     37  C   UNL A   1      44.271  25.756  33.484  1.00  0.00     0.010 A 
ATOM     38  H   UNL A   1      42.171  23.358  36.571  1.00  0.00     0.166 HD
ATOM     39  C   UNL A   1      43.394  23.124  34.000  1.00  0.00     0.026 A 
ATOM     40  C   UNL A   1      44.454  24.743  32.538  1.00  0.00     0.001 A 
ATOM     41  C   UNL A   1      44.046  23.440  32.804  1.00  0.00     0.002 A 
ENDBRANCH  31  32
ENDBRANCH   5  31
ENDBRANCH   1   5
BRANCH   3  42
ATOM     42  C   UNL A   1      48.302  28.272  38.463  1.00  0.00     0.117 C 
BRANCH  42  43
ATOM     43  C   UNL A   1      49.699  28.240  37.874  1.00  0.00     0.042 C 
BRANCH  43  44
ATOM     44  C   UNL A   1      50.044  29.544  37.167  1.00  0.00     0.118 C 
BRANCH  44  45
ATOM     45  N   UNL A   1      50.631  29.443  35.830  1.00  0.00    -0.352 N 
ATOM     46  C   UNL A   1      49.971  29.272  34.615  1.00  0.00     0.251 C 
ATOM     47  H   UNL A   1      51.612  29.503  35.784  1.00  0.00     0.163 HD
ATOM     48  O   UNL A   1      50.591  29.228  33.557  1.00  0.00    -0.269 OA
BRANCH  46  49
ATOM     49  C   UNL A   1      48.484  29.293  34.616  1.00  0.00     0.039 A 
ATOM     50  C   UNL A   1      47.842  28.066  34.441  1.00  0.00     0.014 A 
ATOM     51  C   UNL A   1      47.838  30.482  34.302  1.00  0.00     0.014 A 
ATOM     52  C   UNL A   1      46.729  28.010  33.608  1.00  0.00     0.010 A 
ATOM     53  C   UNL A   1      46.814  30.417  33.377  1.00  0.00     0.010 A 
ATOM     54  C   UNL A   1      46.326  29.174  32.953  1.00  0.00    -0.014 A 
BRANCH  54  55
ATOM     55  C   UNL A   1      45.538  29.151  31.723  1.00  0.00     0.031 A 
ATOM     56  C   UNL A   1      44.067  29.063  31.783  1.00  0.00     0.074 A 
ATOM     57  C   UNL A   1      46.126  29.238  30.506  1.00  0.00     0.049 A 
ATOM     58  N   UNL A   1      43.345  28.511  30.865  1.00  0.00    -0.248 NA
ATOM     59  C   UNL A   1      43.291  29.572  32.904  1.00  0.00     0.031 C 
ATOM     60  C   UNL A   1      45.463  29.440  29.217  1.00  0.00     0.029 A 
ATOM     61  N   UNL A   1      47.453  28.956  30.164  1.00  0.00    -0.354 N 
ATOM     62  C   UNL A   1      42.034  28.827  31.126  1.00  0.00     0.074 A 
ATOM     63  C   UNL A   1      42.047  29.440  32.434  1.00  0.00     0.031 C 
ATOM     64  C   UNL A   1      46.267  29.002  28.238  1.00  0.00     0.029 A 
ATOM     65  C   UNL A   1      47.434  28.408  28.859  1.00  0.00     0.049 A 
ATOM     66  H   UNL A   1      48.248  29.110  30.725  1.00  0.00     0.167 HD
ATOM     67  C   UNL A   1      41.089  28.654  30.158  1.00  0.00     0.037 A 
ATOM     68  C   UNL A   1      47.916  27.155  28.616  1.00  0.00     0.037 A 
ATOM     69  C   UNL A   1      41.658  28.117  28.923  1.00  0.00     0.049 A 
ATOM     70  C   UNL A   1      46.864  26.160  28.170  1.00  0.00     0.074 A 
ATOM     71  C   UNL A   1      42.033  28.671  27.710  1.00  0.00     0.029 A 
ATOM     72  N   UNL A   1      42.191  26.841  28.932  1.00  0.00    -0.354 N 
ATOM     73  N   UNL A   1      45.616  26.455  27.933  1.00  0.00    -0.248 NA
ATOM     74  C   UNL A   1      47.122  24.721  28.064  1.00  0.00     0.031 C 
ATOM     75  C   UNL A   1      42.788  27.703  26.987  1.00  0.00     0.029 A 
ATOM     76  C   UNL A   1      42.870  26.560  27.760  1.00  0.00     0.049 A 
ATOM     77  H   UNL A   1      42.100  26.210  29.682  1.00  0.00     0.167 HD
ATOM     78  C   UNL A   1      44.901  25.297  27.760  1.00  0.00     0.074 A 
ATOM     79  C   UNL A   1      45.889  24.239  27.834  1.00  0.00     0.031 C 
ATOM     80  C   UNL A   1      43.541  25.278  27.630  1.00  0.00     0.037 A 
BRANCH  67  81
ATOM     81  C   UNL A   1      39.698  29.227  30.274  1.00  0.00     0.057 A 
ATOM     82  C   UNL A   1      38.600  28.412  30.601  1.00  0.00     0.134 A 
ATOM     83  C   UNL A   1      39.372  30.572  30.031  1.00  0.00     0.134 A 
ATOM     84  F   UNL A   1      38.756  27.141  30.991  1.00  0.00    -0.206 F 
ATOM     85  C   UNL A   1      37.276  28.863  30.540  1.00  0.00     0.040 A 
ATOM     86  C   UNL A   1      38.051  31.024  29.902  1.00  0.00     0.040 A 
ATOM     87  F   UNL A   1      40.319  31.517  29.951  1.00  0.00    -0.206 F 
ATOM     88  C   UNL A   1      36.994  30.161  30.140  1.00  0.00     0.006 A 
ENDBRANCH  67  81
BRANCH  68  89
ATOM     89  C   UNL A   1      49.097  26.848  29.465  1.00  0.00     0.057 A 
ATOM     90  C   UNL A   1      48.891  26.068  30.618  1.00  0.00     0.134 A 
ATOM     91  C   UNL A   1      50.395  26.906  28.955  1.00  0.00     0.134 A 
ATOM     92  F   UNL A   1      47.668  25.984  31.167  1.00  0.00    -0.206 F 
ATOM     93  C   UNL A   1      49.893  25.249  31.139  1.00  0.00     0.040 A 
ATOM     94  C   UNL A   1      51.413  26.109  29.486  1.00  0.00     0.040 A 
ATOM     95  F   UNL A   1      50.666  27.621  27.854  1.00  0.00    -0.206 F 
ATOM     96  C   UNL A   1      51.148  25.236  30.542  1.00  0.00     0.006 A 
ENDBRANCH  68  89
BRANCH  80  97
ATOM     97  C   UNL A   1      42.739  24.023  27.395  1.00  0.00     0.057 A 
ATOM     98  C   UNL A   1      42.347  23.172  28.438  1.00  0.00     0.134 A 
ATOM     99  C   UNL A   1      42.438  23.563  26.097  1.00  0.00     0.134 A 
ATOM    100  F   UNL A   1      42.652  23.453  29.713  1.00  0.00    -0.206 F 
ATOM    101  C   UNL A   1      41.647  21.980  28.211  1.00  0.00     0.040 A 
ATOM    102  C   UNL A   1      41.786  22.350  25.854  1.00  0.00     0.040 A 
ATOM    103  F   UNL A   1      42.743  24.276  25.003  1.00  0.00    -0.206 F 
ATOM    104  C   UNL A   1      41.372  21.561  26.914  1.00  0.00     0.006 A 
ENDBRANCH  80  97
ENDBRANCH  54  55
ENDBRANCH  46  49
ENDBRANCH  44  45
ENDBRANCH  43  44
ENDBRANCH  42  43
ENDBRANCH   3  42
TORSDOF 17
ENDMDL
MODEL 3
REMARK VINA RESULT:     -11.6      2.632      6.740
REMARK SMILES Cc1ccc(S(=O)(=O)n2cc(C(=O)C(=O)N[C@@H](Cc3c[nH]c4ccccc34)C(=O)NCCCNC(=O)c3ccc(-c4c5nc(c(-c6c(F)cccc6F)c6ccc([nH]6)c(-c6c(F)cccc6F)c6nc(c(-c7c(F)cccc7F)c7ccc4[nH]7)C=C6)C=C5)cc3)c3ccccc32)cc1
REMARK SMILES IDX 28 1 29 2 30 3 17 5 16 6 14 7 15 8 12 10 13 11 11 12 9 13
REMARK SMILES IDX 10 14 96 15 91 16 95 17 92 18 94 19 93 20 6 21 7 22 8 23
REMARK SMILES IDX 5 24 1 25 2 26 3 27 98 28 4 29 97 30 18 31 19 32 20 33 27 34
REMARK SMILES IDX 21 35 22 36 26 37 23 39 25 40 24 41 31 42 32 43 33 44 34 45
REMARK SMILES IDX 35 46 36 48 37 49 38 50 90 51 39 52 89 53 40 54 41 55 42 56
REMARK SMILES IDX 83 57 43 58 88 59 82 60 84 61 44 62 87 63 81 64 80 65 45 67
REMARK SMILES IDX 71 68 54 69 70 70 55 71 58 72 69 73 85 74 56 75 57 76 68 78
REMARK SMILES IDX 86 79 59 80 46 81 47 82 52 83 48 84 49 85 51 86 53 87 50 88
REMARK SMILES IDX 72 89 73 90 78 91 74 92 75 93 77 94 79 95 76 96 60 97 61 98
REMARK SMILES IDX 66 99 62 100 63 101 65 102 67 103 64 104
REMARK H PARENT 30 4 16 9 21 38 34 47 84 66 58 77
REMARK Flexibility Score: inf
ROOT
ATOM      1  C   UNL A   1      39.153  24.233  26.533  1.00  0.00     0.242 C 
ATOM      2  O   UNL A   1      38.117  24.793  26.919  1.00  0.00    -0.273 OA
ATOM      3  N   UNL A   1      40.147  25.069  26.129  1.00  0.00    -0.354 N 
ATOM      4  H   UNL A   1      39.823  25.895  25.702  1.00  0.00     0.163 HD
ENDROOT
BRANCH   1   5
ATOM      5  C   UNL A   1      39.266  22.693  26.637  1.00  0.00     0.176 C 
BRANCH   5   6
ATOM      6  N   UNL A   1      38.838  21.933  25.448  1.00  0.00    -0.337 N 
ATOM      7  C   UNL A   1      37.552  21.581  25.011  1.00  0.00     0.293 C 
ATOM      8  O   UNL A   1      37.407  20.803  24.096  1.00  0.00    -0.265 OA
ATOM      9  H   UNL A   1      39.571  21.625  24.868  1.00  0.00     0.164 HD
BRANCH   7  10
ATOM     10  C   UNL A   1      36.314  22.236  25.652  1.00  0.00     0.252 C 
ATOM     11  O   UNL A   1      36.146  21.977  26.844  1.00  0.00    -0.283 OA
BRANCH  10  12
ATOM     12  C   UNL A   1      35.323  23.039  24.897  1.00  0.00     0.054 A 
ATOM     13  N   UNL A   1      34.047  24.641  23.900  1.00  0.00    -0.240 N 
ATOM     14  C   UNL A   1      35.129  24.426  24.763  1.00  0.00     0.117 A 
ATOM     15  C   UNL A   1      33.701  23.393  23.350  1.00  0.00     0.065 A 
ATOM     16  C   UNL A   1      34.210  22.440  24.225  1.00  0.00     0.012 A 
ATOM     17  C   UNL A   1      32.757  23.052  22.359  1.00  0.00     0.028 A 
ATOM     18  C   UNL A   1      33.606  21.164  24.252  1.00  0.00     0.011 A 
ATOM     19  C   UNL A   1      32.127  21.813  22.454  1.00  0.00     0.002 A 
ATOM     20  C   UNL A   1      32.515  20.895  23.418  1.00  0.00     0.001 A 
BRANCH  13  21
ATOM     21  S   UNL A   1      32.612  25.604  24.218  1.00  0.00     0.268 S 
ATOM     22  O   UNL A   1      31.696  24.639  24.803  1.00  0.00    -0.201 OA
ATOM     23  O   UNL A   1      32.350  26.194  22.911  1.00  0.00    -0.201 OA
BRANCH  21  24
ATOM     24  C   UNL A   1      32.477  27.032  25.235  1.00  0.00     0.088 A 
ATOM     25  C   UNL A   1      32.003  31.046  26.783  1.00  0.00     0.044 C 
ATOM     26  C   UNL A   1      32.141  29.630  26.297  1.00  0.00    -0.051 A 
ATOM     27  C   UNL A   1      31.642  29.339  25.037  1.00  0.00     0.005 A 
ATOM     28  C   UNL A   1      32.790  28.607  27.026  1.00  0.00     0.005 A 
ATOM     29  C   UNL A   1      31.799  28.061  24.529  1.00  0.00     0.022 A 
ATOM     30  C   UNL A   1      32.969  27.298  26.500  1.00  0.00     0.022 A 
ENDBRANCH  21  24
ENDBRANCH  13  21
ENDBRANCH  10  12
ENDBRANCH   7  10
ENDBRANCH   5   6
BRANCH   5  31
ATOM     31  C   UNL A   1      40.600  22.207  27.282  1.00  0.00     0.072 C 
BRANCH  31  32
ATOM     32  C   UNL A   1      41.285  20.987  26.719  1.00  0.00    -0.020 A 
ATOM     33  C   UNL A   1      40.832  19.679  26.833  1.00  0.00     0.087 A 
ATOM     34  C   UNL A   1      42.515  20.915  25.980  1.00  0.00     0.003 A 
ATOM     35  N   UNL A   1      41.782  18.838  26.314  1.00  0.00    -0.361 N 
ATOM     36  C   UNL A   1      42.858  19.566  25.863  1.00  0.00     0.046 A 
ATOM     37  C   UNL A   1      43.415  21.872  25.469  1.00  0.00     0.010 A 
ATOM     38  H   UNL A   1      41.705  17.857  26.271  1.00  0.00     0.166 HD
ATOM     39  C   UNL A   1      44.098  19.136  25.375  1.00  0.00     0.026 A 
ATOM     40  C   UNL A   1      44.672  21.464  25.011  1.00  0.00     0.001 A 
ATOM     41  C   UNL A   1      45.017  20.116  24.990  1.00  0.00     0.002 A 
ENDBRANCH  31  32
ENDBRANCH   5  31
ENDBRANCH   1   5
BRANCH   3  42
ATOM     42  C   UNL A   1      41.593  24.978  26.205  1.00  0.00     0.117 C 
BRANCH  42  43
ATOM     43  C   UNL A   1      42.209  25.550  27.467  1.00  0.00     0.042 C 
BRANCH  43  44
ATOM     44  C   UNL A   1      43.091  26.755  27.169  1.00  0.00     0.118 C 
BRANCH  44  45
ATOM     45  N   UNL A   1      44.443  26.487  26.678  1.00  0.00    -0.352 N 
ATOM     46  C   UNL A   1      45.646  26.609  27.369  1.00  0.00     0.251 C 
ATOM     47  H   UNL A   1      44.510  26.182  25.745  1.00  0.00     0.163 HD
ATOM     48  O   UNL A   1      46.714  26.323  26.839  1.00  0.00    -0.269 OA
BRANCH  46  49
ATOM     49  C   UNL A   1      45.592  26.952  28.815  1.00  0.00     0.039 A 
ATOM     50  C   UNL A   1      45.127  25.957  29.677  1.00  0.00     0.014 A 
ATOM     51  C   UNL A   1      45.519  28.292  29.176  1.00  0.00     0.014 A 
ATOM     52  C   UNL A   1      44.259  26.317  30.702  1.00  0.00     0.010 A 
ATOM     53  C   UNL A   1      44.562  28.642  30.108  1.00  0.00     0.010 A 
ATOM     54  C   UNL A   1      43.857  27.649  30.801  1.00  0.00    -0.014 A 
BRANCH  54  55
ATOM     55  C   UNL A   1      42.621  28.050  31.468  1.00  0.00     0.031 A 
ATOM     56  C   UNL A   1      41.663  28.941  30.789  1.00  0.00     0.074 A 
ATOM     57  C   UNL A   1      42.308  27.597  32.707  1.00  0.00     0.049 A 
ATOM     58  N   UNL A   1      40.880  29.758  31.410  1.00  0.00    -0.248 NA
ATOM     59  C   UNL A   1      41.529  28.998  29.340  1.00  0.00     0.031 C 
ATOM     60  C   UNL A   1      41.028  27.738  33.400  1.00  0.00     0.029 A 
ATOM     61  N   UNL A   1      43.168  27.079  33.682  1.00  0.00    -0.354 N 
ATOM     62  C   UNL A   1      39.971  30.234  30.498  1.00  0.00     0.074 A 
ATOM     63  C   UNL A   1      40.451  29.776  29.214  1.00  0.00     0.031 C 
ATOM     64  C   UNL A   1      41.229  27.612  34.720  1.00  0.00     0.029 A 
ATOM     65  C   UNL A   1      42.656  27.487  34.937  1.00  0.00     0.049 A 
ATOM     66  H   UNL A   1      43.974  26.537  33.524  1.00  0.00     0.167 HD
ATOM     67  C   UNL A   1      38.837  30.858  30.930  1.00  0.00     0.037 A 
ATOM     68  C   UNL A   1      43.404  28.250  35.785  1.00  0.00     0.037 A 
ATOM     69  C   UNL A   1      38.773  30.934  32.389  1.00  0.00     0.049 A 
ATOM     70  C   UNL A   1      42.850  29.640  36.024  1.00  0.00     0.074 A 
ATOM     71  C   UNL A   1      38.110  30.210  33.366  1.00  0.00     0.029 A 
ATOM     72  N   UNL A   1      39.709  31.699  33.061  1.00  0.00    -0.354 N 
ATOM     73  N   UNL A   1      41.712  30.076  35.556  1.00  0.00    -0.248 NA
ATOM     74  C   UNL A   1      43.599  30.688  36.722  1.00  0.00     0.031 C 
ATOM     75  C   UNL A   1      38.653  30.564  34.635  1.00  0.00     0.029 A 
ATOM     76  C   UNL A   1      39.646  31.503  34.428  1.00  0.00     0.049 A 
ATOM     77  H   UNL A   1      40.344  32.307  32.619  1.00  0.00     0.167 HD
ATOM     78  C   UNL A   1      41.620  31.427  35.776  1.00  0.00     0.074 A 
ATOM     79  C   UNL A   1      42.816  31.761  36.523  1.00  0.00     0.031 C 
ATOM     80  C   UNL A   1      40.602  32.191  35.279  1.00  0.00     0.037 A 
BRANCH  67  81
ATOM     81  C   UNL A   1      37.679  31.158  30.012  1.00  0.00     0.057 A 
ATOM     82  C   UNL A   1      36.753  30.160  29.658  1.00  0.00     0.134 A 
ATOM     83  C   UNL A   1      37.447  32.406  29.410  1.00  0.00     0.134 A 
ATOM     84  F   UNL A   1      36.753  28.957  30.246  1.00  0.00    -0.206 F 
ATOM     85  C   UNL A   1      35.776  30.347  28.673  1.00  0.00     0.040 A 
ATOM     86  C   UNL A   1      36.518  32.593  28.376  1.00  0.00     0.040 A 
ATOM     87  F   UNL A   1      38.080  33.512  29.827  1.00  0.00    -0.206 F 
ATOM     88  C   UNL A   1      35.688  31.552  27.991  1.00  0.00     0.006 A 
ENDBRANCH  67  81
BRANCH  68  89
ATOM     89  C   UNL A   1      44.845  27.889  35.722  1.00  0.00     0.057 A 
ATOM     90  C   UNL A   1      45.689  28.693  34.934  1.00  0.00     0.134 A 
ATOM     91  C   UNL A   1      45.445  27.112  36.715  1.00  0.00     0.134 A 
ATOM     92  F   UNL A   1      45.175  29.452  33.952  1.00  0.00    -0.206 F 
ATOM     93  C   UNL A   1      47.043  28.848  35.231  1.00  0.00     0.040 A 
ATOM     94  C   UNL A   1      46.807  27.239  37.003  1.00  0.00     0.040 A 
ATOM     95  F   UNL A   1      44.705  26.328  37.511  1.00  0.00    -0.206 F 
ATOM     96  C   UNL A   1      47.596  28.150  36.299  1.00  0.00     0.006 A 
ENDBRANCH  68  89
BRANCH  80  97
ATOM     97  C   UNL A   1      40.456  33.667  35.544  1.00  0.00     0.057 A 
ATOM     98  C   UNL A   1      41.133  34.640  34.795  1.00  0.00     0.134 A 
ATOM     99  C   UNL A   1      39.721  34.158  36.643  1.00  0.00     0.134 A 
ATOM    100  F   UNL A   1      41.936  34.295  33.778  1.00  0.00    -0.206 F 
ATOM    101  C   UNL A   1      41.035  36.008  35.078  1.00  0.00     0.040 A 
ATOM    102  C   UNL A   1      39.658  35.516  36.968  1.00  0.00     0.040 A 
ATOM    103  F   UNL A   1      39.015  33.346  37.443  1.00  0.00    -0.206 F 
ATOM    104  C   UNL A   1      40.302  36.450  36.173  1.00  0.00     0.006 A 
ENDBRANCH  80  97
ENDBRANCH  54  55
ENDBRANCH  46  49
ENDBRANCH  44  45
ENDBRANCH  43  44
ENDBRANCH  42  43
ENDBRANCH   3  42
TORSDOF 17
ENDMDL
