MODEL 1
REMARK VINA RESULT:     -13.1      0.000      0.000
REMARK SMILES C[C@]12CC[C@@H]3[C@@H](CCC4=C/C(=N\OCC(=O)N5CCC[C@@H]5C(=O)NCCCNC(=O)c5ccc(-c6c7nc(c(-c8c(F)cccc8F)c8ccc([nH]8)c(-c8c(F)cccc8F)c8nc(c(-c9c(F)cccc9F)c9ccc6[nH]9)C=C8)C=C7)cc5)CC[C@@]43C)[C@@H]1CC[C@@H]2O
REMARK SMILES IDX 22 1 23 2 24 3 21 5 17 6 18 7 19 8 20 9 15 10 16 11 14 12
REMARK SMILES IDX 13 13 12 14 1 15 2 16 3 17 89 18 92 19 4 20 6 21 90 22 91 23
REMARK SMILES IDX 5 24 7 25 87 26 8 27 9 28 86 29 88 30 10 31 85 32 11 33
REMARK SMILES IDX 93 34 25 36 26 37 27 38 28 39 29 40 30 42 31 43 32 44 84 45
REMARK SMILES IDX 33 46 83 47 34 48 35 49 36 50 77 51 37 52 82 53 76 54 78 55
REMARK SMILES IDX 38 56 81 57 75 58 74 59 39 61 65 62 48 63 64 64 49 65 52 66
REMARK SMILES IDX 63 67 79 68 50 69 51 70 62 72 80 73 53 74 40 75 41 76 46 77
REMARK SMILES IDX 42 78 43 79 45 80 47 81 44 82 66 83 67 84 72 85 68 86 69 87
REMARK SMILES IDX 71 88 73 89 70 90 54 91 55 92 60 93 56 94 57 95 59 96 61 97
REMARK SMILES IDX 58 98
REMARK H PARENT 24 4 93 35 28 41 78 60 52 71
REMARK Flexibility Score: inf
ROOT
ATOM      1  C   UNL A   1      42.090  20.909  26.183  1.00  0.00     0.242 C 
ATOM      2  O   UNL A   1      42.067  19.707  25.909  1.00  0.00    -0.273 OA
ATOM      3  N   UNL A   1      42.738  21.756  25.318  1.00  0.00    -0.354 N 
ATOM      4  H   UNL A   1      43.178  21.295  24.568  1.00  0.00     0.163 HD
ENDROOT
BRANCH   1   5
ATOM      5  C   UNL A   1      41.377  21.480  27.417  1.00  0.00     0.174 C 
ATOM      6  N   UNL A   1      40.498  22.646  27.235  1.00  0.00    -0.328 N 
ATOM      7  C   UNL A   1      40.778  23.652  28.246  1.00  0.00     0.120 C 
ATOM      8  C   UNL A   1      42.249  23.495  28.536  1.00  0.00     0.024 C 
ATOM      9  C   UNL A   1      42.487  21.994  28.376  1.00  0.00     0.037 C 
BRANCH   6  10
ATOM     10  C   UNL A   1      39.336  22.763  26.500  1.00  0.00     0.264 C 
ATOM     11  O   UNL A   1      38.695  23.824  26.523  1.00  0.00    -0.271 OA
BRANCH  10  12
ATOM     12  C   UNL A   1      38.734  21.561  25.753  1.00  0.00     0.363 C 
BRANCH  12  13
ATOM     13  O   UNL A   1      37.338  21.404  25.583  1.00  0.00    -0.385 OA
BRANCH  13  14
ATOM     14  N   UNL A   1      36.948  22.001  24.381  1.00  0.00    -0.091 NA
ATOM     15  C   UNL A   1      30.789  28.156  24.307  1.00  0.00     0.014 C 
ATOM     16  C   UNL A   1      32.183  27.489  24.481  1.00  0.00    -0.003 C 
ATOM     17  C   UNL A   1      32.495  26.781  23.163  1.00  0.00     0.010 C 
ATOM     18  C   UNL A   1      32.317  26.510  25.677  1.00  0.00     0.001 C 
ATOM     19  C   UNL A   1      33.221  28.520  24.970  1.00  0.00     0.120 C 
ATOM     20  C   UNL A   1      31.644  25.503  23.008  1.00  0.00     0.005 C 
ATOM     21  C   UNL A   1      31.464  25.251  25.546  1.00  0.00    -0.003 C 
ATOM     22  C   UNL A   1      32.114  27.450  26.876  1.00  0.00     0.007 C 
ATOM     23  C   UNL A   1      32.782  28.771  26.426  1.00  0.00     0.032 C 
ATOM     24  C   UNL A   1      31.736  24.518  24.201  1.00  0.00     0.002 C 
ATOM     25  C   UNL A   1      31.571  24.290  26.733  1.00  0.00     0.008 C 
ATOM     26  C   UNL A   1      32.991  23.543  24.137  1.00  0.00    -0.008 C 
ATOM     27  C   UNL A   1      32.723  23.281  26.716  1.00  0.00     0.032 C 
ATOM     28  C   UNL A   1      33.598  23.214  25.490  1.00  0.00    -0.062 C 
ATOM     29  C   UNL A   1      34.160  24.104  23.279  1.00  0.00     0.018 C 
ATOM     30  C   UNL A   1      32.491  22.205  23.530  1.00  0.00     0.016 C 
ATOM     31  C   UNL A   1      34.880  22.798  25.593  1.00  0.00     0.027 C 
ATOM     32  C   UNL A   1      35.332  23.157  23.102  1.00  0.00     0.061 C 
ATOM     33  C   UNL A   1      35.797  22.600  24.422  1.00  0.00     0.080 C 
BRANCH  19  34
ATOM     34  O   UNL A   1      33.279  29.703  24.209  1.00  0.00    -0.393 OA
ATOM     35  H   UNL A   1      32.599  29.678  23.518  1.00  0.00     0.210 HD
ENDBRANCH  19  34
ENDBRANCH  13  14
ENDBRANCH  12  13
ENDBRANCH  10  12
ENDBRANCH   6  10
ENDBRANCH   1   5
BRANCH   3  36
ATOM     36  C   UNL A   1      42.900  23.201  25.293  1.00  0.00     0.117 C 
BRANCH  36  37
ATOM     37  C   UNL A   1      44.308  23.793  25.524  1.00  0.00     0.042 C 
BRANCH  37  38
ATOM     38  C   UNL A   1      44.511  25.291  25.836  1.00  0.00     0.118 C 
BRANCH  38  39
ATOM     39  N   UNL A   1      43.751  26.207  25.004  1.00  0.00    -0.352 N 
ATOM     40  C   UNL A   1      42.935  27.270  25.339  1.00  0.00     0.251 C 
ATOM     41  H   UNL A   1      43.829  26.042  24.037  1.00  0.00     0.163 HD
ATOM     42  O   UNL A   1      42.346  27.860  24.445  1.00  0.00    -0.269 OA
BRANCH  40  43
ATOM     43  C   UNL A   1      42.695  27.678  26.746  1.00  0.00     0.039 A 
ATOM     44  C   UNL A   1      43.400  28.798  27.209  1.00  0.00     0.014 A 
ATOM     45  C   UNL A   1      41.852  26.987  27.618  1.00  0.00     0.014 A 
ATOM     46  C   UNL A   1      43.169  29.300  28.492  1.00  0.00     0.010 A 
ATOM     47  C   UNL A   1      41.603  27.501  28.900  1.00  0.00     0.010 A 
ATOM     48  C   UNL A   1      42.218  28.690  29.324  1.00  0.00    -0.014 A 
BRANCH  48  49
ATOM     49  C   UNL A   1      41.713  29.421  30.515  1.00  0.00     0.031 A 
ATOM     50  C   UNL A   1      40.472  30.259  30.480  1.00  0.00     0.074 A 
ATOM     51  C   UNL A   1      42.435  29.326  31.650  1.00  0.00     0.049 A 
ATOM     52  N   UNL A   1      39.917  30.940  31.451  1.00  0.00    -0.248 NA
ATOM     53  C   UNL A   1      39.769  30.353  29.194  1.00  0.00     0.031 C 
ATOM     54  C   UNL A   1      43.672  28.553  31.792  1.00  0.00     0.029 A 
ATOM     55  N   UNL A   1      42.246  29.879  32.891  1.00  0.00    -0.354 N 
ATOM     56  C   UNL A   1      38.791  31.539  30.902  1.00  0.00     0.074 A 
ATOM     57  C   UNL A   1      38.763  31.165  29.501  1.00  0.00     0.031 C 
ATOM     58  C   UNL A   1      44.127  28.676  33.047  1.00  0.00     0.029 A 
ATOM     59  C   UNL A   1      43.234  29.555  33.791  1.00  0.00     0.049 A 
ATOM     60  H   UNL A   1      41.477  30.450  33.116  1.00  0.00     0.167 HD
ATOM     61  C   UNL A   1      37.866  32.318  31.516  1.00  0.00     0.037 A 
ATOM     62  C   UNL A   1      43.409  29.932  35.071  1.00  0.00     0.037 A 
ATOM     63  C   UNL A   1      37.910  32.692  32.910  1.00  0.00     0.049 A 
ATOM     64  C   UNL A   1      42.389  30.824  35.715  1.00  0.00     0.074 A 
ATOM     65  C   UNL A   1      36.997  33.441  33.633  1.00  0.00     0.029 A 
ATOM     66  N   UNL A   1      38.932  32.357  33.788  1.00  0.00    -0.354 N 
ATOM     67  N   UNL A   1      41.291  31.322  35.200  1.00  0.00    -0.248 NA
ATOM     68  C   UNL A   1      42.625  31.201  37.114  1.00  0.00     0.031 C 
ATOM     69  C   UNL A   1      37.490  33.599  34.934  1.00  0.00     0.029 A 
ATOM     70  C   UNL A   1      38.687  32.910  35.036  1.00  0.00     0.049 A 
ATOM     71  H   UNL A   1      39.716  31.808  33.558  1.00  0.00     0.167 HD
ATOM     72  C   UNL A   1      40.695  32.055  36.217  1.00  0.00     0.074 A 
ATOM     73  C   UNL A   1      41.545  31.923  37.382  1.00  0.00     0.031 C 
ATOM     74  C   UNL A   1      39.546  32.773  36.185  1.00  0.00     0.037 A 
BRANCH  61  75
ATOM     75  C   UNL A   1      36.726  32.829  30.683  1.00  0.00     0.057 A 
ATOM     76  C   UNL A   1      36.892  33.886  29.779  1.00  0.00     0.134 A 
ATOM     77  C   UNL A   1      35.462  32.229  30.749  1.00  0.00     0.134 A 
ATOM     78  F   UNL A   1      38.076  34.506  29.665  1.00  0.00    -0.206 F 
ATOM     79  C   UNL A   1      35.834  34.346  28.990  1.00  0.00     0.040 A 
ATOM     80  C   UNL A   1      34.403  32.664  29.948  1.00  0.00     0.040 A 
ATOM     81  F   UNL A   1      35.238  31.203  31.584  1.00  0.00    -0.206 F 
ATOM     82  C   UNL A   1      34.587  33.730  29.070  1.00  0.00     0.006 A 
ENDBRANCH  61  75
BRANCH  62  83
ATOM     83  C   UNL A   1      44.593  29.452  35.825  1.00  0.00     0.057 A 
ATOM     84  C   UNL A   1      44.543  28.280  36.585  1.00  0.00     0.134 A 
ATOM     85  C   UNL A   1      45.809  30.147  35.790  1.00  0.00     0.134 A 
ATOM     86  F   UNL A   1      43.402  27.578  36.670  1.00  0.00    -0.206 F 
ATOM     87  C   UNL A   1      45.654  27.820  37.295  1.00  0.00     0.040 A 
ATOM     88  C   UNL A   1      46.935  29.687  36.475  1.00  0.00     0.040 A 
ATOM     89  F   UNL A   1      45.926  31.273  35.070  1.00  0.00    -0.206 F 
ATOM     90  C   UNL A   1      46.856  28.523  37.236  1.00  0.00     0.006 A 
ENDBRANCH  62  83
BRANCH  74  91
ATOM     91  C   UNL A   1      39.138  33.457  37.456  1.00  0.00     0.057 A 
ATOM     92  C   UNL A   1      38.290  32.839  38.384  1.00  0.00     0.134 A 
ATOM     93  C   UNL A   1      39.620  34.734  37.768  1.00  0.00     0.134 A 
ATOM     94  F   UNL A   1      37.779  31.624  38.135  1.00  0.00    -0.206 F 
ATOM     95  C   UNL A   1      37.924  33.474  39.572  1.00  0.00     0.040 A 
ATOM     96  C   UNL A   1      39.279  35.370  38.963  1.00  0.00     0.040 A 
ATOM     97  F   UNL A   1      40.437  35.379  36.922  1.00  0.00    -0.206 F 
ATOM     98  C   UNL A   1      38.425  34.742  39.867  1.00  0.00     0.006 A 
ENDBRANCH  74  91
ENDBRANCH  48  49
ENDBRANCH  40  43
ENDBRANCH  38  39
ENDBRANCH  37  38
ENDBRANCH  36  37
ENDBRANCH   3  36
TORSDOF 15
ENDMDL
MODEL 2
REMARK VINA RESULT:     -12.9      4.514     11.910
REMARK SMILES C[C@]12CC[C@@H]3[C@@H](CCC4=C/C(=N\OCC(=O)N5CCC[C@@H]5C(=O)NCCCNC(=O)c5ccc(-c6c7nc(c(-c8c(F)cccc8F)c8ccc([nH]8)c(-c8c(F)cccc8F)c8nc(c(-c9c(F)cccc9F)c9ccc6[nH]9)C=C8)C=C7)cc5)CC[C@@]43C)[C@@H]1CC[C@@H]2O
REMARK SMILES IDX 22 1 23 2 24 3 21 5 17 6 18 7 19 8 20 9 15 10 16 11 14 12
REMARK SMILES IDX 13 13 12 14 1 15 2 16 3 17 89 18 92 19 4 20 6 21 90 22 91 23
REMARK SMILES IDX 5 24 7 25 87 26 8 27 9 28 86 29 88 30 10 31 85 32 11 33
REMARK SMILES IDX 93 34 25 36 26 37 27 38 28 39 29 40 30 42 31 43 32 44 84 45
REMARK SMILES IDX 33 46 83 47 34 48 35 49 36 50 77 51 37 52 82 53 76 54 78 55
REMARK SMILES IDX 38 56 81 57 75 58 74 59 39 61 65 62 48 63 64 64 49 65 52 66
REMARK SMILES IDX 63 67 79 68 50 69 51 70 62 72 80 73 53 74 40 75 41 76 46 77
REMARK SMILES IDX 42 78 43 79 45 80 47 81 44 82 66 83 67 84 72 85 68 86 69 87
REMARK SMILES IDX 71 88 73 89 70 90 54 91 55 92 60 93 56 94 57 95 59 96 61 97
REMARK SMILES IDX 58 98
REMARK H PARENT 24 4 93 35 28 41 78 60 52 71
REMARK Flexibility Score: inf
ROOT
ATOM      1  C   UNL A   1      36.103  34.505  32.820  1.00  0.00     0.242 C 
ATOM      2  O   UNL A   1      36.080  35.358  33.711  1.00  0.00    -0.273 OA
ATOM      3  N   UNL A   1      35.038  34.446  31.957  1.00  0.00    -0.354 N 
ATOM      4  H   UNL A   1      34.315  35.077  32.176  1.00  0.00     0.163 HD
ENDROOT
BRANCH   1   5
ATOM      5  C   UNL A   1      37.299  33.563  32.621  1.00  0.00     0.174 C 
ATOM      6  N   UNL A   1      38.120  33.224  33.794  1.00  0.00    -0.328 N 
ATOM      7  C   UNL A   1      39.532  33.362  33.479  1.00  0.00     0.120 C 
ATOM      8  C   UNL A   1      39.584  34.473  32.461  1.00  0.00     0.024 C 
ATOM      9  C   UNL A   1      38.288  34.294  31.671  1.00  0.00     0.037 C 
BRANCH   6  10
ATOM     10  C   UNL A   1      37.769  32.547  34.944  1.00  0.00     0.264 C 
ATOM     11  O   UNL A   1      36.651  32.725  35.448  1.00  0.00    -0.271 OA
BRANCH  10  12
ATOM     12  C   UNL A   1      38.782  31.670  35.700  1.00  0.00     0.363 C 
BRANCH  12  13
ATOM     13  O   UNL A   1      38.811  30.262  35.559  1.00  0.00    -0.385 OA
BRANCH  13  14
ATOM     14  N   UNL A   1      39.342  29.934  34.309  1.00  0.00    -0.091 NA
ATOM     15  C   UNL A   1      45.845  24.179  33.653  1.00  0.00     0.014 C 
ATOM     16  C   UNL A   1      44.403  24.740  33.814  1.00  0.00    -0.003 C 
ATOM     17  C   UNL A   1      44.168  25.683  32.634  1.00  0.00     0.010 C 
ATOM     18  C   UNL A   1      44.102  25.453  35.158  1.00  0.00     0.001 C 
ATOM     19  C   UNL A   1      43.389  23.590  33.985  1.00  0.00     0.120 C 
ATOM     20  C   UNL A   1      44.951  27.001  32.817  1.00  0.00     0.005 C 
ATOM     21  C   UNL A   1      44.886  26.748  35.361  1.00  0.00    -0.003 C 
ATOM     22  C   UNL A   1      44.254  24.302  36.165  1.00  0.00     0.007 C 
ATOM     23  C   UNL A   1      43.710  23.071  35.401  1.00  0.00     0.032 C 
ATOM     24  C   UNL A   1      44.693  27.723  34.164  1.00  0.00     0.002 C 
ATOM     25  C   UNL A   1      44.615  27.447  36.696  1.00  0.00     0.008 C 
ATOM     26  C   UNL A   1      43.392  28.637  34.167  1.00  0.00    -0.008 C 
ATOM     27  C   UNL A   1      43.409  28.390  36.760  1.00  0.00     0.032 C 
ATOM     28  C   UNL A   1      42.647  28.664  35.490  1.00  0.00    -0.062 C 
ATOM     29  C   UNL A   1      42.340  28.212  33.102  1.00  0.00     0.018 C 
ATOM     30  C   UNL A   1      43.862  30.090  33.885  1.00  0.00     0.016 C 
ATOM     31  C   UNL A   1      41.337  28.997  35.543  1.00  0.00     0.027 C 
ATOM     32  C   UNL A   1      41.134  29.125  32.997  1.00  0.00     0.061 C 
ATOM     33  C   UNL A   1      40.519  29.387  34.347  1.00  0.00     0.080 C 
BRANCH  19  34
ATOM     34  O   UNL A   1      43.472  22.581  33.007  1.00  0.00    -0.393 OA
ATOM     35  H   UNL A   1      43.667  22.981  32.144  1.00  0.00     0.210 HD
ENDBRANCH  19  34
ENDBRANCH  13  14
ENDBRANCH  12  13
ENDBRANCH  10  12
ENDBRANCH   6  10
ENDBRANCH   1   5
BRANCH   3  36
ATOM     36  C   UNL A   1      34.769  33.633  30.781  1.00  0.00     0.117 C 
BRANCH  36  37
ATOM     37  C   UNL A   1      35.043  34.235  29.386  1.00  0.00     0.042 C 
BRANCH  37  38
ATOM     38  C   UNL A   1      35.244  33.336  28.146  1.00  0.00     0.118 C 
BRANCH  38  39
ATOM     39  N   UNL A   1      34.283  32.258  27.999  1.00  0.00    -0.352 N 
ATOM     40  C   UNL A   1      34.441  30.888  28.073  1.00  0.00     0.251 C 
ATOM     41  H   UNL A   1      33.362  32.553  27.815  1.00  0.00     0.163 HD
ATOM     42  O   UNL A   1      33.474  30.175  27.849  1.00  0.00    -0.269 OA
BRANCH  40  43
ATOM     43  C   UNL A   1      35.753  30.251  28.347  1.00  0.00     0.039 A 
ATOM     44  C   UNL A   1      36.569  29.981  27.239  1.00  0.00     0.014 A 
ATOM     45  C   UNL A   1      36.182  29.879  29.622  1.00  0.00     0.014 A 
ATOM     46  C   UNL A   1      37.854  29.461  27.415  1.00  0.00     0.010 A 
ATOM     47  C   UNL A   1      37.479  29.377  29.803  1.00  0.00     0.010 A 
ATOM     48  C   UNL A   1      38.342  29.216  28.707  1.00  0.00    -0.014 A 
BRANCH  48  49
ATOM     49  C   UNL A   1      39.800  29.021  28.913  1.00  0.00     0.031 A 
ATOM     50  C   UNL A   1      40.690  30.101  29.445  1.00  0.00     0.074 A 
ATOM     51  C   UNL A   1      40.316  27.822  28.575  1.00  0.00     0.049 A 
ATOM     52  N   UNL A   1      41.978  30.057  29.682  1.00  0.00    -0.248 NA
ATOM     53  C   UNL A   1      40.063  31.395  29.742  1.00  0.00     0.031 C 
ATOM     54  C   UNL A   1      39.544  26.703  28.028  1.00  0.00     0.029 A 
ATOM     55  N   UNL A   1      41.599  27.341  28.633  1.00  0.00    -0.354 N 
ATOM     56  C   UNL A   1      42.320  31.313  30.167  1.00  0.00     0.074 A 
ATOM     57  C   UNL A   1      41.105  32.106  30.157  1.00  0.00     0.031 C 
ATOM     58  C   UNL A   1      40.365  25.667  27.806  1.00  0.00     0.029 A 
ATOM     59  C   UNL A   1      41.724  26.054  28.167  1.00  0.00     0.049 A 
ATOM     60  H   UNL A   1      42.358  27.866  28.976  1.00  0.00     0.167 HD
ATOM     61  C   UNL A   1      43.531  31.753  30.587  1.00  0.00     0.037 A 
ATOM     62  C   UNL A   1      42.811  25.271  28.035  1.00  0.00     0.037 A 
ATOM     63  C   UNL A   1      44.735  30.958  30.582  1.00  0.00     0.049 A 
ATOM     64  C   UNL A   1      44.145  25.798  28.474  1.00  0.00     0.074 A 
ATOM     65  C   UNL A   1      46.001  31.301  31.028  1.00  0.00     0.029 A 
ATOM     66  N   UNL A   1      44.827  29.663  30.091  1.00  0.00    -0.354 N 
ATOM     67  N   UNL A   1      44.437  26.963  28.998  1.00  0.00    -0.248 NA
ATOM     68  C   UNL A   1      45.298  24.903  28.313  1.00  0.00     0.031 C 
ATOM     69  C   UNL A   1      46.866  30.233  30.764  1.00  0.00     0.029 A 
ATOM     70  C   UNL A   1      46.132  29.205  30.195  1.00  0.00     0.049 A 
ATOM     71  H   UNL A   1      44.075  29.144  29.722  1.00  0.00     0.167 HD
ATOM     72  C   UNL A   1      45.802  26.936  29.247  1.00  0.00     0.074 A 
ATOM     73  C   UNL A   1      46.277  25.632  28.831  1.00  0.00     0.031 C 
ATOM     74  C   UNL A   1      46.590  27.906  29.772  1.00  0.00     0.037 A 
BRANCH  61  75
ATOM     75  C   UNL A   1      43.622  33.168  31.083  1.00  0.00     0.057 A 
ATOM     76  C   UNL A   1      44.072  34.209  30.261  1.00  0.00     0.134 A 
ATOM     77  C   UNL A   1      43.208  33.503  32.379  1.00  0.00     0.134 A 
ATOM     78  F   UNL A   1      44.483  33.958  29.009  1.00  0.00    -0.206 F 
ATOM     79  C   UNL A   1      44.135  35.527  30.719  1.00  0.00     0.040 A 
ATOM     80  C   UNL A   1      43.244  34.821  32.840  1.00  0.00     0.040 A 
ATOM     81  F   UNL A   1      42.753  32.558  33.215  1.00  0.00    -0.206 F 
ATOM     82  C   UNL A   1      43.714  35.837  32.011  1.00  0.00     0.006 A 
ENDBRANCH  61  75
BRANCH  62  83
ATOM     83  C   UNL A   1      42.672  23.906  27.471  1.00  0.00     0.057 A 
ATOM     84  C   UNL A   1      42.746  23.680  26.093  1.00  0.00     0.134 A 
ATOM     85  C   UNL A   1      42.477  22.792  28.299  1.00  0.00     0.134 A 
ATOM     86  F   UNL A   1      42.916  24.708  25.249  1.00  0.00    -0.206 F 
ATOM     87  C   UNL A   1      42.619  22.397  25.555  1.00  0.00     0.040 A 
ATOM     88  C   UNL A   1      42.373  21.502  27.777  1.00  0.00     0.040 A 
ATOM     89  F   UNL A   1      42.409  22.942  29.631  1.00  0.00    -0.206 F 
ATOM     90  C   UNL A   1      42.438  21.304  26.400  1.00  0.00     0.006 A 
ENDBRANCH  62  83
BRANCH  74  91
ATOM     91  C   UNL A   1      48.045  27.582  29.940  1.00  0.00     0.057 A 
ATOM     92  C   UNL A   1      48.517  26.874  31.053  1.00  0.00     0.134 A 
ATOM     93  C   UNL A   1      48.977  27.955  28.965  1.00  0.00     0.134 A 
ATOM     94  F   UNL A   1      47.677  26.505  32.031  1.00  0.00    -0.206 F 
ATOM     95  C   UNL A   1      49.870  26.564  31.197  1.00  0.00     0.040 A 
ATOM     96  C   UNL A   1      50.330  27.630  29.087  1.00  0.00     0.040 A 
ATOM     97  F   UNL A   1      48.589  28.633  27.874  1.00  0.00    -0.206 F 
ATOM     98  C   UNL A   1      50.780  26.937  30.208  1.00  0.00     0.006 A 
ENDBRANCH  74  91
ENDBRANCH  48  49
ENDBRANCH  40  43
ENDBRANCH  38  39
ENDBRANCH  37  38
ENDBRANCH  36  37
ENDBRANCH   3  36
TORSDOF 15
ENDMDL
MODEL 3
REMARK VINA RESULT:     -12.8      3.896      7.339
REMARK SMILES C[C@]12CC[C@@H]3[C@@H](CCC4=C/C(=N\OCC(=O)N5CCC[C@@H]5C(=O)NCCCNC(=O)c5ccc(-c6c7nc(c(-c8c(F)cccc8F)c8ccc([nH]8)c(-c8c(F)cccc8F)c8nc(c(-c9c(F)cccc9F)c9ccc6[nH]9)C=C8)C=C7)cc5)CC[C@@]43C)[C@@H]1CC[C@@H]2O
REMARK SMILES IDX 22 1 23 2 24 3 21 5 17 6 18 7 19 8 20 9 15 10 16 11 14 12
REMARK SMILES IDX 13 13 12 14 1 15 2 16 3 17 89 18 92 19 4 20 6 21 90 22 91 23
REMARK SMILES IDX 5 24 7 25 87 26 8 27 9 28 86 29 88 30 10 31 85 32 11 33
REMARK SMILES IDX 93 34 25 36 26 37 27 38 28 39 29 40 30 42 31 43 32 44 84 45
REMARK SMILES IDX 33 46 83 47 34 48 35 49 36 50 77 51 37 52 82 53 76 54 78 55
REMARK SMILES IDX 38 56 81 57 75 58 74 59 39 61 65 62 48 63 64 64 49 65 52 66
REMARK SMILES IDX 63 67 79 68 50 69 51 70 62 72 80 73 53 74 40 75 41 76 46 77
REMARK SMILES IDX 42 78 43 79 45 80 47 81 44 82 66 83 67 84 72 85 68 86 69 87
REMARK SMILES IDX 71 88 73 89 70 90 54 91 55 92 60 93 56 94 57 95 59 96 61 97
REMARK SMILES IDX 58 98
REMARK H PARENT 24 4 93 35 28 41 78 60 52 71
REMARK Flexibility Score: inf
ROOT
ATOM      1  C   UNL A   1      43.125  23.793  25.649  1.00  0.00     0.242 C 
ATOM      2  O   UNL A   1      42.351  24.753  25.696  1.00  0.00    -0.273 OA
ATOM      3  N   UNL A   1      43.872  23.622  24.510  1.00  0.00    -0.354 N 
ATOM      4  H   UNL A   1      43.669  24.276  23.801  1.00  0.00     0.163 HD
ENDROOT
BRANCH   1   5
ATOM      5  C   UNL A   1      43.311  22.834  26.833  1.00  0.00     0.174 C 
ATOM      6  N   UNL A   1      42.190  22.660  27.770  1.00  0.00    -0.328 N 
ATOM      7  C   UNL A   1      42.659  22.756  29.142  1.00  0.00     0.120 C 
ATOM      8  C   UNL A   1      43.818  23.717  29.078  1.00  0.00     0.024 C 
ATOM      9  C   UNL A   1      44.445  23.430  27.714  1.00  0.00     0.037 C 
BRANCH   6  10
ATOM     10  C   UNL A   1      40.930  22.146  27.544  1.00  0.00     0.264 C 
ATOM     11  O   UNL A   1      40.713  20.940  27.729  1.00  0.00    -0.271 OA
BRANCH  10  12
ATOM     12  C   UNL A   1      39.809  23.005  26.935  1.00  0.00     0.363 C 
BRANCH  12  13
ATOM     13  O   UNL A   1      39.274  24.130  27.608  1.00  0.00    -0.385 OA
BRANCH  13  14
ATOM     14  N   UNL A   1      40.295  24.781  28.304  1.00  0.00    -0.091 NA
ATOM     15  C   UNL A   1      38.814  32.452  32.151  1.00  0.00     0.014 C 
ATOM     16  C   UNL A   1      38.826  30.914  31.919  1.00  0.00    -0.003 C 
ATOM     17  C   UNL A   1      40.279  30.527  31.644  1.00  0.00     0.010 C 
ATOM     18  C   UNL A   1      37.895  30.394  30.793  1.00  0.00     0.001 C 
ATOM     19  C   UNL A   1      38.129  30.184  33.085  1.00  0.00     0.120 C 
ATOM     20  C   UNL A   1      40.713  30.977  30.234  1.00  0.00     0.005 C 
ATOM     21  C   UNL A   1      38.301  30.850  29.393  1.00  0.00    -0.003 C 
ATOM     22  C   UNL A   1      36.506  30.757  31.342  1.00  0.00     0.007 C 
ATOM     23  C   UNL A   1      36.647  30.546  32.868  1.00  0.00     0.032 C 
ATOM     24  C   UNL A   1      39.785  30.497  29.089  1.00  0.00     0.002 C 
ATOM     25  C   UNL A   1      37.374  30.363  28.277  1.00  0.00     0.008 C 
ATOM     26  C   UNL A   1      40.098  29.022  28.581  1.00  0.00    -0.008 C 
ATOM     27  C   UNL A   1      37.648  28.972  27.697  1.00  0.00     0.032 C 
ATOM     28  C   UNL A   1      38.871  28.228  28.167  1.00  0.00    -0.062 C 
ATOM     29  C   UNL A   1      40.823  28.149  29.644  1.00  0.00     0.018 C 
ATOM     30  C   UNL A   1      40.992  29.161  27.319  1.00  0.00     0.016 C 
ATOM     31  C   UNL A   1      38.892  26.876  28.150  1.00  0.00     0.027 C 
ATOM     32  C   UNL A   1      41.238  26.772  29.162  1.00  0.00     0.061 C 
ATOM     33  C   UNL A   1      40.094  26.049  28.499  1.00  0.00     0.080 C 
BRANCH  19  34
ATOM     34  O   UNL A   1      38.593  30.542  34.365  1.00  0.00    -0.393 OA
ATOM     35  H   UNL A   1      38.763  29.740  34.885  1.00  0.00     0.210 HD
ENDBRANCH  19  34
ENDBRANCH  13  14
ENDBRANCH  12  13
ENDBRANCH  10  12
ENDBRANCH   6  10
ENDBRANCH   1   5
BRANCH   3  36
ATOM     36  C   UNL A   1      44.905  22.666  24.145  1.00  0.00     0.117 C 
BRANCH  36  37
ATOM     37  C   UNL A   1      46.385  23.078  24.301  1.00  0.00     0.042 C 
BRANCH  37  38
ATOM     38  C   UNL A   1      46.794  24.321  25.121  1.00  0.00     0.118 C 
BRANCH  38  39
ATOM     39  N   UNL A   1      47.000  25.534  24.348  1.00  0.00    -0.352 N 
ATOM     40  C   UNL A   1      46.710  26.852  24.638  1.00  0.00     0.251 C 
ATOM     41  H   UNL A   1      47.417  25.392  23.468  1.00  0.00     0.163 HD
ATOM     42  O   UNL A   1      46.927  27.700  23.785  1.00  0.00    -0.269 OA
BRANCH  40  43
ATOM     43  C   UNL A   1      46.084  27.267  25.918  1.00  0.00     0.039 A 
ATOM     44  C   UNL A   1      46.950  27.671  26.945  1.00  0.00     0.014 A 
ATOM     45  C   UNL A   1      44.708  27.235  26.153  1.00  0.00     0.014 A 
ATOM     46  C   UNL A   1      46.441  28.158  28.151  1.00  0.00     0.010 A 
ATOM     47  C   UNL A   1      44.194  27.742  27.356  1.00  0.00     0.010 A 
ATOM     48  C   UNL A   1      45.054  28.257  28.339  1.00  0.00    -0.014 A 
BRANCH  48  49
ATOM     49  C   UNL A   1      44.525  29.097  29.444  1.00  0.00     0.031 A 
ATOM     50  C   UNL A   1      44.169  28.533  30.785  1.00  0.00     0.074 A 
ATOM     51  C   UNL A   1      44.346  30.410  29.191  1.00  0.00     0.049 A 
ATOM     52  N   UNL A   1      43.707  29.159  31.839  1.00  0.00    -0.248 NA
ATOM     53  C   UNL A   1      44.343  27.087  30.967  1.00  0.00     0.031 C 
ATOM     54  C   UNL A   1      44.641  31.063  27.913  1.00  0.00     0.029 A 
ATOM     55  N   UNL A   1      43.874  31.427  29.981  1.00  0.00    -0.354 N 
ATOM     56  C   UNL A   1      43.543  28.189  32.818  1.00  0.00     0.074 A 
ATOM     57  C   UNL A   1      43.925  26.925  32.217  1.00  0.00     0.031 C 
ATOM     58  C   UNL A   1      44.349  32.367  28.006  1.00  0.00     0.029 A 
ATOM     59  C   UNL A   1      43.821  32.641  29.338  1.00  0.00     0.049 A 
ATOM     60  H   UNL A   1      43.600  31.301  30.918  1.00  0.00     0.167 HD
ATOM     61  C   UNL A   1      43.123  28.344  34.098  1.00  0.00     0.037 A 
ATOM     62  C   UNL A   1      43.388  33.841  29.766  1.00  0.00     0.037 A 
ATOM     63  C   UNL A   1      42.735  29.606  34.682  1.00  0.00     0.049 A 
ATOM     64  C   UNL A   1      42.893  33.976  31.176  1.00  0.00     0.074 A 
ATOM     65  C   UNL A   1      42.336  29.870  35.981  1.00  0.00     0.029 A 
ATOM     66  N   UNL A   1      42.681  30.812  33.998  1.00  0.00    -0.354 N 
ATOM     67  N   UNL A   1      42.814  33.060  32.111  1.00  0.00    -0.248 NA
ATOM     68  C   UNL A   1      42.436  35.307  31.595  1.00  0.00     0.031 C 
ATOM     69  C   UNL A   1      41.998  31.226  36.070  1.00  0.00     0.029 A 
ATOM     70  C   UNL A   1      42.228  31.817  34.838  1.00  0.00     0.049 A 
ATOM     71  H   UNL A   1      42.929  30.936  33.052  1.00  0.00     0.167 HD
ATOM     72  C   UNL A   1      42.316  33.707  33.234  1.00  0.00     0.074 A 
ATOM     73  C   UNL A   1      42.128  35.096  32.867  1.00  0.00     0.031 C 
ATOM     74  C   UNL A   1      42.041  33.194  34.457  1.00  0.00     0.037 A 
BRANCH  61  75
ATOM     75  C   UNL A   1      43.050  27.115  34.959  1.00  0.00     0.057 A 
ATOM     76  C   UNL A   1      44.139  26.691  35.730  1.00  0.00     0.134 A 
ATOM     77  C   UNL A   1      41.864  26.376  35.056  1.00  0.00     0.134 A 
ATOM     78  F   UNL A   1      45.305  27.353  35.684  1.00  0.00    -0.206 F 
ATOM     79  C   UNL A   1      44.061  25.559  36.546  1.00  0.00     0.040 A 
ATOM     80  C   UNL A   1      41.767  25.256  35.886  1.00  0.00     0.040 A 
ATOM     81  F   UNL A   1      40.778  26.734  34.355  1.00  0.00    -0.206 F 
ATOM     82  C   UNL A   1      42.870  24.842  36.629  1.00  0.00     0.006 A 
ENDBRANCH  61  75
BRANCH  62  83
ATOM     83  C   UNL A   1      43.416  35.005  28.848  1.00  0.00     0.057 A 
ATOM     84  C   UNL A   1      44.614  35.658  28.542  1.00  0.00     0.134 A 
ATOM     85  C   UNL A   1      42.246  35.485  28.242  1.00  0.00     0.134 A 
ATOM     86  F   UNL A   1      45.764  35.255  29.101  1.00  0.00    -0.206 F 
ATOM     87  C   UNL A   1      44.650  36.753  27.676  1.00  0.00     0.040 A 
ATOM     88  C   UNL A   1      42.270  36.563  27.357  1.00  0.00     0.040 A 
ATOM     89  F   UNL A   1      41.067  34.894  28.487  1.00  0.00    -0.206 F 
ATOM     90  C   UNL A   1      43.475  37.204  27.077  1.00  0.00     0.006 A 
ENDBRANCH  62  83
BRANCH  74  91
ATOM     91  C   UNL A   1      41.521  34.148  35.492  1.00  0.00     0.057 A 
ATOM     92  C   UNL A   1      40.148  34.309  35.719  1.00  0.00     0.134 A 
ATOM     93  C   UNL A   1      42.401  34.890  36.287  1.00  0.00     0.134 A 
ATOM     94  F   UNL A   1      39.252  33.640  34.977  1.00  0.00    -0.206 F 
ATOM     95  C   UNL A   1      39.670  35.187  36.692  1.00  0.00     0.040 A 
ATOM     96  C   UNL A   1      41.936  35.755  37.279  1.00  0.00     0.040 A 
ATOM     97  F   UNL A   1      43.729  34.780  36.120  1.00  0.00    -0.206 F 
ATOM     98  C   UNL A   1      40.566  35.909  37.480  1.00  0.00     0.006 A 
ENDBRANCH  74  91
ENDBRANCH  48  49
ENDBRANCH  40  43
ENDBRANCH  38  39
ENDBRANCH  37  38
ENDBRANCH  36  37
ENDBRANCH   3  36
TORSDOF 15
ENDMDL
