MODEL 1
REMARK VINA RESULT:     -11.2      0.000      0.000
REMARK SMILES CC[C@@H]([NH3+])C(=O)N1CC[C@H](C(=O)NCCCNC(=O)c2ccc(-c3c4nc(c(-c5c(F)cccc5F)c5ccc([nH]5)c(-c5c(F)cccc5F)c5nc(c(-c6c(F)cccc6F)c6ccc3[nH]6)C=C5)C=C4)cc2)[C@@H]1C
REMARK SMILES IDX 14 1 13 2 11 3 12 4 10 6 7 7 8 8 74 9 9 10 75 11 5 12 6 13
REMARK SMILES IDX 3 14 2 15 1 16 4 17 15 21 16 22 17 23 18 24 19 26 20 27
REMARK SMILES IDX 21 28 73 29 22 30 72 31 23 32 24 33 25 34 66 35 26 36 71 37
REMARK SMILES IDX 65 38 67 39 27 40 70 41 64 42 63 43 28 45 54 46 37 47 53 48
REMARK SMILES IDX 38 49 41 50 52 51 68 52 39 53 40 54 51 56 69 57 42 58 29 59
REMARK SMILES IDX 30 60 35 61 31 62 32 63 34 64 36 65 33 66 55 67 56 68 61 69
REMARK SMILES IDX 57 70 58 71 60 72 62 73 59 74 43 75 44 76 49 77 45 78 46 79
REMARK SMILES IDX 48 80 50 81 47 82
REMARK H PARENT 13 5 4 18 4 19 4 20 17 25 67 44 41 55
REMARK Flexibility Score: inf
ROOT
ATOM      1  C   UNL A   1      31.793  30.619  26.162  1.00  0.00     0.117 C 
ENDROOT
BRANCH   1   2
ATOM      2  N   UNL A   1      31.037  30.450  24.934  1.00  0.00    -0.356 N 
ATOM      3  C   UNL A   1      30.842  29.360  24.142  1.00  0.00     0.225 C 
ATOM      4  O   UNL A   1      30.075  29.490  23.187  1.00  0.00    -0.275 OA
ATOM      5  H   UNL A   1      30.587  31.266  24.618  1.00  0.00     0.163 HD
BRANCH   3   6
ATOM      6  C   UNL A   1      31.517  28.034  24.467  1.00  0.00     0.102 C 
ATOM      7  N   UNL A   1      32.375  26.563  22.780  1.00  0.00    -0.334 N 
ATOM      8  C   UNL A   1      30.930  26.444  22.764  1.00  0.00     0.121 C 
ATOM      9  C   UNL A   1      32.775  27.684  23.632  1.00  0.00     0.094 C 
ATOM     10  C   UNL A   1      30.535  26.895  24.161  1.00  0.00     0.037 C 
ATOM     11  C   UNL A   1      33.324  28.845  22.799  1.00  0.00     0.032 C 
BRANCH   7  12
ATOM     12  C   UNL A   1      33.142  25.629  22.118  1.00  0.00     0.280 C 
ATOM     13  O   UNL A   1      33.375  25.759  20.908  1.00  0.00    -0.268 OA
BRANCH  12  14
ATOM     14  C   UNL A   1      33.524  24.278  22.794  1.00  0.00     0.270 C 
BRANCH  14  15
ATOM     15  C   UNL A   1      33.397  24.154  24.312  1.00  0.00     0.072 C 
ATOM     16  C   UNL A   1      34.575  24.761  25.070  1.00  0.00     0.011 C 
ENDBRANCH  14  15
BRANCH  14  17
ATOM     17  N   UNL A   1      32.800  23.194  22.085  1.00  0.00    -0.347 N 
ATOM     18  H   UNL A   1      32.071  23.600  21.498  1.00  0.00     0.345 HD
ATOM     19  H   UNL A   1      32.376  22.566  22.767  1.00  0.00     0.345 HD
ATOM     20  H   UNL A   1      33.454  22.672  21.502  1.00  0.00     0.345 HD
ENDBRANCH  14  17
ENDBRANCH  12  14
ENDBRANCH   7  12
ENDBRANCH   3   6
ENDBRANCH   1   2
BRANCH   1  21
ATOM     21  C   UNL A   1      31.478  31.939  26.854  1.00  0.00     0.042 C 
BRANCH  21  22
ATOM     22  C   UNL A   1      32.713  32.740  27.262  1.00  0.00     0.118 C 
BRANCH  22  23
ATOM     23  N   UNL A   1      32.408  34.123  27.609  1.00  0.00    -0.352 N 
ATOM     24  C   UNL A   1      32.980  34.943  28.552  1.00  0.00     0.251 C 
ATOM     25  H   UNL A   1      31.682  34.533  27.086  1.00  0.00     0.163 HD
ATOM     26  O   UNL A   1      32.479  36.036  28.798  1.00  0.00    -0.269 OA
BRANCH  24  27
ATOM     27  C   UNL A   1      34.183  34.502  29.287  1.00  0.00     0.039 A 
ATOM     28  C   UNL A   1      34.033  33.935  30.557  1.00  0.00     0.014 A 
ATOM     29  C   UNL A   1      35.453  34.648  28.728  1.00  0.00     0.014 A 
ATOM     30  C   UNL A   1      35.152  33.440  31.231  1.00  0.00     0.010 A 
ATOM     31  C   UNL A   1      36.554  34.087  29.365  1.00  0.00     0.010 A 
ATOM     32  C   UNL A   1      36.416  33.474  30.621  1.00  0.00    -0.014 A 
BRANCH  32  33
ATOM     33  C   UNL A   1      37.621  32.893  31.266  1.00  0.00     0.031 A 
ATOM     34  C   UNL A   1      38.281  31.689  30.656  1.00  0.00     0.074 A 
ATOM     35  C   UNL A   1      38.053  33.376  32.447  1.00  0.00     0.049 A 
ATOM     36  N   UNL A   1      39.218  30.920  31.146  1.00  0.00    -0.248 NA
ATOM     37  C   UNL A   1      37.797  31.275  29.328  1.00  0.00     0.031 C 
ATOM     38  C   UNL A   1      37.484  34.524  33.155  1.00  0.00     0.029 A 
ATOM     39  N   UNL A   1      39.057  32.940  33.277  1.00  0.00    -0.354 N 
ATOM     40  C   UNL A   1      39.414  29.918  30.204  1.00  0.00     0.074 A 
ATOM     41  C   UNL A   1      38.470  30.152  29.134  1.00  0.00     0.031 C 
ATOM     42  C   UNL A   1      38.150  34.704  34.307  1.00  0.00     0.029 A 
ATOM     43  C   UNL A   1      39.157  33.657  34.444  1.00  0.00     0.049 A 
ATOM     44  H   UNL A   1      39.649  32.185  33.055  1.00  0.00     0.167 HD
ATOM     45  C   UNL A   1      40.313  28.905  30.223  1.00  0.00     0.037 A 
ATOM     46  C   UNL A   1      39.954  33.476  35.515  1.00  0.00     0.037 A 
ATOM     47  C   UNL A   1      41.270  28.695  31.275  1.00  0.00     0.049 A 
ATOM     48  C   UNL A   1      40.930  32.331  35.522  1.00  0.00     0.074 A 
ATOM     49  C   UNL A   1      42.258  27.730  31.361  1.00  0.00     0.029 A 
ATOM     50  N   UNL A   1      41.360  29.465  32.425  1.00  0.00    -0.354 N 
ATOM     51  N   UNL A   1      41.138  31.418  34.605  1.00  0.00    -0.248 NA
ATOM     52  C   UNL A   1      41.782  32.188  36.711  1.00  0.00     0.031 C 
ATOM     53  C   UNL A   1      42.916  27.887  32.584  1.00  0.00     0.029 A 
ATOM     54  C   UNL A   1      42.375  28.984  33.235  1.00  0.00     0.049 A 
ATOM     55  H   UNL A   1      40.787  30.238  32.635  1.00  0.00     0.167 HD
ATOM     56  C   UNL A   1      42.169  30.621  35.085  1.00  0.00     0.074 A 
ATOM     57  C   UNL A   1      42.543  31.156  36.378  1.00  0.00     0.031 C 
ATOM     58  C   UNL A   1      42.755  29.546  34.505  1.00  0.00     0.037 A 
BRANCH  45  59
ATOM     59  C   UNL A   1      40.299  27.944  29.070  1.00  0.00     0.057 A 
ATOM     60  C   UNL A   1      41.069  28.156  27.919  1.00  0.00     0.134 A 
ATOM     61  C   UNL A   1      39.532  26.773  29.126  1.00  0.00     0.134 A 
ATOM     62  F   UNL A   1      41.818  29.264  27.796  1.00  0.00    -0.206 F 
ATOM     63  C   UNL A   1      41.056  27.254  26.854  1.00  0.00     0.040 A 
ATOM     64  C   UNL A   1      39.533  25.849  28.080  1.00  0.00     0.040 A 
ATOM     65  F   UNL A   1      38.777  26.503  30.202  1.00  0.00    -0.206 F 
ATOM     66  C   UNL A   1      40.291  26.092  26.937  1.00  0.00     0.006 A 
ENDBRANCH  45  59
BRANCH  46  67
ATOM     67  C   UNL A   1      39.870  34.404  36.671  1.00  0.00     0.057 A 
ATOM     68  C   UNL A   1      40.589  35.605  36.683  1.00  0.00     0.134 A 
ATOM     69  C   UNL A   1      39.081  34.116  37.791  1.00  0.00     0.134 A 
ATOM     70  F   UNL A   1      41.377  35.930  35.648  1.00  0.00    -0.206 F 
ATOM     71  C   UNL A   1      40.544  36.476  37.774  1.00  0.00     0.040 A 
ATOM     72  C   UNL A   1      39.007  34.989  38.878  1.00  0.00     0.040 A 
ATOM     73  F   UNL A   1      38.360  32.985  37.839  1.00  0.00    -0.206 F 
ATOM     74  C   UNL A   1      39.747  36.169  38.875  1.00  0.00     0.006 A 
ENDBRANCH  46  67
BRANCH  58  75
ATOM     75  C   UNL A   1      43.908  28.909  35.221  1.00  0.00     0.057 A 
ATOM     76  C   UNL A   1      45.230  29.321  35.018  1.00  0.00     0.134 A 
ATOM     77  C   UNL A   1      43.677  27.924  36.193  1.00  0.00     0.134 A 
ATOM     78  F   UNL A   1      45.518  30.250  34.094  1.00  0.00    -0.206 F 
ATOM     79  C   UNL A   1      46.283  28.773  35.752  1.00  0.00     0.040 A 
ATOM     80  C   UNL A   1      44.719  27.388  36.950  1.00  0.00     0.040 A 
ATOM     81  F   UNL A   1      42.432  27.491  36.441  1.00  0.00    -0.206 F 
ATOM     82  C   UNL A   1      46.027  27.812  36.730  1.00  0.00     0.006 A 
ENDBRANCH  58  75
ENDBRANCH  32  33
ENDBRANCH  24  27
ENDBRANCH  22  23
ENDBRANCH  21  22
ENDBRANCH   1  21
TORSDOF 14
ENDMDL
MODEL 2
REMARK VINA RESULT:     -11.1      5.661     10.684
REMARK SMILES CC[C@@H]([NH3+])C(=O)N1CC[C@H](C(=O)NCCCNC(=O)c2ccc(-c3c4nc(c(-c5c(F)cccc5F)c5ccc([nH]5)c(-c5c(F)cccc5F)c5nc(c(-c6c(F)cccc6F)c6ccc3[nH]6)C=C5)C=C4)cc2)[C@@H]1C
REMARK SMILES IDX 14 1 13 2 11 3 12 4 10 6 7 7 8 8 74 9 9 10 75 11 5 12 6 13
REMARK SMILES IDX 3 14 2 15 1 16 4 17 15 21 16 22 17 23 18 24 19 26 20 27
REMARK SMILES IDX 21 28 73 29 22 30 72 31 23 32 24 33 25 34 66 35 26 36 71 37
REMARK SMILES IDX 65 38 67 39 27 40 70 41 64 42 63 43 28 45 54 46 37 47 53 48
REMARK SMILES IDX 38 49 41 50 52 51 68 52 39 53 40 54 51 56 69 57 42 58 29 59
REMARK SMILES IDX 30 60 35 61 31 62 32 63 34 64 36 65 33 66 55 67 56 68 61 69
REMARK SMILES IDX 57 70 58 71 60 72 62 73 59 74 43 75 44 76 49 77 45 78 46 79
REMARK SMILES IDX 48 80 50 81 47 82
REMARK H PARENT 13 5 4 18 4 19 4 20 17 25 67 44 41 55
REMARK Flexibility Score: inf
ROOT
ATOM      1  C   UNL A   1      36.715  20.792  25.025  1.00  0.00     0.117 C 
ENDROOT
BRANCH   1   2
ATOM      2  N   UNL A   1      35.517  19.984  25.168  1.00  0.00    -0.356 N 
ATOM      3  C   UNL A   1      34.199  20.302  25.051  1.00  0.00     0.225 C 
ATOM      4  O   UNL A   1      33.387  19.381  25.148  1.00  0.00    -0.275 OA
ATOM      5  H   UNL A   1      35.687  19.039  25.387  1.00  0.00     0.163 HD
BRANCH   3   6
ATOM      6  C   UNL A   1      33.769  21.736  24.768  1.00  0.00     0.102 C 
ATOM      7  N   UNL A   1      32.095  22.871  26.055  1.00  0.00    -0.334 N 
ATOM      8  C   UNL A   1      31.412  21.922  25.195  1.00  0.00     0.121 C 
ATOM      9  C   UNL A   1      33.539  22.638  26.008  1.00  0.00     0.094 C 
ATOM     10  C   UNL A   1      32.406  21.710  24.065  1.00  0.00     0.037 C 
ATOM     11  C   UNL A   1      34.048  22.046  27.324  1.00  0.00     0.032 C 
BRANCH   7  12
ATOM     12  C   UNL A   1      31.370  23.854  26.692  1.00  0.00     0.280 C 
ATOM     13  O   UNL A   1      30.342  23.563  27.321  1.00  0.00    -0.268 OA
BRANCH  12  14
ATOM     14  C   UNL A   1      31.670  25.363  26.443  1.00  0.00     0.270 C 
BRANCH  14  15
ATOM     15  C   UNL A   1      32.394  25.765  25.158  1.00  0.00     0.072 C 
ATOM     16  C   UNL A   1      33.750  26.420  25.406  1.00  0.00     0.011 C 
ENDBRANCH  14  15
BRANCH  14  17
ATOM     17  N   UNL A   1      30.404  26.115  26.626  1.00  0.00    -0.347 N 
ATOM     18  H   UNL A   1      29.615  25.515  26.383  1.00  0.00     0.345 HD
ATOM     19  H   UNL A   1      30.405  26.936  26.022  1.00  0.00     0.345 HD
ATOM     20  H   UNL A   1      30.321  26.409  27.599  1.00  0.00     0.345 HD
ENDBRANCH  14  17
ENDBRANCH  12  14
ENDBRANCH   7  12
ENDBRANCH   3   6
ENDBRANCH   1   2
BRANCH   1  21
ATOM     21  C   UNL A   1      37.961  19.941  24.818  1.00  0.00     0.042 C 
BRANCH  21  22
ATOM     22  C   UNL A   1      39.094  20.247  25.794  1.00  0.00     0.118 C 
BRANCH  22  23
ATOM     23  N   UNL A   1      40.090  19.183  25.865  1.00  0.00    -0.352 N 
ATOM     24  C   UNL A   1      41.438  19.253  26.119  1.00  0.00     0.251 C 
ATOM     25  H   UNL A   1      39.742  18.276  25.708  1.00  0.00     0.163 HD
ATOM     26  O   UNL A   1      42.140  18.254  25.986  1.00  0.00    -0.269 OA
BRANCH  24  27
ATOM     27  C   UNL A   1      42.051  20.532  26.531  1.00  0.00     0.039 A 
ATOM     28  C   UNL A   1      42.541  21.399  25.548  1.00  0.00     0.014 A 
ATOM     29  C   UNL A   1      42.144  20.877  27.880  1.00  0.00     0.014 A 
ATOM     30  C   UNL A   1      43.050  22.647  25.915  1.00  0.00     0.010 A 
ATOM     31  C   UNL A   1      42.579  22.148  28.238  1.00  0.00     0.010 A 
ATOM     32  C   UNL A   1      43.033  23.048  27.260  1.00  0.00    -0.014 A 
BRANCH  32  33
ATOM     33  C   UNL A   1      43.494  24.393  27.689  1.00  0.00     0.031 A 
ATOM     34  C   UNL A   1      42.483  25.432  28.084  1.00  0.00     0.074 A 
ATOM     35  C   UNL A   1      44.801  24.712  27.620  1.00  0.00     0.049 A 
ATOM     36  N   UNL A   1      42.651  26.709  28.310  1.00  0.00    -0.248 NA
ATOM     37  C   UNL A   1      41.087  24.978  28.208  1.00  0.00     0.031 C 
ATOM     38  C   UNL A   1      45.878  23.802  27.229  1.00  0.00     0.029 A 
ATOM     39  N   UNL A   1      45.442  25.905  27.851  1.00  0.00    -0.354 N 
ATOM     40  C   UNL A   1      41.385  27.215  28.573  1.00  0.00     0.074 A 
ATOM     41  C   UNL A   1      40.453  26.117  28.437  1.00  0.00     0.031 C 
ATOM     42  C   UNL A   1      47.045  24.466  27.253  1.00  0.00     0.029 A 
ATOM     43  C   UNL A   1      46.793  25.859  27.610  1.00  0.00     0.049 A 
ATOM     44  H   UNL A   1      44.976  26.715  28.161  1.00  0.00     0.167 HD
ATOM     45  C   UNL A   1      41.033  28.478  28.915  1.00  0.00     0.037 A 
ATOM     46  C   UNL A   1      47.721  26.834  27.648  1.00  0.00     0.037 A 
ATOM     47  C   UNL A   1      41.968  29.558  29.079  1.00  0.00     0.049 A 
ATOM     48  C   UNL A   1      47.304  28.234  28.009  1.00  0.00     0.074 A 
ATOM     49  C   UNL A   1      41.718  30.860  29.476  1.00  0.00     0.029 A 
ATOM     50  N   UNL A   1      43.334  29.461  28.857  1.00  0.00    -0.354 N 
ATOM     51  N   UNL A   1      46.110  28.691  28.301  1.00  0.00    -0.248 NA
ATOM     52  C   UNL A   1      48.360  29.256  28.047  1.00  0.00     0.031 C 
ATOM     53  C   UNL A   1      42.925  31.563  29.449  1.00  0.00     0.029 A 
ATOM     54  C   UNL A   1      43.937  30.686  29.090  1.00  0.00     0.049 A 
ATOM     55  H   UNL A   1      43.804  28.643  28.575  1.00  0.00     0.167 HD
ATOM     56  C   UNL A   1      46.278  30.037  28.597  1.00  0.00     0.074 A 
ATOM     57  C   UNL A   1      47.689  30.327  28.446  1.00  0.00     0.031 C 
ATOM     58  C   UNL A   1      45.347  30.950  28.965  1.00  0.00     0.037 A 
BRANCH  45  59
ATOM     59  C   UNL A   1      39.575  28.758  29.131  1.00  0.00     0.057 A 
ATOM     60  C   UNL A   1      38.970  28.611  30.385  1.00  0.00     0.134 A 
ATOM     61  C   UNL A   1      38.773  29.214  28.077  1.00  0.00     0.134 A 
ATOM     62  F   UNL A   1      39.679  28.167  31.435  1.00  0.00    -0.206 F 
ATOM     63  C   UNL A   1      37.613  28.881  30.579  1.00  0.00     0.040 A 
ATOM     64  C   UNL A   1      37.423  29.516  28.264  1.00  0.00     0.040 A 
ATOM     65  F   UNL A   1      39.290  29.385  26.850  1.00  0.00    -0.206 F 
ATOM     66  C   UNL A   1      36.838  29.342  29.517  1.00  0.00     0.006 A 
ENDBRANCH  45  59
BRANCH  46  67
ATOM     67  C   UNL A   1      49.141  26.525  27.342  1.00  0.00     0.057 A 
ATOM     68  C   UNL A   1      49.648  26.680  26.046  1.00  0.00     0.134 A 
ATOM     69  C   UNL A   1      50.022  26.062  28.326  1.00  0.00     0.134 A 
ATOM     70  F   UNL A   1      48.850  27.103  25.055  1.00  0.00    -0.206 F 
ATOM     71  C   UNL A   1      50.973  26.366  25.735  1.00  0.00     0.040 A 
ATOM     72  C   UNL A   1      51.356  25.768  28.035  1.00  0.00     0.040 A 
ATOM     73  F   UNL A   1      49.601  25.899  29.589  1.00  0.00    -0.206 F 
ATOM     74  C   UNL A   1      51.832  25.912  26.734  1.00  0.00     0.006 A 
ENDBRANCH  46  67
BRANCH  58  75
ATOM     75  C   UNL A   1      45.819  32.334  29.298  1.00  0.00     0.057 A 
ATOM     76  C   UNL A   1      45.871  33.353  28.340  1.00  0.00     0.134 A 
ATOM     77  C   UNL A   1      46.144  32.669  30.620  1.00  0.00     0.134 A 
ATOM     78  F   UNL A   1      45.584  33.093  27.055  1.00  0.00    -0.206 F 
ATOM     79  C   UNL A   1      46.235  34.655  28.684  1.00  0.00     0.040 A 
ATOM     80  C   UNL A   1      46.484  33.973  30.979  1.00  0.00     0.040 A 
ATOM     81  F   UNL A   1      46.105  31.739  31.587  1.00  0.00    -0.206 F 
ATOM     82  C   UNL A   1      46.530  34.971  30.009  1.00  0.00     0.006 A 
ENDBRANCH  58  75
ENDBRANCH  32  33
ENDBRANCH  24  27
ENDBRANCH  22  23
ENDBRANCH  21  22
ENDBRANCH   1  21
TORSDOF 14
ENDMDL
MODEL 3
REMARK VINA RESULT:     -11.1      5.809     10.857
REMARK SMILES CC[C@@H]([NH3+])C(=O)N1CC[C@H](C(=O)NCCCNC(=O)c2ccc(-c3c4nc(c(-c5c(F)cccc5F)c5ccc([nH]5)c(-c5c(F)cccc5F)c5nc(c(-c6c(F)cccc6F)c6ccc3[nH]6)C=C5)C=C4)cc2)[C@@H]1C
REMARK SMILES IDX 14 1 13 2 11 3 12 4 10 6 7 7 8 8 74 9 9 10 75 11 5 12 6 13
REMARK SMILES IDX 3 14 2 15 1 16 4 17 15 21 16 22 17 23 18 24 19 26 20 27
REMARK SMILES IDX 21 28 73 29 22 30 72 31 23 32 24 33 25 34 66 35 26 36 71 37
REMARK SMILES IDX 65 38 67 39 27 40 70 41 64 42 63 43 28 45 54 46 37 47 53 48
REMARK SMILES IDX 38 49 41 50 52 51 68 52 39 53 40 54 51 56 69 57 42 58 29 59
REMARK SMILES IDX 30 60 35 61 31 62 32 63 34 64 36 65 33 66 55 67 56 68 61 69
REMARK SMILES IDX 57 70 58 71 60 72 62 73 59 74 43 75 44 76 49 77 45 78 46 79
REMARK SMILES IDX 48 80 50 81 47 82
REMARK H PARENT 13 5 4 18 4 19 4 20 17 25 67 44 41 55
REMARK Flexibility Score: inf
ROOT
ATOM      1  C   UNL A   1      36.788  20.790  25.004  1.00  0.00     0.117 C 
ENDROOT
BRANCH   1   2
ATOM      2  N   UNL A   1      35.586  19.983  25.118  1.00  0.00    -0.356 N 
ATOM      3  C   UNL A   1      34.271  20.308  24.989  1.00  0.00     0.225 C 
ATOM      4  O   UNL A   1      33.455  19.388  25.060  1.00  0.00    -0.275 OA
ATOM      5  H   UNL A   1      35.751  19.035  25.325  1.00  0.00     0.163 HD
BRANCH   3   6
ATOM      6  C   UNL A   1      33.849  21.747  24.723  1.00  0.00     0.102 C 
ATOM      7  N   UNL A   1      32.101  22.838  25.947  1.00  0.00    -0.334 N 
ATOM      8  C   UNL A   1      31.471  21.912  25.026  1.00  0.00     0.121 C 
ATOM      9  C   UNL A   1      33.546  22.613  25.973  1.00  0.00     0.094 C 
ATOM     10  C   UNL A   1      32.526  21.736  23.946  1.00  0.00     0.037 C 
ATOM     11  C   UNL A   1      33.986  21.987  27.298  1.00  0.00     0.032 C 
BRANCH   7  12
ATOM     12  C   UNL A   1      31.337  23.801  26.572  1.00  0.00     0.280 C 
ATOM     13  O   UNL A   1      30.354  23.472  27.250  1.00  0.00    -0.268 OA
BRANCH  12  14
ATOM     14  C   UNL A   1      31.528  25.313  26.249  1.00  0.00     0.270 C 
BRANCH  14  15
ATOM     15  C   UNL A   1      32.131  25.706  24.900  1.00  0.00     0.072 C 
ATOM     16  C   UNL A   1      33.590  26.143  24.993  1.00  0.00     0.011 C 
ENDBRANCH  14  15
BRANCH  14  17
ATOM     17  N   UNL A   1      30.237  25.999  26.501  1.00  0.00    -0.347 N 
ATOM     18  H   UNL A   1      30.332  26.992  26.287  1.00  0.00     0.345 HD
ATOM     19  H   UNL A   1      29.978  25.887  27.481  1.00  0.00     0.345 HD
ATOM     20  H   UNL A   1      29.513  25.591  25.909  1.00  0.00     0.345 HD
ENDBRANCH  14  17
ENDBRANCH  12  14
ENDBRANCH   7  12
ENDBRANCH   3   6
ENDBRANCH   1   2
BRANCH   1  21
ATOM     21  C   UNL A   1      38.034  19.938  24.800  1.00  0.00     0.042 C 
BRANCH  21  22
ATOM     22  C   UNL A   1      39.176  20.263  25.762  1.00  0.00     0.118 C 
BRANCH  22  23
ATOM     23  N   UNL A   1      40.159  19.191  25.864  1.00  0.00    -0.352 N 
ATOM     24  C   UNL A   1      41.509  19.252  26.113  1.00  0.00     0.251 C 
ATOM     25  H   UNL A   1      39.800  18.283  25.737  1.00  0.00     0.163 HD
ATOM     26  O   UNL A   1      42.198  18.241  26.010  1.00  0.00    -0.269 OA
BRANCH  24  27
ATOM     27  C   UNL A   1      42.138  20.537  26.481  1.00  0.00     0.039 A 
ATOM     28  C   UNL A   1      42.614  21.376  25.469  1.00  0.00     0.014 A 
ATOM     29  C   UNL A   1      42.260  20.912  27.820  1.00  0.00     0.014 A 
ATOM     30  C   UNL A   1      43.137  22.629  25.796  1.00  0.00     0.010 A 
ATOM     31  C   UNL A   1      42.710  22.189  28.139  1.00  0.00     0.010 A 
ATOM     32  C   UNL A   1      43.151  23.062  27.131  1.00  0.00    -0.014 A 
BRANCH  32  33
ATOM     33  C   UNL A   1      43.628  24.414  27.519  1.00  0.00     0.031 A 
ATOM     34  C   UNL A   1      42.632  25.466  27.916  1.00  0.00     0.074 A 
ATOM     35  C   UNL A   1      44.934  24.725  27.410  1.00  0.00     0.049 A 
ATOM     36  N   UNL A   1      42.812  26.747  28.110  1.00  0.00    -0.248 NA
ATOM     37  C   UNL A   1      41.238  25.023  28.086  1.00  0.00     0.031 C 
ATOM     38  C   UNL A   1      45.997  23.800  27.012  1.00  0.00     0.029 A 
ATOM     39  N   UNL A   1      45.587  25.918  27.599  1.00  0.00    -0.354 N 
ATOM     40  C   UNL A   1      41.556  27.266  28.394  1.00  0.00     0.074 A 
ATOM     41  C   UNL A   1      40.615  26.170  28.305  1.00  0.00     0.031 C 
ATOM     42  C   UNL A   1      47.167  24.459  26.992  1.00  0.00     0.029 A 
ATOM     43  C   UNL A   1      46.931  25.860  27.325  1.00  0.00     0.049 A 
ATOM     44  H   UNL A   1      45.133  26.738  27.902  1.00  0.00     0.167 HD
ATOM     45  C   UNL A   1      41.219  28.537  28.717  1.00  0.00     0.037 A 
ATOM     46  C   UNL A   1      47.865  26.831  27.317  1.00  0.00     0.037 A 
ATOM     47  C   UNL A   1      42.163  29.616  28.833  1.00  0.00     0.049 A 
ATOM     48  C   UNL A   1      47.464  28.241  27.659  1.00  0.00     0.074 A 
ATOM     49  C   UNL A   1      41.929  30.928  29.208  1.00  0.00     0.029 A 
ATOM     50  N   UNL A   1      43.522  29.507  28.579  1.00  0.00    -0.354 N 
ATOM     51  N   UNL A   1      46.280  28.710  27.971  1.00  0.00    -0.248 NA
ATOM     52  C   UNL A   1      48.525  29.258  27.647  1.00  0.00     0.031 C 
ATOM     53  C   UNL A   1      43.139  31.624  29.135  1.00  0.00     0.029 A 
ATOM     54  C   UNL A   1      44.136  30.733  28.770  1.00  0.00     0.049 A 
ATOM     55  H   UNL A   1      43.981  28.681  28.303  1.00  0.00     0.167 HD
ATOM     56  C   UNL A   1      46.461  30.062  28.233  1.00  0.00     0.074 A 
ATOM     57  C   UNL A   1      47.869  30.340  28.040  1.00  0.00     0.031 C 
ATOM     58  C   UNL A   1      45.544  30.987  28.604  1.00  0.00     0.037 A 
BRANCH  45  59
ATOM     59  C   UNL A   1      39.768  28.830  28.963  1.00  0.00     0.057 A 
ATOM     60  C   UNL A   1      38.900  29.197  27.926  1.00  0.00     0.134 A 
ATOM     61  C   UNL A   1      39.224  28.711  30.248  1.00  0.00     0.134 A 
ATOM     62  F   UNL A   1      39.359  29.340  26.673  1.00  0.00    -0.206 F 
ATOM     63  C   UNL A   1      37.549  29.461  28.163  1.00  0.00     0.040 A 
ATOM     64  C   UNL A   1      37.870  28.944  30.493  1.00  0.00     0.040 A 
ATOM     65  F   UNL A   1      39.998  28.357  31.286  1.00  0.00    -0.206 F 
ATOM     66  C   UNL A   1      37.030  29.327  29.449  1.00  0.00     0.006 A 
ENDBRANCH  45  59
BRANCH  46  67
ATOM     67  C   UNL A   1      49.275  26.507  26.983  1.00  0.00     0.057 A 
ATOM     68  C   UNL A   1      50.201  26.201  27.987  1.00  0.00     0.134 A 
ATOM     69  C   UNL A   1      49.735  26.502  25.661  1.00  0.00     0.134 A 
ATOM     70  F   UNL A   1      49.826  26.206  29.274  1.00  0.00    -0.206 F 
ATOM     71  C   UNL A   1      51.537  25.922  27.691  1.00  0.00     0.040 A 
ATOM     72  C   UNL A   1      51.062  26.201  25.348  1.00  0.00     0.040 A 
ATOM     73  F   UNL A   1      48.896  26.779  24.651  1.00  0.00    -0.206 F 
ATOM     74  C   UNL A   1      51.969  25.918  26.367  1.00  0.00     0.006 A 
ENDBRANCH  46  67
BRANCH  58  75
ATOM     75  C   UNL A   1      46.031  32.376  28.894  1.00  0.00     0.057 A 
ATOM     76  C   UNL A   1      46.494  32.752  30.160  1.00  0.00     0.134 A 
ATOM     77  C   UNL A   1      46.115  33.323  27.864  1.00  0.00     0.134 A 
ATOM     78  F   UNL A   1      46.428  31.895  31.190  1.00  0.00    -0.206 F 
ATOM     79  C   UNL A   1      47.019  34.024  30.393  1.00  0.00     0.040 A 
ATOM     80  C   UNL A   1      46.662  34.588  28.079  1.00  0.00     0.040 A 
ATOM     81  F   UNL A   1      45.695  33.021  26.625  1.00  0.00    -0.206 F 
ATOM     82  C   UNL A   1      47.116  34.942  29.347  1.00  0.00     0.006 A 
ENDBRANCH  58  75
ENDBRANCH  32  33
ENDBRANCH  24  27
ENDBRANCH  22  23
ENDBRANCH  21  22
ENDBRANCH   1  21
TORSDOF 14
ENDMDL
