MODEL 1
REMARK VINA RESULT:     -11.8      0.000      0.000
REMARK SMILES COc1ccccc1NC(=O)N[C@@](C)(C(=O)NCCCNC(=O)c1ccc(-c2c3nc(c(-c4c(F)cccc4F)c4ccc([nH]4)c(-c4c(F)cccc4F)c4nc(c(-c5c(F)cccc5F)c5ccc2[nH]5)C=C4)C=C3)cc1)C(F)(F)F
REMARK SMILES IDX 18 1 17 2 15 3 16 4 13 6 14 7 12 8 9 9 10 10 11 12 8 14 3 15
REMARK SMILES IDX 4 16 5 17 7 18 6 19 2 20 1 21 78 22 79 23 80 24 81 25 19 26
REMARK SMILES IDX 20 27 21 28 22 29 23 31 24 32 25 33 77 34 26 35 76 36 27 37
REMARK SMILES IDX 28 38 29 39 70 40 30 41 75 42 69 43 71 44 31 45 74 46 68 47
REMARK SMILES IDX 67 48 32 50 58 51 41 52 57 53 42 54 45 55 56 56 72 57 43 58
REMARK SMILES IDX 44 59 55 61 73 62 46 63 33 64 34 65 39 66 35 67 36 68 38 69
REMARK SMILES IDX 40 70 37 71 59 72 60 73 65 74 61 75 62 76 64 77 66 78 63 79
REMARK SMILES IDX 47 80 48 81 53 82 49 83 50 84 52 85 54 86 51 87
REMARK H PARENT 17 5 9 11 12 13 21 30 71 49 45 60
REMARK Flexibility Score: inf
ROOT
ATOM      1  C   UNL A   1      36.557  20.463  25.052  1.00  0.00     0.117 C 
ENDROOT
BRANCH   1   2
ATOM      2  N   UNL A   1      36.360  21.506  26.038  1.00  0.00    -0.354 N 
ATOM      3  C   UNL A   1      35.952  22.777  25.735  1.00  0.00     0.255 C 
ATOM      4  O   UNL A   1      36.819  23.643  25.851  1.00  0.00    -0.272 OA
ATOM      5  H   UNL A   1      36.531  21.288  26.982  1.00  0.00     0.163 HD
BRANCH   3   6
ATOM      6  C   UNL A   1      34.490  23.038  25.256  1.00  0.00     0.213 C 
ATOM      7  C   UNL A   1      33.914  24.151  26.153  1.00  0.00     0.056 C 
BRANCH   6   8
ATOM      8  N   UNL A   1      33.657  21.801  25.400  1.00  0.00    -0.316 N 
ATOM      9  N   UNL A   1      31.349  22.204  24.859  1.00  0.00    -0.305 N 
ATOM     10  C   UNL A   1      32.374  21.440  25.261  1.00  0.00     0.320 C 
ATOM     11  H   UNL A   1      30.621  21.663  24.478  1.00  0.00     0.172 HD
ATOM     12  O   UNL A   1      32.147  20.230  25.395  1.00  0.00    -0.248 OA
ATOM     13  H   UNL A   1      34.210  21.035  25.677  1.00  0.00     0.166 HD
BRANCH   9  14
ATOM     14  C   UNL A   1      31.038  23.572  24.840  1.00  0.00     0.085 A 
ATOM     15  C   UNL A   1      30.574  24.209  26.007  1.00  0.00     0.142 A 
ATOM     16  C   UNL A   1      29.964  25.468  25.913  1.00  0.00     0.048 A 
ATOM     17  C   UNL A   1      29.906  26.136  24.690  1.00  0.00     0.004 A 
ATOM     18  C   UNL A   1      31.141  24.327  23.673  1.00  0.00     0.030 A 
ATOM     19  C   UNL A   1      30.542  25.588  23.581  1.00  0.00     0.002 A 
BRANCH  15  20
ATOM     20  O   UNL A   1      30.466  23.602  27.233  1.00  0.00    -0.495 OA
ATOM     21  C   UNL A   1      29.326  22.760  27.374  1.00  0.00     0.278 C 
ENDBRANCH  15  20
ENDBRANCH   9  14
ENDBRANCH   6   8
BRANCH   6  22
ATOM     22  C   UNL A   1      34.786  23.494  23.799  1.00  0.00     0.420 C 
ATOM     23  F   UNL A   1      36.059  23.227  23.422  1.00  0.00    -0.168 F 
ATOM     24  F   UNL A   1      34.002  22.918  22.879  1.00  0.00    -0.168 F 
ATOM     25  F   UNL A   1      34.572  24.828  23.650  1.00  0.00    -0.168 F 
ENDBRANCH   6  22
ENDBRANCH   3   6
ENDBRANCH   1   2
BRANCH   1  26
ATOM     26  C   UNL A   1      38.029  20.372  24.651  1.00  0.00     0.042 C 
BRANCH  26  27
ATOM     27  C   UNL A   1      39.012  20.461  25.821  1.00  0.00     0.118 C 
BRANCH  27  28
ATOM     28  N   UNL A   1      39.932  19.331  25.883  1.00  0.00    -0.352 N 
ATOM     29  C   UNL A   1      41.286  19.318  26.121  1.00  0.00     0.251 C 
ATOM     30  H   UNL A   1      39.525  18.448  25.732  1.00  0.00     0.163 HD
ATOM     31  O   UNL A   1      41.931  18.291  25.979  1.00  0.00    -0.269 OA
BRANCH  29  32
ATOM     32  C   UNL A   1      41.953  20.575  26.510  1.00  0.00     0.039 A 
ATOM     33  C   UNL A   1      42.387  21.445  25.509  1.00  0.00     0.014 A 
ATOM     34  C   UNL A   1      42.096  20.908  27.859  1.00  0.00     0.014 A 
ATOM     35  C   UNL A   1      42.890  22.697  25.863  1.00  0.00     0.010 A 
ATOM     36  C   UNL A   1      42.509  22.189  28.204  1.00  0.00     0.010 A 
ATOM     37  C   UNL A   1      42.910  23.095  27.211  1.00  0.00    -0.014 A 
BRANCH  37  38
ATOM     38  C   UNL A   1      43.341  24.460  27.603  1.00  0.00     0.031 A 
ATOM     39  C   UNL A   1      42.313  25.486  27.988  1.00  0.00     0.074 A 
ATOM     40  C   UNL A   1      44.645  24.793  27.535  1.00  0.00     0.049 A 
ATOM     41  N   UNL A   1      42.478  26.750  28.281  1.00  0.00    -0.248 NA
ATOM     42  C   UNL A   1      40.909  25.044  28.016  1.00  0.00     0.031 C 
ATOM     43  C   UNL A   1      45.730  23.898  27.119  1.00  0.00     0.029 A 
ATOM     44  N   UNL A   1      45.281  25.979  27.801  1.00  0.00    -0.354 N 
ATOM     45  C   UNL A   1      41.203  27.257  28.501  1.00  0.00     0.074 A 
ATOM     46  C   UNL A   1      40.270  26.179  28.261  1.00  0.00     0.031 C 
ATOM     47  C   UNL A   1      46.897  24.561  27.182  1.00  0.00     0.029 A 
ATOM     48  C   UNL A   1      46.641  25.936  27.598  1.00  0.00     0.049 A 
ATOM     49  H   UNL A   1      44.809  26.786  28.109  1.00  0.00     0.167 HD
ATOM     50  C   UNL A   1      40.846  28.503  28.888  1.00  0.00     0.037 A 
ATOM     51  C   UNL A   1      47.572  26.900  27.721  1.00  0.00     0.037 A 
ATOM     52  C   UNL A   1      41.783  29.558  29.166  1.00  0.00     0.049 A 
ATOM     53  C   UNL A   1      47.143  28.276  28.156  1.00  0.00     0.074 A 
ATOM     54  C   UNL A   1      41.529  30.826  29.657  1.00  0.00     0.029 A 
ATOM     55  N   UNL A   1      43.152  29.469  28.971  1.00  0.00    -0.354 N 
ATOM     56  N   UNL A   1      45.944  28.712  28.457  1.00  0.00    -0.248 NA
ATOM     57  C   UNL A   1      48.197  29.293  28.272  1.00  0.00     0.031 C 
ATOM     58  C   UNL A   1      42.739  31.524  29.705  1.00  0.00     0.029 A 
ATOM     59  C   UNL A   1      43.754  30.672  29.300  1.00  0.00     0.049 A 
ATOM     60  H   UNL A   1      43.627  28.668  28.649  1.00  0.00     0.167 HD
ATOM     61  C   UNL A   1      46.104  30.041  28.827  1.00  0.00     0.074 A 
ATOM     62  C   UNL A   1      47.518  30.334  28.730  1.00  0.00     0.031 C 
ATOM     63  C   UNL A   1      45.165  30.940  29.210  1.00  0.00     0.037 A 
BRANCH  50  64
ATOM     64  C   UNL A   1      39.382  28.799  29.038  1.00  0.00     0.057 A 
ATOM     65  C   UNL A   1      38.713  28.638  30.259  1.00  0.00     0.134 A 
ATOM     66  C   UNL A   1      38.646  29.308  27.961  1.00  0.00     0.134 A 
ATOM     67  F   UNL A   1      39.357  28.144  31.327  1.00  0.00    -0.206 F 
ATOM     68  C   UNL A   1      37.360  28.956  30.397  1.00  0.00     0.040 A 
ATOM     69  C   UNL A   1      37.301  29.655  28.094  1.00  0.00     0.040 A 
ATOM     70  F   UNL A   1      39.227  29.490  26.765  1.00  0.00    -0.206 F 
ATOM     71  C   UNL A   1      36.654  29.476  29.315  1.00  0.00     0.006 A 
ENDBRANCH  50  64
BRANCH  51  72
ATOM     72  C   UNL A   1      49.002  26.610  27.438  1.00  0.00     0.057 A 
ATOM     73  C   UNL A   1      49.541  26.805  26.160  1.00  0.00     0.134 A 
ATOM     74  C   UNL A   1      49.855  26.093  28.422  1.00  0.00     0.134 A 
ATOM     75  F   UNL A   1      48.770  27.280  25.170  1.00  0.00    -0.206 F 
ATOM     76  C   UNL A   1      50.862  26.469  25.862  1.00  0.00     0.040 A 
ATOM     77  C   UNL A   1      51.187  25.780  28.144  1.00  0.00     0.040 A 
ATOM     78  F   UNL A   1      49.406  25.889  29.669  1.00  0.00    -0.206 F 
ATOM     79  C   UNL A   1      51.690  25.956  26.858  1.00  0.00     0.006 A 
ENDBRANCH  51  72
BRANCH  63  80
ATOM     80  C   UNL A   1      45.641  32.311  29.590  1.00  0.00     0.057 A 
ATOM     81  C   UNL A   1      46.056  32.617  30.891  1.00  0.00     0.134 A 
ATOM     82  C   UNL A   1      45.729  33.325  28.626  1.00  0.00     0.134 A 
ATOM     83  F   UNL A   1      45.984  31.694  31.862  1.00  0.00    -0.206 F 
ATOM     84  C   UNL A   1      46.521  33.889  31.227  1.00  0.00     0.040 A 
ATOM     85  C   UNL A   1      46.221  34.592  28.943  1.00  0.00     0.040 A 
ATOM     86  F   UNL A   1      45.357  33.095  27.358  1.00  0.00    -0.206 F 
ATOM     87  C   UNL A   1      46.613  34.878  30.249  1.00  0.00     0.006 A 
ENDBRANCH  63  80
ENDBRANCH  37  38
ENDBRANCH  29  32
ENDBRANCH  27  28
ENDBRANCH  26  27
ENDBRANCH   1  26
TORSDOF 14
ENDMDL
MODEL 2
REMARK VINA RESULT:     -11.7      0.309      6.190
REMARK SMILES COc1ccccc1NC(=O)N[C@@](C)(C(=O)NCCCNC(=O)c1ccc(-c2c3nc(c(-c4c(F)cccc4F)c4ccc([nH]4)c(-c4c(F)cccc4F)c4nc(c(-c5c(F)cccc5F)c5ccc2[nH]5)C=C4)C=C3)cc1)C(F)(F)F
REMARK SMILES IDX 18 1 17 2 15 3 16 4 13 6 14 7 12 8 9 9 10 10 11 12 8 14 3 15
REMARK SMILES IDX 4 16 5 17 7 18 6 19 2 20 1 21 78 22 79 23 80 24 81 25 19 26
REMARK SMILES IDX 20 27 21 28 22 29 23 31 24 32 25 33 77 34 26 35 76 36 27 37
REMARK SMILES IDX 28 38 29 39 70 40 30 41 75 42 69 43 71 44 31 45 74 46 68 47
REMARK SMILES IDX 67 48 32 50 58 51 41 52 57 53 42 54 45 55 56 56 72 57 43 58
REMARK SMILES IDX 44 59 55 61 73 62 46 63 33 64 34 65 39 66 35 67 36 68 38 69
REMARK SMILES IDX 40 70 37 71 59 72 60 73 65 74 61 75 62 76 64 77 66 78 63 79
REMARK SMILES IDX 47 80 48 81 53 82 49 83 50 84 52 85 54 86 51 87
REMARK H PARENT 17 5 9 11 12 13 21 30 71 49 45 60
REMARK Flexibility Score: inf
ROOT
ATOM      1  C   UNL A   1      36.531  20.311  25.012  1.00  0.00     0.117 C 
ENDROOT
BRANCH   1   2
ATOM      2  N   UNL A   1      36.388  21.397  25.960  1.00  0.00    -0.354 N 
ATOM      3  C   UNL A   1      35.993  22.662  25.619  1.00  0.00     0.255 C 
ATOM      4  O   UNL A   1      36.879  23.515  25.669  1.00  0.00    -0.272 OA
ATOM      5  H   UNL A   1      36.588  21.213  26.906  1.00  0.00     0.163 HD
BRANCH   3   6
ATOM      6  C   UNL A   1      34.520  22.933  25.181  1.00  0.00     0.213 C 
ATOM      7  C   UNL A   1      33.980  24.059  26.085  1.00  0.00     0.056 C 
BRANCH   6   8
ATOM      8  N   UNL A   1      33.680  21.704  25.361  1.00  0.00    -0.316 N 
ATOM      9  N   UNL A   1      31.365  22.119  24.862  1.00  0.00    -0.305 N 
ATOM     10  C   UNL A   1      32.391  21.352  25.253  1.00  0.00     0.320 C 
ATOM     11  H   UNL A   1      30.625  21.579  24.504  1.00  0.00     0.172 HD
ATOM     12  O   UNL A   1      32.158  20.146  25.409  1.00  0.00    -0.248 OA
ATOM     13  H   UNL A   1      34.233  20.938  25.636  1.00  0.00     0.166 HD
BRANCH   9  14
ATOM     14  C   UNL A   1      31.064  23.490  24.830  1.00  0.00     0.085 A 
ATOM     15  C   UNL A   1      30.610  24.142  25.992  1.00  0.00     0.142 A 
ATOM     16  C   UNL A   1      30.009  25.405  25.887  1.00  0.00     0.048 A 
ATOM     17  C   UNL A   1      29.951  26.060  24.658  1.00  0.00     0.004 A 
ATOM     18  C   UNL A   1      31.169  24.232  23.655  1.00  0.00     0.030 A 
ATOM     19  C   UNL A   1      30.580  25.496  23.552  1.00  0.00     0.002 A 
BRANCH  15  20
ATOM     20  O   UNL A   1      30.501  23.549  27.224  1.00  0.00    -0.495 OA
ATOM     21  C   UNL A   1      29.334  22.749  27.392  1.00  0.00     0.278 C 
ENDBRANCH  15  20
ENDBRANCH   9  14
ENDBRANCH   6   8
BRANCH   6  22
ATOM     22  C   UNL A   1      34.778  23.373  23.712  1.00  0.00     0.420 C 
ATOM     23  F   UNL A   1      34.690  24.715  23.551  1.00  0.00    -0.168 F 
ATOM     24  F   UNL A   1      35.982  23.025  23.244  1.00  0.00    -0.168 F 
ATOM     25  F   UNL A   1      33.893  22.787  22.863  1.00  0.00    -0.168 F 
ENDBRANCH   6  22
ENDBRANCH   3   6
ENDBRANCH   1   2
BRANCH   1  26
ATOM     26  C   UNL A   1      37.999  20.111  24.638  1.00  0.00     0.042 C 
BRANCH  26  27
ATOM     27  C   UNL A   1      38.979  20.299  25.799  1.00  0.00     0.118 C 
BRANCH  27  28
ATOM     28  N   UNL A   1      39.961  19.225  25.899  1.00  0.00    -0.352 N 
ATOM     29  C   UNL A   1      41.314  19.296  26.136  1.00  0.00     0.251 C 
ATOM     30  H   UNL A   1      39.603  18.315  25.780  1.00  0.00     0.163 HD
ATOM     31  O   UNL A   1      42.014  18.302  26.029  1.00  0.00    -0.269 OA
BRANCH  29  32
ATOM     32  C   UNL A   1      41.909  20.601  26.480  1.00  0.00     0.039 A 
ATOM     33  C   UNL A   1      42.310  21.450  25.448  1.00  0.00     0.014 A 
ATOM     34  C   UNL A   1      42.018  20.996  27.814  1.00  0.00     0.014 A 
ATOM     35  C   UNL A   1      42.743  22.740  25.755  1.00  0.00     0.010 A 
ATOM     36  C   UNL A   1      42.359  22.310  28.111  1.00  0.00     0.010 A 
ATOM     37  C   UNL A   1      42.725  23.194  27.085  1.00  0.00    -0.014 A 
BRANCH  37  38
ATOM     38  C   UNL A   1      43.080  24.594  27.425  1.00  0.00     0.031 A 
ATOM     39  C   UNL A   1      44.519  25.025  27.411  1.00  0.00     0.074 A 
ATOM     40  C   UNL A   1      42.116  25.448  27.821  1.00  0.00     0.049 A 
ATOM     41  N   UNL A   1      45.040  26.175  27.755  1.00  0.00    -0.248 NA
ATOM     42  C   UNL A   1      45.511  24.022  26.986  1.00  0.00     0.031 C 
ATOM     43  C   UNL A   1      40.689  25.129  27.930  1.00  0.00     0.029 A 
ATOM     44  N   UNL A   1      42.189  26.760  28.219  1.00  0.00    -0.354 N 
ATOM     45  C   UNL A   1      46.414  26.025  27.614  1.00  0.00     0.074 A 
ATOM     46  C   UNL A   1      46.653  24.660  27.200  1.00  0.00     0.031 C 
ATOM     47  C   UNL A   1      40.022  26.219  28.343  1.00  0.00     0.029 A 
ATOM     48  C   UNL A   1      40.975  27.301  28.570  1.00  0.00     0.049 A 
ATOM     49  H   UNL A   1      43.033  27.266  28.252  1.00  0.00     0.167 HD
ATOM     50  C   UNL A   1      47.387  26.948  27.793  1.00  0.00     0.037 A 
ATOM     51  C   UNL A   1      40.668  28.526  29.034  1.00  0.00     0.037 A 
ATOM     52  C   UNL A   1      47.138  28.315  28.164  1.00  0.00     0.049 A 
ATOM     53  C   UNL A   1      41.772  29.533  29.220  1.00  0.00     0.074 A 
ATOM     54  C   UNL A   1      48.045  29.354  28.277  1.00  0.00     0.029 A 
ATOM     55  N   UNL A   1      45.893  28.831  28.487  1.00  0.00    -0.354 N 
ATOM     56  N   UNL A   1      43.056  29.405  28.987  1.00  0.00    -0.248 NA
ATOM     57  C   UNL A   1      41.385  30.855  29.733  1.00  0.00     0.031 C 
ATOM     58  C   UNL A   1      47.357  30.485  28.725  1.00  0.00     0.029 A 
ATOM     59  C   UNL A   1      46.013  30.167  28.834  1.00  0.00     0.049 A 
ATOM     60  H   UNL A   1      45.049  28.325  28.472  1.00  0.00     0.167 HD
ATOM     61  C   UNL A   1      43.622  30.636  29.293  1.00  0.00     0.074 A 
ATOM     62  C   UNL A   1      42.540  31.501  29.711  1.00  0.00     0.031 C 
ATOM     63  C   UNL A   1      44.922  31.016  29.235  1.00  0.00     0.037 A 
BRANCH  50  64
ATOM     64  C   UNL A   1      48.810  26.517  27.590  1.00  0.00     0.057 A 
ATOM     65  C   UNL A   1      49.598  26.039  28.645  1.00  0.00     0.134 A 
ATOM     66  C   UNL A   1      49.379  26.525  26.310  1.00  0.00     0.134 A 
ATOM     67  F   UNL A   1      49.118  26.016  29.898  1.00  0.00    -0.206 F 
ATOM     68  C   UNL A   1      50.908  25.602  28.437  1.00  0.00     0.040 A 
ATOM     69  C   UNL A   1      50.677  26.065  26.086  1.00  0.00     0.040 A 
ATOM     70  F   UNL A   1      48.677  26.966  25.256  1.00  0.00    -0.206 F 
ATOM     71  C   UNL A   1      51.447  25.605  27.152  1.00  0.00     0.006 A 
ENDBRANCH  50  64
BRANCH  51  72
ATOM     72  C   UNL A   1      39.260  28.884  29.351  1.00  0.00     0.057 A 
ATOM     73  C   UNL A   1      38.724  28.647  30.623  1.00  0.00     0.134 A 
ATOM     74  C   UNL A   1      38.406  29.430  28.385  1.00  0.00     0.134 A 
ATOM     75  F   UNL A   1      39.486  28.108  31.587  1.00  0.00    -0.206 F 
ATOM     76  C   UNL A   1      37.384  28.910  30.914  1.00  0.00     0.040 A 
ATOM     77  C   UNL A   1      37.072  29.725  28.672  1.00  0.00     0.040 A 
ATOM     78  F   UNL A   1      38.858  29.690  27.150  1.00  0.00    -0.206 F 
ATOM     79  C   UNL A   1      36.554  29.453  29.936  1.00  0.00     0.006 A 
ENDBRANCH  51  72
BRANCH  63  80
ATOM     80  C   UNL A   1      45.239  32.437  29.595  1.00  0.00     0.057 A 
ATOM     81  C   UNL A   1      45.619  32.806  30.891  1.00  0.00     0.134 A 
ATOM     82  C   UNL A   1      45.211  33.441  28.618  1.00  0.00     0.134 A 
ATOM     83  F   UNL A   1      45.652  31.894  31.875  1.00  0.00    -0.206 F 
ATOM     84  C   UNL A   1      45.936  34.127  31.209  1.00  0.00     0.040 A 
ATOM     85  C   UNL A   1      45.556  34.760  28.916  1.00  0.00     0.040 A 
ATOM     86  F   UNL A   1      44.866  33.153  27.353  1.00  0.00    -0.206 F 
ATOM     87  C   UNL A   1      45.914  35.106  30.217  1.00  0.00     0.006 A 
ENDBRANCH  63  80
ENDBRANCH  37  38
ENDBRANCH  29  32
ENDBRANCH  27  28
ENDBRANCH  26  27
ENDBRANCH   1  26
TORSDOF 14
ENDMDL
MODEL 3
REMARK VINA RESULT:     -11.7      5.292      9.838
REMARK SMILES COc1ccccc1NC(=O)N[C@@](C)(C(=O)NCCCNC(=O)c1ccc(-c2c3nc(c(-c4c(F)cccc4F)c4ccc([nH]4)c(-c4c(F)cccc4F)c4nc(c(-c5c(F)cccc5F)c5ccc2[nH]5)C=C4)C=C3)cc1)C(F)(F)F
REMARK SMILES IDX 18 1 17 2 15 3 16 4 13 6 14 7 12 8 9 9 10 10 11 12 8 14 3 15
REMARK SMILES IDX 4 16 5 17 7 18 6 19 2 20 1 21 78 22 79 23 80 24 81 25 19 26
REMARK SMILES IDX 20 27 21 28 22 29 23 31 24 32 25 33 77 34 26 35 76 36 27 37
REMARK SMILES IDX 28 38 29 39 70 40 30 41 75 42 69 43 71 44 31 45 74 46 68 47
REMARK SMILES IDX 67 48 32 50 58 51 41 52 57 53 42 54 45 55 56 56 72 57 43 58
REMARK SMILES IDX 44 59 55 61 73 62 46 63 33 64 34 65 39 66 35 67 36 68 38 69
REMARK SMILES IDX 40 70 37 71 59 72 60 73 65 74 61 75 62 76 64 77 66 78 63 79
REMARK SMILES IDX 47 80 48 81 53 82 49 83 50 84 52 85 54 86 51 87
REMARK H PARENT 17 5 9 11 12 13 21 30 71 49 45 60
REMARK Flexibility Score: inf
ROOT
ATOM      1  C   UNL A   1      31.039  30.672  25.583  1.00  0.00     0.117 C 
ENDROOT
BRANCH   1   2
ATOM      2  N   UNL A   1      32.400  30.230  25.358  1.00  0.00    -0.354 N 
ATOM      3  C   UNL A   1      32.868  28.990  25.702  1.00  0.00     0.255 C 
ATOM      4  O   UNL A   1      33.642  28.972  26.659  1.00  0.00    -0.272 OA
ATOM      5  H   UNL A   1      33.027  30.860  24.935  1.00  0.00     0.163 HD
BRANCH   3   6
ATOM      6  C   UNL A   1      32.394  27.728  24.916  1.00  0.00     0.213 C 
ATOM      7  C   UNL A   1      33.661  26.984  24.451  1.00  0.00     0.056 C 
BRANCH   6   8
ATOM      8  N   UNL A   1      31.581  28.123  23.721  1.00  0.00    -0.316 N 
ATOM      9  N   UNL A   1      30.875  26.212  22.444  1.00  0.00    -0.305 N 
ATOM     10  C   UNL A   1      30.965  27.526  22.691  1.00  0.00     0.320 C 
ATOM     11  H   UNL A   1      30.093  26.002  21.885  1.00  0.00     0.172 HD
ATOM     12  O   UNL A   1      30.300  28.276  21.965  1.00  0.00    -0.248 OA
ATOM     13  H   UNL A   1      31.466  29.100  23.681  1.00  0.00     0.166 HD
BRANCH   9  14
ATOM     14  C   UNL A   1      31.600  25.056  22.770  1.00  0.00     0.085 A 
ATOM     15  C   UNL A   1      32.762  24.722  22.047  1.00  0.00     0.142 A 
ATOM     16  C   UNL A   1      33.292  23.428  22.149  1.00  0.00     0.048 A 
ATOM     17  C   UNL A   1      32.740  22.505  23.037  1.00  0.00     0.004 A 
ATOM     18  C   UNL A   1      31.181  24.193  23.782  1.00  0.00     0.030 A 
ATOM     19  C   UNL A   1      31.718  22.906  23.892  1.00  0.00     0.002 A 
BRANCH  15  20
ATOM     20  O   UNL A   1      33.313  25.498  21.059  1.00  0.00    -0.495 OA
ATOM     21  C   UNL A   1      32.624  25.443  19.814  1.00  0.00     0.278 C 
ENDBRANCH  15  20
ENDBRANCH   9  14
ENDBRANCH   6   8
BRANCH   6  22
ATOM     22  C   UNL A   1      31.623  27.004  26.056  1.00  0.00     0.420 C 
ATOM     23  F   UNL A   1      32.258  25.888  26.485  1.00  0.00    -0.168 F 
ATOM     24  F   UNL A   1      31.429  27.758  27.145  1.00  0.00    -0.168 F 
ATOM     25  F   UNL A   1      30.373  26.651  25.653  1.00  0.00    -0.168 F 
ENDBRANCH   6  22
ENDBRANCH   3   6
ENDBRANCH   1   2
BRANCH   1  26
ATOM     26  C   UNL A   1      31.020  32.080  26.176  1.00  0.00     0.042 C 
BRANCH  26  27
ATOM     27  C   UNL A   1      32.313  32.484  26.888  1.00  0.00     0.118 C 
BRANCH  27  28
ATOM     28  N   UNL A   1      32.272  33.840  27.425  1.00  0.00    -0.352 N 
ATOM     29  C   UNL A   1      33.097  34.442  28.346  1.00  0.00     0.251 C 
ATOM     30  H   UNL A   1      31.547  34.408  27.077  1.00  0.00     0.163 HD
ATOM     31  O   UNL A   1      32.821  35.540  28.801  1.00  0.00    -0.269 OA
BRANCH  29  32
ATOM     32  C   UNL A   1      34.300  33.720  28.803  1.00  0.00     0.039 A 
ATOM     33  C   UNL A   1      35.540  34.355  28.715  1.00  0.00     0.014 A 
ATOM     34  C   UNL A   1      34.187  32.447  29.365  1.00  0.00     0.014 A 
ATOM     35  C   UNL A   1      36.662  33.741  29.272  1.00  0.00     0.010 A 
ATOM     36  C   UNL A   1      35.285  31.882  30.001  1.00  0.00     0.010 A 
ATOM     37  C   UNL A   1      36.533  32.523  29.960  1.00  0.00    -0.014 A 
BRANCH  37  38
ATOM     38  C   UNL A   1      37.690  31.904  30.652  1.00  0.00     0.031 A 
ATOM     39  C   UNL A   1      38.494  30.839  29.958  1.00  0.00     0.074 A 
ATOM     40  C   UNL A   1      37.964  32.243  31.927  1.00  0.00     0.049 A 
ATOM     41  N   UNL A   1      39.485  30.121  30.419  1.00  0.00    -0.248 NA
ATOM     42  C   UNL A   1      38.113  30.514  28.573  1.00  0.00     0.031 C 
ATOM     43  C   UNL A   1      37.219  33.222  32.725  1.00  0.00     0.029 A 
ATOM     44  N   UNL A   1      38.937  31.794  32.783  1.00  0.00    -0.354 N 
ATOM     45  C   UNL A   1      39.826  29.247  29.396  1.00  0.00     0.074 A 
ATOM     46  C   UNL A   1      38.907  29.488  28.306  1.00  0.00     0.031 C 
ATOM     47  C   UNL A   1      37.777  33.314  33.943  1.00  0.00     0.029 A 
ATOM     48  C   UNL A   1      38.888  32.373  34.030  1.00  0.00     0.049 A 
ATOM     49  H   UNL A   1      39.607  31.118  32.530  1.00  0.00     0.167 HD
ATOM     50  C   UNL A   1      40.829  28.339  29.360  1.00  0.00     0.037 A 
ATOM     51  C   UNL A   1      39.647  32.160  35.121  1.00  0.00     0.037 A 
ATOM     52  C   UNL A   1      41.766  28.134  30.433  1.00  0.00     0.049 A 
ATOM     53  C   UNL A   1      40.757  31.145  35.050  1.00  0.00     0.074 A 
ATOM     54  C   UNL A   1      42.875  27.309  30.459  1.00  0.00     0.029 A 
ATOM     55  N   UNL A   1      41.698  28.757  31.669  1.00  0.00    -0.354 N 
ATOM     56  N   UNL A   1      41.129  30.396  34.040  1.00  0.00    -0.248 NA
ATOM     57  C   UNL A   1      41.553  30.946  36.269  1.00  0.00     0.031 C 
ATOM     58  C   UNL A   1      43.446  27.388  31.732  1.00  0.00     0.029 A 
ATOM     59  C   UNL A   1      42.727  28.308  32.479  1.00  0.00     0.049 A 
ATOM     60  H   UNL A   1      41.019  29.421  31.932  1.00  0.00     0.167 HD
ATOM     61  C   UNL A   1      42.220  29.664  34.492  1.00  0.00     0.074 A 
ATOM     62  C   UNL A   1      42.459  30.072  35.860  1.00  0.00     0.031 C 
ATOM     63  C   UNL A   1      42.957  28.736  33.834  1.00  0.00     0.037 A 
BRANCH  50  64
ATOM     64  C   UNL A   1      40.971  27.497  28.126  1.00  0.00     0.057 A 
ATOM     65  C   UNL A   1      40.312  26.269  27.985  1.00  0.00     0.134 A 
ATOM     66  C   UNL A   1      41.731  27.951  27.041  1.00  0.00     0.134 A 
ATOM     67  F   UNL A   1      39.578  25.771  28.991  1.00  0.00    -0.206 F 
ATOM     68  C   UNL A   1      40.419  25.514  26.815  1.00  0.00     0.040 A 
ATOM     69  C   UNL A   1      41.823  27.218  25.856  1.00  0.00     0.040 A 
ATOM     70  F   UNL A   1      42.384  29.121  27.108  1.00  0.00    -0.206 F 
ATOM     71  C   UNL A   1      41.168  25.994  25.743  1.00  0.00     0.006 A 
ENDBRANCH  50  64
BRANCH  51  72
ATOM     72  C   UNL A   1      39.397  32.918  36.375  1.00  0.00     0.057 A 
ATOM     73  C   UNL A   1      40.071  34.116  36.642  1.00  0.00     0.134 A 
ATOM     74  C   UNL A   1      38.514  32.446  37.353  1.00  0.00     0.134 A 
ATOM     75  F   UNL A   1      40.945  34.611  35.751  1.00  0.00    -0.206 F 
ATOM     76  C   UNL A   1      39.901  34.800  37.846  1.00  0.00     0.040 A 
ATOM     77  C   UNL A   1      38.312  33.136  38.550  1.00  0.00     0.040 A 
ATOM     78  F   UNL A   1      37.830  31.309  37.158  1.00  0.00    -0.206 F 
ATOM     79  C   UNL A   1      39.017  34.310  38.804  1.00  0.00     0.006 A 
ENDBRANCH  51  72
BRANCH  63  80
ATOM     80  C   UNL A   1      44.113  28.127  34.572  1.00  0.00     0.057 A 
ATOM     81  C   UNL A   1      44.006  26.896  35.230  1.00  0.00     0.134 A 
ATOM     82  C   UNL A   1      45.362  28.761  34.582  1.00  0.00     0.134 A 
ATOM     83  F   UNL A   1      42.834  26.245  35.269  1.00  0.00    -0.206 F 
ATOM     84  C   UNL A   1      45.095  26.327  35.891  1.00  0.00     0.040 A 
ATOM     85  C   UNL A   1      46.467  28.187  35.213  1.00  0.00     0.040 A 
ATOM     86  F   UNL A   1      45.535  29.938  33.961  1.00  0.00    -0.206 F 
ATOM     87  C   UNL A   1      46.332  26.969  35.877  1.00  0.00     0.006 A 
ENDBRANCH  63  80
ENDBRANCH  37  38
ENDBRANCH  29  32
ENDBRANCH  27  28
ENDBRANCH  26  27
ENDBRANCH   1  26
TORSDOF 14
ENDMDL
