MODEL 1
REMARK VINA RESULT:     -10.9      0.000      0.000
REMARK SMILES C[C@H](CNS(=O)(=O)c1ccc(C(=O)NCCCNC(=O)c2ccc(-c3c4nc(c(-c5c(F)cccc5F)c5ccc([nH]5)c(-c5c(F)cccc5F)c5nc(c(-c6c(F)cccc6F)c6ccc3[nH]6)C=C5)C=C4)cc2)cc1F)[NH+](C)C
REMARK SMILES IDX 12 1 13 2 14 3 11 5 8 6 9 7 76 8 10 9 75 10 77 11 5 12 6 13
REMARK SMILES IDX 7 14 4 15 3 17 2 18 1 19 78 20 79 21 80 22 15 24 16 25 17 26
REMARK SMILES IDX 18 27 19 28 20 30 21 31 22 32 74 33 23 34 73 35 24 36 25 37
REMARK SMILES IDX 26 38 67 39 27 40 72 41 66 42 68 43 28 44 71 45 65 46 64 47
REMARK SMILES IDX 29 49 55 50 38 51 54 52 39 53 42 54 53 55 69 56 40 57 41 58
REMARK SMILES IDX 52 60 70 61 43 62 30 63 31 64 36 65 32 66 33 67 35 68 37 69
REMARK SMILES IDX 34 70 56 71 57 72 62 73 58 74 59 75 61 76 63 77 60 78 44 79
REMARK SMILES IDX 45 80 50 81 46 82 47 83 49 84 51 85 48 86
REMARK H PARENT 14 4 4 16 78 23 18 29 68 48 42 59
REMARK Flexibility Score: inf
ROOT
ATOM      1  C   UNL A   1      37.342  23.342  25.646  1.00  0.00     0.251 C 
ATOM      2  O   UNL A   1      38.122  24.157  26.140  1.00  0.00    -0.269 OA
ATOM      3  N   UNL A   1      37.881  22.223  25.066  1.00  0.00    -0.352 N 
ATOM      4  H   UNL A   1      38.865  22.219  25.051  1.00  0.00     0.163 HD
ENDROOT
BRANCH   1   5
ATOM      5  C   UNL A   1      35.878  23.602  25.742  1.00  0.00     0.042 A 
ATOM      6  C   UNL A   1      33.120  24.012  26.087  1.00  0.00     0.118 A 
ATOM      7  C   UNL A   1      33.813  23.185  26.974  1.00  0.00     0.026 A 
ATOM      8  C   UNL A   1      33.799  24.651  25.064  1.00  0.00     0.144 A 
ATOM      9  C   UNL A   1      35.185  22.982  26.797  1.00  0.00     0.015 A 
ATOM     10  C   UNL A   1      35.171  24.463  24.901  1.00  0.00     0.054 A 
ATOM     11  F   UNL A   1      33.184  25.483  24.216  1.00  0.00    -0.205 F 
BRANCH   6  12
ATOM     12  S   UNL A   1      31.394  24.267  26.291  1.00  0.00     0.243 S 
ATOM     13  O   UNL A   1      30.877  23.442  27.355  1.00  0.00    -0.207 OA
ATOM     14  O   UNL A   1      30.810  24.264  24.966  1.00  0.00    -0.207 OA
BRANCH  12  15
ATOM     15  N   UNL A   1      31.311  25.862  26.815  1.00  0.00    -0.205 NA
ATOM     16  H   UNL A   1      30.645  25.890  27.588  1.00  0.00     0.141 HD
BRANCH  15  17
ATOM     17  C   UNL A   1      30.905  26.906  25.855  1.00  0.00     0.163 C 
BRANCH  17  18
ATOM     18  C   UNL A   1      31.717  28.212  26.092  1.00  0.00     0.195 C 
ATOM     19  C   UNL A   1      33.114  27.873  26.642  1.00  0.00     0.076 C 
BRANCH  18  20
ATOM     20  N   UNL A   1      31.729  29.085  24.894  1.00  0.00    -0.337 N 
ATOM     21  C   UNL A   1      33.054  29.160  24.277  1.00  0.00     0.332 C 
ATOM     22  C   UNL A   1      30.722  28.753  23.886  1.00  0.00     0.332 C 
ATOM     23  H   UNL A   1      31.478  30.004  25.257  1.00  0.00     0.347 HD
ENDBRANCH  18  20
ENDBRANCH  17  18
ENDBRANCH  15  17
ENDBRANCH  12  15
ENDBRANCH   6  12
ENDBRANCH   1   5
BRANCH   3  24
ATOM     24  C   UNL A   1      37.282  21.042  24.472  1.00  0.00     0.118 C 
BRANCH  24  25
ATOM     25  C   UNL A   1      38.101  19.789  24.777  1.00  0.00     0.042 C 
BRANCH  25  26
ATOM     26  C   UNL A   1      38.982  19.924  26.015  1.00  0.00     0.118 C 
BRANCH  26  27
ATOM     27  N   UNL A   1      40.208  19.149  25.896  1.00  0.00    -0.352 N 
ATOM     28  C   UNL A   1      41.515  19.554  26.002  1.00  0.00     0.251 C 
ATOM     29  H   UNL A   1      40.081  18.190  25.714  1.00  0.00     0.163 HD
ATOM     30  O   UNL A   1      42.415  18.798  25.649  1.00  0.00    -0.269 OA
BRANCH  28  31
ATOM     31  C   UNL A   1      41.846  20.896  26.527  1.00  0.00     0.039 A 
ATOM     32  C   UNL A   1      41.829  21.105  27.909  1.00  0.00     0.014 A 
ATOM     33  C   UNL A   1      42.130  21.958  25.663  1.00  0.00     0.014 A 
ATOM     34  C   UNL A   1      42.150  22.361  28.427  1.00  0.00     0.010 A 
ATOM     35  C   UNL A   1      42.515  23.192  26.182  1.00  0.00     0.010 A 
ATOM     36  C   UNL A   1      42.525  23.407  27.569  1.00  0.00    -0.014 A 
BRANCH  36  37
ATOM     37  C   UNL A   1      42.925  24.736  28.091  1.00  0.00     0.031 A 
ATOM     38  C   UNL A   1      41.883  25.790  28.343  1.00  0.00     0.074 A 
ATOM     39  C   UNL A   1      44.230  25.018  28.267  1.00  0.00     0.049 A 
ATOM     40  N   UNL A   1      42.041  27.045  28.679  1.00  0.00    -0.248 NA
ATOM     41  C   UNL A   1      40.478  25.387  28.171  1.00  0.00     0.031 C 
ATOM     42  C   UNL A   1      45.335  24.088  28.031  1.00  0.00     0.029 A 
ATOM     43  N   UNL A   1      44.850  26.174  28.671  1.00  0.00    -0.354 N 
ATOM     44  C   UNL A   1      40.763  27.583  28.739  1.00  0.00     0.074 A 
ATOM     45  C   UNL A   1      39.842  26.532  28.365  1.00  0.00     0.031 C 
ATOM     46  C   UNL A   1      46.494  24.704  28.311  1.00  0.00     0.029 A 
ATOM     47  C   UNL A   1      46.219  26.083  28.705  1.00  0.00     0.049 A 
ATOM     48  H   UNL A   1      44.358  26.992  28.914  1.00  0.00     0.167 HD
ATOM     49  C   UNL A   1      40.391  28.836  29.093  1.00  0.00     0.037 A 
ATOM     50  C   UNL A   1      47.151  27.007  29.006  1.00  0.00     0.037 A 
ATOM     51  C   UNL A   1      41.310  29.867  29.496  1.00  0.00     0.049 A 
ATOM     52  C   UNL A   1      46.714  28.395  29.382  1.00  0.00     0.074 A 
ATOM     53  C   UNL A   1      41.025  31.151  29.926  1.00  0.00     0.029 A 
ATOM     54  N   UNL A   1      42.688  29.730  29.525  1.00  0.00    -0.354 N 
ATOM     55  N   UNL A   1      45.500  28.880  29.470  1.00  0.00    -0.248 NA
ATOM     56  C   UNL A   1      47.773  29.364  29.698  1.00  0.00     0.031 C 
ATOM     57  C   UNL A   1      42.234  31.804  30.179  1.00  0.00     0.029 A 
ATOM     58  C   UNL A   1      43.270  30.912  29.949  1.00  0.00     0.049 A 
ATOM     59  H   UNL A   1      43.182  28.913  29.280  1.00  0.00     0.167 HD
ATOM     60  C   UNL A   1      45.645  30.201  29.873  1.00  0.00     0.074 A 
ATOM     61  C   UNL A   1      47.066  30.440  30.019  1.00  0.00     0.031 C 
ATOM     62  C   UNL A   1      44.686  31.129  30.100  1.00  0.00     0.037 A 
BRANCH  49  63
ATOM     63  C   UNL A   1      38.927  29.163  29.074  1.00  0.00     0.057 A 
ATOM     64  C   UNL A   1      38.144  29.009  30.225  1.00  0.00     0.134 A 
ATOM     65  C   UNL A   1      38.280  29.569  27.901  1.00  0.00     0.134 A 
ATOM     66  F   UNL A   1      38.700  28.615  31.381  1.00  0.00    -0.206 F 
ATOM     67  C   UNL A   1      36.767  29.236  30.206  1.00  0.00     0.040 A 
ATOM     68  C   UNL A   1      36.908  29.824  27.875  1.00  0.00     0.040 A 
ATOM     69  F   UNL A   1      38.975  29.747  26.767  1.00  0.00    -0.206 F 
ATOM     70  C   UNL A   1      36.146  29.650  29.028  1.00  0.00     0.006 A 
ENDBRANCH  49  63
BRANCH  50  71
ATOM     71  C   UNL A   1      48.586  26.636  28.985  1.00  0.00     0.057 A 
ATOM     72  C   UNL A   1      49.369  26.784  27.833  1.00  0.00     0.134 A 
ATOM     73  C   UNL A   1      49.202  26.089  30.117  1.00  0.00     0.134 A 
ATOM     74  F   UNL A   1      48.834  27.294  26.713  1.00  0.00    -0.206 F 
ATOM     75  C   UNL A   1      50.706  26.384  27.802  1.00  0.00     0.040 A 
ATOM     76  C   UNL A   1      50.544  25.705  30.107  1.00  0.00     0.040 A 
ATOM     77  F   UNL A   1      48.508  25.939  31.255  1.00  0.00    -0.206 F 
ATOM     78  C   UNL A   1      51.298  25.846  28.943  1.00  0.00     0.006 A 
ENDBRANCH  50  71
BRANCH  62  79
ATOM     79  C   UNL A   1      45.125  32.489  30.557  1.00  0.00     0.057 A 
ATOM     80  C   UNL A   1      45.268  32.768  31.922  1.00  0.00     0.134 A 
ATOM     81  C   UNL A   1      45.310  33.542  29.655  1.00  0.00     0.134 A 
ATOM     82  F   UNL A   1      45.094  31.802  32.837  1.00  0.00    -0.206 F 
ATOM     83  C   UNL A   1      45.560  34.055  32.375  1.00  0.00     0.040 A 
ATOM     84  C   UNL A   1      45.624  34.828  30.094  1.00  0.00     0.040 A 
ATOM     85  F   UNL A   1      45.196  33.335  28.334  1.00  0.00    -0.206 F 
ATOM     86  C   UNL A   1      45.738  35.090  31.460  1.00  0.00     0.006 A 
ENDBRANCH  62  79
ENDBRANCH  36  37
ENDBRANCH  28  31
ENDBRANCH  26  27
ENDBRANCH  25  26
ENDBRANCH  24  25
ENDBRANCH   3  24
TORSDOF 15
ENDMDL
MODEL 2
REMARK VINA RESULT:     -10.7      3.974      9.170
REMARK SMILES C[C@H](CNS(=O)(=O)c1ccc(C(=O)NCCCNC(=O)c2ccc(-c3c4nc(c(-c5c(F)cccc5F)c5ccc([nH]5)c(-c5c(F)cccc5F)c5nc(c(-c6c(F)cccc6F)c6ccc3[nH]6)C=C5)C=C4)cc2)cc1F)[NH+](C)C
REMARK SMILES IDX 12 1 13 2 14 3 11 5 8 6 9 7 76 8 10 9 75 10 77 11 5 12 6 13
REMARK SMILES IDX 7 14 4 15 3 17 2 18 1 19 78 20 79 21 80 22 15 24 16 25 17 26
REMARK SMILES IDX 18 27 19 28 20 30 21 31 22 32 74 33 23 34 73 35 24 36 25 37
REMARK SMILES IDX 26 38 67 39 27 40 72 41 66 42 68 43 28 44 71 45 65 46 64 47
REMARK SMILES IDX 29 49 55 50 38 51 54 52 39 53 42 54 53 55 69 56 40 57 41 58
REMARK SMILES IDX 52 60 70 61 43 62 30 63 31 64 36 65 32 66 33 67 35 68 37 69
REMARK SMILES IDX 34 70 56 71 57 72 62 73 58 74 59 75 61 76 63 77 60 78 44 79
REMARK SMILES IDX 45 80 50 81 46 82 47 83 49 84 51 85 48 86
REMARK H PARENT 14 4 4 16 78 23 18 29 68 48 42 59
REMARK Flexibility Score: inf
ROOT
ATOM      1  C   UNL A   1      34.046  29.269  26.946  1.00  0.00     0.251 C 
ATOM      2  O   UNL A   1      35.129  29.296  27.531  1.00  0.00    -0.269 OA
ATOM      3  N   UNL A   1      33.080  30.146  27.365  1.00  0.00    -0.352 N 
ATOM      4  H   UNL A   1      33.340  30.677  28.152  1.00  0.00     0.163 HD
ENDROOT
BRANCH   1   5
ATOM      5  C   UNL A   1      33.870  28.323  25.809  1.00  0.00     0.042 A 
ATOM      6  C   UNL A   1      33.490  26.409  23.787  1.00  0.00     0.118 A 
ATOM      7  C   UNL A   1      33.491  26.010  25.126  1.00  0.00     0.026 A 
ATOM      8  C   UNL A   1      33.644  27.746  23.464  1.00  0.00     0.144 A 
ATOM      9  C   UNL A   1      33.682  26.966  26.128  1.00  0.00     0.015 A 
ATOM     10  C   UNL A   1      33.816  28.700  24.466  1.00  0.00     0.054 A 
ATOM     11  F   UNL A   1      33.610  28.178  22.198  1.00  0.00    -0.205 F 
BRANCH   6  12
ATOM     12  S   UNL A   1      33.262  25.217  22.516  1.00  0.00     0.243 S 
ATOM     13  O   UNL A   1      33.489  25.802  21.218  1.00  0.00    -0.207 OA
ATOM     14  O   UNL A   1      32.046  24.497  22.831  1.00  0.00    -0.207 OA
BRANCH  12  15
ATOM     15  N   UNL A   1      34.513  24.129  22.797  1.00  0.00    -0.205 NA
ATOM     16  H   UNL A   1      34.900  23.876  21.887  1.00  0.00     0.141 HD
BRANCH  15  17
ATOM     17  C   UNL A   1      34.216  22.870  23.505  1.00  0.00     0.163 C 
BRANCH  17  18
ATOM     18  C   UNL A   1      35.491  22.325  24.211  1.00  0.00     0.195 C 
ATOM     19  C   UNL A   1      36.304  23.490  24.804  1.00  0.00     0.076 C 
BRANCH  18  20
ATOM     20  N   UNL A   1      35.174  21.248  25.180  1.00  0.00    -0.337 N 
ATOM     21  C   UNL A   1      34.924  21.769  26.525  1.00  0.00     0.332 C 
ATOM     22  C   UNL A   1      34.085  20.362  24.772  1.00  0.00     0.332 C 
ATOM     23  H   UNL A   1      36.018  20.676  25.196  1.00  0.00     0.347 HD
ENDBRANCH  18  20
ENDBRANCH  17  18
ENDBRANCH  15  17
ENDBRANCH  12  15
ENDBRANCH   6  12
ENDBRANCH   1   5
BRANCH   3  24
ATOM     24  C   UNL A   1      31.748  30.445  26.872  1.00  0.00     0.118 C 
BRANCH  24  25
ATOM     25  C   UNL A   1      31.455  31.943  26.933  1.00  0.00     0.042 C 
BRANCH  25  26
ATOM     26  C   UNL A   1      32.711  32.808  26.971  1.00  0.00     0.118 C 
BRANCH  26  27
ATOM     27  N   UNL A   1      32.498  34.044  27.707  1.00  0.00    -0.352 N 
ATOM     28  C   UNL A   1      33.167  34.541  28.798  1.00  0.00     0.251 C 
ATOM     29  H   UNL A   1      31.765  34.610  27.374  1.00  0.00     0.163 HD
ATOM     30  O   UNL A   1      32.698  35.491  29.417  1.00  0.00    -0.269 OA
BRANCH  28  31
ATOM     31  C   UNL A   1      34.441  33.934  29.240  1.00  0.00     0.039 A 
ATOM     32  C   UNL A   1      35.624  34.294  28.588  1.00  0.00     0.014 A 
ATOM     33  C   UNL A   1      34.469  32.981  30.263  1.00  0.00     0.014 A 
ATOM     34  C   UNL A   1      36.840  33.742  28.996  1.00  0.00     0.010 A 
ATOM     35  C   UNL A   1      35.689  32.482  30.714  1.00  0.00     0.010 A 
ATOM     36  C   UNL A   1      36.885  32.853  30.082  1.00  0.00    -0.014 A 
BRANCH  36  37
ATOM     37  C   UNL A   1      38.167  32.293  30.576  1.00  0.00     0.031 A 
ATOM     38  C   UNL A   1      38.716  31.030  29.973  1.00  0.00     0.074 A 
ATOM     39  C   UNL A   1      38.796  32.879  31.612  1.00  0.00     0.049 A 
ATOM     40  N   UNL A   1      39.750  30.319  30.346  1.00  0.00    -0.248 NA
ATOM     41  C   UNL A   1      37.995  30.479  28.816  1.00  0.00     0.031 C 
ATOM     42  C   UNL A   1      38.347  34.092  32.297  1.00  0.00     0.029 A 
ATOM     43  N   UNL A   1      39.940  32.524  32.281  1.00  0.00    -0.354 N 
ATOM     44  C   UNL A   1      39.790  29.232  29.484  1.00  0.00     0.074 A 
ATOM     45  C   UNL A   1      38.655  29.352  28.595  1.00  0.00     0.031 C 
ATOM     46  C   UNL A   1      39.215  34.390  33.276  1.00  0.00     0.029 A 
ATOM     47  C   UNL A   1      40.256  33.368  33.318  1.00  0.00     0.049 A 
ATOM     48  H   UNL A   1      40.483  31.739  32.041  1.00  0.00     0.167 HD
ATOM     49  C   UNL A   1      40.704  28.234  29.427  1.00  0.00     0.037 A 
ATOM     50  C   UNL A   1      41.264  33.319  34.209  1.00  0.00     0.037 A 
ATOM     51  C   UNL A   1      41.849  28.137  30.291  1.00  0.00     0.049 A 
ATOM     52  C   UNL A   1      42.257  32.193  34.135  1.00  0.00     0.074 A 
ATOM     53  C   UNL A   1      42.861  27.193  30.274  1.00  0.00     0.029 A 
ATOM     54  N   UNL A   1      42.138  29.018  31.321  1.00  0.00    -0.354 N 
ATOM     55  N   UNL A   1      42.304  31.191  33.291  1.00  0.00    -0.248 NA
ATOM     56  C   UNL A   1      43.335  32.188  35.134  1.00  0.00     0.031 C 
ATOM     57  C   UNL A   1      43.742  27.481  31.320  1.00  0.00     0.029 A 
ATOM     58  C   UNL A   1      43.303  28.630  31.960  1.00  0.00     0.049 A 
ATOM     59  H   UNL A   1      41.594  29.803  31.564  1.00  0.00     0.167 HD
ATOM     60  C   UNL A   1      43.425  30.450  33.640  1.00  0.00     0.074 A 
ATOM     61  C   UNL A   1      44.035  31.121  34.769  1.00  0.00     0.031 C 
ATOM     62  C   UNL A   1      43.903  29.316  33.076  1.00  0.00     0.037 A 
BRANCH  49  63
ATOM     63  C   UNL A   1      40.513  27.169  28.387  1.00  0.00     0.057 A 
ATOM     64  C   UNL A   1      41.144  27.263  27.141  1.00  0.00     0.134 A 
ATOM     65  C   UNL A   1      39.653  26.084  28.596  1.00  0.00     0.134 A 
ATOM     66  F   UNL A   1      41.975  28.282  26.872  1.00  0.00    -0.206 F 
ATOM     67  C   UNL A   1      40.919  26.322  26.136  1.00  0.00     0.040 A 
ATOM     68  C   UNL A   1      39.439  25.122  27.608  1.00  0.00     0.040 A 
ATOM     69  F   UNL A   1      39.026  25.929  29.772  1.00  0.00    -0.206 F 
ATOM     70  C   UNL A   1      40.066  25.244  26.369  1.00  0.00     0.006 A 
ENDBRANCH  49  63
BRANCH  50  71
ATOM     71  C   UNL A   1      41.392  34.385  35.231  1.00  0.00     0.057 A 
ATOM     72  C   UNL A   1      40.804  34.266  36.497  1.00  0.00     0.134 A 
ATOM     73  C   UNL A   1      42.081  35.570  34.950  1.00  0.00     0.134 A 
ATOM     74  F   UNL A   1      40.123  33.158  36.825  1.00  0.00    -0.206 F 
ATOM     75  C   UNL A   1      40.881  35.294  37.438  1.00  0.00     0.040 A 
ATOM     76  C   UNL A   1      42.185  36.597  35.889  1.00  0.00     0.040 A 
ATOM     77  F   UNL A   1      42.680  35.734  33.761  1.00  0.00    -0.206 F 
ATOM     78  C   UNL A   1      41.577  36.463  37.136  1.00  0.00     0.006 A 
ENDBRANCH  50  71
BRANCH  62  79
ATOM     79  C   UNL A   1      45.162  28.731  33.643  1.00  0.00     0.057 A 
ATOM     80  C   UNL A   1      46.411  29.090  33.121  1.00  0.00     0.134 A 
ATOM     81  C   UNL A   1      45.130  27.744  34.634  1.00  0.00     0.134 A 
ATOM     82  F   UNL A   1      46.505  30.023  32.161  1.00  0.00    -0.206 F 
ATOM     83  C   UNL A   1      47.584  28.471  33.552  1.00  0.00     0.040 A 
ATOM     84  C   UNL A   1      46.299  27.134  35.089  1.00  0.00     0.040 A 
ATOM     85  F   UNL A   1      43.964  27.364  35.180  1.00  0.00    -0.206 F 
ATOM     86  C   UNL A   1      47.530  27.489  34.539  1.00  0.00     0.006 A 
ENDBRANCH  62  79
ENDBRANCH  36  37
ENDBRANCH  28  31
ENDBRANCH  26  27
ENDBRANCH  25  26
ENDBRANCH  24  25
ENDBRANCH   3  24
TORSDOF 15
ENDMDL
MODEL 3
REMARK VINA RESULT:     -10.6      4.901      9.712
REMARK SMILES C[C@H](CNS(=O)(=O)c1ccc(C(=O)NCCCNC(=O)c2ccc(-c3c4nc(c(-c5c(F)cccc5F)c5ccc([nH]5)c(-c5c(F)cccc5F)c5nc(c(-c6c(F)cccc6F)c6ccc3[nH]6)C=C5)C=C4)cc2)cc1F)[NH+](C)C
REMARK SMILES IDX 12 1 13 2 14 3 11 5 8 6 9 7 76 8 10 9 75 10 77 11 5 12 6 13
REMARK SMILES IDX 7 14 4 15 3 17 2 18 1 19 78 20 79 21 80 22 15 24 16 25 17 26
REMARK SMILES IDX 18 27 19 28 20 30 21 31 22 32 74 33 23 34 73 35 24 36 25 37
REMARK SMILES IDX 26 38 67 39 27 40 72 41 66 42 68 43 28 44 71 45 65 46 64 47
REMARK SMILES IDX 29 49 55 50 38 51 54 52 39 53 42 54 53 55 69 56 40 57 41 58
REMARK SMILES IDX 52 60 70 61 43 62 30 63 31 64 36 65 32 66 33 67 35 68 37 69
REMARK SMILES IDX 34 70 56 71 57 72 62 73 58 74 59 75 61 76 63 77 60 78 44 79
REMARK SMILES IDX 45 80 50 81 46 82 47 83 49 84 51 85 48 86
REMARK H PARENT 14 4 4 16 78 23 18 29 68 48 42 59
REMARK Flexibility Score: inf
ROOT
ATOM      1  C   UNL A   1      34.068  29.313  27.054  1.00  0.00     0.251 C 
ATOM      2  O   UNL A   1      35.140  29.331  27.659  1.00  0.00    -0.269 OA
ATOM      3  N   UNL A   1      33.125  30.240  27.415  1.00  0.00    -0.352 N 
ATOM      4  H   UNL A   1      33.388  30.796  28.183  1.00  0.00     0.163 HD
ENDROOT
BRANCH   1   5
ATOM      5  C   UNL A   1      33.881  28.323  25.957  1.00  0.00     0.042 A 
ATOM      6  C   UNL A   1      33.531  26.595  23.769  1.00  0.00     0.118 A 
ATOM      7  C   UNL A   1      33.428  27.976  23.584  1.00  0.00     0.026 A 
ATOM      8  C   UNL A   1      33.836  26.087  25.020  1.00  0.00     0.144 A 
ATOM      9  C   UNL A   1      33.601  28.832  24.676  1.00  0.00     0.015 A 
ATOM     10  C   UNL A   1      34.027  26.942  26.104  1.00  0.00     0.054 A 
ATOM     11  F   UNL A   1      33.983  24.774  25.235  1.00  0.00    -0.205 F 
BRANCH   6  12
ATOM     12  S   UNL A   1      33.305  25.507  22.408  1.00  0.00     0.243 S 
ATOM     13  O   UNL A   1      34.054  24.290  22.596  1.00  0.00    -0.207 OA
ATOM     14  O   UNL A   1      33.430  26.307  21.207  1.00  0.00    -0.207 OA
BRANCH  12  15
ATOM     15  N   UNL A   1      31.675  25.109  22.515  1.00  0.00    -0.205 NA
ATOM     16  H   UNL A   1      31.209  25.882  22.992  1.00  0.00     0.141 HD
BRANCH  15  17
ATOM     17  C   UNL A   1      31.290  23.871  23.219  1.00  0.00     0.163 C 
BRANCH  17  18
ATOM     18  C   UNL A   1      31.055  24.152  24.731  1.00  0.00     0.195 C 
ATOM     19  C   UNL A   1      30.096  25.344  24.904  1.00  0.00     0.076 C 
BRANCH  18  20
ATOM     20  N   UNL A   1      30.650  22.931  25.468  1.00  0.00    -0.337 N 
ATOM     21  C   UNL A   1      31.657  21.872  25.378  1.00  0.00     0.332 C 
ATOM     22  C   UNL A   1      30.279  23.156  26.865  1.00  0.00     0.332 C 
ATOM     23  H   UNL A   1      29.803  22.626  24.992  1.00  0.00     0.347 HD
ENDBRANCH  18  20
ENDBRANCH  17  18
ENDBRANCH  15  17
ENDBRANCH  12  15
ENDBRANCH   6  12
ENDBRANCH   1   5
BRANCH   3  24
ATOM     24  C   UNL A   1      31.812  30.559  26.882  1.00  0.00     0.118 C 
BRANCH  24  25
ATOM     25  C   UNL A   1      31.567  32.068  26.877  1.00  0.00     0.042 C 
BRANCH  25  26
ATOM     26  C   UNL A   1      32.831  32.891  27.100  1.00  0.00     0.118 C 
BRANCH  26  27
ATOM     27  N   UNL A   1      32.532  34.216  27.620  1.00  0.00    -0.352 N 
ATOM     28  C   UNL A   1      33.037  34.860  28.722  1.00  0.00     0.251 C 
ATOM     29  H   UNL A   1      31.868  34.728  27.105  1.00  0.00     0.163 HD
ATOM     30  O   UNL A   1      32.497  35.885  29.127  1.00  0.00    -0.269 OA
BRANCH  28  31
ATOM     31  C   UNL A   1      34.219  34.323  29.432  1.00  0.00     0.039 A 
ATOM     32  C   UNL A   1      34.027  33.587  30.605  1.00  0.00     0.014 A 
ATOM     33  C   UNL A   1      35.513  34.579  28.970  1.00  0.00     0.014 A 
ATOM     34  C   UNL A   1      35.127  33.062  31.284  1.00  0.00     0.010 A 
ATOM     35  C   UNL A   1      36.606  33.998  29.610  1.00  0.00     0.010 A 
ATOM     36  C   UNL A   1      36.424  33.237  30.776  1.00  0.00    -0.014 A 
BRANCH  36  37
ATOM     37  C   UNL A   1      37.608  32.644  31.443  1.00  0.00     0.031 A 
ATOM     38  C   UNL A   1      38.298  31.456  30.833  1.00  0.00     0.074 A 
ATOM     39  C   UNL A   1      38.015  33.128  32.633  1.00  0.00     0.049 A 
ATOM     40  N   UNL A   1      39.266  30.722  31.321  1.00  0.00    -0.248 NA
ATOM     41  C   UNL A   1      37.822  31.019  29.512  1.00  0.00     0.031 C 
ATOM     42  C   UNL A   1      37.409  34.258  33.337  1.00  0.00     0.029 A 
ATOM     43  N   UNL A   1      39.025  32.719  33.466  1.00  0.00    -0.354 N 
ATOM     44  C   UNL A   1      39.499  29.731  30.378  1.00  0.00     0.074 A 
ATOM     45  C   UNL A   1      38.546  29.929  29.309  1.00  0.00     0.031 C 
ATOM     46  C   UNL A   1      38.071  34.464  34.486  1.00  0.00     0.029 A 
ATOM     47  C   UNL A   1      39.117  33.455  34.622  1.00  0.00     0.049 A 
ATOM     48  H   UNL A   1      39.627  31.969  33.256  1.00  0.00     0.167 HD
ATOM     49  C   UNL A   1      40.437  28.755  30.396  1.00  0.00     0.037 A 
ATOM     50  C   UNL A   1      39.943  33.326  35.678  1.00  0.00     0.037 A 
ATOM     51  C   UNL A   1      41.405  28.583  31.447  1.00  0.00     0.049 A 
ATOM     52  C   UNL A   1      40.967  32.226  35.680  1.00  0.00     0.074 A 
ATOM     53  C   UNL A   1      42.431  27.657  31.527  1.00  0.00     0.029 A 
ATOM     54  N   UNL A   1      41.469  29.356  32.595  1.00  0.00    -0.354 N 
ATOM     55  N   UNL A   1      41.200  31.317  34.765  1.00  0.00    -0.248 NA
ATOM     56  C   UNL A   1      41.839  32.130  36.859  1.00  0.00     0.031 C 
ATOM     57  C   UNL A   1      43.093  27.846  32.743  1.00  0.00     0.029 A 
ATOM     58  C   UNL A   1      42.507  28.918  33.399  1.00  0.00     0.049 A 
ATOM     59  H   UNL A   1      40.867  30.106  32.808  1.00  0.00     0.167 HD
ATOM     60  C   UNL A   1      42.258  30.556  35.244  1.00  0.00     0.074 A 
ATOM     61  C   UNL A   1      42.628  31.114  36.529  1.00  0.00     0.031 C 
ATOM     62  C   UNL A   1      42.868  29.493  34.670  1.00  0.00     0.037 A 
BRANCH  49  63
ATOM     63  C   UNL A   1      40.476  27.800  29.238  1.00  0.00     0.057 A 
ATOM     64  C   UNL A   1      41.275  28.064  28.119  1.00  0.00     0.134 A 
ATOM     65  C   UNL A   1      39.673  26.653  29.205  1.00  0.00     0.134 A 
ATOM     66  F   UNL A   1      42.062  29.150  28.083  1.00  0.00    -0.206 F 
ATOM     67  C   UNL A   1      41.265  27.226  27.003  1.00  0.00     0.040 A 
ATOM     68  C   UNL A   1      39.674  25.794  28.105  1.00  0.00     0.040 A 
ATOM     69  F   UNL A   1      38.894  26.337  30.250  1.00  0.00    -0.206 F 
ATOM     70  C   UNL A   1      40.466  26.085  26.996  1.00  0.00     0.006 A 
ENDBRANCH  49  63
BRANCH  50  71
ATOM     71  C   UNL A   1      39.846  34.283  36.806  1.00  0.00     0.057 A 
ATOM     72  C   UNL A   1      39.036  34.028  37.920  1.00  0.00     0.134 A 
ATOM     73  C   UNL A   1      40.539  35.498  36.778  1.00  0.00     0.134 A 
ATOM     74  F   UNL A   1      38.339  32.884  38.003  1.00  0.00    -0.206 F 
ATOM     75  C   UNL A   1      38.905  34.954  38.956  1.00  0.00     0.040 A 
ATOM     76  C   UNL A   1      40.435  36.425  37.817  1.00  0.00     0.040 A 
ATOM     77  F   UNL A   1      41.344  35.791  35.746  1.00  0.00    -0.206 F 
ATOM     78  C   UNL A   1      39.609  36.156  38.908  1.00  0.00     0.006 A 
ENDBRANCH  50  71
BRANCH  62  79
ATOM     79  C   UNL A   1      44.017  28.867  35.403  1.00  0.00     0.057 A 
ATOM     80  C   UNL A   1      43.790  27.877  36.368  1.00  0.00     0.134 A 
ATOM     81  C   UNL A   1      45.331  29.312  35.224  1.00  0.00     0.134 A 
ATOM     82  F   UNL A   1      42.550  27.417  36.593  1.00  0.00    -0.206 F 
ATOM     83  C   UNL A   1      44.830  27.366  37.145  1.00  0.00     0.040 A 
ATOM     84  C   UNL A   1      46.383  28.792  35.980  1.00  0.00     0.040 A 
ATOM     85  F   UNL A   1      45.613  30.251  34.309  1.00  0.00    -0.206 F 
ATOM     86  C   UNL A   1      46.131  27.824  36.952  1.00  0.00     0.006 A 
ENDBRANCH  62  79
ENDBRANCH  36  37
ENDBRANCH  28  31
ENDBRANCH  26  27
ENDBRANCH  25  26
ENDBRANCH  24  25
ENDBRANCH   3  24
TORSDOF 15
ENDMDL
