MODEL 1
REMARK VINA RESULT:     -13.0      0.000      0.000
REMARK SMILES O=C(NCCCNC(=O)c1nnn(-c2ccc(C(F)(F)F)cc2)c1-c1cccc(Cl)c1)c1ccc(-c2c3nc(c(-c4c(F)cccc4F)c4ccc([nH]4)c(-c4c(F)cccc4F)c4nc(c(-c5c(F)cccc5F)c5ccc2[nH]5)C=C4)C=C3)cc1
REMARK SMILES IDX 5 1 4 2 3 3 1 4 2 5 32 7 33 8 85 9 34 10 84 11 35 12 36 13
REMARK SMILES IDX 37 14 78 15 38 16 83 17 77 18 79 19 39 20 82 21 76 22 75 23
REMARK SMILES IDX 40 25 66 26 49 27 65 28 50 29 53 30 64 31 80 32 51 33 52 34
REMARK SMILES IDX 63 36 81 37 54 38 41 39 42 40 47 41 43 42 44 43 46 44 48 45
REMARK SMILES IDX 45 46 67 47 68 48 73 49 69 50 70 51 72 52 74 53 71 54 55 55
REMARK SMILES IDX 56 56 61 57 57 58 58 59 60 60 62 61 59 62 6 63 7 64 8 65
REMARK SMILES IDX 9 67 10 68 11 69 24 70 12 71 13 72 25 73 26 74 31 75 27 76
REMARK SMILES IDX 29 77 28 78 30 79 14 80 15 81 23 82 16 83 22 84 17 85 18 86
REMARK SMILES IDX 19 87 20 88 21 89
REMARK H PARENT 3 6 79 24 53 35 7 66
REMARK Flexibility Score: inf
ROOT
ATOM      1  C   UNL A   1      36.846  23.104  24.614  1.00  0.00     0.042 C 
ENDROOT
BRANCH   1   2
ATOM      2  C   UNL A   1      37.174  22.129  25.741  1.00  0.00     0.118 C 
BRANCH   2   3
ATOM      3  N   UNL A   1      38.562  21.715  25.809  1.00  0.00    -0.352 N 
ATOM      4  O   UNL A   1      40.686  21.463  26.333  1.00  0.00    -0.269 OA
ATOM      5  C   UNL A   1      39.708  22.215  26.365  1.00  0.00     0.251 C 
ATOM      6  H   UNL A   1      38.719  20.864  25.341  1.00  0.00     0.163 HD
BRANCH   5   7
ATOM      7  C   UNL A   1      39.883  23.576  26.950  1.00  0.00     0.039 A 
ATOM      8  C   UNL A   1      39.054  24.675  26.734  1.00  0.00     0.014 A 
ATOM      9  C   UNL A   1      41.011  23.755  27.779  1.00  0.00     0.014 A 
ATOM     10  C   UNL A   1      39.369  25.921  27.282  1.00  0.00     0.010 A 
ATOM     11  C   UNL A   1      41.322  24.993  28.344  1.00  0.00     0.010 A 
ATOM     12  C   UNL A   1      40.509  26.090  28.080  1.00  0.00    -0.014 A 
BRANCH  12  13
ATOM     13  C   UNL A   1      40.717  27.393  28.716  1.00  0.00     0.031 A 
ATOM     14  C   UNL A   1      41.898  28.172  28.241  1.00  0.00     0.074 A 
ATOM     15  C   UNL A   1      39.878  28.003  29.576  1.00  0.00     0.049 A 
ATOM     16  N   UNL A   1      42.939  28.540  28.920  1.00  0.00    -0.248 NA
ATOM     17  C   UNL A   1      41.931  28.568  26.827  1.00  0.00     0.031 C 
ATOM     18  C   UNL A   1      38.510  27.632  29.934  1.00  0.00     0.029 A 
ATOM     19  N   UNL A   1      40.076  29.172  30.261  1.00  0.00    -0.354 N 
ATOM     20  C   UNL A   1      43.692  29.346  28.067  1.00  0.00     0.074 A 
ATOM     21  C   UNL A   1      43.073  29.257  26.769  1.00  0.00     0.031 C 
ATOM     22  C   UNL A   1      37.939  28.651  30.619  1.00  0.00     0.029 A 
ATOM     23  C   UNL A   1      38.936  29.683  30.860  1.00  0.00     0.049 A 
ATOM     24  H   UNL A   1      40.954  29.613  30.323  1.00  0.00     0.167 HD
ATOM     25  C   UNL A   1      44.683  30.162  28.525  1.00  0.00     0.037 A 
ATOM     26  C   UNL A   1      38.806  30.883  31.478  1.00  0.00     0.037 A 
ATOM     27  C   UNL A   1      45.102  29.815  29.855  1.00  0.00     0.049 A 
ATOM     28  C   UNL A   1      40.156  31.377  31.837  1.00  0.00     0.074 A 
ATOM     29  C   UNL A   1      45.613  28.682  30.458  1.00  0.00     0.029 A 
ATOM     30  N   UNL A   1      44.760  30.651  30.886  1.00  0.00    -0.354 N 
ATOM     31  N   UNL A   1      40.891  30.896  32.799  1.00  0.00    -0.248 NA
ATOM     32  C   UNL A   1      40.850  32.241  30.895  1.00  0.00     0.031 C 
ATOM     33  C   UNL A   1      45.087  28.697  31.784  1.00  0.00     0.029 A 
ATOM     34  C   UNL A   1      44.309  29.849  31.902  1.00  0.00     0.049 A 
ATOM     35  H   UNL A   1      44.824  31.633  30.897  1.00  0.00     0.167 HD
ATOM     36  C   UNL A   1      42.193  31.041  32.350  1.00  0.00     0.074 A 
ATOM     37  C   UNL A   1      42.111  31.992  31.248  1.00  0.00     0.031 C 
ATOM     38  C   UNL A   1      43.170  30.165  32.727  1.00  0.00     0.037 A 
BRANCH  25  39
ATOM     39  C   UNL A   1      45.082  31.470  27.888  1.00  0.00     0.057 A 
ATOM     40  C   UNL A   1      46.395  31.642  27.410  1.00  0.00     0.134 A 
ATOM     41  C   UNL A   1      44.321  32.650  27.993  1.00  0.00     0.134 A 
ATOM     42  F   UNL A   1      47.227  30.595  27.292  1.00  0.00    -0.206 F 
ATOM     43  C   UNL A   1      46.929  32.902  27.116  1.00  0.00     0.040 A 
ATOM     44  C   UNL A   1      44.828  33.909  27.653  1.00  0.00     0.040 A 
ATOM     45  F   UNL A   1      43.090  32.656  28.520  1.00  0.00    -0.206 F 
ATOM     46  C   UNL A   1      46.146  34.042  27.241  1.00  0.00     0.006 A 
ENDBRANCH  25  39
BRANCH  26  47
ATOM     47  C   UNL A   1      37.612  31.740  31.642  1.00  0.00     0.057 A 
ATOM     48  C   UNL A   1      36.992  32.347  30.540  1.00  0.00     0.134 A 
ATOM     49  C   UNL A   1      36.890  31.763  32.848  1.00  0.00     0.134 A 
ATOM     50  F   UNL A   1      37.582  32.343  29.335  1.00  0.00    -0.206 F 
ATOM     51  C   UNL A   1      35.717  32.921  30.624  1.00  0.00     0.040 A 
ATOM     52  C   UNL A   1      35.622  32.342  32.948  1.00  0.00     0.040 A 
ATOM     53  F   UNL A   1      37.357  31.147  33.943  1.00  0.00    -0.206 F 
ATOM     54  C   UNL A   1      35.023  32.910  31.830  1.00  0.00     0.006 A 
ENDBRANCH  26  47
BRANCH  38  55
ATOM     55  C   UNL A   1      42.903  29.269  33.901  1.00  0.00     0.057 A 
ATOM     56  C   UNL A   1      43.218  29.595  35.229  1.00  0.00     0.134 A 
ATOM     57  C   UNL A   1      42.187  28.084  33.691  1.00  0.00     0.134 A 
ATOM     58  F   UNL A   1      43.800  30.761  35.541  1.00  0.00    -0.206 F 
ATOM     59  C   UNL A   1      42.891  28.744  36.290  1.00  0.00     0.040 A 
ATOM     60  C   UNL A   1      41.820  27.247  34.746  1.00  0.00     0.040 A 
ATOM     61  F   UNL A   1      41.797  27.738  32.453  1.00  0.00    -0.206 F 
ATOM     62  C   UNL A   1      42.186  27.568  36.050  1.00  0.00     0.006 A 
ENDBRANCH  38  55
ENDBRANCH  12  13
ENDBRANCH   5   7
ENDBRANCH   2   3
ENDBRANCH   1   2
BRANCH   1  63
ATOM     63  C   UNL A   1      35.498  23.807  24.724  1.00  0.00     0.118 C 
BRANCH  63  64
ATOM     64  N   UNL A   1      34.730  23.434  25.897  1.00  0.00    -0.351 N 
ATOM     65  C   UNL A   1      33.384  23.601  26.138  1.00  0.00     0.274 C 
ATOM     66  H   UNL A   1      35.240  23.003  26.620  1.00  0.00     0.163 HD
ATOM     67  O   UNL A   1      32.924  23.219  27.213  1.00  0.00    -0.267 OA
BRANCH  65  68
ATOM     68  C   UNL A   1      32.554  24.232  25.124  1.00  0.00     0.178 A 
ATOM     69  N   UNL A   1      31.928  23.498  24.149  1.00  0.00    -0.124 NA
ATOM     70  C   UNL A   1      32.191  25.568  25.004  1.00  0.00     0.108 A 
ATOM     71  N   UNL A   1      31.122  24.305  23.476  1.00  0.00    -0.061 NA
ATOM     72  N   UNL A   1      31.332  25.570  23.906  1.00  0.00    -0.212 N 
BRANCH  70  73
ATOM     73  C   UNL A   1      32.402  26.696  25.911  1.00  0.00     0.004 A 
ATOM     74  C   UNL A   1      31.327  27.173  26.686  1.00  0.00     0.010 A 
ATOM     75  C   UNL A   1      33.655  27.300  26.039  1.00  0.00     0.031 A 
ATOM     76  C   UNL A   1      31.495  28.244  27.561  1.00  0.00     0.002 A 
ATOM     77  C   UNL A   1      33.814  28.379  26.912  1.00  0.00     0.041 A 
ATOM     78  C   UNL A   1      32.742  28.852  27.671  1.00  0.00     0.020 A 
ATOM     79  Cl  UNL A   1      35.348  29.144  27.049  1.00  0.00    -0.084 Cl
ENDBRANCH  70  73
BRANCH  72  80
ATOM     80  C   UNL A   1      30.620  26.665  23.355  1.00  0.00     0.067 A 
ATOM     81  C   UNL A   1      29.245  26.773  23.589  1.00  0.00     0.029 A 
ATOM     82  C   UNL A   1      31.299  27.680  22.670  1.00  0.00     0.029 A 
ATOM     83  C   UNL A   1      28.580  27.950  23.238  1.00  0.00     0.015 A 
ATOM     84  C   UNL A   1      30.622  28.841  22.297  1.00  0.00     0.015 A 
ATOM     85  C   UNL A   1      29.265  29.003  22.608  1.00  0.00     0.056 A 
BRANCH  85  86
ATOM     86  C   UNL A   1      28.554  30.302  22.312  1.00  0.00     0.416 C 
ATOM     87  F   UNL A   1      27.849  30.773  23.376  1.00  0.00    -0.166 F 
ATOM     88  F   UNL A   1      29.424  31.293  21.970  1.00  0.00    -0.166 F 
ATOM     89  F   UNL A   1      27.668  30.214  21.281  1.00  0.00    -0.166 F 
ENDBRANCH  85  86
ENDBRANCH  72  80
ENDBRANCH  65  68
ENDBRANCH  63  64
ENDBRANCH   1  63
TORSDOF 13
ENDMDL
MODEL 2
REMARK VINA RESULT:     -12.6      1.874      6.033
REMARK SMILES O=C(NCCCNC(=O)c1nnn(-c2ccc(C(F)(F)F)cc2)c1-c1cccc(Cl)c1)c1ccc(-c2c3nc(c(-c4c(F)cccc4F)c4ccc([nH]4)c(-c4c(F)cccc4F)c4nc(c(-c5c(F)cccc5F)c5ccc2[nH]5)C=C4)C=C3)cc1
REMARK SMILES IDX 5 1 4 2 3 3 1 4 2 5 32 7 33 8 85 9 34 10 84 11 35 12 36 13
REMARK SMILES IDX 37 14 78 15 38 16 83 17 77 18 79 19 39 20 82 21 76 22 75 23
REMARK SMILES IDX 40 25 66 26 49 27 65 28 50 29 53 30 64 31 80 32 51 33 52 34
REMARK SMILES IDX 63 36 81 37 54 38 41 39 42 40 47 41 43 42 44 43 46 44 48 45
REMARK SMILES IDX 45 46 67 47 68 48 73 49 69 50 70 51 72 52 74 53 71 54 55 55
REMARK SMILES IDX 56 56 61 57 57 58 58 59 60 60 62 61 59 62 6 63 7 64 8 65
REMARK SMILES IDX 9 67 10 68 11 69 24 70 12 71 13 72 25 73 26 74 31 75 27 76
REMARK SMILES IDX 29 77 28 78 30 79 14 80 15 81 23 82 16 83 22 84 17 85 18 86
REMARK SMILES IDX 19 87 20 88 21 89
REMARK H PARENT 3 6 79 24 53 35 7 66
REMARK Flexibility Score: inf
ROOT
ATOM      1  C   UNL A   1      36.379  23.617  24.917  1.00  0.00     0.042 C 
ENDROOT
BRANCH   1   2
ATOM      2  C   UNL A   1      37.231  24.057  26.105  1.00  0.00     0.118 C 
BRANCH   2   3
ATOM      3  N   UNL A   1      38.663  23.973  25.895  1.00  0.00    -0.352 N 
ATOM      4  O   UNL A   1      40.854  24.053  26.102  1.00  0.00    -0.269 OA
ATOM      5  C   UNL A   1      39.774  24.507  26.489  1.00  0.00     0.251 C 
ATOM      6  H   UNL A   1      38.893  23.386  25.139  1.00  0.00     0.163 HD
BRANCH   5   7
ATOM      7  C   UNL A   1      39.790  25.597  27.508  1.00  0.00     0.039 A 
ATOM      8  C   UNL A   1      39.289  25.516  28.805  1.00  0.00     0.014 A 
ATOM      9  C   UNL A   1      40.348  26.826  27.093  1.00  0.00     0.014 A 
ATOM     10  C   UNL A   1      39.296  26.636  29.641  1.00  0.00     0.010 A 
ATOM     11  C   UNL A   1      40.374  27.943  27.930  1.00  0.00     0.010 A 
ATOM     12  C   UNL A   1      39.828  27.856  29.205  1.00  0.00    -0.014 A 
BRANCH  12  13
ATOM     13  C   UNL A   1      39.908  28.955  30.171  1.00  0.00     0.031 A 
ATOM     14  C   UNL A   1      38.673  29.778  30.331  1.00  0.00     0.074 A 
ATOM     15  C   UNL A   1      40.931  29.204  31.013  1.00  0.00     0.049 A 
ATOM     16  N   UNL A   1      38.512  31.037  30.077  1.00  0.00    -0.248 NA
ATOM     17  C   UNL A   1      37.461  29.101  30.812  1.00  0.00     0.031 C 
ATOM     18  C   UNL A   1      42.091  28.366  31.308  1.00  0.00     0.029 A 
ATOM     19  N   UNL A   1      41.086  30.268  31.860  1.00  0.00    -0.354 N 
ATOM     20  C   UNL A   1      37.225  31.359  30.509  1.00  0.00     0.074 A 
ATOM     21  C   UNL A   1      36.594  30.114  30.869  1.00  0.00     0.031 C 
ATOM     22  C   UNL A   1      42.728  28.862  32.396  1.00  0.00     0.029 A 
ATOM     23  C   UNL A   1      42.102  30.115  32.789  1.00  0.00     0.049 A 
ATOM     24  H   UNL A   1      40.521  31.074  31.815  1.00  0.00     0.167 HD
ATOM     25  C   UNL A   1      36.820  32.647  30.693  1.00  0.00     0.037 A 
ATOM     26  C   UNL A   1      42.388  30.936  33.829  1.00  0.00     0.037 A 
ATOM     27  C   UNL A   1      37.691  33.589  30.045  1.00  0.00     0.049 A 
ATOM     28  C   UNL A   1      41.769  32.257  33.570  1.00  0.00     0.074 A 
ATOM     29  C   UNL A   1      38.120  33.798  28.749  1.00  0.00     0.029 A 
ATOM     30  N   UNL A   1      38.507  34.366  30.826  1.00  0.00    -0.354 N 
ATOM     31  N   UNL A   1      42.200  33.121  32.695  1.00  0.00    -0.248 NA
ATOM     32  C   UNL A   1      40.435  32.510  34.090  1.00  0.00     0.031 C 
ATOM     33  C   UNL A   1      39.457  34.278  28.872  1.00  0.00     0.029 A 
ATOM     34  C   UNL A   1      39.743  34.345  30.236  1.00  0.00     0.049 A 
ATOM     35  H   UNL A   1      38.255  34.845  31.648  1.00  0.00     0.167 HD
ATOM     36  C   UNL A   1      41.058  33.759  32.243  1.00  0.00     0.074 A 
ATOM     37  C   UNL A   1      40.031  33.443  33.228  1.00  0.00     0.031 C 
ATOM     38  C   UNL A   1      40.980  34.247  30.970  1.00  0.00     0.037 A 
BRANCH  25  39
ATOM     39  C   UNL A   1      35.795  33.088  31.707  1.00  0.00     0.057 A 
ATOM     40  C   UNL A   1      34.765  33.969  31.321  1.00  0.00     0.134 A 
ATOM     41  C   UNL A   1      35.951  32.917  33.096  1.00  0.00     0.134 A 
ATOM     42  F   UNL A   1      34.536  34.235  30.026  1.00  0.00    -0.206 F 
ATOM     43  C   UNL A   1      33.991  34.672  32.251  1.00  0.00     0.040 A 
ATOM     44  C   UNL A   1      35.148  33.575  34.033  1.00  0.00     0.040 A 
ATOM     45  F   UNL A   1      36.946  32.185  33.613  1.00  0.00    -0.206 F 
ATOM     46  C   UNL A   1      34.183  34.479  33.613  1.00  0.00     0.006 A 
ENDBRANCH  25  39
BRANCH  26  47
ATOM     47  C   UNL A   1      43.020  30.631  35.131  1.00  0.00     0.057 A 
ATOM     48  C   UNL A   1      42.551  29.588  35.943  1.00  0.00     0.134 A 
ATOM     49  C   UNL A   1      44.265  31.179  35.484  1.00  0.00     0.134 A 
ATOM     50  F   UNL A   1      41.392  28.973  35.666  1.00  0.00    -0.206 F 
ATOM     51  C   UNL A   1      43.289  29.098  37.027  1.00  0.00     0.040 A 
ATOM     52  C   UNL A   1      45.006  30.706  36.571  1.00  0.00     0.040 A 
ATOM     53  F   UNL A   1      44.839  32.129  34.734  1.00  0.00    -0.206 F 
ATOM     54  C   UNL A   1      44.528  29.652  37.339  1.00  0.00     0.006 A 
ENDBRANCH  26  47
BRANCH  38  55
ATOM     55  C   UNL A   1      42.254  34.403  30.192  1.00  0.00     0.057 A 
ATOM     56  C   UNL A   1      43.044  35.563  30.199  1.00  0.00     0.134 A 
ATOM     57  C   UNL A   1      42.763  33.292  29.509  1.00  0.00     0.134 A 
ATOM     58  F   UNL A   1      42.697  36.639  30.919  1.00  0.00    -0.206 F 
ATOM     59  C   UNL A   1      44.254  35.629  29.501  1.00  0.00     0.040 A 
ATOM     60  C   UNL A   1      43.988  33.334  28.842  1.00  0.00     0.040 A 
ATOM     61  F   UNL A   1      42.091  32.129  29.511  1.00  0.00    -0.206 F 
ATOM     62  C   UNL A   1      44.731  34.511  28.823  1.00  0.00     0.006 A 
ENDBRANCH  38  55
ENDBRANCH  12  13
ENDBRANCH   5   7
ENDBRANCH   2   3
ENDBRANCH   1   2
BRANCH   1  63
ATOM     63  C   UNL A   1      34.936  24.110  24.924  1.00  0.00     0.118 C 
BRANCH  63  64
ATOM     64  N   UNL A   1      34.137  23.587  26.016  1.00  0.00    -0.351 N 
ATOM     65  C   UNL A   1      32.773  23.660  26.203  1.00  0.00     0.274 C 
ATOM     66  H   UNL A   1      34.637  23.117  26.722  1.00  0.00     0.163 HD
ATOM     67  O   UNL A   1      32.288  23.152  27.212  1.00  0.00    -0.267 OA
BRANCH  65  68
ATOM     68  C   UNL A   1      31.957  24.339  25.210  1.00  0.00     0.178 A 
ATOM     69  N   UNL A   1      31.222  23.643  24.285  1.00  0.00    -0.124 NA
ATOM     70  C   UNL A   1      31.711  25.700  25.069  1.00  0.00     0.108 A 
ATOM     71  N   UNL A   1      30.461  24.504  23.627  1.00  0.00    -0.061 NA
ATOM     72  N   UNL A   1      30.804  25.754  24.012  1.00  0.00    -0.212 N 
BRANCH  70  73
ATOM     73  C   UNL A   1      32.066  26.825  25.935  1.00  0.00     0.004 A 
ATOM     74  C   UNL A   1      31.092  27.376  26.790  1.00  0.00     0.010 A 
ATOM     75  C   UNL A   1      33.358  27.354  25.942  1.00  0.00     0.031 A 
ATOM     76  C   UNL A   1      31.398  28.446  27.628  1.00  0.00     0.002 A 
ATOM     77  C   UNL A   1      33.656  28.433  26.778  1.00  0.00     0.041 A 
ATOM     78  C   UNL A   1      32.684  28.979  27.618  1.00  0.00     0.020 A 
ATOM     79  Cl  UNL A   1      35.238  29.107  26.768  1.00  0.00    -0.084 Cl
ENDBRANCH  70  73
BRANCH  72  80
ATOM     80  C   UNL A   1      30.169  26.897  23.463  1.00  0.00     0.067 A 
ATOM     81  C   UNL A   1      28.786  27.047  23.613  1.00  0.00     0.029 A 
ATOM     82  C   UNL A   1      30.927  27.913  22.867  1.00  0.00     0.029 A 
ATOM     83  C   UNL A   1      28.187  28.261  23.270  1.00  0.00     0.015 A 
ATOM     84  C   UNL A   1      30.317  29.112  22.501  1.00  0.00     0.015 A 
ATOM     85  C   UNL A   1      28.949  29.312  22.731  1.00  0.00     0.056 A 
BRANCH  85  86
ATOM     86  C   UNL A   1      28.304  30.648  22.446  1.00  0.00     0.416 C 
ATOM     87  F   UNL A   1      29.196  31.675  22.444  1.00  0.00    -0.166 F 
ATOM     88  F   UNL A   1      27.700  30.673  21.225  1.00  0.00    -0.166 F 
ATOM     89  F   UNL A   1      27.338  30.988  23.344  1.00  0.00    -0.166 F 
ENDBRANCH  85  86
ENDBRANCH  72  80
ENDBRANCH  65  68
ENDBRANCH  63  64
ENDBRANCH   1  63
TORSDOF 13
ENDMDL
MODEL 3
REMARK VINA RESULT:     -12.4      3.232      7.375
REMARK SMILES O=C(NCCCNC(=O)c1nnn(-c2ccc(C(F)(F)F)cc2)c1-c1cccc(Cl)c1)c1ccc(-c2c3nc(c(-c4c(F)cccc4F)c4ccc([nH]4)c(-c4c(F)cccc4F)c4nc(c(-c5c(F)cccc5F)c5ccc2[nH]5)C=C4)C=C3)cc1
REMARK SMILES IDX 5 1 4 2 3 3 1 4 2 5 32 7 33 8 85 9 34 10 84 11 35 12 36 13
REMARK SMILES IDX 37 14 78 15 38 16 83 17 77 18 79 19 39 20 82 21 76 22 75 23
REMARK SMILES IDX 40 25 66 26 49 27 65 28 50 29 53 30 64 31 80 32 51 33 52 34
REMARK SMILES IDX 63 36 81 37 54 38 41 39 42 40 47 41 43 42 44 43 46 44 48 45
REMARK SMILES IDX 45 46 67 47 68 48 73 49 69 50 70 51 72 52 74 53 71 54 55 55
REMARK SMILES IDX 56 56 61 57 57 58 58 59 60 60 62 61 59 62 6 63 7 64 8 65
REMARK SMILES IDX 9 67 10 68 11 69 24 70 12 71 13 72 25 73 26 74 31 75 27 76
REMARK SMILES IDX 29 77 28 78 30 79 14 80 15 81 23 82 16 83 22 84 17 85 18 86
REMARK SMILES IDX 19 87 20 88 21 89
REMARK H PARENT 3 6 79 24 53 35 7 66
REMARK Flexibility Score: inf
ROOT
ATOM      1  C   UNL A   1      36.744  23.123  23.522  1.00  0.00     0.042 C 
ENDROOT
BRANCH   1   2
ATOM      2  C   UNL A   1      37.564  23.047  24.808  1.00  0.00     0.118 C 
BRANCH   2   3
ATOM      3  N   UNL A   1      38.126  21.742  25.099  1.00  0.00    -0.352 N 
ATOM      4  O   UNL A   1      39.248  20.048  25.947  1.00  0.00    -0.269 OA
ATOM      5  C   UNL A   1      39.200  21.274  25.805  1.00  0.00     0.251 C 
ATOM      6  H   UNL A   1      37.607  21.015  24.688  1.00  0.00     0.163 HD
BRANCH   5   7
ATOM      7  C   UNL A   1      40.313  22.094  26.366  1.00  0.00     0.039 A 
ATOM      8  C   UNL A   1      40.175  23.259  27.117  1.00  0.00     0.014 A 
ATOM      9  C   UNL A   1      41.620  21.646  26.078  1.00  0.00     0.014 A 
ATOM     10  C   UNL A   1      41.302  23.981  27.521  1.00  0.00     0.010 A 
ATOM     11  C   UNL A   1      42.750  22.353  26.494  1.00  0.00     0.010 A 
ATOM     12  C   UNL A   1      42.593  23.538  27.204  1.00  0.00    -0.014 A 
BRANCH  12  13
ATOM     13  C   UNL A   1      43.729  24.279  27.757  1.00  0.00     0.031 A 
ATOM     14  C   UNL A   1      43.847  24.283  29.245  1.00  0.00     0.074 A 
ATOM     15  C   UNL A   1      44.738  24.832  27.055  1.00  0.00     0.049 A 
ATOM     16  N   UNL A   1      43.787  25.296  30.050  1.00  0.00    -0.248 NA
ATOM     17  C   UNL A   1      44.031  22.991  29.919  1.00  0.00     0.031 C 
ATOM     18  C   UNL A   1      45.052  24.678  25.636  1.00  0.00     0.029 A 
ATOM     19  N   UNL A   1      45.765  25.608  27.522  1.00  0.00    -0.354 N 
ATOM     20  C   UNL A   1      44.078  24.801  31.320  1.00  0.00     0.074 A 
ATOM     21  C   UNL A   1      44.131  23.366  31.195  1.00  0.00     0.031 C 
ATOM     22  C   UNL A   1      46.287  25.181  25.399  1.00  0.00     0.029 A 
ATOM     23  C   UNL A   1      46.790  25.807  26.612  1.00  0.00     0.049 A 
ATOM     24  H   UNL A   1      45.775  25.991  28.429  1.00  0.00     0.167 HD
ATOM     25  C   UNL A   1      44.415  25.615  32.359  1.00  0.00     0.037 A 
ATOM     26  C   UNL A   1      47.983  26.409  26.845  1.00  0.00     0.037 A 
ATOM     27  C   UNL A   1      44.065  26.987  32.111  1.00  0.00     0.049 A 
ATOM     28  C   UNL A   1      47.862  27.236  28.068  1.00  0.00     0.074 A 
ATOM     29  C   UNL A   1      42.896  27.664  31.821  1.00  0.00     0.029 A 
ATOM     30  N   UNL A   1      45.073  27.883  31.865  1.00  0.00    -0.354 N 
ATOM     31  N   UNL A   1      47.214  28.363  28.142  1.00  0.00    -0.248 NA
ATOM     32  C   UNL A   1      48.222  26.639  29.345  1.00  0.00     0.031 C 
ATOM     33  C   UNL A   1      43.287  28.728  30.955  1.00  0.00     0.029 A 
ATOM     34  C   UNL A   1      44.669  28.636  30.793  1.00  0.00     0.049 A 
ATOM     35  H   UNL A   1      45.919  27.970  32.361  1.00  0.00     0.167 HD
ATOM     36  C   UNL A   1      46.717  28.398  29.433  1.00  0.00     0.074 A 
ATOM     37  C   UNL A   1      47.479  27.389  30.160  1.00  0.00     0.031 C 
ATOM     38  C   UNL A   1      45.546  29.037  29.721  1.00  0.00     0.037 A 
BRANCH  25  39
ATOM     39  C   UNL A   1      45.332  25.228  33.492  1.00  0.00     0.057 A 
ATOM     40  C   UNL A   1      44.859  25.267  34.818  1.00  0.00     0.134 A 
ATOM     41  C   UNL A   1      46.728  25.105  33.355  1.00  0.00     0.134 A 
ATOM     42  F   UNL A   1      43.550  25.409  35.078  1.00  0.00    -0.206 F 
ATOM     43  C   UNL A   1      45.717  25.245  35.923  1.00  0.00     0.040 A 
ATOM     44  C   UNL A   1      47.591  25.031  34.454  1.00  0.00     0.040 A 
ATOM     45  F   UNL A   1      47.330  25.150  32.160  1.00  0.00    -0.206 F 
ATOM     46  C   UNL A   1      47.090  25.131  35.743  1.00  0.00     0.006 A 
ENDBRANCH  25  39
BRANCH  26  47
ATOM     47  C   UNL A   1      49.292  26.201  26.189  1.00  0.00     0.057 A 
ATOM     48  C   UNL A   1      49.737  27.048  25.163  1.00  0.00     0.134 A 
ATOM     49  C   UNL A   1      50.253  25.335  26.737  1.00  0.00     0.134 A 
ATOM     50  F   UNL A   1      48.907  27.939  24.603  1.00  0.00    -0.206 F 
ATOM     51  C   UNL A   1      51.068  27.053  24.726  1.00  0.00     0.040 A 
ATOM     52  C   UNL A   1      51.581  25.322  26.301  1.00  0.00     0.040 A 
ATOM     53  F   UNL A   1      49.953  24.536  27.771  1.00  0.00    -0.206 F 
ATOM     54  C   UNL A   1      51.998  26.194  25.303  1.00  0.00     0.006 A 
ENDBRANCH  26  47
BRANCH  38  55
ATOM     55  C   UNL A   1      44.994  29.996  28.707  1.00  0.00     0.057 A 
ATOM     56  C   UNL A   1      45.342  31.353  28.636  1.00  0.00     0.134 A 
ATOM     57  C   UNL A   1      44.176  29.496  27.687  1.00  0.00     0.134 A 
ATOM     58  F   UNL A   1      46.211  31.897  29.499  1.00  0.00    -0.206 F 
ATOM     59  C   UNL A   1      44.841  32.186  27.630  1.00  0.00     0.040 A 
ATOM     60  C   UNL A   1      43.702  30.309  26.656  1.00  0.00     0.040 A 
ATOM     61  F   UNL A   1      43.852  28.193  27.655  1.00  0.00    -0.206 F 
ATOM     62  C   UNL A   1      44.022  31.664  26.634  1.00  0.00     0.006 A 
ENDBRANCH  38  55
ENDBRANCH  12  13
ENDBRANCH   5   7
ENDBRANCH   2   3
ENDBRANCH   1   2
BRANCH   1  63
ATOM     63  C   UNL A   1      35.328  23.666  23.677  1.00  0.00     0.118 C 
BRANCH  63  64
ATOM     64  N   UNL A   1      34.732  23.402  24.973  1.00  0.00    -0.351 N 
ATOM     65  C   UNL A   1      33.474  23.734  25.430  1.00  0.00     0.274 C 
ATOM     66  H   UNL A   1      35.302  22.921  25.614  1.00  0.00     0.163 HD
ATOM     67  O   UNL A   1      33.162  23.422  26.579  1.00  0.00    -0.267 OA
BRANCH  65  68
ATOM     68  C   UNL A   1      32.564  24.448  24.550  1.00  0.00     0.178 A 
ATOM     69  N   UNL A   1      31.908  23.813  23.526  1.00  0.00    -0.124 NA
ATOM     70  C   UNL A   1      32.148  25.773  24.617  1.00  0.00     0.108 A 
ATOM     71  N   UNL A   1      31.036  24.661  23.004  1.00  0.00    -0.061 NA
ATOM     72  N   UNL A   1      31.226  25.872  23.576  1.00  0.00    -0.212 N 
BRANCH  70  73
ATOM     73  C   UNL A   1      32.373  26.789  25.645  1.00  0.00     0.004 A 
ATOM     74  C   UNL A   1      31.329  27.122  26.529  1.00  0.00     0.010 A 
ATOM     75  C   UNL A   1      33.609  27.424  25.779  1.00  0.00     0.031 A 
ATOM     76  C   UNL A   1      31.510  28.084  27.520  1.00  0.00     0.002 A 
ATOM     77  C   UNL A   1      33.781  28.394  26.769  1.00  0.00     0.041 A 
ATOM     78  C   UNL A   1      32.741  28.725  27.638  1.00  0.00     0.020 A 
ATOM     79  Cl  UNL A   1      35.294  29.199  26.918  1.00  0.00    -0.084 Cl
ENDBRANCH  70  73
BRANCH  72  80
ATOM     80  C   UNL A   1      30.444  26.995  23.205  1.00  0.00     0.067 A 
ATOM     81  C   UNL A   1      29.082  27.014  23.522  1.00  0.00     0.029 A 
ATOM     82  C   UNL A   1      31.046  28.116  22.620  1.00  0.00     0.029 A 
ATOM     83  C   UNL A   1      28.356  28.196  23.357  1.00  0.00     0.015 A 
ATOM     84  C   UNL A   1      30.308  29.284  22.432  1.00  0.00     0.015 A 
ATOM     85  C   UNL A   1      28.966  29.347  22.831  1.00  0.00     0.056 A 
BRANCH  85  86
ATOM     86  C   UNL A   1      28.192  30.641  22.739  1.00  0.00     0.416 C 
ATOM     87  F   UNL A   1      27.384  30.851  23.812  1.00  0.00    -0.166 F 
ATOM     88  F   UNL A   1      29.016  31.724  22.671  1.00  0.00    -0.166 F 
ATOM     89  F   UNL A   1      27.389  30.718  21.640  1.00  0.00    -0.166 F 
ENDBRANCH  85  86
ENDBRANCH  72  80
ENDBRANCH  65  68
ENDBRANCH  63  64
ENDBRANCH   1  63
TORSDOF 13
ENDMDL
