MODEL 1
REMARK VINA RESULT:     -10.8      0.000      0.000
REMARK SMILES C#CCN(CC(=O)NCCCNC(=O)c1ccc(-c2c3nc(c(-c4c(F)cccc4F)c4ccc([nH]4)c(-c4c(F)cccc4F)c4nc(c(-c5c(F)cccc5F)c5ccc2[nH]5)C=C4)C=C3)cc1)C(=O)[C@H](c1ccc(Cl)cc1)C(C)C
REMARK SMILES IDX 9 1 8 2 6 3 7 4 5 6 4 7 3 8 2 9 1 10 69 11 70 12 71 13 79 14
REMARK SMILES IDX 80 15 81 16 72 17 73 18 78 19 74 20 77 21 75 22 76 23 10 24
REMARK SMILES IDX 11 25 12 26 13 27 14 29 15 30 16 31 68 32 17 33 67 34 18 35
REMARK SMILES IDX 19 36 20 37 61 38 21 39 66 40 60 41 62 42 22 43 65 44 59 45
REMARK SMILES IDX 58 46 23 48 49 49 32 50 48 51 33 52 36 53 47 54 63 55 34 56
REMARK SMILES IDX 35 57 46 59 64 60 37 61 24 62 25 63 30 64 26 65 27 66 29 67
REMARK SMILES IDX 31 68 28 69 50 70 51 71 56 72 52 73 53 74 55 75 57 76 54 77
REMARK SMILES IDX 38 78 39 79 44 80 40 81 41 82 43 83 45 84 42 85
REMARK H PARENT 8 5 12 28 62 47 36 58
REMARK Flexibility Score: inf
ROOT
ATOM      1  C   UNL A   1      37.106  20.824  24.881  1.00  0.00     0.117 C 
ENDROOT
BRANCH   1   2
ATOM      2  N   UNL A   1      37.589  22.177  24.703  1.00  0.00    -0.354 N 
ATOM      3  C   UNL A   1      37.299  23.222  25.533  1.00  0.00     0.239 C 
ATOM      4  O   UNL A   1      38.255  23.831  26.022  1.00  0.00    -0.273 OA
ATOM      5  H   UNL A   1      38.168  22.355  23.928  1.00  0.00     0.163 HD
BRANCH   3   6
ATOM      6  C   UNL A   1      35.850  23.542  25.956  1.00  0.00     0.220 C 
BRANCH   6   7
ATOM      7  N   UNL A   1      34.948  24.061  24.924  1.00  0.00    -0.322 N 
BRANCH   7   8
ATOM      8  C   UNL A   1      34.556  25.465  25.079  1.00  0.00     0.209 C 
BRANCH   8   9
ATOM      9  C   UNL A   1      33.243  25.607  25.718  1.00  0.00    -0.085 C 
ATOM     10  C   UNL A   1      32.191  25.685  26.298  1.00  0.00     0.006 C 
ENDBRANCH   8   9
ENDBRANCH   7   8
BRANCH   7  11
ATOM     11  C   UNL A   1      34.409  23.373  23.845  1.00  0.00     0.231 C 
ATOM     12  O   UNL A   1      35.117  23.228  22.832  1.00  0.00    -0.274 OA
BRANCH  11  13
ATOM     13  C   UNL A   1      33.011  22.683  23.800  1.00  0.00     0.111 C 
BRANCH  13  14
ATOM     14  C   UNL A   1      32.017  23.349  22.792  1.00  0.00    -0.000 C 
ATOM     15  C   UNL A   1      30.687  23.731  23.478  1.00  0.00     0.008 C 
ATOM     16  C   UNL A   1      32.578  24.641  22.173  1.00  0.00     0.008 C 
ENDBRANCH  13  14
BRANCH  13  17
ATOM     17  C   UNL A   1      32.985  21.158  23.795  1.00  0.00    -0.035 A 
ATOM     18  C   UNL A   1      33.674  20.455  24.799  1.00  0.00     0.006 A 
ATOM     19  C   UNL A   1      32.258  20.418  22.846  1.00  0.00     0.006 A 
ATOM     20  C   UNL A   1      33.690  19.058  24.810  1.00  0.00     0.021 A 
ATOM     21  C   UNL A   1      32.297  19.021  22.840  1.00  0.00     0.021 A 
ATOM     22  C   UNL A   1      33.026  18.347  23.814  1.00  0.00     0.041 A 
ATOM     23  Cl  UNL A   1      33.124  16.631  23.774  1.00  0.00    -0.084 Cl
ENDBRANCH  13  17
ENDBRANCH  11  13
ENDBRANCH   7  11
ENDBRANCH   6   7
ENDBRANCH   3   6
ENDBRANCH   1   2
BRANCH   1  24
ATOM     24  C   UNL A   1      38.214  19.790  24.957  1.00  0.00     0.042 C 
BRANCH  24  25
ATOM     25  C   UNL A   1      39.335  20.175  25.911  1.00  0.00     0.118 C 
BRANCH  25  26
ATOM     26  N   UNL A   1      40.375  19.150  25.998  1.00  0.00    -0.352 N 
ATOM     27  C   UNL A   1      41.739  19.290  26.091  1.00  0.00     0.251 C 
ATOM     28  H   UNL A   1      40.049  18.222  25.989  1.00  0.00     0.163 HD
ATOM     29  O   UNL A   1      42.479  18.329  25.916  1.00  0.00    -0.269 OA
BRANCH  27  30
ATOM     30  C   UNL A   1      42.302  20.619  26.390  1.00  0.00     0.039 A 
ATOM     31  C   UNL A   1      42.777  21.421  25.349  1.00  0.00     0.014 A 
ATOM     32  C   UNL A   1      42.315  21.081  27.706  1.00  0.00     0.014 A 
ATOM     33  C   UNL A   1      43.176  22.730  25.622  1.00  0.00     0.010 A 
ATOM     34  C   UNL A   1      42.616  22.410  27.959  1.00  0.00     0.010 A 
ATOM     35  C   UNL A   1      43.048  23.249  26.920  1.00  0.00    -0.014 A 
BRANCH  35  36
ATOM     36  C   UNL A   1      43.365  24.662  27.243  1.00  0.00     0.031 A 
ATOM     37  C   UNL A   1      44.802  25.100  27.300  1.00  0.00     0.074 A 
ATOM     38  C   UNL A   1      42.379  25.510  27.595  1.00  0.00     0.049 A 
ATOM     39  N   UNL A   1      45.307  26.226  27.730  1.00  0.00    -0.248 NA
ATOM     40  C   UNL A   1      45.806  24.124  26.846  1.00  0.00     0.031 C 
ATOM     41  C   UNL A   1      40.951  25.194  27.609  1.00  0.00     0.029 A 
ATOM     42  N   UNL A   1      42.434  26.809  28.035  1.00  0.00    -0.354 N 
ATOM     43  C   UNL A   1      46.684  26.086  27.619  1.00  0.00     0.074 A 
ATOM     44  C   UNL A   1      46.938  24.746  27.138  1.00  0.00     0.031 C 
ATOM     45  C   UNL A   1      40.265  26.271  28.024  1.00  0.00     0.029 A 
ATOM     46  C   UNL A   1      41.207  27.333  28.361  1.00  0.00     0.049 A 
ATOM     47  H   UNL A   1      43.274  27.317  28.111  1.00  0.00     0.167 HD
ATOM     48  C   UNL A   1      47.649  26.999  27.875  1.00  0.00     0.037 A 
ATOM     49  C   UNL A   1      40.881  28.526  28.898  1.00  0.00     0.037 A 
ATOM     50  C   UNL A   1      47.385  28.334  28.341  1.00  0.00     0.049 A 
ATOM     51  C   UNL A   1      41.976  29.508  29.219  1.00  0.00     0.074 A 
ATOM     52  C   UNL A   1      48.288  29.353  28.583  1.00  0.00     0.029 A 
ATOM     53  N   UNL A   1      46.126  28.831  28.643  1.00  0.00    -0.354 N 
ATOM     54  N   UNL A   1      43.271  29.386  29.055  1.00  0.00    -0.248 NA
ATOM     55  C   UNL A   1      41.566  30.794  29.803  1.00  0.00     0.031 C 
ATOM     56  C   UNL A   1      47.584  30.444  29.097  1.00  0.00     0.029 A 
ATOM     57  C   UNL A   1      46.233  30.133  29.100  1.00  0.00     0.049 A 
ATOM     58  H   UNL A   1      45.283  28.332  28.547  1.00  0.00     0.167 HD
ATOM     59  C   UNL A   1      43.825  30.590  29.472  1.00  0.00     0.074 A 
ATOM     60  C   UNL A   1      42.725  31.430  29.897  1.00  0.00     0.031 C 
ATOM     61  C   UNL A   1      45.126  30.966  29.496  1.00  0.00     0.037 A 
BRANCH  48  62
ATOM     62  C   UNL A   1      49.076  26.582  27.668  1.00  0.00     0.057 A 
ATOM     63  C   UNL A   1      49.844  26.019  28.697  1.00  0.00     0.134 A 
ATOM     64  C   UNL A   1      49.681  26.712  26.411  1.00  0.00     0.134 A 
ATOM     65  F   UNL A   1      49.330  25.875  29.929  1.00  0.00    -0.206 F 
ATOM     66  C   UNL A   1      51.168  25.629  28.492  1.00  0.00     0.040 A 
ATOM     67  C   UNL A   1      50.994  26.294  26.185  1.00  0.00     0.040 A 
ATOM     68  F   UNL A   1      49.003  27.237  25.379  1.00  0.00    -0.206 F 
ATOM     69  C   UNL A   1      51.743  25.759  27.229  1.00  0.00     0.006 A 
ENDBRANCH  48  62
BRANCH  49  70
ATOM     70  C   UNL A   1      39.459  28.861  29.169  1.00  0.00     0.057 A 
ATOM     71  C   UNL A   1      38.894  28.652  30.433  1.00  0.00     0.134 A 
ATOM     72  C   UNL A   1      38.623  29.379  28.171  1.00  0.00     0.134 A 
ATOM     73  F   UNL A   1      39.637  28.143  31.427  1.00  0.00    -0.206 F 
ATOM     74  C   UNL A   1      37.548  28.917  30.688  1.00  0.00     0.040 A 
ATOM     75  C   UNL A   1      37.282  29.679  28.421  1.00  0.00     0.040 A 
ATOM     76  F   UNL A   1      39.101  29.612  26.940  1.00  0.00    -0.206 F 
ATOM     77  C   UNL A   1      36.738  29.437  29.680  1.00  0.00     0.006 A 
ENDBRANCH  49  70
BRANCH  61  78
ATOM     78  C   UNL A   1      45.443  32.367  29.934  1.00  0.00     0.057 A 
ATOM     79  C   UNL A   1      45.790  32.677  31.253  1.00  0.00     0.134 A 
ATOM     80  C   UNL A   1      45.488  33.405  28.992  1.00  0.00     0.134 A 
ATOM     81  F   UNL A   1      45.756  31.733  32.207  1.00  0.00    -0.206 F 
ATOM     82  C   UNL A   1      46.162  33.972  31.623  1.00  0.00     0.040 A 
ATOM     83  C   UNL A   1      45.889  34.693  29.343  1.00  0.00     0.040 A 
ATOM     84  F   UNL A   1      45.177  33.173  27.707  1.00  0.00    -0.206 F 
ATOM     85  C   UNL A   1      46.224  34.980  30.664  1.00  0.00     0.006 A 
ENDBRANCH  61  78
ENDBRANCH  35  36
ENDBRANCH  27  30
ENDBRANCH  25  26
ENDBRANCH  24  25
ENDBRANCH   1  24
TORSDOF 17
ENDMDL
MODEL 2
REMARK VINA RESULT:     -10.7      2.145      3.346
REMARK SMILES C#CCN(CC(=O)NCCCNC(=O)c1ccc(-c2c3nc(c(-c4c(F)cccc4F)c4ccc([nH]4)c(-c4c(F)cccc4F)c4nc(c(-c5c(F)cccc5F)c5ccc2[nH]5)C=C4)C=C3)cc1)C(=O)[C@H](c1ccc(Cl)cc1)C(C)C
REMARK SMILES IDX 9 1 8 2 6 3 7 4 5 6 4 7 3 8 2 9 1 10 69 11 70 12 71 13 79 14
REMARK SMILES IDX 80 15 81 16 72 17 73 18 78 19 74 20 77 21 75 22 76 23 10 24
REMARK SMILES IDX 11 25 12 26 13 27 14 29 15 30 16 31 68 32 17 33 67 34 18 35
REMARK SMILES IDX 19 36 20 37 61 38 21 39 66 40 60 41 62 42 22 43 65 44 59 45
REMARK SMILES IDX 58 46 23 48 49 49 32 50 48 51 33 52 36 53 47 54 63 55 34 56
REMARK SMILES IDX 35 57 46 59 64 60 37 61 24 62 25 63 30 64 26 65 27 66 29 67
REMARK SMILES IDX 31 68 28 69 50 70 51 71 56 72 52 73 53 74 55 75 57 76 54 77
REMARK SMILES IDX 38 78 39 79 44 80 40 81 41 82 43 83 45 84 42 85
REMARK H PARENT 8 5 12 28 62 47 36 58
REMARK Flexibility Score: inf
ROOT
ATOM      1  C   UNL A   1      36.861  20.797  24.817  1.00  0.00     0.117 C 
ENDROOT
BRANCH   1   2
ATOM      2  N   UNL A   1      35.652  20.357  25.480  1.00  0.00    -0.354 N 
ATOM      3  C   UNL A   1      34.553  21.140  25.694  1.00  0.00     0.239 C 
ATOM      4  O   UNL A   1      33.476  20.724  25.260  1.00  0.00    -0.273 OA
ATOM      5  H   UNL A   1      35.620  19.427  25.798  1.00  0.00     0.163 HD
BRANCH   3   6
ATOM      6  C   UNL A   1      34.671  22.544  26.323  1.00  0.00     0.220 C 
BRANCH   6   7
ATOM      7  N   UNL A   1      34.042  23.657  25.606  1.00  0.00    -0.322 N 
BRANCH   7   8
ATOM      8  C   UNL A   1      34.759  24.125  24.417  1.00  0.00     0.209 C 
BRANCH   8   9
ATOM      9  C   UNL A   1      34.139  23.656  23.173  1.00  0.00    -0.085 C 
ATOM     10  C   UNL A   1      33.604  23.214  22.189  1.00  0.00     0.006 C 
ENDBRANCH   8   9
ENDBRANCH   7   8
BRANCH   7  11
ATOM     11  C   UNL A   1      32.871  24.326  25.937  1.00  0.00     0.231 C 
ATOM     12  O   UNL A   1      32.239  23.937  26.936  1.00  0.00    -0.274 OA
BRANCH  11  13
ATOM     13  C   UNL A   1      32.299  25.587  25.220  1.00  0.00     0.111 C 
BRANCH  13  14
ATOM     14  C   UNL A   1      30.818  25.417  24.743  1.00  0.00    -0.000 C 
ATOM     15  C   UNL A   1      30.384  26.577  23.821  1.00  0.00     0.008 C 
ATOM     16  C   UNL A   1      30.598  24.119  23.949  1.00  0.00     0.008 C 
ENDBRANCH  13  14
BRANCH  13  17
ATOM     17  C   UNL A   1      32.608  26.945  25.843  1.00  0.00    -0.035 A 
ATOM     18  C   UNL A   1      31.742  27.467  26.818  1.00  0.00     0.006 A 
ATOM     19  C   UNL A   1      33.757  27.684  25.511  1.00  0.00     0.006 A 
ATOM     20  C   UNL A   1      31.982  28.719  27.391  1.00  0.00     0.021 A 
ATOM     21  C   UNL A   1      33.984  28.947  26.063  1.00  0.00     0.021 A 
ATOM     22  C   UNL A   1      33.086  29.466  26.990  1.00  0.00     0.041 A 
ATOM     23  Cl  UNL A   1      33.330  31.045  27.626  1.00  0.00    -0.084 Cl
ENDBRANCH  13  17
ENDBRANCH  11  13
ENDBRANCH   7  11
ENDBRANCH   6   7
ENDBRANCH   3   6
ENDBRANCH   1   2
BRANCH   1  24
ATOM     24  C   UNL A   1      38.003  19.801  24.915  1.00  0.00     0.042 C 
BRANCH  24  25
ATOM     25  C   UNL A   1      39.161  20.293  25.771  1.00  0.00     0.118 C 
BRANCH  25  26
ATOM     26  N   UNL A   1      40.198  19.277  25.950  1.00  0.00    -0.352 N 
ATOM     27  C   UNL A   1      41.553  19.427  26.126  1.00  0.00     0.251 C 
ATOM     28  H   UNL A   1      39.877  18.347  25.943  1.00  0.00     0.163 HD
ATOM     29  O   UNL A   1      42.306  18.467  26.023  1.00  0.00    -0.269 OA
BRANCH  27  30
ATOM     30  C   UNL A   1      42.090  20.766  26.427  1.00  0.00     0.039 A 
ATOM     31  C   UNL A   1      42.434  21.626  25.380  1.00  0.00     0.014 A 
ATOM     32  C   UNL A   1      42.208  21.179  27.754  1.00  0.00     0.014 A 
ATOM     33  C   UNL A   1      42.806  22.940  25.669  1.00  0.00     0.010 A 
ATOM     34  C   UNL A   1      42.480  22.509  28.033  1.00  0.00     0.010 A 
ATOM     35  C   UNL A   1      42.780  23.404  26.994  1.00  0.00    -0.014 A 
BRANCH  35  36
ATOM     36  C   UNL A   1      43.071  24.815  27.345  1.00  0.00     0.031 A 
ATOM     37  C   UNL A   1      44.500  25.258  27.491  1.00  0.00     0.074 A 
ATOM     38  C   UNL A   1      42.063  25.658  27.643  1.00  0.00     0.049 A 
ATOM     39  N   UNL A   1      44.975  26.384  27.958  1.00  0.00    -0.248 NA
ATOM     40  C   UNL A   1      45.534  24.289  27.091  1.00  0.00     0.031 C 
ATOM     41  C   UNL A   1      40.638  25.336  27.569  1.00  0.00     0.029 A 
ATOM     42  N   UNL A   1      42.087  26.954  28.094  1.00  0.00    -0.354 N 
ATOM     43  C   UNL A   1      46.356  26.249  27.928  1.00  0.00     0.074 A 
ATOM     44  C   UNL A   1      46.644  24.914  27.454  1.00  0.00     0.031 C 
ATOM     45  C   UNL A   1      39.923  26.408  27.949  1.00  0.00     0.029 A 
ATOM     46  C   UNL A   1      40.840  27.471  28.350  1.00  0.00     0.049 A 
ATOM     47  H   UNL A   1      42.918  27.465  28.223  1.00  0.00     0.167 HD
ATOM     48  C   UNL A   1      47.301  27.164  28.248  1.00  0.00     0.037 A 
ATOM     49  C   UNL A   1      40.477  28.659  28.874  1.00  0.00     0.037 A 
ATOM     50  C   UNL A   1      47.004  28.495  28.707  1.00  0.00     0.049 A 
ATOM     51  C   UNL A   1      41.547  29.643  29.267  1.00  0.00     0.074 A 
ATOM     52  C   UNL A   1      47.886  29.516  29.008  1.00  0.00     0.029 A 
ATOM     53  N   UNL A   1      45.727  28.985  28.936  1.00  0.00    -0.354 N 
ATOM     54  N   UNL A   1      42.850  29.527  29.179  1.00  0.00    -0.248 NA
ATOM     55  C   UNL A   1      41.097  30.923  29.833  1.00  0.00     0.031 C 
ATOM     56  C   UNL A   1      47.148  30.600  29.486  1.00  0.00     0.029 A 
ATOM     57  C   UNL A   1      45.802  30.285  29.407  1.00  0.00     0.049 A 
ATOM     58  H   UNL A   1      44.893  28.484  28.786  1.00  0.00     0.167 HD
ATOM     59  C   UNL A   1      43.373  30.730  29.637  1.00  0.00     0.074 A 
ATOM     60  C   UNL A   1      42.247  31.563  30.001  1.00  0.00     0.031 C 
ATOM     61  C   UNL A   1      44.669  31.111  29.741  1.00  0.00     0.037 A 
BRANCH  48  62
ATOM     62  C   UNL A   1      48.739  26.753  28.124  1.00  0.00     0.057 A 
ATOM     63  C   UNL A   1      49.445  26.183  29.192  1.00  0.00     0.134 A 
ATOM     64  C   UNL A   1      49.419  26.898  26.908  1.00  0.00     0.134 A 
ATOM     65  F   UNL A   1      48.858  26.025  30.389  1.00  0.00    -0.206 F 
ATOM     66  C   UNL A   1      50.780  25.799  29.064  1.00  0.00     0.040 A 
ATOM     67  C   UNL A   1      50.744  26.486  26.757  1.00  0.00     0.040 A 
ATOM     68  F   UNL A   1      48.802  27.430  25.841  1.00  0.00    -0.206 F 
ATOM     69  C   UNL A   1      51.431  25.943  27.840  1.00  0.00     0.006 A 
ENDBRANCH  48  62
BRANCH  49  70
ATOM     70  C   UNL A   1      39.040  28.987  29.061  1.00  0.00     0.057 A 
ATOM     71  C   UNL A   1      38.408  28.793  30.295  1.00  0.00     0.134 A 
ATOM     72  C   UNL A   1      38.257  29.485  28.011  1.00  0.00     0.134 A 
ATOM     73  F   UNL A   1      39.099  28.304  31.337  1.00  0.00    -0.206 F 
ATOM     74  C   UNL A   1      37.048  29.051  30.472  1.00  0.00     0.040 A 
ATOM     75  C   UNL A   1      36.902  29.778  28.183  1.00  0.00     0.040 A 
ATOM     76  F   UNL A   1      38.800  29.703  26.805  1.00  0.00    -0.206 F 
ATOM     77  C   UNL A   1      36.292  29.550  29.414  1.00  0.00     0.006 A 
ENDBRANCH  49  70
BRANCH  61  78
ATOM     78  C   UNL A   1      44.954  32.510  30.206  1.00  0.00     0.057 A 
ATOM     79  C   UNL A   1      45.225  32.812  31.545  1.00  0.00     0.134 A 
ATOM     80  C   UNL A   1      45.046  33.555  29.276  1.00  0.00     0.134 A 
ATOM     81  F   UNL A   1      45.142  31.860  32.488  1.00  0.00    -0.206 F 
ATOM     82  C   UNL A   1      45.568  34.105  31.945  1.00  0.00     0.040 A 
ATOM     83  C   UNL A   1      45.420  34.843  29.659  1.00  0.00     0.040 A 
ATOM     84  F   UNL A   1      44.809  33.332  27.974  1.00  0.00    -0.206 F 
ATOM     85  C   UNL A   1      45.679  35.121  30.998  1.00  0.00     0.006 A 
ENDBRANCH  61  78
ENDBRANCH  35  36
ENDBRANCH  27  30
ENDBRANCH  25  26
ENDBRANCH  24  25
ENDBRANCH   1  24
TORSDOF 17
ENDMDL
MODEL 3
REMARK VINA RESULT:     -10.7      5.087      9.872
REMARK SMILES C#CCN(CC(=O)NCCCNC(=O)c1ccc(-c2c3nc(c(-c4c(F)cccc4F)c4ccc([nH]4)c(-c4c(F)cccc4F)c4nc(c(-c5c(F)cccc5F)c5ccc2[nH]5)C=C4)C=C3)cc1)C(=O)[C@H](c1ccc(Cl)cc1)C(C)C
REMARK SMILES IDX 9 1 8 2 6 3 7 4 5 6 4 7 3 8 2 9 1 10 69 11 70 12 71 13 79 14
REMARK SMILES IDX 80 15 81 16 72 17 73 18 78 19 74 20 77 21 75 22 76 23 10 24
REMARK SMILES IDX 11 25 12 26 13 27 14 29 15 30 16 31 68 32 17 33 67 34 18 35
REMARK SMILES IDX 19 36 20 37 61 38 21 39 66 40 60 41 62 42 22 43 65 44 59 45
REMARK SMILES IDX 58 46 23 48 49 49 32 50 48 51 33 52 36 53 47 54 63 55 34 56
REMARK SMILES IDX 35 57 46 59 64 60 37 61 24 62 25 63 30 64 26 65 27 66 29 67
REMARK SMILES IDX 31 68 28 69 50 70 51 71 56 72 52 73 53 74 55 75 57 76 54 77
REMARK SMILES IDX 38 78 39 79 44 80 40 81 41 82 43 83 45 84 42 85
REMARK H PARENT 8 5 12 28 62 47 36 58
REMARK Flexibility Score: inf
ROOT
ATOM      1  C   UNL A   1      31.672  30.749  26.175  1.00  0.00     0.117 C 
ENDROOT
BRANCH   1   2
ATOM      2  N   UNL A   1      32.494  29.980  27.085  1.00  0.00    -0.354 N 
ATOM      3  C   UNL A   1      33.638  29.322  26.733  1.00  0.00     0.239 C 
ATOM      4  O   UNL A   1      34.662  29.603  27.362  1.00  0.00    -0.273 OA
ATOM      5  H   UNL A   1      32.208  29.928  28.025  1.00  0.00     0.163 HD
BRANCH   3   6
ATOM      6  C   UNL A   1      33.685  28.377  25.515  1.00  0.00     0.220 C 
BRANCH   6   7
ATOM      7  N   UNL A   1      32.560  27.456  25.334  1.00  0.00    -0.322 N 
BRANCH   7   8
ATOM      8  C   UNL A   1      31.875  27.543  24.042  1.00  0.00     0.209 C 
BRANCH   8   9
ATOM      9  C   UNL A   1      32.665  26.955  22.954  1.00  0.00    -0.085 C 
ATOM     10  C   UNL A   1      33.281  26.519  22.016  1.00  0.00     0.006 C 
ENDBRANCH   8   9
ENDBRANCH   7   8
BRANCH   7  11
ATOM     11  C   UNL A   1      32.059  26.539  26.249  1.00  0.00     0.231 C 
ATOM     12  O   UNL A   1      31.471  26.978  27.254  1.00  0.00    -0.274 OA
BRANCH  11  13
ATOM     13  C   UNL A   1      32.088  24.986  26.105  1.00  0.00     0.111 C 
BRANCH  13  14
ATOM     14  C   UNL A   1      30.691  24.364  25.771  1.00  0.00    -0.000 C 
ATOM     15  C   UNL A   1      30.295  23.280  26.798  1.00  0.00     0.008 C 
ATOM     16  C   UNL A   1      29.561  25.408  25.777  1.00  0.00     0.008 C 
ENDBRANCH  13  14
BRANCH  13  17
ATOM     17  C   UNL A   1      33.250  24.379  25.327  1.00  0.00    -0.035 A 
ATOM     18  C   UNL A   1      34.567  24.673  25.717  1.00  0.00     0.006 A 
ATOM     19  C   UNL A   1      33.058  23.493  24.252  1.00  0.00     0.006 A 
ATOM     20  C   UNL A   1      35.655  24.151  25.012  1.00  0.00     0.021 A 
ATOM     21  C   UNL A   1      34.144  22.994  23.528  1.00  0.00     0.021 A 
ATOM     22  C   UNL A   1      35.439  23.338  23.903  1.00  0.00     0.041 A 
ATOM     23  Cl  UNL A   1      36.775  22.773  22.979  1.00  0.00    -0.084 Cl
ENDBRANCH  13  17
ENDBRANCH  11  13
ENDBRANCH   7  11
ENDBRANCH   6   7
ENDBRANCH   3   6
ENDBRANCH   1   2
BRANCH   1  24
ATOM     24  C   UNL A   1      31.447  32.181  26.625  1.00  0.00     0.042 C 
BRANCH  24  25
ATOM     25  C   UNL A   1      32.674  32.812  27.268  1.00  0.00     0.118 C 
BRANCH  25  26
ATOM     26  N   UNL A   1      32.470  34.220  27.605  1.00  0.00    -0.352 N 
ATOM     27  C   UNL A   1      33.020  34.969  28.618  1.00  0.00     0.251 C 
ATOM     28  H   UNL A   1      31.844  34.703  27.019  1.00  0.00     0.163 HD
ATOM     29  O   UNL A   1      32.562  36.069  28.902  1.00  0.00    -0.269 OA
BRANCH  27  30
ATOM     30  C   UNL A   1      34.165  34.422  29.369  1.00  0.00     0.039 A 
ATOM     31  C   UNL A   1      33.948  33.773  30.587  1.00  0.00     0.014 A 
ATOM     32  C   UNL A   1      35.449  34.520  28.833  1.00  0.00     0.014 A 
ATOM     33  C   UNL A   1      35.015  33.135  31.220  1.00  0.00     0.010 A 
ATOM     34  C   UNL A   1      36.485  33.803  29.411  1.00  0.00     0.010 A 
ATOM     35  C   UNL A   1      36.279  33.102  30.610  1.00  0.00    -0.014 A 
BRANCH  35  36
ATOM     36  C   UNL A   1      37.421  32.355  31.192  1.00  0.00     0.031 A 
ATOM     37  C   UNL A   1      38.079  32.873  32.441  1.00  0.00     0.074 A 
ATOM     38  C   UNL A   1      37.933  31.292  30.543  1.00  0.00     0.049 A 
ATOM     39  N   UNL A   1      39.188  32.484  33.014  1.00  0.00    -0.248 NA
ATOM     40  C   UNL A   1      37.419  34.004  33.113  1.00  0.00     0.031 C 
ATOM     41  C   UNL A   1      37.402  30.714  29.308  1.00  0.00     0.029 A 
ATOM     42  N   UNL A   1      39.035  30.522  30.821  1.00  0.00    -0.354 N 
ATOM     43  C   UNL A   1      39.368  33.334  34.097  1.00  0.00     0.074 A 
ATOM     44  C   UNL A   1      38.289  34.296  34.067  1.00  0.00     0.031 C 
ATOM     45  C   UNL A   1      38.170  29.676  28.941  1.00  0.00     0.029 A 
ATOM     46  C   UNL A   1      39.280  29.551  29.880  1.00  0.00     0.049 A 
ATOM     47  H   UNL A   1      39.598  30.654  31.618  1.00  0.00     0.167 HD
ATOM     48  C   UNL A   1      40.335  33.304  35.043  1.00  0.00     0.037 A 
ATOM     49  C   UNL A   1      40.300  28.676  29.772  1.00  0.00     0.037 A 
ATOM     50  C   UNL A   1      41.398  32.334  35.071  1.00  0.00     0.049 A 
ATOM     51  C   UNL A   1      41.390  28.692  30.811  1.00  0.00     0.074 A 
ATOM     52  C   UNL A   1      42.398  32.184  36.013  1.00  0.00     0.029 A 
ATOM     53  N   UNL A   1      41.600  31.356  34.109  1.00  0.00    -0.354 N 
ATOM     54  N   UNL A   1      41.519  29.462  31.864  1.00  0.00    -0.248 NA
ATOM     55  C   UNL A   1      42.479  27.717  30.647  1.00  0.00     0.031 C 
ATOM     56  C   UNL A   1      43.247  31.160  35.586  1.00  0.00     0.029 A 
ATOM     57  C   UNL A   1      42.730  30.620  34.420  1.00  0.00     0.049 A 
ATOM     58  H   UNL A   1      41.026  31.208  33.322  1.00  0.00     0.167 HD
ATOM     59  C   UNL A   1      42.675  29.039  32.509  1.00  0.00     0.074 A 
ATOM     60  C   UNL A   1      43.210  27.943  31.731  1.00  0.00     0.031 C 
ATOM     61  C   UNL A   1      43.237  29.514  33.647  1.00  0.00     0.037 A 
BRANCH  48  62
ATOM     62  C   UNL A   1      40.294  34.353  36.116  1.00  0.00     0.057 A 
ATOM     63  C   UNL A   1      40.936  35.590  35.971  1.00  0.00     0.134 A 
ATOM     64  C   UNL A   1      39.573  34.136  37.297  1.00  0.00     0.134 A 
ATOM     65  F   UNL A   1      41.653  35.860  34.869  1.00  0.00    -0.206 F 
ATOM     66  C   UNL A   1      40.887  36.561  36.973  1.00  0.00     0.040 A 
ATOM     67  C   UNL A   1      39.488  35.112  38.291  1.00  0.00     0.040 A 
ATOM     68  F   UNL A   1      38.929  32.976  37.500  1.00  0.00    -0.206 F 
ATOM     69  C   UNL A   1      40.154  36.325  38.134  1.00  0.00     0.006 A 
ENDBRANCH  48  62
BRANCH  49  70
ATOM     70  C   UNL A   1      40.345  27.713  28.642  1.00  0.00     0.057 A 
ATOM     71  C   UNL A   1      41.052  28.006  27.469  1.00  0.00     0.134 A 
ATOM     72  C   UNL A   1      39.669  26.487  28.693  1.00  0.00     0.134 A 
ATOM     73  F   UNL A   1      41.707  29.171  27.351  1.00  0.00    -0.206 F 
ATOM     74  C   UNL A   1      41.063  27.132  26.381  1.00  0.00     0.040 A 
ATOM     75  C   UNL A   1      39.697  25.589  27.624  1.00  0.00     0.040 A 
ATOM     76  F   UNL A   1      38.979  26.140  29.789  1.00  0.00    -0.206 F 
ATOM     77  C   UNL A   1      40.387  25.916  26.459  1.00  0.00     0.006 A 
ENDBRANCH  49  70
BRANCH  61  78
ATOM     78  C   UNL A   1      44.461  28.817  34.167  1.00  0.00     0.057 A 
ATOM     79  C   UNL A   1      45.755  29.209  33.804  1.00  0.00     0.134 A 
ATOM     80  C   UNL A   1      44.339  27.795  35.118  1.00  0.00     0.134 A 
ATOM     81  F   UNL A   1      45.943  30.173  32.889  1.00  0.00    -0.206 F 
ATOM     82  C   UNL A   1      46.883  28.603  34.361  1.00  0.00     0.040 A 
ATOM     83  C   UNL A   1      45.457  27.205  35.706  1.00  0.00     0.040 A 
ATOM     84  F   UNL A   1      43.127  27.379  35.518  1.00  0.00    -0.206 F 
ATOM     85  C   UNL A   1      46.734  27.607  35.324  1.00  0.00     0.006 A 
ENDBRANCH  61  78
ENDBRANCH  35  36
ENDBRANCH  27  30
ENDBRANCH  25  26
ENDBRANCH  24  25
ENDBRANCH   1  24
TORSDOF 17
ENDMDL
