MODEL 1
REMARK VINA RESULT:      -9.5      0.000      0.000
REMARK SMILES CC[C@H](C)[NH2+][C@H](CS)C(=O)NCCCNC(=O)c1ccc(-c2c3nc(c(-c4c(F)cccc4F)c4ccc([nH]4)c(-c4c(F)cccc4F)c4nc(c(-c5c(F)cccc5F)c5ccc2[nH]5)C=C4)C=C3)cc1
REMARK SMILES IDX 12 1 11 2 9 3 10 4 6 6 5 7 3 10 4 11 2 12 1 13 7 14 8 15
REMARK SMILES IDX 13 17 14 18 15 19 16 20 17 22 18 23 19 24 71 25 20 26 70 27
REMARK SMILES IDX 21 28 22 29 23 30 64 31 24 32 69 33 63 34 65 35 25 36 68 37
REMARK SMILES IDX 62 38 61 39 26 41 52 42 35 43 51 44 36 45 39 46 50 47 66 48
REMARK SMILES IDX 37 49 38 50 49 52 67 53 40 54 27 55 28 56 33 57 29 58 30 59
REMARK SMILES IDX 32 60 34 61 31 62 53 63 54 64 59 65 55 66 56 67 58 68 60 69
REMARK SMILES IDX 57 70 41 71 42 72 47 73 43 74 44 75 46 76 48 77 45 78
REMARK H PARENT 11 5 5 8 5 9 8 16 15 21 65 40 39 51
REMARK Flexibility Score: inf
ROOT
ATOM      1  C   UNL A   1      36.235  20.407  24.976  1.00  0.00     0.118 C 
ENDROOT
BRANCH   1   2
ATOM      2  N   UNL A   1      35.045  19.568  25.026  1.00  0.00    -0.351 N 
ATOM      3  C   UNL A   1      33.721  19.922  24.983  1.00  0.00     0.279 C 
ATOM      4  O   UNL A   1      32.882  19.019  24.957  1.00  0.00    -0.268 OA
ATOM      5  H   UNL A   1      35.218  18.601  25.102  1.00  0.00     0.163 HD
BRANCH   3   6
ATOM      6  C   UNL A   1      33.302  21.415  24.964  1.00  0.00     0.282 C 
BRANCH   6   7
ATOM      7  N   UNL A   1      32.423  21.618  26.140  1.00  0.00    -0.333 N 
ATOM      8  H   UNL A   1      31.470  21.698  25.789  1.00  0.00     0.347 HD
ATOM      9  H   UNL A   1      32.629  20.816  26.735  1.00  0.00     0.347 HD
BRANCH   7  10
ATOM     10  C   UNL A   1      32.653  22.764  27.015  1.00  0.00     0.179 C 
ATOM     11  C   UNL A   1      34.166  22.820  27.254  1.00  0.00     0.075 C 
BRANCH  10  12
ATOM     12  C   UNL A   1      32.094  24.076  26.443  1.00  0.00     0.061 C 
ATOM     13  C   UNL A   1      33.177  25.091  26.100  1.00  0.00     0.010 C 
ENDBRANCH  10  12
ENDBRANCH   7  10
ENDBRANCH   6   7
BRANCH   6  14
ATOM     14  C   UNL A   1      32.761  21.748  23.558  1.00  0.00     0.141 C 
BRANCH  14  15
ATOM     15  S   UNL A   1      33.563  23.226  22.838  1.00  0.00    -0.173 SA
ATOM     16  H   UNL A   1      34.897  22.999  22.703  1.00  0.00     0.102 HD
ENDBRANCH  14  15
ENDBRANCH   6  14
ENDBRANCH   3   6
ENDBRANCH   1   2
BRANCH   1  17
ATOM     17  C   UNL A   1      37.521  19.601  24.866  1.00  0.00     0.042 C 
BRANCH  17  18
ATOM     18  C   UNL A   1      38.693  20.205  25.622  1.00  0.00     0.118 C 
BRANCH  18  19
ATOM     19  N   UNL A   1      39.828  19.298  25.705  1.00  0.00    -0.352 N 
ATOM     20  C   UNL A   1      41.137  19.550  26.029  1.00  0.00     0.251 C 
ATOM     21  H   UNL A   1      39.626  18.357  25.497  1.00  0.00     0.163 HD
ATOM     22  O   UNL A   1      41.987  18.675  25.849  1.00  0.00    -0.269 OA
BRANCH  20  23
ATOM     23  C   UNL A   1      41.542  20.865  26.567  1.00  0.00     0.039 A 
ATOM     24  C   UNL A   1      42.120  21.801  25.704  1.00  0.00     0.014 A 
ATOM     25  C   UNL A   1      41.380  21.174  27.920  1.00  0.00     0.014 A 
ATOM     26  C   UNL A   1      42.470  23.066  26.183  1.00  0.00     0.010 A 
ATOM     27  C   UNL A   1      41.641  22.462  28.376  1.00  0.00     0.010 A 
ATOM     28  C   UNL A   1      42.199  23.419  27.515  1.00  0.00    -0.014 A 
BRANCH  28  29
ATOM     29  C   UNL A   1      42.504  24.776  28.033  1.00  0.00     0.031 A 
ATOM     30  C   UNL A   1      43.904  25.125  28.457  1.00  0.00     0.074 A 
ATOM     31  C   UNL A   1      41.509  25.671  28.188  1.00  0.00     0.049 A 
ATOM     32  N   UNL A   1      44.354  26.227  29.003  1.00  0.00    -0.248 NA
ATOM     33  C   UNL A   1      44.931  24.088  28.269  1.00  0.00     0.031 C 
ATOM     34  C   UNL A   1      40.102  25.439  27.861  1.00  0.00     0.029 A 
ATOM     35  N   UNL A   1      41.531  26.955  28.672  1.00  0.00    -0.354 N 
ATOM     36  C   UNL A   1      45.704  26.007  29.242  1.00  0.00     0.074 A 
ATOM     37  C   UNL A   1      45.990  24.649  28.831  1.00  0.00     0.031 C 
ATOM     38  C   UNL A   1      39.400  26.552  28.128  1.00  0.00     0.029 A 
ATOM     39  C   UNL A   1      40.298  27.560  28.682  1.00  0.00     0.049 A 
ATOM     40  H   UNL A   1      42.352  27.401  28.982  1.00  0.00     0.167 HD
ATOM     41  C   UNL A   1      46.629  26.864  29.735  1.00  0.00     0.037 A 
ATOM     42  C   UNL A   1      39.931  28.788  29.097  1.00  0.00     0.037 A 
ATOM     43  C   UNL A   1      46.348  28.223  30.116  1.00  0.00     0.049 A 
ATOM     44  C   UNL A   1      40.975  29.721  29.644  1.00  0.00     0.074 A 
ATOM     45  C   UNL A   1      47.228  29.193  30.563  1.00  0.00     0.029 A 
ATOM     46  N   UNL A   1      45.089  28.804  30.097  1.00  0.00    -0.354 N 
ATOM     47  N   UNL A   1      42.261  29.523  29.799  1.00  0.00    -0.248 NA
ATOM     48  C   UNL A   1      40.515  31.051  30.068  1.00  0.00     0.031 C 
ATOM     49  C   UNL A   1      46.495  30.347  30.857  1.00  0.00     0.029 A 
ATOM     50  C   UNL A   1      45.165  30.112  30.546  1.00  0.00     0.049 A 
ATOM     51  H   UNL A   1      44.263  28.354  29.807  1.00  0.00     0.167 HD
ATOM     52  C   UNL A   1      42.770  30.709  30.313  1.00  0.00     0.074 A 
ATOM     53  C   UNL A   1      41.654  31.625  30.432  1.00  0.00     0.031 C 
ATOM     54  C   UNL A   1      44.046  31.013  30.654  1.00  0.00     0.037 A 
BRANCH  41  55
ATOM     55  C   UNL A   1      48.032  26.352  29.889  1.00  0.00     0.057 A 
ATOM     56  C   UNL A   1      48.973  26.449  28.854  1.00  0.00     0.134 A 
ATOM     57  C   UNL A   1      48.453  25.770  31.091  1.00  0.00     0.134 A 
ATOM     58  F   UNL A   1      48.631  26.984  27.672  1.00  0.00    -0.206 F 
ATOM     59  C   UNL A   1      50.271  25.956  28.999  1.00  0.00     0.040 A 
ATOM     60  C   UNL A   1      49.758  25.299  31.257  1.00  0.00     0.040 A 
ATOM     61  F   UNL A   1      47.607  25.651  32.125  1.00  0.00    -0.206 F 
ATOM     62  C   UNL A   1      50.668  25.384  30.206  1.00  0.00     0.006 A 
ENDBRANCH  41  55
BRANCH  42  63
ATOM     63  C   UNL A   1      38.515  29.215  28.983  1.00  0.00     0.057 A 
ATOM     64  C   UNL A   1      37.654  29.150  30.085  1.00  0.00     0.134 A 
ATOM     65  C   UNL A   1      37.989  29.701  27.780  1.00  0.00     0.134 A 
ATOM     66  F   UNL A   1      38.096  28.676  31.259  1.00  0.00    -0.206 F 
ATOM     67  C   UNL A   1      36.316  29.538  29.992  1.00  0.00     0.040 A 
ATOM     68  C   UNL A   1      36.659  30.114  27.679  1.00  0.00     0.040 A 
ATOM     69  F   UNL A   1      38.765  29.796  26.692  1.00  0.00    -0.206 F 
ATOM     70  C   UNL A   1      35.818  30.027  28.786  1.00  0.00     0.006 A 
ENDBRANCH  42  63
BRANCH  54  71
ATOM     71  C   UNL A   1      44.309  32.402  31.156  1.00  0.00     0.057 A 
ATOM     72  C   UNL A   1      44.287  32.712  32.521  1.00  0.00     0.134 A 
ATOM     73  C   UNL A   1      44.630  33.433  30.262  1.00  0.00     0.134 A 
ATOM     74  F   UNL A   1      43.975  31.774  33.427  1.00  0.00    -0.206 F 
ATOM     75  C   UNL A   1      44.552  34.004  32.979  1.00  0.00     0.040 A 
ATOM     76  C   UNL A   1      44.923  34.721  30.710  1.00  0.00     0.040 A 
ATOM     77  F   UNL A   1      44.677  33.200  28.942  1.00  0.00    -0.206 F 
ATOM     78  C   UNL A   1      44.877  35.011  32.072  1.00  0.00     0.006 A 
ENDBRANCH  54  71
ENDBRANCH  28  29
ENDBRANCH  20  23
ENDBRANCH  18  19
ENDBRANCH  17  18
ENDBRANCH   1  17
TORSDOF 15
ENDMDL
MODEL 2
REMARK VINA RESULT:      -9.5      0.643      6.603
REMARK SMILES CC[C@H](C)[NH2+][C@H](CS)C(=O)NCCCNC(=O)c1ccc(-c2c3nc(c(-c4c(F)cccc4F)c4ccc([nH]4)c(-c4c(F)cccc4F)c4nc(c(-c5c(F)cccc5F)c5ccc2[nH]5)C=C4)C=C3)cc1
REMARK SMILES IDX 12 1 11 2 9 3 10 4 6 6 5 7 3 10 4 11 2 12 1 13 7 14 8 15
REMARK SMILES IDX 13 17 14 18 15 19 16 20 17 22 18 23 19 24 71 25 20 26 70 27
REMARK SMILES IDX 21 28 22 29 23 30 64 31 24 32 69 33 63 34 65 35 25 36 68 37
REMARK SMILES IDX 62 38 61 39 26 41 52 42 35 43 51 44 36 45 39 46 50 47 66 48
REMARK SMILES IDX 37 49 38 50 49 52 67 53 40 54 27 55 28 56 33 57 29 58 30 59
REMARK SMILES IDX 32 60 34 61 31 62 53 63 54 64 59 65 55 66 56 67 58 68 60 69
REMARK SMILES IDX 57 70 41 71 42 72 47 73 43 74 44 75 46 76 48 77 45 78
REMARK H PARENT 11 5 5 8 5 9 8 16 15 21 65 40 39 51
REMARK Flexibility Score: inf
ROOT
ATOM      1  C   UNL A   1      36.290  20.623  25.014  1.00  0.00     0.118 C 
ENDROOT
BRANCH   1   2
ATOM      2  N   UNL A   1      35.247  19.607  24.999  1.00  0.00    -0.351 N 
ATOM      3  C   UNL A   1      33.888  19.747  24.882  1.00  0.00     0.279 C 
ATOM      4  O   UNL A   1      33.205  18.723  24.811  1.00  0.00    -0.268 OA
ATOM      5  H   UNL A   1      35.566  18.679  25.087  1.00  0.00     0.163 HD
BRANCH   3   6
ATOM      6  C   UNL A   1      33.240  21.155  24.837  1.00  0.00     0.282 C 
BRANCH   6   7
ATOM      7  N   UNL A   1      32.492  21.312  26.107  1.00  0.00    -0.333 N 
ATOM      8  H   UNL A   1      31.500  21.320  25.868  1.00  0.00     0.347 HD
ATOM      9  H   UNL A   1      32.821  20.534  26.678  1.00  0.00     0.347 HD
BRANCH   7  10
ATOM     10  C   UNL A   1      32.739  22.483  26.942  1.00  0.00     0.179 C 
ATOM     11  C   UNL A   1      34.089  22.239  27.628  1.00  0.00     0.075 C 
BRANCH  10  12
ATOM     12  C   UNL A   1      32.705  23.800  26.154  1.00  0.00     0.061 C 
ATOM     13  C   UNL A   1      34.066  24.479  26.059  1.00  0.00     0.010 C 
ENDBRANCH  10  12
ENDBRANCH   7  10
ENDBRANCH   6   7
BRANCH   6  14
ATOM     14  C   UNL A   1      32.484  21.297  23.499  1.00  0.00     0.141 C 
BRANCH  14  15
ATOM     15  S   UNL A   1      33.006  22.779  22.562  1.00  0.00    -0.173 SA
ATOM     16  H   UNL A   1      33.422  22.408  21.321  1.00  0.00     0.102 HD
ENDBRANCH  14  15
ENDBRANCH   6  14
ENDBRANCH   3   6
ENDBRANCH   1   2
BRANCH   1  17
ATOM     17  C   UNL A   1      37.670  20.058  24.712  1.00  0.00     0.042 C 
BRANCH  17  18
ATOM     18  C   UNL A   1      38.710  20.369  25.776  1.00  0.00     0.118 C 
BRANCH  18  19
ATOM     19  N   UNL A   1      39.806  19.411  25.780  1.00  0.00    -0.352 N 
ATOM     20  C   UNL A   1      41.143  19.600  26.022  1.00  0.00     0.251 C 
ATOM     21  H   UNL A   1      39.548  18.483  25.579  1.00  0.00     0.163 HD
ATOM     22  O   UNL A   1      41.939  18.691  25.782  1.00  0.00    -0.269 OA
BRANCH  20  23
ATOM     23  C   UNL A   1      41.640  20.891  26.544  1.00  0.00     0.039 A 
ATOM     24  C   UNL A   1      42.100  21.854  25.640  1.00  0.00     0.014 A 
ATOM     25  C   UNL A   1      41.680  21.149  27.915  1.00  0.00     0.014 A 
ATOM     26  C   UNL A   1      42.534  23.096  26.109  1.00  0.00     0.010 A 
ATOM     27  C   UNL A   1      42.023  22.417  28.376  1.00  0.00     0.010 A 
ATOM     28  C   UNL A   1      42.464  23.401  27.478  1.00  0.00    -0.014 A 
BRANCH  28  29
ATOM     29  C   UNL A   1      42.860  24.734  27.995  1.00  0.00     0.031 A 
ATOM     30  C   UNL A   1      41.817  25.788  28.246  1.00  0.00     0.074 A 
ATOM     31  C   UNL A   1      44.165  25.021  28.172  1.00  0.00     0.049 A 
ATOM     32  N   UNL A   1      41.971  27.033  28.622  1.00  0.00    -0.248 NA
ATOM     33  C   UNL A   1      40.417  25.400  28.015  1.00  0.00     0.031 C 
ATOM     34  C   UNL A   1      45.276  24.104  27.919  1.00  0.00     0.029 A 
ATOM     35  N   UNL A   1      44.776  26.174  28.598  1.00  0.00    -0.354 N 
ATOM     36  C   UNL A   1      40.693  27.578  28.651  1.00  0.00     0.074 A 
ATOM     37  C   UNL A   1      39.783  26.547  28.204  1.00  0.00     0.031 C 
ATOM     38  C   UNL A   1      46.431  24.719  28.219  1.00  0.00     0.029 A 
ATOM     39  C   UNL A   1      46.145  26.085  28.647  1.00  0.00     0.049 A 
ATOM     40  H   UNL A   1      44.280  26.987  28.846  1.00  0.00     0.167 HD
ATOM     41  C   UNL A   1      40.310  28.818  29.040  1.00  0.00     0.037 A 
ATOM     42  C   UNL A   1      47.068  27.004  28.991  1.00  0.00     0.037 A 
ATOM     43  C   UNL A   1      41.214  29.832  29.512  1.00  0.00     0.049 A 
ATOM     44  C   UNL A   1      46.618  28.374  29.416  1.00  0.00     0.074 A 
ATOM     45  C   UNL A   1      40.919  31.096  29.992  1.00  0.00     0.029 A 
ATOM     46  N   UNL A   1      42.594  29.699  29.561  1.00  0.00    -0.354 N 
ATOM     47  N   UNL A   1      45.403  28.854  29.505  1.00  0.00    -0.248 NA
ATOM     48  C   UNL A   1      47.671  29.328  29.792  1.00  0.00     0.031 C 
ATOM     49  C   UNL A   1      42.122  31.743  30.290  1.00  0.00     0.029 A 
ATOM     50  C   UNL A   1      43.165  30.866  30.041  1.00  0.00     0.049 A 
ATOM     51  H   UNL A   1      43.094  28.893  29.294  1.00  0.00     0.167 HD
ATOM     52  C   UNL A   1      45.540  30.154  29.972  1.00  0.00     0.074 A 
ATOM     53  C   UNL A   1      46.958  30.384  30.159  1.00  0.00     0.031 C 
ATOM     54  C   UNL A   1      44.578  31.076  30.226  1.00  0.00     0.037 A 
BRANCH  41  55
ATOM     55  C   UNL A   1      38.845  29.140  28.968  1.00  0.00     0.057 A 
ATOM     56  C   UNL A   1      38.010  29.042  30.089  1.00  0.00     0.134 A 
ATOM     57  C   UNL A   1      38.266  29.571  27.768  1.00  0.00     0.134 A 
ATOM     58  F   UNL A   1      38.498  28.623  31.267  1.00  0.00    -0.206 F 
ATOM     59  C   UNL A   1      36.646  29.328  30.011  1.00  0.00     0.040 A 
ATOM     60  C   UNL A   1      36.908  29.888  27.686  1.00  0.00     0.040 A 
ATOM     61  F   UNL A   1      39.008  29.695  26.658  1.00  0.00    -0.206 F 
ATOM     62  C   UNL A   1      36.092  29.759  28.808  1.00  0.00     0.006 A 
ENDBRANCH  41  55
BRANCH  42  63
ATOM     63  C   UNL A   1      48.508  26.647  28.977  1.00  0.00     0.057 A 
ATOM     64  C   UNL A   1      49.126  26.107  30.111  1.00  0.00     0.134 A 
ATOM     65  C   UNL A   1      49.299  26.830  27.837  1.00  0.00     0.134 A 
ATOM     66  F   UNL A   1      48.423  25.926  31.240  1.00  0.00    -0.206 F 
ATOM     67  C   UNL A   1      50.481  25.776  30.118  1.00  0.00     0.040 A 
ATOM     68  C   UNL A   1      50.651  26.481  27.823  1.00  0.00     0.040 A 
ATOM     69  F   UNL A   1      48.765  27.334  26.716  1.00  0.00    -0.206 F 
ATOM     70  C   UNL A   1      51.247  25.959  28.969  1.00  0.00     0.006 A 
ENDBRANCH  42  63
BRANCH  54  71
ATOM     71  C   UNL A   1      45.025  32.403  30.764  1.00  0.00     0.057 A 
ATOM     72  C   UNL A   1      45.171  32.634  32.137  1.00  0.00     0.134 A 
ATOM     73  C   UNL A   1      45.353  33.451  29.892  1.00  0.00     0.134 A 
ATOM     74  F   UNL A   1      44.861  31.677  33.024  1.00  0.00    -0.206 F 
ATOM     75  C   UNL A   1      45.605  33.867  32.626  1.00  0.00     0.040 A 
ATOM     76  C   UNL A   1      45.814  34.679  30.368  1.00  0.00     0.040 A 
ATOM     77  F   UNL A   1      45.245  33.292  28.565  1.00  0.00    -0.206 F 
ATOM     78  C   UNL A   1      45.935  34.892  31.740  1.00  0.00     0.006 A 
ENDBRANCH  54  71
ENDBRANCH  28  29
ENDBRANCH  20  23
ENDBRANCH  18  19
ENDBRANCH  17  18
ENDBRANCH   1  17
TORSDOF 15
ENDMDL
MODEL 3
REMARK VINA RESULT:      -9.4      5.149      9.336
REMARK SMILES CC[C@H](C)[NH2+][C@H](CS)C(=O)NCCCNC(=O)c1ccc(-c2c3nc(c(-c4c(F)cccc4F)c4ccc([nH]4)c(-c4c(F)cccc4F)c4nc(c(-c5c(F)cccc5F)c5ccc2[nH]5)C=C4)C=C3)cc1
REMARK SMILES IDX 12 1 11 2 9 3 10 4 6 6 5 7 3 10 4 11 2 12 1 13 7 14 8 15
REMARK SMILES IDX 13 17 14 18 15 19 16 20 17 22 18 23 19 24 71 25 20 26 70 27
REMARK SMILES IDX 21 28 22 29 23 30 64 31 24 32 69 33 63 34 65 35 25 36 68 37
REMARK SMILES IDX 62 38 61 39 26 41 52 42 35 43 51 44 36 45 39 46 50 47 66 48
REMARK SMILES IDX 37 49 38 50 49 52 67 53 40 54 27 55 28 56 33 57 29 58 30 59
REMARK SMILES IDX 32 60 34 61 31 62 53 63 54 64 59 65 55 66 56 67 58 68 60 69
REMARK SMILES IDX 57 70 41 71 42 72 47 73 43 74 44 75 46 76 48 77 45 78
REMARK H PARENT 11 5 5 8 5 9 8 16 15 21 65 40 39 51
REMARK Flexibility Score: inf
ROOT
ATOM      1  C   UNL A   1      31.617  30.506  25.971  1.00  0.00     0.118 C 
ENDROOT
BRANCH   1   2
ATOM      2  N   UNL A   1      30.984  30.303  24.675  1.00  0.00    -0.351 N 
ATOM      3  C   UNL A   1      30.744  29.140  23.989  1.00  0.00     0.279 C 
ATOM      4  O   UNL A   1      30.112  29.212  22.933  1.00  0.00    -0.268 OA
ATOM      5  H   UNL A   1      30.683  31.125  24.223  1.00  0.00     0.163 HD
BRANCH   3   6
ATOM      6  C   UNL A   1      31.255  27.782  24.534  1.00  0.00     0.282 C 
BRANCH   6   7
ATOM      7  N   UNL A   1      32.509  27.482  23.804  1.00  0.00    -0.333 N 
ATOM      8  H   UNL A   1      32.270  26.825  23.061  1.00  0.00     0.347 HD
ATOM      9  H   UNL A   1      32.845  28.400  23.516  1.00  0.00     0.347 HD
BRANCH   7  10
ATOM     10  C   UNL A   1      33.640  26.911  24.529  1.00  0.00     0.179 C 
ATOM     11  C   UNL A   1      33.485  27.367  25.985  1.00  0.00     0.075 C 
BRANCH  10  12
ATOM     12  C   UNL A   1      33.731  25.384  24.393  1.00  0.00     0.061 C 
ATOM     13  C   UNL A   1      34.822  24.767  25.259  1.00  0.00     0.010 C 
ENDBRANCH  10  12
ENDBRANCH   7  10
ENDBRANCH   6   7
BRANCH   6  14
ATOM     14  C   UNL A   1      30.091  26.769  24.475  1.00  0.00     0.141 C 
BRANCH  14  15
ATOM     15  S   UNL A   1      30.195  25.515  25.803  1.00  0.00    -0.173 SA
ATOM     16  H   UNL A   1      30.867  24.425  25.347  1.00  0.00     0.102 HD
ENDBRANCH  14  15
ENDBRANCH   6  14
ENDBRANCH   3   6
ENDBRANCH   1   2
BRANCH   1  17
ATOM     17  C   UNL A   1      31.448  31.925  26.495  1.00  0.00     0.042 C 
BRANCH  17  18
ATOM     18  C   UNL A   1      32.700  32.496  27.141  1.00  0.00     0.118 C 
BRANCH  18  19
ATOM     19  N   UNL A   1      32.528  33.879  27.560  1.00  0.00    -0.352 N 
ATOM     20  C   UNL A   1      33.158  34.586  28.552  1.00  0.00     0.251 C 
ATOM     21  H   UNL A   1      31.856  34.388  27.052  1.00  0.00     0.163 HD
ATOM     22  O   UNL A   1      32.727  35.694  28.877  1.00  0.00    -0.269 OA
BRANCH  20  23
ATOM     23  C   UNL A   1      34.333  34.023  29.251  1.00  0.00     0.039 A 
ATOM     24  C   UNL A   1      34.128  33.102  30.284  1.00  0.00     0.014 A 
ATOM     25  C   UNL A   1      35.630  34.412  28.913  1.00  0.00     0.014 A 
ATOM     26  C   UNL A   1      35.225  32.525  30.928  1.00  0.00     0.010 A 
ATOM     27  C   UNL A   1      36.722  33.769  29.489  1.00  0.00     0.010 A 
ATOM     28  C   UNL A   1      36.531  32.827  30.511  1.00  0.00    -0.014 A 
BRANCH  28  29
ATOM     29  C   UNL A   1      37.712  32.181  31.137  1.00  0.00     0.031 A 
ATOM     30  C   UNL A   1      38.451  31.093  30.410  1.00  0.00     0.074 A 
ATOM     31  C   UNL A   1      38.076  32.525  32.388  1.00  0.00     0.049 A 
ATOM     32  N   UNL A   1      39.455  30.357  30.819  1.00  0.00    -0.248 NA
ATOM     33  C   UNL A   1      37.983  30.766  29.054  1.00  0.00     0.031 C 
ATOM     34  C   UNL A   1      37.411  33.530  33.218  1.00  0.00     0.029 A 
ATOM     35  N   UNL A   1      39.091  32.055  33.183  1.00  0.00    -0.354 N 
ATOM     36  C   UNL A   1      39.721  29.472  29.782  1.00  0.00     0.074 A 
ATOM     37  C   UNL A   1      38.742  29.724  28.748  1.00  0.00     0.031 C 
ATOM     38  C   UNL A   1      38.051  33.621  34.395  1.00  0.00     0.029 A 
ATOM     39  C   UNL A   1      39.145  32.654  34.418  1.00  0.00     0.049 A 
ATOM     40  H   UNL A   1      39.721  31.355  32.896  1.00  0.00     0.167 HD
ATOM     41  C   UNL A   1      40.708  28.549  29.687  1.00  0.00     0.037 A 
ATOM     42  C   UNL A   1      39.977  32.443  35.455  1.00  0.00     0.037 A 
ATOM     43  C   UNL A   1      41.699  28.319  30.705  1.00  0.00     0.049 A 
ATOM     44  C   UNL A   1      41.063  31.410  35.328  1.00  0.00     0.074 A 
ATOM     45  C   UNL A   1      42.779  27.455  30.677  1.00  0.00     0.029 A 
ATOM     46  N   UNL A   1      41.729  28.957  31.936  1.00  0.00    -0.354 N 
ATOM     47  N   UNL A   1      41.346  30.629  34.316  1.00  0.00    -0.248 NA
ATOM     48  C   UNL A   1      41.947  31.236  36.489  1.00  0.00     0.031 C 
ATOM     49  C   UNL A   1      43.437  27.537  31.909  1.00  0.00     0.029 A 
ATOM     50  C   UNL A   1      42.795  28.489  32.686  1.00  0.00     0.049 A 
ATOM     51  H   UNL A   1      41.087  29.642  32.233  1.00  0.00     0.167 HD
ATOM     52  C   UNL A   1      42.454  29.889  34.703  1.00  0.00     0.074 A 
ATOM     53  C   UNL A   1      42.800  30.325  36.042  1.00  0.00     0.031 C 
ATOM     54  C   UNL A   1      43.128  28.936  34.014  1.00  0.00     0.037 A 
BRANCH  41  55
ATOM     55  C   UNL A   1      40.758  27.719  28.437  1.00  0.00     0.057 A 
ATOM     56  C   UNL A   1      40.054  26.512  28.321  1.00  0.00     0.134 A 
ATOM     57  C   UNL A   1      41.505  28.139  27.329  1.00  0.00     0.134 A 
ATOM     58  F   UNL A   1      39.329  26.046  29.349  1.00  0.00    -0.206 F 
ATOM     59  C   UNL A   1      40.118  25.739  27.161  1.00  0.00     0.040 A 
ATOM     60  C   UNL A   1      41.553  27.387  26.153  1.00  0.00     0.040 A 
ATOM     61  F   UNL A   1      42.197  29.287  27.369  1.00  0.00    -0.206 F 
ATOM     62  C   UNL A   1      40.865  26.178  26.070  1.00  0.00     0.006 A 
ENDBRANCH  41  55
BRANCH  42  63
ATOM     63  C   UNL A   1      39.835  33.247  36.694  1.00  0.00     0.057 A 
ATOM     64  C   UNL A   1      38.952  32.858  37.707  1.00  0.00     0.134 A 
ATOM     65  C   UNL A   1      40.577  34.417  36.899  1.00  0.00     0.134 A 
ATOM     66  F   UNL A   1      38.201  31.756  37.560  1.00  0.00    -0.206 F 
ATOM     67  C   UNL A   1      38.798  33.609  38.873  1.00  0.00     0.040 A 
ATOM     68  C   UNL A   1      40.451  35.165  38.071  1.00  0.00     0.040 A 
ATOM     69  F   UNL A   1      41.447  34.838  35.970  1.00  0.00    -0.206 F 
ATOM     70  C   UNL A   1      39.554  34.764  39.059  1.00  0.00     0.006 A 
ENDBRANCH  42  63
BRANCH  54  71
ATOM     71  C   UNL A   1      44.325  28.324  34.680  1.00  0.00     0.057 A 
ATOM     72  C   UNL A   1      45.600  28.894  34.579  1.00  0.00     0.134 A 
ATOM     73  C   UNL A   1      44.191  27.172  35.467  1.00  0.00     0.134 A 
ATOM     74  F   UNL A   1      45.798  29.990  33.831  1.00  0.00    -0.206 F 
ATOM     75  C   UNL A   1      46.704  28.327  35.219  1.00  0.00     0.040 A 
ATOM     76  C   UNL A   1      45.282  26.612  36.132  1.00  0.00     0.040 A 
ATOM     77  F   UNL A   1      42.995  26.582  35.612  1.00  0.00    -0.206 F 
ATOM     78  C   UNL A   1      46.545  27.186  36.004  1.00  0.00     0.006 A 
ENDBRANCH  54  71
ENDBRANCH  28  29
ENDBRANCH  20  23
ENDBRANCH  18  19
ENDBRANCH  17  18
ENDBRANCH   1  17
TORSDOF 15
ENDMDL
