MODEL 1
REMARK VINA RESULT:     -13.3      0.000      0.000
REMARK SMILES O=C(NCCCNC(=O)[C@H]1CC2(CCN(C(=O)c3cc4ccccc4[nH]3)CC2)CN1C(=O)C1CC1)c1ccc(-c2c3nc(c(-c4c(F)cccc4F)c4ccc([nH]4)c(-c4c(F)cccc4F)c4nc(c(-c5c(F)cccc5F)c5ccc2[nH]5)C=C4)C=C3)cc1
REMARK SMILES IDX 5 1 4 2 3 3 1 4 2 5 36 7 37 8 89 9 38 10 88 11 39 12 40 13
REMARK SMILES IDX 41 14 82 15 42 16 87 17 81 18 83 19 43 20 86 21 80 22 79 23
REMARK SMILES IDX 44 25 70 26 53 27 69 28 54 29 57 30 68 31 84 32 55 33 56 34
REMARK SMILES IDX 67 36 85 37 58 38 45 39 46 40 51 41 47 42 48 43 50 44 52 45
REMARK SMILES IDX 49 46 71 47 72 48 77 49 73 50 74 51 76 52 78 53 75 54 59 55
REMARK SMILES IDX 60 56 65 57 61 58 62 59 64 60 66 61 63 62 6 63 7 64 8 65
REMARK SMILES IDX 9 67 10 68 11 69 30 70 12 71 29 72 13 73 28 74 14 75 27 76
REMARK SMILES IDX 15 77 16 78 17 79 31 80 32 81 33 82 34 83 35 84 18 85 19 86
REMARK SMILES IDX 26 87 20 88 25 89 21 91 24 92 22 93 23 94
REMARK H PARENT 3 6 83 24 57 35 7 66 26 90
REMARK Flexibility Score: inf
ROOT
ATOM      1  C   UNL A   1      37.792  20.209  24.698  1.00  0.00     0.042 C 
ENDROOT
BRANCH   1   2
ATOM      2  C   UNL A   1      38.693  20.199  25.927  1.00  0.00     0.118 C 
BRANCH   2   3
ATOM      3  N   UNL A   1      39.863  19.351  25.771  1.00  0.00    -0.352 N 
ATOM      4  O   UNL A   1      42.064  18.858  25.709  1.00  0.00    -0.269 OA
ATOM      5  C   UNL A   1      41.179  19.660  26.005  1.00  0.00     0.251 C 
ATOM      6  H   UNL A   1      39.689  18.435  25.456  1.00  0.00     0.163 HD
BRANCH   5   7
ATOM      7  C   UNL A   1      41.538  20.969  26.586  1.00  0.00     0.039 A 
ATOM      8  C   UNL A   1      41.574  21.154  27.972  1.00  0.00     0.014 A 
ATOM      9  C   UNL A   1      41.864  22.021  25.724  1.00  0.00     0.014 A 
ATOM     10  C   UNL A   1      41.850  22.416  28.493  1.00  0.00     0.010 A 
ATOM     11  C   UNL A   1      42.180  23.275  26.249  1.00  0.00     0.010 A 
ATOM     12  C   UNL A   1      42.156  23.484  27.636  1.00  0.00    -0.014 A 
BRANCH  12  13
ATOM     13  C   UNL A   1      42.503  24.804  28.210  1.00  0.00     0.031 A 
ATOM     14  C   UNL A   1      43.925  25.156  28.529  1.00  0.00     0.074 A 
ATOM     15  C   UNL A   1      41.520  25.698  28.418  1.00  0.00     0.049 A 
ATOM     16  N   UNL A   1      44.407  26.275  29.007  1.00  0.00    -0.248 NA
ATOM     17  C   UNL A   1      44.939  24.120  28.282  1.00  0.00     0.031 C 
ATOM     18  C   UNL A   1      40.098  25.463  28.155  1.00  0.00     0.029 A 
ATOM     19  N   UNL A   1      41.569  26.987  28.879  1.00  0.00    -0.354 N 
ATOM     20  C   UNL A   1      45.773  26.074  29.137  1.00  0.00     0.074 A 
ATOM     21  C   UNL A   1      46.047  24.723  28.692  1.00  0.00     0.031 C 
ATOM     22  C   UNL A   1      39.415  26.587  28.419  1.00  0.00     0.029 A 
ATOM     23  C   UNL A   1      40.344  27.608  28.895  1.00  0.00     0.049 A 
ATOM     24  H   UNL A   1      42.400  27.426  29.169  1.00  0.00     0.167 HD
ATOM     25  C   UNL A   1      46.714  26.939  29.587  1.00  0.00     0.037 A 
ATOM     26  C   UNL A   1      40.009  28.860  29.250  1.00  0.00     0.037 A 
ATOM     27  C   UNL A   1      46.449  28.288  30.013  1.00  0.00     0.049 A 
ATOM     28  C   UNL A   1      41.072  29.804  29.724  1.00  0.00     0.074 A 
ATOM     29  C   UNL A   1      47.343  29.242  30.466  1.00  0.00     0.029 A 
ATOM     30  N   UNL A   1      45.194  28.874  30.032  1.00  0.00    -0.354 N 
ATOM     31  N   UNL A   1      42.361  29.600  29.837  1.00  0.00    -0.248 NA
ATOM     32  C   UNL A   1      40.633  31.145  30.128  1.00  0.00     0.031 C 
ATOM     33  C   UNL A   1      46.625  30.405  30.774  1.00  0.00     0.029 A 
ATOM     34  C   UNL A   1      45.288  30.176  30.496  1.00  0.00     0.049 A 
ATOM     35  H   UNL A   1      44.359  28.431  29.756  1.00  0.00     0.167 HD
ATOM     36  C   UNL A   1      42.888  30.784  30.331  1.00  0.00     0.074 A 
ATOM     37  C   UNL A   1      41.782  31.708  30.477  1.00  0.00     0.031 C 
ATOM     38  C   UNL A   1      44.173  31.075  30.644  1.00  0.00     0.037 A 
BRANCH  25  39
ATOM     39  C   UNL A   1      48.124  26.441  29.654  1.00  0.00     0.057 A 
ATOM     40  C   UNL A   1      49.015  26.624  28.591  1.00  0.00     0.134 A 
ATOM     41  C   UNL A   1      48.602  25.805  30.804  1.00  0.00     0.134 A 
ATOM     42  F   UNL A   1      48.608  27.217  27.457  1.00  0.00    -0.206 F 
ATOM     43  C   UNL A   1      50.336  26.183  28.667  1.00  0.00     0.040 A 
ATOM     44  C   UNL A   1      49.924  25.368  30.897  1.00  0.00     0.040 A 
ATOM     45  F   UNL A   1      47.794  25.598  31.854  1.00  0.00    -0.206 F 
ATOM     46  C   UNL A   1      50.796  25.557  29.825  1.00  0.00     0.006 A 
ENDBRANCH  25  39
BRANCH  26  47
ATOM     47  C   UNL A   1      38.598  29.290  29.147  1.00  0.00     0.057 A 
ATOM     48  C   UNL A   1      37.761  29.274  30.266  1.00  0.00     0.134 A 
ATOM     49  C   UNL A   1      38.069  29.763  27.941  1.00  0.00     0.134 A 
ATOM     50  F   UNL A   1      38.217  28.820  31.443  1.00  0.00    -0.206 F 
ATOM     51  C   UNL A   1      36.441  29.714  30.191  1.00  0.00     0.040 A 
ATOM     52  C   UNL A   1      36.754  30.216  27.855  1.00  0.00     0.040 A 
ATOM     53  F   UNL A   1      38.831  29.803  26.838  1.00  0.00    -0.206 F 
ATOM     54  C   UNL A   1      35.935  30.193  28.983  1.00  0.00     0.006 A 
ENDBRANCH  26  47
BRANCH  38  55
ATOM     55  C   UNL A   1      44.440  32.443  31.183  1.00  0.00     0.057 A 
ATOM     56  C   UNL A   1      44.418  32.695  32.560  1.00  0.00     0.134 A 
ATOM     57  C   UNL A   1      44.738  33.508  30.327  1.00  0.00     0.134 A 
ATOM     58  F   UNL A   1      44.124  31.713  33.424  1.00  0.00    -0.206 F 
ATOM     59  C   UNL A   1      44.672  33.968  33.068  1.00  0.00     0.040 A 
ATOM     60  C   UNL A   1      45.003  34.785  30.825  1.00  0.00     0.040 A 
ATOM     61  F   UNL A   1      44.771  33.325  28.999  1.00  0.00    -0.206 F 
ATOM     62  C   UNL A   1      44.969  35.017  32.198  1.00  0.00     0.006 A 
ENDBRANCH  38  55
ENDBRANCH  12  13
ENDBRANCH   5   7
ENDBRANCH   2   3
ENDBRANCH   1   2
BRANCH   1  63
ATOM     63  C   UNL A   1      36.430  20.858  24.917  1.00  0.00     0.117 C 
BRANCH  63  64
ATOM     64  N   UNL A   1      36.144  21.867  23.917  1.00  0.00    -0.354 N 
ATOM     65  C   UNL A   1      35.347  22.967  23.948  1.00  0.00     0.242 C 
ATOM     66  H   UNL A   1      36.613  21.731  23.061  1.00  0.00     0.163 HD
ATOM     67  O   UNL A   1      35.182  23.559  22.875  1.00  0.00    -0.273 OA
BRANCH  65  68
ATOM     68  C   UNL A   1      34.531  23.383  25.185  1.00  0.00     0.175 C 
ATOM     69  C   UNL A   1      34.193  24.878  25.082  1.00  0.00     0.044 C 
ATOM     70  N   UNL A   1      33.264  22.725  25.469  1.00  0.00    -0.330 N 
ATOM     71  C   UNL A   1      32.754  25.070  25.622  1.00  0.00    -0.006 C 
ATOM     72  C   UNL A   1      32.283  23.655  25.987  1.00  0.00     0.127 C 
ATOM     73  C   UNL A   1      31.823  25.688  24.553  1.00  0.00     0.030 C 
ATOM     74  C   UNL A   1      32.724  25.980  26.869  1.00  0.00     0.030 C 
ATOM     75  C   UNL A   1      32.150  27.150  24.257  1.00  0.00     0.120 C 
ATOM     76  C   UNL A   1      33.015  27.447  26.552  1.00  0.00     0.120 C 
ATOM     77  N   UNL A   1      32.159  27.952  25.482  1.00  0.00    -0.337 N 
ATOM     78  C   UNL A   1      31.769  29.294  25.544  1.00  0.00     0.270 C 
ATOM     79  O   UNL A   1      32.198  30.043  26.420  1.00  0.00    -0.267 OA
BRANCH  70  80
ATOM     80  C   UNL A   1      33.062  21.373  25.676  1.00  0.00     0.226 C 
ATOM     81  O   UNL A   1      33.452  20.795  26.684  1.00  0.00    -0.275 OA
BRANCH  80  82
ATOM     82  C   UNL A   1      32.227  20.618  24.702  1.00  0.00     0.079 C 
ATOM     83  C   UNL A   1      32.285  20.802  23.207  1.00  0.00     0.014 C 
ATOM     84  C   UNL A   1      32.897  19.584  23.820  1.00  0.00     0.014 C 
ENDBRANCH  80  82
ENDBRANCH  70  80
BRANCH  78  85
ATOM     85  C   UNL A   1      30.835  29.777  24.550  1.00  0.00     0.105 A 
ATOM     86  C   UNL A   1      30.388  29.127  23.411  1.00  0.00     0.042 A 
ATOM     87  N   UNL A   1      30.309  31.049  24.503  1.00  0.00    -0.351 N 
ATOM     88  C   UNL A   1      29.510  29.997  22.712  1.00  0.00     0.000 A 
ATOM     89  C   UNL A   1      29.473  31.196  23.421  1.00  0.00     0.046 A 
ATOM     90  H   UNL A   1      30.506  31.760  25.156  1.00  0.00     0.167 HD
ATOM     91  C   UNL A   1      28.751  29.881  21.531  1.00  0.00     0.010 A 
ATOM     92  C   UNL A   1      28.707  32.294  23.008  1.00  0.00     0.026 A 
ATOM     93  C   UNL A   1      27.977  30.967  21.107  1.00  0.00     0.001 A 
ATOM     94  C   UNL A   1      27.957  32.154  21.836  1.00  0.00     0.002 A 
ENDBRANCH  78  85
ENDBRANCH  65  68
ENDBRANCH  63  64
ENDBRANCH   1  63
TORSDOF 13
ENDMDL
MODEL 2
REMARK VINA RESULT:     -13.1      0.262      5.828
REMARK SMILES O=C(NCCCNC(=O)[C@H]1CC2(CCN(C(=O)c3cc4ccccc4[nH]3)CC2)CN1C(=O)C1CC1)c1ccc(-c2c3nc(c(-c4c(F)cccc4F)c4ccc([nH]4)c(-c4c(F)cccc4F)c4nc(c(-c5c(F)cccc5F)c5ccc2[nH]5)C=C4)C=C3)cc1
REMARK SMILES IDX 5 1 4 2 3 3 1 4 2 5 36 7 37 8 89 9 38 10 88 11 39 12 40 13
REMARK SMILES IDX 41 14 82 15 42 16 87 17 81 18 83 19 43 20 86 21 80 22 79 23
REMARK SMILES IDX 44 25 70 26 53 27 69 28 54 29 57 30 68 31 84 32 55 33 56 34
REMARK SMILES IDX 67 36 85 37 58 38 45 39 46 40 51 41 47 42 48 43 50 44 52 45
REMARK SMILES IDX 49 46 71 47 72 48 77 49 73 50 74 51 76 52 78 53 75 54 59 55
REMARK SMILES IDX 60 56 65 57 61 58 62 59 64 60 66 61 63 62 6 63 7 64 8 65
REMARK SMILES IDX 9 67 10 68 11 69 30 70 12 71 29 72 13 73 28 74 14 75 27 76
REMARK SMILES IDX 15 77 16 78 17 79 31 80 32 81 33 82 34 83 35 84 18 85 19 86
REMARK SMILES IDX 26 87 20 88 25 89 21 91 24 92 22 93 23 94
REMARK H PARENT 3 6 83 24 57 35 7 66 26 90
REMARK Flexibility Score: inf
ROOT
ATOM      1  C   UNL A   1      37.723  20.203  24.709  1.00  0.00     0.042 C 
ENDROOT
BRANCH   1   2
ATOM      2  C   UNL A   1      38.633  20.253  25.930  1.00  0.00     0.118 C 
BRANCH   2   3
ATOM      3  N   UNL A   1      39.799  19.394  25.809  1.00  0.00    -0.352 N 
ATOM      4  O   UNL A   1      41.998  18.891  25.768  1.00  0.00    -0.269 OA
ATOM      5  C   UNL A   1      41.116  19.707  26.031  1.00  0.00     0.251 C 
ATOM      6  H   UNL A   1      39.621  18.467  25.531  1.00  0.00     0.163 HD
BRANCH   5   7
ATOM      7  C   UNL A   1      41.480  21.037  26.560  1.00  0.00     0.039 A 
ATOM      8  C   UNL A   1      41.903  22.060  25.704  1.00  0.00     0.014 A 
ATOM      9  C   UNL A   1      41.373  21.267  27.936  1.00  0.00     0.014 A 
ATOM     10  C   UNL A   1      42.304  23.283  26.235  1.00  0.00     0.010 A 
ATOM     11  C   UNL A   1      41.737  22.508  28.462  1.00  0.00     0.010 A 
ATOM     12  C   UNL A   1      42.223  23.516  27.617  1.00  0.00    -0.014 A 
BRANCH  12  13
ATOM     13  C   UNL A   1      42.600  24.842  28.157  1.00  0.00     0.031 A 
ATOM     14  C   UNL A   1      41.565  25.901  28.390  1.00  0.00     0.074 A 
ATOM     15  C   UNL A   1      43.889  25.074  28.461  1.00  0.00     0.049 A 
ATOM     16  N   UNL A   1      41.717  27.104  28.883  1.00  0.00    -0.248 NA
ATOM     17  C   UNL A   1      40.179  25.572  28.021  1.00  0.00     0.031 C 
ATOM     18  C   UNL A   1      44.985  24.122  28.268  1.00  0.00     0.029 A 
ATOM     19  N   UNL A   1      44.491  26.173  29.015  1.00  0.00    -0.354 N 
ATOM     20  C   UNL A   1      40.456  27.683  28.867  1.00  0.00     0.074 A 
ATOM     21  C   UNL A   1      39.547  26.701  28.311  1.00  0.00     0.031 C 
ATOM     22  C   UNL A   1      46.120  24.664  28.736  1.00  0.00     0.029 A 
ATOM     23  C   UNL A   1      45.836  26.007  29.233  1.00  0.00     0.049 A 
ATOM     24  H   UNL A   1      44.007  27.001  29.235  1.00  0.00     0.167 HD
ATOM     25  C   UNL A   1      40.090  28.920  29.280  1.00  0.00     0.037 A 
ATOM     26  C   UNL A   1      46.738  26.841  29.778  1.00  0.00     0.037 A 
ATOM     27  C   UNL A   1      40.987  29.890  29.850  1.00  0.00     0.049 A 
ATOM     28  C   UNL A   1      46.303  28.196  30.246  1.00  0.00     0.074 A 
ATOM     29  C   UNL A   1      40.701  31.163  30.314  1.00  0.00     0.029 A 
ATOM     30  N   UNL A   1      42.344  29.691  30.038  1.00  0.00    -0.354 N 
ATOM     31  N   UNL A   1      45.106  28.727  30.228  1.00  0.00    -0.248 NA
ATOM     32  C   UNL A   1      47.345  29.070  30.799  1.00  0.00     0.031 C 
ATOM     33  C   UNL A   1      41.892  31.741  30.771  1.00  0.00     0.029 A 
ATOM     34  C   UNL A   1      42.913  30.820  30.605  1.00  0.00     0.049 A 
ATOM     35  H   UNL A   1      42.833  28.869  29.805  1.00  0.00     0.167 HD
ATOM     36  C   UNL A   1      45.249  29.999  30.761  1.00  0.00     0.074 A 
ATOM     37  C   UNL A   1      46.646  30.153  31.112  1.00  0.00     0.031 C 
ATOM     38  C   UNL A   1      44.308  30.956  30.936  1.00  0.00     0.037 A 
BRANCH  25  39
ATOM     39  C   UNL A   1      38.652  29.298  29.114  1.00  0.00     0.057 A 
ATOM     40  C   UNL A   1      38.134  29.680  27.872  1.00  0.00     0.134 A 
ATOM     41  C   UNL A   1      37.771  29.244  30.200  1.00  0.00     0.134 A 
ATOM     42  F   UNL A   1      38.935  29.762  26.798  1.00  0.00    -0.206 F 
ATOM     43  C   UNL A   1      36.786  30.006  27.716  1.00  0.00     0.040 A 
ATOM     44  C   UNL A   1      36.419  29.557  30.055  1.00  0.00     0.040 A 
ATOM     45  F   UNL A   1      38.209  28.887  31.416  1.00  0.00    -0.206 F 
ATOM     46  C   UNL A   1      35.923  29.940  28.809  1.00  0.00     0.006 A 
ENDBRANCH  25  39
BRANCH  26  47
ATOM     47  C   UNL A   1      48.141  26.398  29.924  1.00  0.00     0.057 A 
ATOM     48  C   UNL A   1      48.569  25.749  31.085  1.00  0.00     0.134 A 
ATOM     49  C   UNL A   1      49.070  26.577  28.893  1.00  0.00     0.134 A 
ATOM     50  F   UNL A   1      47.721  25.562  32.106  1.00  0.00    -0.206 F 
ATOM     51  C   UNL A   1      49.879  25.290  31.219  1.00  0.00     0.040 A 
ATOM     52  C   UNL A   1      50.380  26.113  29.010  1.00  0.00     0.040 A 
ATOM     53  F   UNL A   1      48.710  27.190  27.757  1.00  0.00    -0.206 F 
ATOM     54  C   UNL A   1      50.788  25.468  30.176  1.00  0.00     0.006 A 
ENDBRANCH  26  47
BRANCH  38  55
ATOM     55  C   UNL A   1      44.767  32.252  31.521  1.00  0.00     0.057 A 
ATOM     56  C   UNL A   1      44.799  32.449  32.907  1.00  0.00     0.134 A 
ATOM     57  C   UNL A   1      45.195  33.301  30.701  1.00  0.00     0.134 A 
ATOM     58  F   UNL A   1      44.387  31.482  33.740  1.00  0.00    -0.206 F 
ATOM     59  C   UNL A   1      45.233  33.654  33.458  1.00  0.00     0.040 A 
ATOM     60  C   UNL A   1      45.641  34.509  31.242  1.00  0.00     0.040 A 
ATOM     61  F   UNL A   1      45.184  33.169  29.367  1.00  0.00    -0.206 F 
ATOM     62  C   UNL A   1      45.658  34.687  32.624  1.00  0.00     0.006 A 
ENDBRANCH  38  55
ENDBRANCH  12  13
ENDBRANCH   5   7
ENDBRANCH   2   3
ENDBRANCH   1   2
BRANCH   1  63
ATOM     63  C   UNL A   1      36.356  20.849  24.911  1.00  0.00     0.117 C 
BRANCH  63  64
ATOM     64  N   UNL A   1      36.089  21.869  23.917  1.00  0.00    -0.354 N 
ATOM     65  C   UNL A   1      35.305  22.979  23.951  1.00  0.00     0.242 C 
ATOM     66  H   UNL A   1      36.560  21.734  23.062  1.00  0.00     0.163 HD
ATOM     67  O   UNL A   1      35.153  23.581  22.882  1.00  0.00    -0.273 OA
BRANCH  65  68
ATOM     68  C   UNL A   1      34.487  23.395  25.187  1.00  0.00     0.175 C 
ATOM     69  C   UNL A   1      34.153  24.891  25.085  1.00  0.00     0.044 C 
ATOM     70  N   UNL A   1      33.217  22.740  25.466  1.00  0.00    -0.330 N 
ATOM     71  C   UNL A   1      32.713  25.086  25.621  1.00  0.00    -0.006 C 
ATOM     72  C   UNL A   1      32.237  23.672  25.983  1.00  0.00     0.127 C 
ATOM     73  C   UNL A   1      31.786  25.708  24.551  1.00  0.00     0.030 C 
ATOM     74  C   UNL A   1      32.682  25.995  26.869  1.00  0.00     0.030 C 
ATOM     75  C   UNL A   1      32.117  27.169  24.258  1.00  0.00     0.120 C 
ATOM     76  C   UNL A   1      32.977  27.461  26.555  1.00  0.00     0.120 C 
ATOM     77  N   UNL A   1      32.126  27.970  25.484  1.00  0.00    -0.337 N 
ATOM     78  C   UNL A   1      31.738  29.313  25.546  1.00  0.00     0.270 C 
ATOM     79  O   UNL A   1      32.167  30.060  26.425  1.00  0.00    -0.267 OA
BRANCH  70  80
ATOM     80  C   UNL A   1      33.011  21.388  25.671  1.00  0.00     0.226 C 
ATOM     81  O   UNL A   1      33.375  20.813  26.690  1.00  0.00    -0.275 OA
BRANCH  80  82
ATOM     82  C   UNL A   1      32.203  20.630  24.677  1.00  0.00     0.079 C 
ATOM     83  C   UNL A   1      32.190  20.912  23.197  1.00  0.00     0.014 C 
ATOM     84  C   UNL A   1      32.919  19.712  23.708  1.00  0.00     0.014 C 
ENDBRANCH  80  82
ENDBRANCH  70  80
BRANCH  78  85
ATOM     85  C   UNL A   1      30.808  29.800  24.551  1.00  0.00     0.105 A 
ATOM     86  C   UNL A   1      30.356  29.149  23.415  1.00  0.00     0.042 A 
ATOM     87  N   UNL A   1      30.294  31.076  24.498  1.00  0.00    -0.351 N 
ATOM     88  C   UNL A   1      29.485  30.024  22.712  1.00  0.00     0.000 A 
ATOM     89  C   UNL A   1      29.458  31.226  23.416  1.00  0.00     0.046 A 
ATOM     90  H   UNL A   1      30.497  31.788  25.149  1.00  0.00     0.167 HD
ATOM     91  C   UNL A   1      28.725  29.909  21.533  1.00  0.00     0.010 A 
ATOM     92  C   UNL A   1      28.703  32.328  22.998  1.00  0.00     0.026 A 
ATOM     93  C   UNL A   1      27.959  30.999  21.104  1.00  0.00     0.001 A 
ATOM     94  C   UNL A   1      27.951  32.190  21.828  1.00  0.00     0.002 A 
ENDBRANCH  78  85
ENDBRANCH  65  68
ENDBRANCH  63  64
ENDBRANCH   1  63
TORSDOF 13
ENDMDL
MODEL 3
REMARK VINA RESULT:     -13.0      2.959      9.464
REMARK SMILES O=C(NCCCNC(=O)[C@H]1CC2(CCN(C(=O)c3cc4ccccc4[nH]3)CC2)CN1C(=O)C1CC1)c1ccc(-c2c3nc(c(-c4c(F)cccc4F)c4ccc([nH]4)c(-c4c(F)cccc4F)c4nc(c(-c5c(F)cccc5F)c5ccc2[nH]5)C=C4)C=C3)cc1
REMARK SMILES IDX 5 1 4 2 3 3 1 4 2 5 36 7 37 8 89 9 38 10 88 11 39 12 40 13
REMARK SMILES IDX 41 14 82 15 42 16 87 17 81 18 83 19 43 20 86 21 80 22 79 23
REMARK SMILES IDX 44 25 70 26 53 27 69 28 54 29 57 30 68 31 84 32 55 33 56 34
REMARK SMILES IDX 67 36 85 37 58 38 45 39 46 40 51 41 47 42 48 43 50 44 52 45
REMARK SMILES IDX 49 46 71 47 72 48 77 49 73 50 74 51 76 52 78 53 75 54 59 55
REMARK SMILES IDX 60 56 65 57 61 58 62 59 64 60 66 61 63 62 6 63 7 64 8 65
REMARK SMILES IDX 9 67 10 68 11 69 30 70 12 71 29 72 13 73 28 74 14 75 27 76
REMARK SMILES IDX 15 77 16 78 17 79 31 80 32 81 33 82 34 83 35 84 18 85 19 86
REMARK SMILES IDX 26 87 20 88 25 89 21 91 24 92 22 93 23 94
REMARK H PARENT 3 6 83 24 57 35 7 66 26 90
REMARK Flexibility Score: inf
ROOT
ATOM      1  C   UNL A   1      31.869  31.065  27.231  1.00  0.00     0.042 C 
ENDROOT
BRANCH   1   2
ATOM      2  C   UNL A   1      32.581  32.254  26.599  1.00  0.00     0.118 C 
BRANCH   2   3
ATOM      3  N   UNL A   1      32.278  33.516  27.255  1.00  0.00    -0.352 N 
ATOM      4  O   UNL A   1      32.518  35.163  28.777  1.00  0.00    -0.269 OA
ATOM      5  C   UNL A   1      32.978  34.152  28.247  1.00  0.00     0.251 C 
ATOM      6  H   UNL A   1      31.463  33.973  26.946  1.00  0.00     0.163 HD
BRANCH   5   7
ATOM      7  C   UNL A   1      34.274  33.608  28.702  1.00  0.00     0.039 A 
ATOM      8  C   UNL A   1      35.471  34.005  28.099  1.00  0.00     0.014 A 
ATOM      9  C   UNL A   1      34.286  32.700  29.766  1.00  0.00     0.014 A 
ATOM     10  C   UNL A   1      36.672  33.427  28.502  1.00  0.00     0.010 A 
ATOM     11  C   UNL A   1      35.495  32.151  30.196  1.00  0.00     0.010 A 
ATOM     12  C   UNL A   1      36.693  32.497  29.554  1.00  0.00    -0.014 A 
BRANCH  12  13
ATOM     13  C   UNL A   1      37.986  31.936  30.006  1.00  0.00     0.031 A 
ATOM     14  C   UNL A   1      38.765  32.587  31.109  1.00  0.00     0.074 A 
ATOM     15  C   UNL A   1      38.440  30.810  29.428  1.00  0.00     0.049 A 
ATOM     16  N   UNL A   1      39.898  32.213  31.647  1.00  0.00    -0.248 NA
ATOM     17  C   UNL A   1      38.205  33.821  31.682  1.00  0.00     0.031 C 
ATOM     18  C   UNL A   1      37.772  30.093  28.340  1.00  0.00     0.029 A 
ATOM     19  N   UNL A   1      39.558  30.062  29.688  1.00  0.00    -0.354 N 
ATOM     20  C   UNL A   1      40.197  33.169  32.606  1.00  0.00     0.074 A 
ATOM     21  C   UNL A   1      39.129  34.147  32.575  1.00  0.00     0.031 C 
ATOM     22  C   UNL A   1      38.473  28.985  28.053  1.00  0.00     0.029 A 
ATOM     23  C   UNL A   1      39.650  28.931  28.916  1.00  0.00     0.049 A 
ATOM     24  H   UNL A   1      40.230  30.311  30.362  1.00  0.00     0.167 HD
ATOM     25  C   UNL A   1      41.265  33.226  33.436  1.00  0.00     0.037 A 
ATOM     26  C   UNL A   1      40.575  27.956  28.907  1.00  0.00     0.037 A 
ATOM     27  C   UNL A   1      42.318  32.246  33.483  1.00  0.00     0.049 A 
ATOM     28  C   UNL A   1      41.736  28.031  29.852  1.00  0.00     0.074 A 
ATOM     29  C   UNL A   1      43.431  32.212  34.305  1.00  0.00     0.029 A 
ATOM     30  N   UNL A   1      42.384  31.124  32.673  1.00  0.00    -0.354 N 
ATOM     31  N   UNL A   1      42.003  28.941  30.756  1.00  0.00    -0.248 NA
ATOM     32  C   UNL A   1      42.728  26.952  29.767  1.00  0.00     0.031 C 
ATOM     33  C   UNL A   1      44.180  31.073  33.984  1.00  0.00     0.029 A 
ATOM     34  C   UNL A   1      43.523  30.394  32.971  1.00  0.00     0.049 A 
ATOM     35  H   UNL A   1      41.721  30.881  31.988  1.00  0.00     0.167 HD
ATOM     36  C   UNL A   1      43.195  28.549  31.345  1.00  0.00     0.074 A 
ATOM     37  C   UNL A   1      43.591  27.309  30.709  1.00  0.00     0.031 C 
ATOM     38  C   UNL A   1      43.903  29.168  32.319  1.00  0.00     0.037 A 
BRANCH  25  39
ATOM     39  C   UNL A   1      41.353  34.402  34.358  1.00  0.00     0.057 A 
ATOM     40  C   UNL A   1      41.990  35.586  33.974  1.00  0.00     0.134 A 
ATOM     41  C   UNL A   1      40.762  34.359  35.626  1.00  0.00     0.134 A 
ATOM     42  F   UNL A   1      42.586  35.680  32.775  1.00  0.00    -0.206 F 
ATOM     43  C   UNL A   1      42.046  36.690  34.826  1.00  0.00     0.040 A 
ATOM     44  C   UNL A   1      40.802  35.459  36.483  1.00  0.00     0.040 A 
ATOM     45  F   UNL A   1      40.139  33.250  36.050  1.00  0.00    -0.206 F 
ATOM     46  C   UNL A   1      41.446  36.630  36.084  1.00  0.00     0.006 A 
ENDBRANCH  25  39
BRANCH  26  47
ATOM     47  C   UNL A   1      40.420  26.816  27.979  1.00  0.00     0.057 A 
ATOM     48  C   UNL A   1      41.070  26.806  26.742  1.00  0.00     0.134 A 
ATOM     49  C   UNL A   1      39.653  25.697  28.324  1.00  0.00     0.134 A 
ATOM     50  F   UNL A   1      41.808  27.858  26.359  1.00  0.00    -0.206 F 
ATOM     51  C   UNL A   1      40.963  25.720  25.875  1.00  0.00     0.040 A 
ATOM     52  C   UNL A   1      39.548  24.600  27.471  1.00  0.00     0.040 A 
ATOM     53  F   UNL A   1      39.013  25.654  29.501  1.00  0.00    -0.206 F 
ATOM     54  C   UNL A   1      40.204  24.609  26.242  1.00  0.00     0.006 A 
ENDBRANCH  26  47
BRANCH  38  55
ATOM     55  C   UNL A   1      45.178  28.513  32.742  1.00  0.00     0.057 A 
ATOM     56  C   UNL A   1      46.397  28.845  32.138  1.00  0.00     0.134 A 
ATOM     57  C   UNL A   1      45.193  27.561  33.766  1.00  0.00     0.134 A 
ATOM     58  F   UNL A   1      46.438  29.741  31.141  1.00  0.00    -0.206 F 
ATOM     59  C   UNL A   1      47.590  28.242  32.533  1.00  0.00     0.040 A 
ATOM     60  C   UNL A   1      46.383  26.957  34.177  1.00  0.00     0.040 A 
ATOM     61  F   UNL A   1      44.055  27.203  34.379  1.00  0.00    -0.206 F 
ATOM     62  C   UNL A   1      47.585  27.296  33.558  1.00  0.00     0.006 A 
ENDBRANCH  38  55
ENDBRANCH  12  13
ENDBRANCH   5   7
ENDBRANCH   2   3
ENDBRANCH   1   2
BRANCH   1  63
ATOM     63  C   UNL A   1      32.671  29.768  27.221  1.00  0.00     0.117 C 
BRANCH  63  64
ATOM     64  N   UNL A   1      31.818  28.603  27.343  1.00  0.00    -0.354 N 
ATOM     65  C   UNL A   1      31.753  27.453  26.621  1.00  0.00     0.242 C 
ATOM     66  H   UNL A   1      31.169  28.653  28.083  1.00  0.00     0.163 HD
ATOM     67  O   UNL A   1      30.805  26.699  26.869  1.00  0.00    -0.273 OA
BRANCH  65  68
ATOM     68  C   UNL A   1      32.679  27.152  25.429  1.00  0.00     0.175 C 
ATOM     69  C   UNL A   1      33.414  25.828  25.689  1.00  0.00     0.044 C 
ATOM     70  N   UNL A   1      32.116  27.019  24.093  1.00  0.00    -0.330 N 
ATOM     71  C   UNL A   1      33.508  25.073  24.339  1.00  0.00    -0.006 C 
ATOM     72  C   UNL A   1      32.777  25.977  23.336  1.00  0.00     0.127 C 
ATOM     73  C   UNL A   1      32.822  23.688  24.413  1.00  0.00     0.030 C 
ATOM     74  C   UNL A   1      34.972  24.861  23.899  1.00  0.00     0.030 C 
ATOM     75  C   UNL A   1      33.590  22.694  25.282  1.00  0.00     0.120 C 
ATOM     76  C   UNL A   1      35.716  23.835  24.752  1.00  0.00     0.120 C 
ATOM     77  N   UNL A   1      34.984  22.576  24.850  1.00  0.00    -0.337 N 
ATOM     78  C   UNL A   1      35.732  21.395  24.930  1.00  0.00     0.270 C 
ATOM     79  O   UNL A   1      36.960  21.423  25.000  1.00  0.00    -0.267 OA
BRANCH  70  80
ATOM     80  C   UNL A   1      31.387  27.970  23.405  1.00  0.00     0.226 C 
ATOM     81  O   UNL A   1      31.831  29.084  23.149  1.00  0.00    -0.275 OA
BRANCH  80  82
ATOM     82  C   UNL A   1      30.065  27.586  22.839  1.00  0.00     0.079 C 
ATOM     83  C   UNL A   1      28.954  26.945  23.630  1.00  0.00     0.014 C 
ATOM     84  C   UNL A   1      28.843  28.385  23.243  1.00  0.00     0.014 C 
ENDBRANCH  80  82
ENDBRANCH  70  80
BRANCH  78  85
ATOM     85  C   UNL A   1      35.020  20.137  24.918  1.00  0.00     0.105 A 
ATOM     86  C   UNL A   1      33.670  19.917  25.140  1.00  0.00     0.042 A 
ATOM     87  N   UNL A   1      35.601  18.894  24.800  1.00  0.00    -0.351 N 
ATOM     88  C   UNL A   1      33.424  18.520  25.069  1.00  0.00     0.000 A 
ATOM     89  C   UNL A   1      34.652  17.900  24.848  1.00  0.00     0.046 A 
ATOM     90  H   UNL A   1      36.568  18.737  24.694  1.00  0.00     0.167 HD
ATOM     91  C   UNL A   1      32.270  17.722  25.185  1.00  0.00     0.010 A 
ATOM     92  C   UNL A   1      34.785  16.510  24.735  1.00  0.00     0.026 A 
ATOM     93  C   UNL A   1      32.385  16.332  25.069  1.00  0.00     0.001 A 
ATOM     94  C   UNL A   1      33.626  15.738  24.847  1.00  0.00     0.002 A 
ENDBRANCH  78  85
ENDBRANCH  65  68
ENDBRANCH  63  64
ENDBRANCH   1  63
TORSDOF 13
ENDMDL
