MODEL 1
REMARK VINA RESULT:     -11.2      0.000      0.000
REMARK SMILES CC[C@H](c1ccccc1)[C@@H](C)OC(=O)c1ccccc1C(=O)NCCCNC(=O)c1ccc(-c2c3nc(c(-c4c(F)cccc4F)c4ccc([nH]4)c(-c4c(F)cccc4F)c4nc(c(-c5c(F)cccc5F)c5ccc2[nH]5)C=C4)C=C3)cc1
REMARK SMILES IDX 21 1 22 2 23 3 20 5 15 6 16 7 17 8 19 9 18 10 13 11 14 12
REMARK SMILES IDX 12 13 10 14 11 15 3 16 2 17 1 18 4 19 5 20 9 21 6 22 8 23
REMARK SMILES IDX 7 24 24 25 25 26 26 27 27 28 28 29 29 31 30 32 31 33 83 34
REMARK SMILES IDX 32 35 82 36 33 37 34 38 35 39 76 40 36 41 81 42 75 43 77 44
REMARK SMILES IDX 37 45 80 46 74 47 73 48 38 50 64 51 47 52 63 53 48 54 51 55
REMARK SMILES IDX 62 56 78 57 49 58 50 59 61 61 79 62 52 63 39 64 40 65 45 66
REMARK SMILES IDX 41 67 42 68 44 69 46 70 43 71 65 72 66 73 71 74 67 75 68 76
REMARK SMILES IDX 70 77 72 78 69 79 53 80 54 81 59 82 55 83 56 84 58 85 60 86
REMARK SMILES IDX 57 87
REMARK H PARENT 23 4 27 30 77 49 51 60
REMARK Flexibility Score: inf
ROOT
ATOM      1  C   UNL A   1      31.713  27.957  26.956  1.00  0.00     0.252 C 
ATOM      2  O   UNL A   1      31.162  27.810  28.042  1.00  0.00    -0.269 OA
ATOM      3  N   UNL A   1      33.078  28.126  26.886  1.00  0.00    -0.352 N 
ATOM      4  H   UNL A   1      33.658  27.337  26.983  1.00  0.00     0.163 HD
ENDROOT
BRANCH   1   5
ATOM      5  C   UNL A   1      30.989  27.598  25.724  1.00  0.00     0.054 A 
ATOM      6  C   UNL A   1      30.571  26.309  25.383  1.00  0.00     0.072 A 
ATOM      7  C   UNL A   1      30.033  26.066  24.108  1.00  0.00     0.016 A 
ATOM      8  C   UNL A   1      29.925  27.104  23.178  1.00  0.00     0.001 A 
ATOM      9  C   UNL A   1      30.883  28.632  24.778  1.00  0.00     0.015 A 
ATOM     10  C   UNL A   1      30.356  28.386  23.510  1.00  0.00     0.001 A 
BRANCH   6  11
ATOM     11  C   UNL A   1      30.887  25.139  26.205  1.00  0.00     0.339 C 
ATOM     12  O   UNL A   1      30.006  24.534  26.798  1.00  0.00    -0.246 OA
BRANCH  11  13
ATOM     13  O   UNL A   1      32.218  24.926  26.219  1.00  0.00    -0.458 OA
BRANCH  13  14
ATOM     14  C   UNL A   1      32.864  23.636  25.913  1.00  0.00     0.181 C 
ATOM     15  C   UNL A   1      33.274  22.814  27.136  1.00  0.00     0.053 C 
BRANCH  14  16
ATOM     16  C   UNL A   1      34.011  23.905  24.872  1.00  0.00     0.060 C 
BRANCH  16  17
ATOM     17  C   UNL A   1      35.360  24.190  25.606  1.00  0.00     0.009 C 
ATOM     18  C   UNL A   1      36.628  23.685  24.911  1.00  0.00     0.005 C 
ENDBRANCH  16  17
BRANCH  16  19
ATOM     19  C   UNL A   1      33.691  24.912  23.752  1.00  0.00    -0.041 A 
ATOM     20  C   UNL A   1      33.976  26.284  23.833  1.00  0.00     0.004 A 
ATOM     21  C   UNL A   1      33.130  24.454  22.544  1.00  0.00     0.004 A 
ATOM     22  C   UNL A   1      33.667  27.162  22.786  1.00  0.00     0.000 A 
ATOM     23  C   UNL A   1      32.787  25.333  21.511  1.00  0.00     0.000 A 
ATOM     24  C   UNL A   1      33.054  26.690  21.633  1.00  0.00     0.000 A 
ENDBRANCH  16  19
ENDBRANCH  14  16
ENDBRANCH  13  14
ENDBRANCH  11  13
ENDBRANCH   6  11
ENDBRANCH   1   5
BRANCH   3  25
ATOM     25  C   UNL A   1      33.696  29.430  26.675  1.00  0.00     0.118 C 
BRANCH  25  26
ATOM     26  C   UNL A   1      32.906  30.530  27.373  1.00  0.00     0.042 C 
BRANCH  26  27
ATOM     27  C   UNL A   1      32.466  31.750  26.571  1.00  0.00     0.118 C 
BRANCH  27  28
ATOM     28  N   UNL A   1      32.160  32.961  27.300  1.00  0.00    -0.352 N 
ATOM     29  C   UNL A   1      32.943  33.752  28.110  1.00  0.00     0.251 C 
ATOM     30  H   UNL A   1      31.232  33.274  27.199  1.00  0.00     0.163 HD
ATOM     31  O   UNL A   1      32.447  34.799  28.530  1.00  0.00    -0.269 OA
BRANCH  29  32
ATOM     32  C   UNL A   1      34.324  33.383  28.541  1.00  0.00     0.039 A 
ATOM     33  C   UNL A   1      34.457  32.699  29.760  1.00  0.00     0.014 A 
ATOM     34  C   UNL A   1      35.484  33.698  27.830  1.00  0.00     0.014 A 
ATOM     35  C   UNL A   1      35.710  32.275  30.219  1.00  0.00     0.010 A 
ATOM     36  C   UNL A   1      36.730  33.217  28.251  1.00  0.00     0.010 A 
ATOM     37  C   UNL A   1      36.855  32.501  29.448  1.00  0.00    -0.014 A 
BRANCH  37  38
ATOM     38  C   UNL A   1      38.192  32.023  29.881  1.00  0.00     0.031 A 
ATOM     39  C   UNL A   1      38.719  30.707  29.383  1.00  0.00     0.074 A 
ATOM     40  C   UNL A   1      38.909  32.735  30.771  1.00  0.00     0.049 A 
ATOM     41  N   UNL A   1      39.796  30.054  29.742  1.00  0.00    -0.248 NA
ATOM     42  C   UNL A   1      37.918  30.027  28.353  1.00  0.00     0.031 C 
ATOM     43  C   UNL A   1      38.511  34.021  31.343  1.00  0.00     0.029 A 
ATOM     44  N   UNL A   1      40.120  32.468  31.362  1.00  0.00    -0.354 N 
ATOM     45  C   UNL A   1      39.789  28.879  29.003  1.00  0.00     0.074 A 
ATOM     46  C   UNL A   1      38.594  28.899  28.188  1.00  0.00     0.031 C 
ATOM     47  C   UNL A   1      39.463  34.435  32.197  1.00  0.00     0.029 A 
ATOM     48  C   UNL A   1      40.516  33.426  32.264  1.00  0.00     0.049 A 
ATOM     49  H   UNL A   1      40.653  31.665  31.160  1.00  0.00     0.167 HD
ATOM     50  C   UNL A   1      40.699  27.875  29.001  1.00  0.00     0.037 A 
ATOM     51  C   UNL A   1      41.593  33.471  33.071  1.00  0.00     0.037 A 
ATOM     52  C   UNL A   1      41.899  27.856  29.795  1.00  0.00     0.049 A 
ATOM     53  C   UNL A   1      42.574  32.331  33.070  1.00  0.00     0.074 A 
ATOM     54  C   UNL A   1      42.896  26.898  29.830  1.00  0.00     0.029 A 
ATOM     55  N   UNL A   1      42.261  28.844  30.698  1.00  0.00    -0.354 N 
ATOM     56  N   UNL A   1      42.566  31.235  32.351  1.00  0.00    -0.248 NA
ATOM     57  C   UNL A   1      43.704  32.428  34.006  1.00  0.00     0.031 C 
ATOM     58  C   UNL A   1      43.848  27.289  30.779  1.00  0.00     0.029 A 
ATOM     59  C   UNL A   1      43.456  28.507  31.311  1.00  0.00     0.049 A 
ATOM     60  H   UNL A   1      41.745  29.664  30.876  1.00  0.00     0.167 HD
ATOM     61  C   UNL A   1      43.689  30.517  32.742  1.00  0.00     0.074 A 
ATOM     62  C   UNL A   1      44.368  31.309  33.746  1.00  0.00     0.031 C 
ATOM     63  C   UNL A   1      44.115  29.305  32.312  1.00  0.00     0.037 A 
BRANCH  50  64
ATOM     64  C   UNL A   1      40.416  26.700  28.116  1.00  0.00     0.057 A 
ATOM     65  C   UNL A   1      39.535  25.683  28.501  1.00  0.00     0.134 A 
ATOM     66  C   UNL A   1      41.019  26.595  26.856  1.00  0.00     0.134 A 
ATOM     67  F   UNL A   1      38.938  25.721  29.701  1.00  0.00    -0.206 F 
ATOM     68  C   UNL A   1      39.280  24.589  27.673  1.00  0.00     0.040 A 
ATOM     69  C   UNL A   1      40.758  25.516  26.012  1.00  0.00     0.040 A 
ATOM     70  F   UNL A   1      41.872  27.538  26.428  1.00  0.00    -0.206 F 
ATOM     71  C   UNL A   1      39.889  24.506  26.422  1.00  0.00     0.006 A 
ENDBRANCH  50  64
BRANCH  51  72
ATOM     72  C   UNL A   1      41.801  34.635  33.967  1.00  0.00     0.057 A 
ATOM     73  C   UNL A   1      42.473  35.776  33.518  1.00  0.00     0.134 A 
ATOM     74  C   UNL A   1      41.356  34.624  35.294  1.00  0.00     0.134 A 
ATOM     75  F   UNL A   1      42.945  35.831  32.263  1.00  0.00    -0.206 F 
ATOM     76  C   UNL A   1      42.705  36.865  34.359  1.00  0.00     0.040 A 
ATOM     77  C   UNL A   1      41.564  35.715  36.141  1.00  0.00     0.040 A 
ATOM     78  F   UNL A   1      40.708  33.557  35.784  1.00  0.00    -0.206 F 
ATOM     79  C   UNL A   1      42.245  36.837  35.675  1.00  0.00     0.006 A 
ENDBRANCH  51  72
BRANCH  63  80
ATOM     80  C   UNL A   1      45.373  28.766  32.924  1.00  0.00     0.057 A 
ATOM     81  C   UNL A   1      45.341  27.930  34.046  1.00  0.00     0.134 A 
ATOM     82  C   UNL A   1      46.623  29.056  32.364  1.00  0.00     0.134 A 
ATOM     83  F   UNL A   1      44.174  27.628  34.635  1.00  0.00    -0.206 F 
ATOM     84  C   UNL A   1      46.512  27.410  34.600  1.00  0.00     0.040 A 
ATOM     85  C   UNL A   1      47.799  28.528  32.899  1.00  0.00     0.040 A 
ATOM     86  F   UNL A   1      46.720  29.848  31.286  1.00  0.00    -0.206 F 
ATOM     87  C   UNL A   1      47.746  27.704  34.022  1.00  0.00     0.006 A 
ENDBRANCH  63  80
ENDBRANCH  37  38
ENDBRANCH  29  32
ENDBRANCH  27  28
ENDBRANCH  26  27
ENDBRANCH  25  26
ENDBRANCH   3  25
TORSDOF 16
ENDMDL
MODEL 2
REMARK VINA RESULT:     -10.9      3.241      7.777
REMARK SMILES CC[C@H](c1ccccc1)[C@@H](C)OC(=O)c1ccccc1C(=O)NCCCNC(=O)c1ccc(-c2c3nc(c(-c4c(F)cccc4F)c4ccc([nH]4)c(-c4c(F)cccc4F)c4nc(c(-c5c(F)cccc5F)c5ccc2[nH]5)C=C4)C=C3)cc1
REMARK SMILES IDX 21 1 22 2 23 3 20 5 15 6 16 7 17 8 19 9 18 10 13 11 14 12
REMARK SMILES IDX 12 13 10 14 11 15 3 16 2 17 1 18 4 19 5 20 9 21 6 22 8 23
REMARK SMILES IDX 7 24 24 25 25 26 26 27 27 28 28 29 29 31 30 32 31 33 83 34
REMARK SMILES IDX 32 35 82 36 33 37 34 38 35 39 76 40 36 41 81 42 75 43 77 44
REMARK SMILES IDX 37 45 80 46 74 47 73 48 38 50 64 51 47 52 63 53 48 54 51 55
REMARK SMILES IDX 62 56 78 57 49 58 50 59 61 61 79 62 52 63 39 64 40 65 45 66
REMARK SMILES IDX 41 67 42 68 44 69 46 70 43 71 65 72 66 73 71 74 67 75 68 76
REMARK SMILES IDX 70 77 72 78 69 79 53 80 54 81 59 82 55 83 56 84 58 85 60 86
REMARK SMILES IDX 57 87
REMARK H PARENT 23 4 27 30 77 49 51 60
REMARK Flexibility Score: inf
ROOT
ATOM      1  C   UNL A   1      33.875  24.861  25.605  1.00  0.00     0.252 C 
ATOM      2  O   UNL A   1      32.956  24.257  26.147  1.00  0.00    -0.269 OA
ATOM      3  N   UNL A   1      34.056  26.207  25.836  1.00  0.00    -0.352 N 
ATOM      4  H   UNL A   1      34.476  26.489  26.680  1.00  0.00     0.163 HD
ENDROOT
BRANCH   1   5
ATOM      5  C   UNL A   1      34.985  24.100  25.004  1.00  0.00     0.054 A 
ATOM      6  C   UNL A   1      34.928  23.423  23.784  1.00  0.00     0.072 A 
ATOM      7  C   UNL A   1      35.999  22.601  23.393  1.00  0.00     0.016 A 
ATOM      8  C   UNL A   1      37.113  22.450  24.223  1.00  0.00     0.001 A 
ATOM      9  C   UNL A   1      36.107  23.936  25.835  1.00  0.00     0.015 A 
ATOM     10  C   UNL A   1      37.164  23.112  25.448  1.00  0.00     0.001 A 
BRANCH   6  11
ATOM     11  C   UNL A   1      33.699  23.334  22.992  1.00  0.00     0.339 C 
ATOM     12  O   UNL A   1      33.539  24.034  22.003  1.00  0.00    -0.246 OA
BRANCH  11  13
ATOM     13  O   UNL A   1      32.846  22.456  23.556  1.00  0.00    -0.458 OA
BRANCH  13  14
ATOM     14  C   UNL A   1      32.692  21.050  23.137  1.00  0.00     0.181 C 
ATOM     15  C   UNL A   1      31.793  20.835  21.919  1.00  0.00     0.053 C 
BRANCH  14  16
ATOM     16  C   UNL A   1      32.310  20.206  24.408  1.00  0.00     0.060 C 
BRANCH  16  17
ATOM     17  C   UNL A   1      32.683  20.979  25.712  1.00  0.00     0.009 C 
ATOM     18  C   UNL A   1      34.110  20.777  26.231  1.00  0.00     0.005 C 
ENDBRANCH  16  17
BRANCH  16  19
ATOM     19  C   UNL A   1      32.765  18.735  24.409  1.00  0.00    -0.041 A 
ATOM     20  C   UNL A   1      33.557  18.164  23.400  1.00  0.00     0.004 A 
ATOM     21  C   UNL A   1      32.430  17.903  25.495  1.00  0.00     0.004 A 
ATOM     22  C   UNL A   1      33.948  16.819  23.445  1.00  0.00     0.000 A 
ATOM     23  C   UNL A   1      32.788  16.551  25.526  1.00  0.00     0.000 A 
ATOM     24  C   UNL A   1      33.546  16.008  24.499  1.00  0.00     0.000 A 
ENDBRANCH  16  19
ENDBRANCH  14  16
ENDBRANCH  13  14
ENDBRANCH  11  13
ENDBRANCH   6  11
ENDBRANCH   1   5
BRANCH   3  25
ATOM     25  C   UNL A   1      33.648  27.228  24.878  1.00  0.00     0.118 C 
BRANCH  25  26
ATOM     26  C   UNL A   1      33.426  28.569  25.568  1.00  0.00     0.042 C 
BRANCH  26  27
ATOM     27  C   UNL A   1      33.536  28.647  27.087  1.00  0.00     0.118 C 
BRANCH  27  28
ATOM     28  N   UNL A   1      33.542  29.959  27.695  1.00  0.00    -0.352 N 
ATOM     29  C   UNL A   1      34.562  30.685  28.268  1.00  0.00     0.251 C 
ATOM     30  H   UNL A   1      32.668  30.410  27.701  1.00  0.00     0.163 HD
ATOM     31  O   UNL A   1      34.306  31.837  28.623  1.00  0.00    -0.269 OA
BRANCH  29  32
ATOM     32  C   UNL A   1      35.927  30.136  28.523  1.00  0.00     0.039 A 
ATOM     33  C   UNL A   1      36.835  30.150  27.453  1.00  0.00     0.014 A 
ATOM     34  C   UNL A   1      36.344  29.587  29.736  1.00  0.00     0.014 A 
ATOM     35  C   UNL A   1      38.151  29.696  27.614  1.00  0.00     0.010 A 
ATOM     36  C   UNL A   1      37.675  29.195  29.922  1.00  0.00     0.010 A 
ATOM     37  C   UNL A   1      38.591  29.246  28.864  1.00  0.00    -0.014 A 
BRANCH  37  38
ATOM     38  C   UNL A   1      39.991  28.803  29.082  1.00  0.00     0.031 A 
ATOM     39  C   UNL A   1      40.997  29.750  29.671  1.00  0.00     0.074 A 
ATOM     40  C   UNL A   1      40.379  27.573  28.694  1.00  0.00     0.049 A 
ATOM     41  N   UNL A   1      42.290  29.603  29.819  1.00  0.00    -0.248 NA
ATOM     42  C   UNL A   1      40.481  31.045  30.145  1.00  0.00     0.031 C 
ATOM     43  C   UNL A   1      39.509  26.560  28.098  1.00  0.00     0.029 A 
ATOM     44  N   UNL A   1      41.615  26.973  28.729  1.00  0.00    -0.354 N 
ATOM     45  C   UNL A   1      42.745  30.790  30.377  1.00  0.00     0.074 A 
ATOM     46  C   UNL A   1      41.594  31.654  30.526  1.00  0.00     0.031 C 
ATOM     47  C   UNL A   1      40.235  25.461  27.831  1.00  0.00     0.029 A 
ATOM     48  C   UNL A   1      41.627  25.707  28.197  1.00  0.00     0.049 A 
ATOM     49  H   UNL A   1      42.415  27.410  29.101  1.00  0.00     0.167 HD
ATOM     50  C   UNL A   1      44.007  31.127  30.736  1.00  0.00     0.037 A 
ATOM     51  C   UNL A   1      42.650  24.853  28.003  1.00  0.00     0.037 A 
ATOM     52  C   UNL A   1      45.152  30.266  30.607  1.00  0.00     0.049 A 
ATOM     53  C   UNL A   1      44.045  25.263  28.385  1.00  0.00     0.074 A 
ATOM     54  C   UNL A   1      46.463  30.512  30.978  1.00  0.00     0.029 A 
ATOM     55  N   UNL A   1      45.123  28.993  30.059  1.00  0.00    -0.354 N 
ATOM     56  N   UNL A   1      44.458  26.380  28.931  1.00  0.00    -0.248 NA
ATOM     57  C   UNL A   1      45.119  24.297  28.107  1.00  0.00     0.031 C 
ATOM     58  C   UNL A   1      47.234  29.398  30.626  1.00  0.00     0.029 A 
ATOM     59  C   UNL A   1      46.396  28.448  30.063  1.00  0.00     0.049 A 
ATOM     60  H   UNL A   1      44.316  28.542  29.719  1.00  0.00     0.167 HD
ATOM     61  C   UNL A   1      45.835  26.250  29.067  1.00  0.00     0.074 A 
ATOM     62  C   UNL A   1      46.186  24.937  28.566  1.00  0.00     0.031 C 
ATOM     63  C   UNL A   1      46.729  27.142  29.556  1.00  0.00     0.037 A 
BRANCH  50  64
ATOM     64  C   UNL A   1      44.213  32.503  31.292  1.00  0.00     0.057 A 
ATOM     65  C   UNL A   1      44.195  32.751  32.670  1.00  0.00     0.134 A 
ATOM     66  C   UNL A   1      44.447  33.588  30.439  1.00  0.00     0.134 A 
ATOM     67  F   UNL A   1      43.961  31.755  33.536  1.00  0.00    -0.206 F 
ATOM     68  C   UNL A   1      44.383  34.037  33.179  1.00  0.00     0.040 A 
ATOM     69  C   UNL A   1      44.654  34.875  30.937  1.00  0.00     0.040 A 
ATOM     70  F   UNL A   1      44.478  33.415  29.109  1.00  0.00    -0.206 F 
ATOM     71  C   UNL A   1      44.617  35.103  32.312  1.00  0.00     0.006 A 
ENDBRANCH  50  64
BRANCH  51  72
ATOM     72  C   UNL A   1      42.400  23.520  27.402  1.00  0.00     0.057 A 
ATOM     73  C   UNL A   1      42.075  22.420  28.202  1.00  0.00     0.134 A 
ATOM     74  C   UNL A   1      42.503  23.310  26.021  1.00  0.00     0.134 A 
ATOM     75  F   UNL A   1      41.989  22.558  29.534  1.00  0.00    -0.206 F 
ATOM     76  C   UNL A   1      41.870  21.153  27.654  1.00  0.00     0.040 A 
ATOM     77  C   UNL A   1      42.281  22.052  25.458  1.00  0.00     0.040 A 
ATOM     78  F   UNL A   1      42.815  24.324  25.203  1.00  0.00    -0.206 F 
ATOM     79  C   UNL A   1      41.969  20.968  26.275  1.00  0.00     0.006 A 
ENDBRANCH  51  72
BRANCH  63  80
ATOM     80  C   UNL A   1      48.169  26.726  29.577  1.00  0.00     0.057 A 
ATOM     81  C   UNL A   1      48.699  25.983  30.638  1.00  0.00     0.134 A 
ATOM     82  C   UNL A   1      49.021  27.040  28.512  1.00  0.00     0.134 A 
ATOM     83  F   UNL A   1      47.936  25.665  31.694  1.00  0.00    -0.206 F 
ATOM     84  C   UNL A   1      50.034  25.576  30.645  1.00  0.00     0.040 A 
ATOM     85  C   UNL A   1      50.353  26.623  28.499  1.00  0.00     0.040 A 
ATOM     86  F   UNL A   1      48.571  27.746  27.464  1.00  0.00    -0.206 F 
ATOM     87  C   UNL A   1      50.864  25.891  29.570  1.00  0.00     0.006 A 
ENDBRANCH  63  80
ENDBRANCH  37  38
ENDBRANCH  29  32
ENDBRANCH  27  28
ENDBRANCH  26  27
ENDBRANCH  25  26
ENDBRANCH   3  25
TORSDOF 16
ENDMDL
MODEL 3
REMARK VINA RESULT:     -10.9      3.040      7.626
REMARK SMILES CC[C@H](c1ccccc1)[C@@H](C)OC(=O)c1ccccc1C(=O)NCCCNC(=O)c1ccc(-c2c3nc(c(-c4c(F)cccc4F)c4ccc([nH]4)c(-c4c(F)cccc4F)c4nc(c(-c5c(F)cccc5F)c5ccc2[nH]5)C=C4)C=C3)cc1
REMARK SMILES IDX 21 1 22 2 23 3 20 5 15 6 16 7 17 8 19 9 18 10 13 11 14 12
REMARK SMILES IDX 12 13 10 14 11 15 3 16 2 17 1 18 4 19 5 20 9 21 6 22 8 23
REMARK SMILES IDX 7 24 24 25 25 26 26 27 27 28 28 29 29 31 30 32 31 33 83 34
REMARK SMILES IDX 32 35 82 36 33 37 34 38 35 39 76 40 36 41 81 42 75 43 77 44
REMARK SMILES IDX 37 45 80 46 74 47 73 48 38 50 64 51 47 52 63 53 48 54 51 55
REMARK SMILES IDX 62 56 78 57 49 58 50 59 61 61 79 62 52 63 39 64 40 65 45 66
REMARK SMILES IDX 41 67 42 68 44 69 46 70 43 71 65 72 66 73 71 74 67 75 68 76
REMARK SMILES IDX 70 77 72 78 69 79 53 80 54 81 59 82 55 83 56 84 58 85 60 86
REMARK SMILES IDX 57 87
REMARK H PARENT 23 4 27 30 77 49 51 60
REMARK Flexibility Score: inf
ROOT
ATOM      1  C   UNL A   1      35.806  23.322  23.685  1.00  0.00     0.252 C 
ATOM      2  O   UNL A   1      36.602  23.327  22.752  1.00  0.00    -0.269 OA
ATOM      3  N   UNL A   1      36.084  24.019  24.841  1.00  0.00    -0.352 N 
ATOM      4  H   UNL A   1      35.960  24.995  24.846  1.00  0.00     0.163 HD
ENDROOT
BRANCH   1   5
ATOM      5  C   UNL A   1      34.418  22.885  23.450  1.00  0.00     0.054 A 
ATOM      6  C   UNL A   1      33.401  23.685  22.923  1.00  0.00     0.072 A 
ATOM      7  C   UNL A   1      32.081  23.205  22.895  1.00  0.00     0.016 A 
ATOM      8  C   UNL A   1      31.780  21.938  23.402  1.00  0.00     0.001 A 
ATOM      9  C   UNL A   1      34.103  21.615  23.963  1.00  0.00     0.015 A 
ATOM     10  C   UNL A   1      32.790  21.145  23.942  1.00  0.00     0.001 A 
BRANCH   6  11
ATOM     11  C   UNL A   1      33.599  25.103  22.615  1.00  0.00     0.339 C 
ATOM     12  O   UNL A   1      33.653  25.491  21.456  1.00  0.00    -0.246 OA
BRANCH  11  13
ATOM     13  O   UNL A   1      33.754  25.810  23.752  1.00  0.00    -0.458 OA
BRANCH  13  14
ATOM     14  C   UNL A   1      33.077  27.087  24.044  1.00  0.00     0.181 C 
ATOM     15  C   UNL A   1      33.929  28.336  23.809  1.00  0.00     0.053 C 
BRANCH  14  16
ATOM     16  C   UNL A   1      32.433  26.977  25.474  1.00  0.00     0.060 C 
BRANCH  16  17
ATOM     17  C   UNL A   1      33.254  27.808  26.510  1.00  0.00     0.009 C 
ATOM     18  C   UNL A   1      32.489  28.909  27.251  1.00  0.00     0.005 C 
ENDBRANCH  16  17
BRANCH  16  19
ATOM     19  C   UNL A   1      32.086  25.556  25.956  1.00  0.00    -0.041 A 
ATOM     20  C   UNL A   1      33.026  24.668  26.502  1.00  0.00     0.004 A 
ATOM     21  C   UNL A   1      30.750  25.111  25.910  1.00  0.00     0.004 A 
ATOM     22  C   UNL A   1      32.663  23.383  26.928  1.00  0.00     0.000 A 
ATOM     23  C   UNL A   1      30.390  23.817  26.300  1.00  0.00     0.000 A 
ATOM     24  C   UNL A   1      31.349  22.951  26.809  1.00  0.00     0.000 A 
ENDBRANCH  16  19
ENDBRANCH  14  16
ENDBRANCH  13  14
ENDBRANCH  11  13
ENDBRANCH   6  11
ENDBRANCH   1   5
BRANCH   3  25
ATOM     25  C   UNL A   1      36.556  23.363  26.056  1.00  0.00     0.118 C 
BRANCH  25  26
ATOM     26  C   UNL A   1      37.957  22.797  25.863  1.00  0.00     0.042 C 
BRANCH  26  27
ATOM     27  C   UNL A   1      39.132  23.474  26.563  1.00  0.00     0.118 C 
BRANCH  27  28
ATOM     28  N   UNL A   1      40.047  24.244  25.750  1.00  0.00    -0.352 N 
ATOM     29  C   UNL A   1      40.765  25.385  26.031  1.00  0.00     0.251 C 
ATOM     30  H   UNL A   1      40.180  23.893  24.841  1.00  0.00     0.163 HD
ATOM     31  O   UNL A   1      41.560  25.778  25.175  1.00  0.00    -0.269 OA
BRANCH  29  32
ATOM     32  C   UNL A   1      40.593  26.184  27.280  1.00  0.00     0.039 A 
ATOM     33  C   UNL A   1      41.367  27.348  27.411  1.00  0.00     0.014 A 
ATOM     34  C   UNL A   1      39.742  25.835  28.331  1.00  0.00     0.014 A 
ATOM     35  C   UNL A   1      41.238  28.182  28.529  1.00  0.00     0.010 A 
ATOM     36  C   UNL A   1      39.560  26.699  29.417  1.00  0.00     0.010 A 
ATOM     37  C   UNL A   1      40.304  27.880  29.527  1.00  0.00    -0.014 A 
BRANCH  37  38
ATOM     38  C   UNL A   1      40.107  28.767  30.701  1.00  0.00     0.031 A 
ATOM     39  C   UNL A   1      39.082  29.865  30.652  1.00  0.00     0.074 A 
ATOM     40  C   UNL A   1      40.888  28.631  31.790  1.00  0.00     0.049 A 
ATOM     41  N   UNL A   1      38.849  30.822  31.514  1.00  0.00    -0.248 NA
ATOM     42  C   UNL A   1      38.213  29.898  29.465  1.00  0.00     0.031 C 
ATOM     43  C   UNL A   1      41.927  27.617  31.964  1.00  0.00     0.029 A 
ATOM     44  N   UNL A   1      40.938  29.363  32.951  1.00  0.00    -0.354 N 
ATOM     45  C   UNL A   1      37.827  31.585  30.965  1.00  0.00     0.074 A 
ATOM     46  C   UNL A   1      37.496  30.990  29.688  1.00  0.00     0.031 C 
ATOM     47  C   UNL A   1      42.507  27.785  33.165  1.00  0.00     0.029 A 
ATOM     48  C   UNL A   1      41.910  28.943  33.825  1.00  0.00     0.049 A 
ATOM     49  H   UNL A   1      40.334  30.118  33.139  1.00  0.00     0.167 HD
ATOM     50  C   UNL A   1      37.217  32.679  31.480  1.00  0.00     0.037 A 
ATOM     51  C   UNL A   1      42.294  29.450  35.013  1.00  0.00     0.037 A 
ATOM     52  C   UNL A   1      37.529  33.265  32.756  1.00  0.00     0.049 A 
ATOM     53  C   UNL A   1      41.619  30.682  35.549  1.00  0.00     0.074 A 
ATOM     54  C   UNL A   1      36.938  34.353  33.374  1.00  0.00     0.029 A 
ATOM     55  N   UNL A   1      38.523  32.811  33.610  1.00  0.00    -0.354 N 
ATOM     56  N   UNL A   1      40.640  31.381  35.029  1.00  0.00    -0.248 NA
ATOM     57  C   UNL A   1      42.116  31.205  36.831  1.00  0.00     0.031 C 
ATOM     58  C   UNL A   1      37.596  34.578  34.589  1.00  0.00     0.029 A 
ATOM     59  C   UNL A   1      38.576  33.611  34.739  1.00  0.00     0.049 A 
ATOM     60  H   UNL A   1      39.104  32.035  33.438  1.00  0.00     0.167 HD
ATOM     61  C   UNL A   1      40.401  32.420  35.920  1.00  0.00     0.074 A 
ATOM     62  C   UNL A   1      41.321  32.249  37.024  1.00  0.00     0.031 C 
ATOM     63  C   UNL A   1      39.502  33.430  35.827  1.00  0.00     0.037 A 
BRANCH  50  64
ATOM     64  C   UNL A   1      36.155  33.324  30.644  1.00  0.00     0.057 A 
ATOM     65  C   UNL A   1      34.795  33.186  30.946  1.00  0.00     0.134 A 
ATOM     66  C   UNL A   1      36.499  34.107  29.534  1.00  0.00     0.134 A 
ATOM     67  F   UNL A   1      34.402  32.439  31.987  1.00  0.00    -0.206 F 
ATOM     68  C   UNL A   1      33.811  33.787  30.158  1.00  0.00     0.040 A 
ATOM     69  C   UNL A   1      35.525  34.727  28.751  1.00  0.00     0.040 A 
ATOM     70  F   UNL A   1      37.785  34.278  29.194  1.00  0.00    -0.206 F 
ATOM     71  C   UNL A   1      34.176  34.563  29.059  1.00  0.00     0.006 A 
ENDBRANCH  50  64
BRANCH  51  72
ATOM     72  C   UNL A   1      43.386  28.802  35.779  1.00  0.00     0.057 A 
ATOM     73  C   UNL A   1      44.707  29.246  35.661  1.00  0.00     0.134 A 
ATOM     74  C   UNL A   1      43.141  27.715  36.625  1.00  0.00     0.134 A 
ATOM     75  F   UNL A   1      45.005  30.268  34.844  1.00  0.00    -0.206 F 
ATOM     76  C   UNL A   1      45.750  28.626  36.350  1.00  0.00     0.040 A 
ATOM     77  C   UNL A   1      44.172  27.097  37.335  1.00  0.00     0.040 A 
ATOM     78  F   UNL A   1      41.895  27.242  36.777  1.00  0.00    -0.206 F 
ATOM     79  C   UNL A   1      45.482  27.549  37.194  1.00  0.00     0.006 A 
ENDBRANCH  51  72
BRANCH  63  80
ATOM     80  C   UNL A   1      39.470  34.422  36.949  1.00  0.00     0.057 A 
ATOM     81  C   UNL A   1      40.126  35.655  36.853  1.00  0.00     0.134 A 
ATOM     82  C   UNL A   1      38.749  34.159  38.119  1.00  0.00     0.134 A 
ATOM     83  F   UNL A   1      40.846  35.959  35.763  1.00  0.00    -0.206 F 
ATOM     84  C   UNL A   1      40.077  36.588  37.890  1.00  0.00     0.040 A 
ATOM     85  C   UNL A   1      38.677  35.091  39.155  1.00  0.00     0.040 A 
ATOM     86  F   UNL A   1      38.095  32.997  38.270  1.00  0.00    -0.206 F 
ATOM     87  C   UNL A   1      39.344  36.310  39.043  1.00  0.00     0.006 A 
ENDBRANCH  63  80
ENDBRANCH  37  38
ENDBRANCH  29  32
ENDBRANCH  27  28
ENDBRANCH  26  27
ENDBRANCH  25  26
ENDBRANCH   3  25
TORSDOF 16
ENDMDL
