MODEL 1
REMARK VINA RESULT:     -11.6      0.000      0.000
REMARK SMILES CCOc1cnc(C(=O)c2[nH]c3cc(Cl)ccc3c2CC(=O)NCCCNC(=O)c2ccc(-c3c4nc(c(-c5c(F)cccc5F)c5ccc([nH]5)c(-c5c(F)cccc5F)c5nc(c(-c6c(F)cccc6F)c6ccc3[nH]6)C=C5)C=C4)cc2)cc1CC
REMARK SMILES IDX 21 1 22 2 23 3 20 5 19 6 10 7 11 8 12 9 18 11 13 12 17 13
REMARK SMILES IDX 14 14 16 15 15 16 8 17 9 18 7 19 4 20 5 21 85 22 6 23 84 24
REMARK SMILES IDX 3 25 2 26 1 27 86 28 87 29 24 30 25 31 26 32 27 33 28 34
REMARK SMILES IDX 29 36 30 37 31 38 83 39 32 40 82 41 33 42 34 43 35 44 76 45
REMARK SMILES IDX 36 46 81 47 75 48 77 49 37 50 80 51 74 52 73 53 38 55 64 56
REMARK SMILES IDX 47 57 63 58 48 59 51 60 62 61 78 62 49 63 50 64 61 66 79 67
REMARK SMILES IDX 52 68 39 69 40 70 45 71 41 72 42 73 44 74 46 75 43 76 65 77
REMARK SMILES IDX 66 78 71 79 67 80 68 81 70 82 72 83 69 84 53 85 54 86 59 87
REMARK SMILES IDX 55 88 56 89 58 90 60 91 57 92
REMARK H PARENT 23 4 11 10 27 35 77 54 51 65
REMARK Flexibility Score: inf
ROOT
ATOM      1  C   UNL A   1      33.461  25.884  22.324  1.00  0.00     0.224 C 
ATOM      2  O   UNL A   1      33.523  24.985  21.482  1.00  0.00    -0.275 OA
ATOM      3  N   UNL A   1      32.636  26.941  22.063  1.00  0.00    -0.356 N 
ATOM      4  H   UNL A   1      32.282  26.981  21.144  1.00  0.00     0.163 HD
ENDROOT
BRANCH   1   5
ATOM      5  C   UNL A   1      34.183  25.761  23.659  1.00  0.00     0.138 C 
BRANCH   5   6
ATOM      6  C   UNL A   1      33.820  24.540  24.456  1.00  0.00    -0.002 A 
ATOM      7  C   UNL A   1      34.579  23.386  24.622  1.00  0.00     0.093 A 
ATOM      8  N   UNL A   1      33.928  22.600  25.546  1.00  0.00    -0.351 N 
ATOM      9  C   UNL A   1      32.666  23.084  25.784  1.00  0.00     0.048 A 
ATOM     10  H   UNL A   1      34.314  21.803  25.976  1.00  0.00     0.167 HD
ATOM     11  C   UNL A   1      32.563  24.300  25.110  1.00  0.00     0.004 A 
ATOM     12  C   UNL A   1      31.622  22.542  26.544  1.00  0.00     0.047 A 
ATOM     13  C   UNL A   1      31.348  25.013  25.199  1.00  0.00     0.012 A 
ATOM     14  C   UNL A   1      30.430  23.268  26.606  1.00  0.00     0.043 A 
ATOM     15  C   UNL A   1      30.287  24.485  25.946  1.00  0.00     0.021 A 
ATOM     16  Cl  UNL A   1      29.110  22.638  27.516  1.00  0.00    -0.084 Cl
BRANCH   7  17
ATOM     17  C   UNL A   1      35.848  23.018  24.007  1.00  0.00     0.227 C 
ATOM     18  O   UNL A   1      35.950  22.878  22.795  1.00  0.00    -0.285 OA
BRANCH  17  19
ATOM     19  C   UNL A   1      37.045  22.837  24.919  1.00  0.00     0.113 A 
ATOM     20  C   UNL A   1      39.299  22.451  26.451  1.00  0.00     0.140 A 
ATOM     21  C   UNL A   1      38.663  21.420  25.768  1.00  0.00     0.158 A 
ATOM     22  C   UNL A   1      38.801  23.747  26.322  1.00  0.00    -0.002 A 
ATOM     23  N   UNL A   1      37.563  21.586  24.996  1.00  0.00    -0.249 NA
ATOM     24  C   UNL A   1      37.613  23.916  25.601  1.00  0.00     0.040 A 
BRANCH  20  25
ATOM     25  O   UNL A   1      40.439  22.210  27.159  1.00  0.00    -0.492 OA
BRANCH  25  26
ATOM     26  C   UNL A   1      41.294  21.267  26.495  1.00  0.00     0.226 C 
ATOM     27  C   UNL A   1      42.374  22.014  25.729  1.00  0.00     0.049 C 
ENDBRANCH  25  26
ENDBRANCH  20  25
BRANCH  22  28
ATOM     28  C   UNL A   1      39.494  24.949  26.919  1.00  0.00     0.036 C 
ATOM     29  C   UNL A   1      39.240  25.097  28.417  1.00  0.00     0.009 C 
ENDBRANCH  22  28
ENDBRANCH  17  19
ENDBRANCH   7  17
ENDBRANCH   5   6
ENDBRANCH   1   5
BRANCH   3  30
ATOM     30  C   UNL A   1      32.204  28.011  22.938  1.00  0.00     0.117 C 
BRANCH  30  31
ATOM     31  C   UNL A   1      33.325  28.975  23.317  1.00  0.00     0.042 C 
BRANCH  31  32
ATOM     32  C   UNL A   1      33.603  29.082  24.815  1.00  0.00     0.118 C 
BRANCH  32  33
ATOM     33  N   UNL A   1      32.832  30.134  25.457  1.00  0.00    -0.352 N 
ATOM     34  C   UNL A   1      33.051  30.844  26.609  1.00  0.00     0.251 C 
ATOM     35  H   UNL A   1      32.006  30.381  24.981  1.00  0.00     0.163 HD
ATOM     36  O   UNL A   1      32.157  31.576  27.030  1.00  0.00    -0.269 OA
BRANCH  34  37
ATOM     37  C   UNL A   1      34.323  30.750  27.367  1.00  0.00     0.039 A 
ATOM     38  C   UNL A   1      34.695  29.497  27.872  1.00  0.00     0.014 A 
ATOM     39  C   UNL A   1      35.107  31.868  27.664  1.00  0.00     0.014 A 
ATOM     40  C   UNL A   1      35.859  29.360  28.634  1.00  0.00     0.010 A 
ATOM     41  C   UNL A   1      36.303  31.721  28.371  1.00  0.00     0.010 A 
ATOM     42  C   UNL A   1      36.685  30.468  28.873  1.00  0.00    -0.014 A 
BRANCH  42  43
ATOM     43  C   UNL A   1      37.939  30.319  29.656  1.00  0.00     0.031 A 
ATOM     44  C   UNL A   1      39.137  29.631  29.063  1.00  0.00     0.074 A 
ATOM     45  C   UNL A   1      37.991  30.779  30.921  1.00  0.00     0.049 A 
ATOM     46  N   UNL A   1      40.313  29.411  29.597  1.00  0.00    -0.248 NA
ATOM     47  C   UNL A   1      38.991  29.103  27.698  1.00  0.00     0.031 C 
ATOM     48  C   UNL A   1      36.887  31.426  31.632  1.00  0.00     0.029 A 
ATOM     49  N   UNL A   1      39.018  30.776  31.833  1.00  0.00    -0.354 N 
ATOM     50  C   UNL A   1      41.037  28.704  28.646  1.00  0.00     0.074 A 
ATOM     51  C   UNL A   1      40.157  28.500  27.515  1.00  0.00     0.031 C 
ATOM     52  C   UNL A   1      37.304  31.784  32.857  1.00  0.00     0.029 A 
ATOM     53  C   UNL A   1      38.694  31.372  33.026  1.00  0.00     0.049 A 
ATOM     54  H   UNL A   1      39.901  30.383  31.648  1.00  0.00     0.167 HD
ATOM     55  C   UNL A   1      42.321  28.277  28.701  1.00  0.00     0.037 A 
ATOM     56  C   UNL A   1      39.438  31.574  34.131  1.00  0.00     0.037 A 
ATOM     57  C   UNL A   1      43.212  28.510  29.807  1.00  0.00     0.049 A 
ATOM     58  C   UNL A   1      40.869  31.121  34.153  1.00  0.00     0.074 A 
ATOM     59  C   UNL A   1      44.552  28.179  29.922  1.00  0.00     0.029 A 
ATOM     60  N   UNL A   1      42.852  29.137  30.990  1.00  0.00    -0.354 N 
ATOM     61  N   UNL A   1      41.559  30.514  33.219  1.00  0.00    -0.248 NA
ATOM     62  C   UNL A   1      41.628  31.391  35.383  1.00  0.00     0.031 C 
ATOM     63  C   UNL A   1      44.996  28.580  31.187  1.00  0.00     0.029 A 
ATOM     64  C   UNL A   1      43.940  29.190  31.846  1.00  0.00     0.049 A 
ATOM     65  H   UNL A   1      41.957  29.492  31.191  1.00  0.00     0.167 HD
ATOM     66  C   UNL A   1      42.839  30.354  33.735  1.00  0.00     0.074 A 
ATOM     67  C   UNL A   1      42.832  30.936  35.061  1.00  0.00     0.031 C 
ATOM     68  C   UNL A   1      43.922  29.779  33.160  1.00  0.00     0.037 A 
BRANCH  55  69
ATOM     69  C   UNL A   1      42.843  27.512  27.521  1.00  0.00     0.057 A 
ATOM     70  C   UNL A   1      43.297  28.158  26.365  1.00  0.00     0.134 A 
ATOM     71  C   UNL A   1      42.922  26.113  27.554  1.00  0.00     0.134 A 
ATOM     72  F   UNL A   1      43.238  29.495  26.266  1.00  0.00    -0.206 F 
ATOM     73  C   UNL A   1      43.787  27.441  25.272  1.00  0.00     0.040 A 
ATOM     74  C   UNL A   1      43.431  25.386  26.477  1.00  0.00     0.040 A 
ATOM     75  F   UNL A   1      42.510  25.434  28.634  1.00  0.00    -0.206 F 
ATOM     76  C   UNL A   1      43.860  26.050  25.329  1.00  0.00     0.006 A 
ENDBRANCH  55  69
BRANCH  56  77
ATOM     77  C   UNL A   1      38.854  32.284  35.293  1.00  0.00     0.057 A 
ATOM     78  C   UNL A   1      38.306  31.572  36.365  1.00  0.00     0.134 A 
ATOM     79  C   UNL A   1      38.828  33.682  35.361  1.00  0.00     0.134 A 
ATOM     80  F   UNL A   1      38.287  30.231  36.345  1.00  0.00    -0.206 F 
ATOM     81  C   UNL A   1      37.738  32.223  37.460  1.00  0.00     0.040 A 
ATOM     82  C   UNL A   1      38.281  34.347  36.460  1.00  0.00     0.040 A 
ATOM     83  F   UNL A   1      39.344  34.418  34.367  1.00  0.00    -0.206 F 
ATOM     84  C   UNL A   1      37.729  33.615  37.511  1.00  0.00     0.006 A 
ENDBRANCH  56  77
BRANCH  68  85
ATOM     85  C   UNL A   1      45.194  29.781  33.952  1.00  0.00     0.057 A 
ATOM     86  C   UNL A   1      45.574  28.687  34.740  1.00  0.00     0.134 A 
ATOM     87  C   UNL A   1      46.057  30.882  33.910  1.00  0.00     0.134 A 
ATOM     88  F   UNL A   1      44.781  27.609  34.832  1.00  0.00    -0.206 F 
ATOM     89  C   UNL A   1      46.758  28.699  35.478  1.00  0.00     0.040 A 
ATOM     90  C   UNL A   1      47.254  30.897  34.627  1.00  0.00     0.040 A 
ATOM     91  F   UNL A   1      45.753  31.958  33.170  1.00  0.00    -0.206 F 
ATOM     92  C   UNL A   1      47.603  29.805  35.419  1.00  0.00     0.006 A 
ENDBRANCH  68  85
ENDBRANCH  42  43
ENDBRANCH  34  37
ENDBRANCH  32  33
ENDBRANCH  31  32
ENDBRANCH  30  31
ENDBRANCH   3  30
TORSDOF 16
ENDMDL
MODEL 2
REMARK VINA RESULT:     -11.6      0.559      6.048
REMARK SMILES CCOc1cnc(C(=O)c2[nH]c3cc(Cl)ccc3c2CC(=O)NCCCNC(=O)c2ccc(-c3c4nc(c(-c5c(F)cccc5F)c5ccc([nH]5)c(-c5c(F)cccc5F)c5nc(c(-c6c(F)cccc6F)c6ccc3[nH]6)C=C5)C=C4)cc2)cc1CC
REMARK SMILES IDX 21 1 22 2 23 3 20 5 19 6 10 7 11 8 12 9 18 11 13 12 17 13
REMARK SMILES IDX 14 14 16 15 15 16 8 17 9 18 7 19 4 20 5 21 85 22 6 23 84 24
REMARK SMILES IDX 3 25 2 26 1 27 86 28 87 29 24 30 25 31 26 32 27 33 28 34
REMARK SMILES IDX 29 36 30 37 31 38 83 39 32 40 82 41 33 42 34 43 35 44 76 45
REMARK SMILES IDX 36 46 81 47 75 48 77 49 37 50 80 51 74 52 73 53 38 55 64 56
REMARK SMILES IDX 47 57 63 58 48 59 51 60 62 61 78 62 49 63 50 64 61 66 79 67
REMARK SMILES IDX 52 68 39 69 40 70 45 71 41 72 42 73 44 74 46 75 43 76 65 77
REMARK SMILES IDX 66 78 71 79 67 80 68 81 70 82 72 83 69 84 53 85 54 86 59 87
REMARK SMILES IDX 55 88 56 89 58 90 60 91 57 92
REMARK H PARENT 23 4 11 10 27 35 77 54 51 65
REMARK Flexibility Score: inf
ROOT
ATOM      1  C   UNL A   1      33.469  26.125  22.510  1.00  0.00     0.224 C 
ATOM      2  O   UNL A   1      33.661  25.316  21.599  1.00  0.00    -0.275 OA
ATOM      3  N   UNL A   1      32.576  27.134  22.283  1.00  0.00    -0.356 N 
ATOM      4  H   UNL A   1      32.280  27.231  21.348  1.00  0.00     0.163 HD
ENDROOT
BRANCH   1   5
ATOM      5  C   UNL A   1      34.110  25.935  23.877  1.00  0.00     0.138 C 
BRANCH   5   6
ATOM      6  C   UNL A   1      33.724  24.663  24.578  1.00  0.00    -0.002 A 
ATOM      7  C   UNL A   1      34.453  23.480  24.637  1.00  0.00     0.093 A 
ATOM      8  N   UNL A   1      33.794  22.638  25.504  1.00  0.00    -0.351 N 
ATOM      9  C   UNL A   1      32.549  23.134  25.800  1.00  0.00     0.048 A 
ATOM     10  H   UNL A   1      34.163  21.798  25.862  1.00  0.00     0.167 HD
ATOM     11  C   UNL A   1      32.471  24.403  25.230  1.00  0.00     0.004 A 
ATOM     12  C   UNL A   1      31.501  22.559  26.530  1.00  0.00     0.047 A 
ATOM     13  C   UNL A   1      31.277  25.138  25.395  1.00  0.00     0.012 A 
ATOM     14  C   UNL A   1      30.330  23.308  26.670  1.00  0.00     0.043 A 
ATOM     15  C   UNL A   1      30.212  24.579  26.113  1.00  0.00     0.021 A 
ATOM     16  Cl  UNL A   1      29.005  22.641  27.546  1.00  0.00    -0.084 Cl
BRANCH   7  17
ATOM     17  C   UNL A   1      35.703  23.130  23.975  1.00  0.00     0.227 C 
ATOM     18  O   UNL A   1      35.778  23.056  22.755  1.00  0.00    -0.285 OA
BRANCH  17  19
ATOM     19  C   UNL A   1      36.918  22.885  24.848  1.00  0.00     0.113 A 
ATOM     20  C   UNL A   1      39.198  22.385  26.307  1.00  0.00     0.140 A 
ATOM     21  C   UNL A   1      38.523  21.398  25.596  1.00  0.00     0.158 A 
ATOM     22  C   UNL A   1      38.726  23.695  26.246  1.00  0.00    -0.002 A 
ATOM     23  N   UNL A   1      37.410  21.620  24.858  1.00  0.00    -0.249 NA
ATOM     24  C   UNL A   1      37.525  23.921  25.562  1.00  0.00     0.040 A 
BRANCH  20  25
ATOM     25  O   UNL A   1      40.350  22.089  26.976  1.00  0.00    -0.492 OA
BRANCH  25  26
ATOM     26  C   UNL A   1      40.846  20.786  26.638  1.00  0.00     0.226 C 
ATOM     27  C   UNL A   1      42.365  20.790  26.704  1.00  0.00     0.049 C 
ENDBRANCH  25  26
ENDBRANCH  20  25
BRANCH  22  28
ATOM     28  C   UNL A   1      39.459  24.855  26.877  1.00  0.00     0.036 C 
ATOM     29  C   UNL A   1      39.048  25.099  28.326  1.00  0.00     0.009 C 
ENDBRANCH  22  28
ENDBRANCH  17  19
ENDBRANCH   7  17
ENDBRANCH   5   6
ENDBRANCH   1   5
BRANCH   3  30
ATOM     30  C   UNL A   1      32.000  28.081  23.215  1.00  0.00     0.117 C 
BRANCH  30  31
ATOM     31  C   UNL A   1      32.987  29.146  23.686  1.00  0.00     0.042 C 
BRANCH  31  32
ATOM     32  C   UNL A   1      33.161  29.237  25.200  1.00  0.00     0.118 C 
BRANCH  32  33
ATOM     33  N   UNL A   1      32.653  30.481  25.753  1.00  0.00    -0.352 N 
ATOM     34  C   UNL A   1      33.058  31.228  26.829  1.00  0.00     0.251 C 
ATOM     35  H   UNL A   1      31.880  30.854  25.270  1.00  0.00     0.163 HD
ATOM     36  O   UNL A   1      32.353  32.167  27.193  1.00  0.00    -0.269 OA
BRANCH  34  37
ATOM     37  C   UNL A   1      34.310  30.934  27.570  1.00  0.00     0.039 A 
ATOM     38  C   UNL A   1      35.198  31.992  27.803  1.00  0.00     0.014 A 
ATOM     39  C   UNL A   1      34.666  29.641  27.961  1.00  0.00     0.014 A 
ATOM     40  C   UNL A   1      36.414  31.763  28.453  1.00  0.00     0.010 A 
ATOM     41  C   UNL A   1      35.852  29.422  28.668  1.00  0.00     0.010 A 
ATOM     42  C   UNL A   1      36.742  30.477  28.911  1.00  0.00    -0.014 A 
BRANCH  42  43
ATOM     43  C   UNL A   1      38.020  30.236  29.631  1.00  0.00     0.031 A 
ATOM     44  C   UNL A   1      38.214  30.735  31.036  1.00  0.00     0.074 A 
ATOM     45  C   UNL A   1      39.023  29.590  29.006  1.00  0.00     0.049 A 
ATOM     46  N   UNL A   1      39.259  30.617  31.818  1.00  0.00    -0.248 NA
ATOM     47  C   UNL A   1      37.099  31.481  31.636  1.00  0.00     0.031 C 
ATOM     48  C   UNL A   1      38.982  29.093  27.630  1.00  0.00     0.029 A 
ATOM     49  N   UNL A   1      40.273  29.237  29.450  1.00  0.00    -0.354 N 
ATOM     50  C   UNL A   1      38.935  31.289  32.989  1.00  0.00     0.074 A 
ATOM     51  C   UNL A   1      37.611  31.844  32.803  1.00  0.00     0.031 C 
ATOM     52  C   UNL A   1      40.140  28.475  27.352  1.00  0.00     0.029 A 
ATOM     53  C   UNL A   1      41.013  28.551  28.519  1.00  0.00     0.049 A 
ATOM     54  H   UNL A   1      40.608  29.457  30.349  1.00  0.00     0.167 HD
ATOM     55  C   UNL A   1      39.665  31.420  34.122  1.00  0.00     0.037 A 
ATOM     56  C   UNL A   1      42.253  28.031  28.601  1.00  0.00     0.037 A 
ATOM     57  C   UNL A   1      40.966  30.838  34.327  1.00  0.00     0.049 A 
ATOM     58  C   UNL A   1      43.027  28.160  29.880  1.00  0.00     0.074 A 
ATOM     59  C   UNL A   1      41.751  30.856  35.468  1.00  0.00     0.029 A 
ATOM     60  N   UNL A   1      41.673  30.131  33.367  1.00  0.00    -0.354 N 
ATOM     61  N   UNL A   1      42.680  28.740  31.002  1.00  0.00    -0.248 NA
ATOM     62  C   UNL A   1      44.366  27.553  29.906  1.00  0.00     0.031 C 
ATOM     63  C   UNL A   1      42.946  30.183  35.189  1.00  0.00     0.029 A 
ATOM     64  C   UNL A   1      42.891  29.719  33.884  1.00  0.00     0.049 A 
ATOM     65  H   UNL A   1      41.356  29.948  32.454  1.00  0.00     0.167 HD
ATOM     66  C   UNL A   1      43.742  28.545  31.876  1.00  0.00     0.074 A 
ATOM     67  C   UNL A   1      44.743  27.785  31.157  1.00  0.00     0.031 C 
ATOM     68  C   UNL A   1      43.874  28.957  33.160  1.00  0.00     0.037 A 
BRANCH  55  69
ATOM     69  C   UNL A   1      39.067  32.225  35.238  1.00  0.00     0.057 A 
ATOM     70  C   UNL A   1      38.300  31.631  36.248  1.00  0.00     0.134 A 
ATOM     71  C   UNL A   1      39.287  33.607  35.319  1.00  0.00     0.134 A 
ATOM     72  F   UNL A   1      38.043  30.315  36.220  1.00  0.00    -0.206 F 
ATOM     73  C   UNL A   1      37.750  32.385  37.286  1.00  0.00     0.040 A 
ATOM     74  C   UNL A   1      38.762  34.368  36.365  1.00  0.00     0.040 A 
ATOM     75  F   UNL A   1      40.019  34.235  34.388  1.00  0.00    -0.206 F 
ATOM     76  C   UNL A   1      37.986  33.758  37.349  1.00  0.00     0.006 A 
ENDBRANCH  55  69
BRANCH  56  77
ATOM     77  C   UNL A   1      42.821  27.295  27.447  1.00  0.00     0.057 A 
ATOM     78  C   UNL A   1      42.820  25.896  27.419  1.00  0.00     0.134 A 
ATOM     79  C   UNL A   1      43.377  27.965  26.352  1.00  0.00     0.134 A 
ATOM     80  F   UNL A   1      42.316  25.201  28.450  1.00  0.00    -0.206 F 
ATOM     81  C   UNL A   1      43.364  25.186  26.349  1.00  0.00     0.040 A 
ATOM     82  C   UNL A   1      43.908  27.268  25.265  1.00  0.00     0.040 A 
ATOM     83  F   UNL A   1      43.402  29.305  26.318  1.00  0.00    -0.206 F 
ATOM     84  C   UNL A   1      43.907  25.874  25.266  1.00  0.00     0.006 A 
ENDBRANCH  56  77
BRANCH  68  85
ATOM     85  C   UNL A   1      45.131  28.565  33.874  1.00  0.00     0.057 A 
ATOM     86  C   UNL A   1      46.264  29.389  33.879  1.00  0.00     0.134 A 
ATOM     87  C   UNL A   1      45.203  27.358  34.581  1.00  0.00     0.134 A 
ATOM     88  F   UNL A   1      46.261  30.550  33.208  1.00  0.00    -0.206 F 
ATOM     89  C   UNL A   1      47.432  29.014  34.543  1.00  0.00     0.040 A 
ATOM     90  C   UNL A   1      46.359  26.982  35.265  1.00  0.00     0.040 A 
ATOM     91  F   UNL A   1      44.150  26.528  34.619  1.00  0.00    -0.206 F 
ATOM     92  C   UNL A   1      47.481  27.809  35.242  1.00  0.00     0.006 A 
ENDBRANCH  68  85
ENDBRANCH  42  43
ENDBRANCH  34  37
ENDBRANCH  32  33
ENDBRANCH  31  32
ENDBRANCH  30  31
ENDBRANCH   3  30
TORSDOF 16
ENDMDL
MODEL 3
REMARK VINA RESULT:     -11.3      3.487      7.678
REMARK SMILES CCOc1cnc(C(=O)c2[nH]c3cc(Cl)ccc3c2CC(=O)NCCCNC(=O)c2ccc(-c3c4nc(c(-c5c(F)cccc5F)c5ccc([nH]5)c(-c5c(F)cccc5F)c5nc(c(-c6c(F)cccc6F)c6ccc3[nH]6)C=C5)C=C4)cc2)cc1CC
REMARK SMILES IDX 21 1 22 2 23 3 20 5 19 6 10 7 11 8 12 9 18 11 13 12 17 13
REMARK SMILES IDX 14 14 16 15 15 16 8 17 9 18 7 19 4 20 5 21 85 22 6 23 84 24
REMARK SMILES IDX 3 25 2 26 1 27 86 28 87 29 24 30 25 31 26 32 27 33 28 34
REMARK SMILES IDX 29 36 30 37 31 38 83 39 32 40 82 41 33 42 34 43 35 44 76 45
REMARK SMILES IDX 36 46 81 47 75 48 77 49 37 50 80 51 74 52 73 53 38 55 64 56
REMARK SMILES IDX 47 57 63 58 48 59 51 60 62 61 78 62 49 63 50 64 61 66 79 67
REMARK SMILES IDX 52 68 39 69 40 70 45 71 41 72 42 73 44 74 46 75 43 76 65 77
REMARK SMILES IDX 66 78 71 79 67 80 68 81 70 82 72 83 69 84 53 85 54 86 59 87
REMARK SMILES IDX 55 88 56 89 58 90 60 91 57 92
REMARK H PARENT 23 4 11 10 27 35 77 54 51 65
REMARK Flexibility Score: inf
ROOT
ATOM      1  C   UNL A   1      35.929  22.817  26.094  1.00  0.00     0.224 C 
ATOM      2  O   UNL A   1      35.516  23.371  27.116  1.00  0.00    -0.275 OA
ATOM      3  N   UNL A   1      37.209  22.341  26.104  1.00  0.00    -0.356 N 
ATOM      4  H   UNL A   1      37.757  22.627  26.871  1.00  0.00     0.163 HD
ENDROOT
BRANCH   1   5
ATOM      5  C   UNL A   1      35.005  22.565  24.911  1.00  0.00     0.138 C 
BRANCH   5   6
ATOM      6  C   UNL A   1      33.902  21.580  25.176  1.00  0.00    -0.002 A 
ATOM      7  C   UNL A   1      32.662  21.839  25.752  1.00  0.00     0.093 A 
ATOM      8  N   UNL A   1      31.922  20.682  25.661  1.00  0.00    -0.351 N 
ATOM      9  C   UNL A   1      32.720  19.630  25.287  1.00  0.00     0.048 A 
ATOM     10  H   UNL A   1      30.956  20.618  25.840  1.00  0.00     0.167 HD
ATOM     11  C   UNL A   1      33.972  20.158  24.979  1.00  0.00     0.004 A 
ATOM     12  C   UNL A   1      32.424  18.264  25.193  1.00  0.00     0.047 A 
ATOM     13  C   UNL A   1      34.986  19.272  24.557  1.00  0.00     0.012 A 
ATOM     14  C   UNL A   1      33.451  17.412  24.779  1.00  0.00     0.043 A 
ATOM     15  C   UNL A   1      34.716  17.901  24.465  1.00  0.00     0.021 A 
ATOM     16  Cl  UNL A   1      33.143  15.721  24.660  1.00  0.00    -0.084 Cl
BRANCH   7  17
ATOM     17  C   UNL A   1      32.150  23.076  26.325  1.00  0.00     0.227 C 
ATOM     18  O   UNL A   1      31.680  23.107  27.455  1.00  0.00    -0.285 OA
BRANCH  17  19
ATOM     19  C   UNL A   1      32.239  24.333  25.481  1.00  0.00     0.113 A 
ATOM     20  C   UNL A   1      32.245  26.629  23.964  1.00  0.00     0.140 A 
ATOM     21  C   UNL A   1      31.509  25.499  23.622  1.00  0.00     0.158 A 
ATOM     22  C   UNL A   1      32.978  26.618  25.148  1.00  0.00    -0.002 A 
ATOM     23  N   UNL A   1      31.476  24.363  24.359  1.00  0.00    -0.249 NA
ATOM     24  C   UNL A   1      33.026  25.419  25.871  1.00  0.00     0.040 A 
BRANCH  20  25
ATOM     25  O   UNL A   1      32.174  27.756  23.198  1.00  0.00    -0.492 OA
BRANCH  25  26
ATOM     26  C   UNL A   1      30.947  27.825  22.456  1.00  0.00     0.226 C 
ATOM     27  C   UNL A   1      30.460  29.264  22.415  1.00  0.00     0.049 C 
ENDBRANCH  25  26
ENDBRANCH  20  25
BRANCH  22  28
ATOM     28  C   UNL A   1      33.705  27.836  25.669  1.00  0.00     0.036 C 
ATOM     29  C   UNL A   1      32.934  28.561  26.769  1.00  0.00     0.009 C 
ENDBRANCH  22  28
ENDBRANCH  17  19
ENDBRANCH   7  17
ENDBRANCH   5   6
ENDBRANCH   1   5
BRANCH   3  30
ATOM     30  C   UNL A   1      37.879  21.479  25.153  1.00  0.00     0.117 C 
BRANCH  30  31
ATOM     31  C   UNL A   1      39.290  21.083  25.581  1.00  0.00     0.042 C 
BRANCH  31  32
ATOM     32  C   UNL A   1      39.423  19.662  26.121  1.00  0.00     0.118 C 
BRANCH  32  33
ATOM     33  N   UNL A   1      40.723  19.072  25.843  1.00  0.00    -0.352 N 
ATOM     34  C   UNL A   1      41.986  19.606  25.873  1.00  0.00     0.251 C 
ATOM     35  H   UNL A   1      40.691  18.122  25.588  1.00  0.00     0.163 HD
ATOM     36  O   UNL A   1      42.918  18.937  25.433  1.00  0.00    -0.269 OA
BRANCH  34  37
ATOM     37  C   UNL A   1      42.259  20.962  26.409  1.00  0.00     0.039 A 
ATOM     38  C   UNL A   1      42.116  21.165  27.788  1.00  0.00     0.014 A 
ATOM     39  C   UNL A   1      42.566  22.049  25.585  1.00  0.00     0.014 A 
ATOM     40  C   UNL A   1      42.314  22.433  28.340  1.00  0.00     0.010 A 
ATOM     41  C   UNL A   1      42.826  23.303  26.144  1.00  0.00     0.010 A 
ATOM     42  C   UNL A   1      42.691  23.511  27.524  1.00  0.00    -0.014 A 
BRANCH  42  43
ATOM     43  C   UNL A   1      42.933  24.854  28.112  1.00  0.00     0.031 A 
ATOM     44  C   UNL A   1      44.317  25.272  28.527  1.00  0.00     0.074 A 
ATOM     45  C   UNL A   1      41.897  25.692  28.302  1.00  0.00     0.049 A 
ATOM     46  N   UNL A   1      44.715  26.402  29.056  1.00  0.00    -0.248 NA
ATOM     47  C   UNL A   1      45.391  24.285  28.344  1.00  0.00     0.031 C 
ATOM     48  C   UNL A   1      40.499  25.395  27.985  1.00  0.00     0.029 A 
ATOM     49  N   UNL A   1      41.859  26.969  28.805  1.00  0.00    -0.354 N 
ATOM     50  C   UNL A   1      46.077  26.256  29.287  1.00  0.00     0.074 A 
ATOM     51  C   UNL A   1      46.431  24.914  28.874  1.00  0.00     0.031 C 
ATOM     52  C   UNL A   1      39.745  26.469  28.273  1.00  0.00     0.029 A 
ATOM     53  C   UNL A   1      40.601  27.519  28.815  1.00  0.00     0.049 A 
ATOM     54  H   UNL A   1      42.658  27.444  29.130  1.00  0.00     0.167 HD
ATOM     55  C   UNL A   1      46.956  27.159  29.782  1.00  0.00     0.037 A 
ATOM     56  C   UNL A   1      40.185  28.739  29.207  1.00  0.00     0.037 A 
ATOM     57  C   UNL A   1      46.617  28.507  30.157  1.00  0.00     0.049 A 
ATOM     58  C   UNL A   1      41.186  29.733  29.720  1.00  0.00     0.074 A 
ATOM     59  C   UNL A   1      47.454  29.517  30.601  1.00  0.00     0.029 A 
ATOM     60  N   UNL A   1      45.335  29.033  30.132  1.00  0.00    -0.354 N 
ATOM     61  N   UNL A   1      42.481  29.602  29.868  1.00  0.00    -0.248 NA
ATOM     62  C   UNL A   1      40.666  31.051  30.113  1.00  0.00     0.031 C 
ATOM     63  C   UNL A   1      46.674  30.647  30.871  1.00  0.00     0.029 A 
ATOM     64  C   UNL A   1      45.356  30.349  30.565  1.00  0.00     0.049 A 
ATOM     65  H   UNL A   1      44.530  28.544  29.849  1.00  0.00     0.167 HD
ATOM     66  C   UNL A   1      42.935  30.826  30.344  1.00  0.00     0.074 A 
ATOM     67  C   UNL A   1      41.778  31.690  30.450  1.00  0.00     0.031 C 
ATOM     68  C   UNL A   1      44.198  31.200  30.660  1.00  0.00     0.037 A 
BRANCH  55  69
ATOM     69  C   UNL A   1      48.380  26.717  29.942  1.00  0.00     0.057 A 
ATOM     70  C   UNL A   1      48.821  26.049  31.091  1.00  0.00     0.134 A 
ATOM     71  C   UNL A   1      49.315  26.936  28.921  1.00  0.00     0.134 A 
ATOM     72  F   UNL A   1      47.978  25.820  32.109  1.00  0.00    -0.206 F 
ATOM     73  C   UNL A   1      50.147  25.636  31.232  1.00  0.00     0.040 A 
ATOM     74  C   UNL A   1      50.638  26.507  29.040  1.00  0.00     0.040 A 
ATOM     75  F   UNL A   1      48.956  27.564  27.792  1.00  0.00    -0.206 F 
ATOM     76  C   UNL A   1      51.059  25.860  30.201  1.00  0.00     0.006 A 
ENDBRANCH  55  69
BRANCH  56  77
ATOM     77  C   UNL A   1      38.755  29.105  29.084  1.00  0.00     0.057 A 
ATOM     78  C   UNL A   1      38.231  29.544  27.864  1.00  0.00     0.134 A 
ATOM     79  C   UNL A   1      37.881  29.026  30.175  1.00  0.00     0.134 A 
ATOM     80  F   UNL A   1      39.026  29.656  26.789  1.00  0.00    -0.206 F 
ATOM     81  C   UNL A   1      36.891  29.907  27.732  1.00  0.00     0.040 A 
ATOM     82  C   UNL A   1      36.533  29.369  30.054  1.00  0.00     0.040 A 
ATOM     83  F   UNL A   1      38.323  28.607  31.368  1.00  0.00    -0.206 F 
ATOM     84  C   UNL A   1      36.037  29.816  28.829  1.00  0.00     0.006 A 
ENDBRANCH  56  77
BRANCH  68  85
ATOM     85  C   UNL A   1      44.394  32.612  31.120  1.00  0.00     0.057 A 
ATOM     86  C   UNL A   1      44.641  33.654  30.217  1.00  0.00     0.134 A 
ATOM     87  C   UNL A   1      44.317  32.936  32.480  1.00  0.00     0.134 A 
ATOM     88  F   UNL A   1      44.741  33.405  28.903  1.00  0.00    -0.206 F 
ATOM     89  C   UNL A   1      44.827  34.966  30.654  1.00  0.00     0.040 A 
ATOM     90  C   UNL A   1      44.481  34.247  32.928  1.00  0.00     0.040 A 
ATOM     91  F   UNL A   1      44.078  31.984  33.394  1.00  0.00    -0.206 F 
ATOM     92  C   UNL A   1      44.743  35.266  32.013  1.00  0.00     0.006 A 
ENDBRANCH  68  85
ENDBRANCH  42  43
ENDBRANCH  34  37
ENDBRANCH  32  33
ENDBRANCH  31  32
ENDBRANCH  30  31
ENDBRANCH   3  30
TORSDOF 16
ENDMDL
