MODEL 1
REMARK VINA RESULT:     -11.4      0.000      0.000
REMARK SMILES COCC[C@@H](C)NC(=O)N1Cc2nc[nH]c2C[C@@H]1C(=O)NCCCNC(=O)c1ccc(-c2c3nc(c(-c4c(F)cccc4F)c4ccc([nH]4)c(-c4c(F)cccc4F)c4nc(c(-c5c(F)cccc5F)c5ccc2[nH]5)C=C4)C=C3)cc1
REMARK SMILES IDX 19 1 20 2 21 3 18 5 10 6 11 7 12 8 17 9 13 10 16 11 14 12
REMARK SMILES IDX 15 13 8 15 7 16 9 18 5 19 6 20 4 21 3 22 2 23 1 24 22 25
REMARK SMILES IDX 23 26 24 27 25 28 26 29 27 31 28 32 29 33 81 34 30 35 80 36
REMARK SMILES IDX 31 37 32 38 33 39 74 40 34 41 79 42 73 43 75 44 35 45 78 46
REMARK SMILES IDX 72 47 71 48 36 50 62 51 45 52 61 53 46 54 49 55 60 56 76 57
REMARK SMILES IDX 47 58 48 59 59 61 77 62 50 63 37 64 38 65 43 66 39 67 40 68
REMARK SMILES IDX 42 69 44 70 41 71 63 72 64 73 69 74 65 75 66 76 68 77 70 78
REMARK SMILES IDX 67 79 51 80 52 81 57 82 53 83 54 84 56 85 58 86 55 87
REMARK H PARENT 21 4 15 14 7 17 25 30 75 49 49 60
REMARK Flexibility Score: inf
ROOT
ATOM      1  C   UNL A   1      35.751  23.327  23.871  1.00  0.00     0.243 C 
ATOM      2  O   UNL A   1      35.652  23.455  22.647  1.00  0.00    -0.273 OA
ATOM      3  N   UNL A   1      36.901  22.750  24.335  1.00  0.00    -0.354 N 
ATOM      4  H   UNL A   1      37.510  22.444  23.624  1.00  0.00     0.163 HD
ENDROOT
BRANCH   1   5
ATOM      5  C   UNL A   1      34.643  23.806  24.829  1.00  0.00     0.182 C 
ATOM      6  N   UNL A   1      33.376  23.004  24.979  1.00  0.00    -0.306 N 
ATOM      7  C   UNL A   1      32.432  23.506  26.012  1.00  0.00     0.180 C 
ATOM      8  C   UNL A   1      32.413  25.000  26.028  1.00  0.00     0.081 A 
ATOM      9  C   UNL A   1      34.347  25.283  24.424  1.00  0.00     0.091 C 
ATOM     10  N   UNL A   1      31.595  25.776  26.805  1.00  0.00    -0.240 NA
ATOM     11  C   UNL A   1      33.288  25.792  25.322  1.00  0.00     0.042 A 
ATOM     12  C   UNL A   1      31.939  27.018  26.533  1.00  0.00     0.197 A 
ATOM     13  N   UNL A   1      32.969  27.078  25.630  1.00  0.00    -0.348 N 
ATOM     14  H   UNL A   1      33.394  27.892  25.274  1.00  0.00     0.167 HD
BRANCH   6  15
ATOM     15  C   UNL A   1      32.772  22.421  23.888  1.00  0.00     0.318 C 
ATOM     16  N   UNL A   1      32.772  21.062  23.827  1.00  0.00    -0.335 N 
ATOM     17  H   UNL A   1      32.455  20.680  22.976  1.00  0.00     0.165 HD
ATOM     18  O   UNL A   1      32.112  23.044  23.060  1.00  0.00    -0.249 OA
BRANCH  16  19
ATOM     19  C   UNL A   1      33.171  20.087  24.835  1.00  0.00     0.083 C 
ATOM     20  C   UNL A   1      34.695  19.959  24.845  1.00  0.00     0.031 C 
BRANCH  19  21
ATOM     21  C   UNL A   1      32.473  18.732  24.603  1.00  0.00     0.053 C 
BRANCH  21  22
ATOM     22  C   UNL A   1      32.450  18.323  23.124  1.00  0.00     0.162 C 
BRANCH  22  23
ATOM     23  O   UNL A   1      32.964  17.047  22.742  1.00  0.00    -0.385 OA
ATOM     24  C   UNL A   1      34.279  16.692  23.119  1.00  0.00     0.194 C 
ENDBRANCH  22  23
ENDBRANCH  21  22
ENDBRANCH  19  21
ENDBRANCH  16  19
ENDBRANCH   6  15
ENDBRANCH   1   5
BRANCH   3  25
ATOM     25  C   UNL A   1      37.400  22.501  25.689  1.00  0.00     0.117 C 
BRANCH  25  26
ATOM     26  C   UNL A   1      38.617  21.573  25.732  1.00  0.00     0.042 C 
BRANCH  26  27
ATOM     27  C   UNL A   1      39.773  22.154  26.518  1.00  0.00     0.118 C 
BRANCH  27  28
ATOM     28  N   UNL A   1      41.075  22.203  25.878  1.00  0.00    -0.352 N 
ATOM     29  C   UNL A   1      41.980  23.254  25.837  1.00  0.00     0.251 C 
ATOM     30  H   UNL A   1      41.353  21.382  25.410  1.00  0.00     0.163 HD
ATOM     31  O   UNL A   1      43.023  23.118  25.192  1.00  0.00    -0.269 OA
BRANCH  29  32
ATOM     32  C   UNL A   1      41.720  24.543  26.539  1.00  0.00     0.039 A 
ATOM     33  C   UNL A   1      40.951  25.555  25.947  1.00  0.00     0.014 A 
ATOM     34  C   UNL A   1      42.252  24.782  27.802  1.00  0.00     0.014 A 
ATOM     35  C   UNL A   1      40.793  26.775  26.613  1.00  0.00     0.010 A 
ATOM     36  C   UNL A   1      41.876  25.845  28.558  1.00  0.00     0.010 A 
ATOM     37  C   UNL A   1      41.303  26.911  27.908  1.00  0.00    -0.014 A 
BRANCH  37  38
ATOM     38  C   UNL A   1      41.279  28.139  28.676  1.00  0.00     0.031 A 
ATOM     39  C   UNL A   1      42.379  29.063  28.355  1.00  0.00     0.074 A 
ATOM     40  C   UNL A   1      40.187  28.538  29.370  1.00  0.00     0.049 A 
ATOM     41  N   UNL A   1      43.385  29.367  29.100  1.00  0.00    -0.248 NA
ATOM     42  C   UNL A   1      42.456  29.593  26.985  1.00  0.00     0.031 C 
ATOM     43  C   UNL A   1      38.858  27.907  29.443  1.00  0.00     0.029 A 
ATOM     44  N   UNL A   1      40.008  29.679  30.085  1.00  0.00    -0.354 N 
ATOM     45  C   UNL A   1      44.107  30.307  28.376  1.00  0.00     0.074 A 
ATOM     46  C   UNL A   1      43.628  30.228  27.023  1.00  0.00     0.031 C 
ATOM     47  C   UNL A   1      37.972  28.772  29.985  1.00  0.00     0.029 A 
ATOM     48  C   UNL A   1      38.692  29.944  30.445  1.00  0.00     0.049 A 
ATOM     49  H   UNL A   1      40.754  30.274  30.328  1.00  0.00     0.167 HD
ATOM     50  C   UNL A   1      44.832  31.264  29.017  1.00  0.00     0.037 A 
ATOM     51  C   UNL A   1      38.235  31.064  31.055  1.00  0.00     0.037 A 
ATOM     52  C   UNL A   1      45.011  30.927  30.412  1.00  0.00     0.049 A 
ATOM     53  C   UNL A   1      39.408  31.739  31.667  1.00  0.00     0.074 A 
ATOM     54  C   UNL A   1      45.553  29.852  31.091  1.00  0.00     0.029 A 
ATOM     55  N   UNL A   1      44.231  31.590  31.329  1.00  0.00    -0.354 N 
ATOM     56  N   UNL A   1      40.086  31.255  32.670  1.00  0.00    -0.248 NA
ATOM     57  C   UNL A   1      40.104  32.737  30.869  1.00  0.00     0.031 C 
ATOM     58  C   UNL A   1      44.703  29.659  32.220  1.00  0.00     0.029 A 
ATOM     59  C   UNL A   1      43.730  30.660  32.202  1.00  0.00     0.049 A 
ATOM     60  H   UNL A   1      44.063  32.561  31.355  1.00  0.00     0.167 HD
ATOM     61  C   UNL A   1      41.411  31.551  32.378  1.00  0.00     0.074 A 
ATOM     62  C   UNL A   1      41.349  32.549  31.314  1.00  0.00     0.031 C 
ATOM     63  C   UNL A   1      42.424  30.749  32.819  1.00  0.00     0.037 A 
BRANCH  50  64
ATOM     64  C   UNL A   1      45.030  32.669  28.501  1.00  0.00     0.057 A 
ATOM     65  C   UNL A   1      43.899  33.485  28.324  1.00  0.00     0.134 A 
ATOM     66  C   UNL A   1      46.215  33.158  27.912  1.00  0.00     0.134 A 
ATOM     67  F   UNL A   1      42.709  33.132  28.834  1.00  0.00    -0.206 F 
ATOM     68  C   UNL A   1      43.923  34.644  27.540  1.00  0.00     0.040 A 
ATOM     69  C   UNL A   1      46.262  34.344  27.174  1.00  0.00     0.040 A 
ATOM     70  F   UNL A   1      47.367  32.479  27.922  1.00  0.00    -0.206 F 
ATOM     71  C   UNL A   1      45.107  35.072  26.954  1.00  0.00     0.006 A 
ENDBRANCH  50  64
BRANCH  51  72
ATOM     72  C   UNL A   1      36.919  31.730  30.922  1.00  0.00     0.057 A 
ATOM     73  C   UNL A   1      36.052  31.860  32.016  1.00  0.00     0.134 A 
ATOM     74  C   UNL A   1      36.600  32.496  29.787  1.00  0.00     0.134 A 
ATOM     75  F   UNL A   1      36.294  31.200  33.158  1.00  0.00    -0.206 F 
ATOM     76  C   UNL A   1      34.945  32.720  31.992  1.00  0.00     0.040 A 
ATOM     77  C   UNL A   1      35.496  33.355  29.748  1.00  0.00     0.040 A 
ATOM     78  F   UNL A   1      37.401  32.505  28.712  1.00  0.00    -0.206 F 
ATOM     79  C   UNL A   1      34.671  33.481  30.859  1.00  0.00     0.006 A 
ENDBRANCH  51  72
BRANCH  63  80
ATOM     80  C   UNL A   1      42.099  29.703  33.851  1.00  0.00     0.057 A 
ATOM     81  C   UNL A   1      41.743  28.380  33.547  1.00  0.00     0.134 A 
ATOM     82  C   UNL A   1      42.315  30.002  35.200  1.00  0.00     0.134 A 
ATOM     83  F   UNL A   1      41.604  27.971  32.280  1.00  0.00    -0.206 F 
ATOM     84  C   UNL A   1      41.580  27.411  34.542  1.00  0.00     0.040 A 
ATOM     85  C   UNL A   1      42.187  29.037  36.201  1.00  0.00     0.040 A 
ATOM     86  F   UNL A   1      42.708  31.233  35.564  1.00  0.00    -0.206 F 
ATOM     87  C   UNL A   1      41.812  27.736  35.874  1.00  0.00     0.006 A 
ENDBRANCH  63  80
ENDBRANCH  37  38
ENDBRANCH  29  32
ENDBRANCH  27  28
ENDBRANCH  26  27
ENDBRANCH  25  26
ENDBRANCH   3  25
TORSDOF 15
ENDMDL
MODEL 2
REMARK VINA RESULT:     -11.3      3.161      8.013
REMARK SMILES COCC[C@@H](C)NC(=O)N1Cc2nc[nH]c2C[C@@H]1C(=O)NCCCNC(=O)c1ccc(-c2c3nc(c(-c4c(F)cccc4F)c4ccc([nH]4)c(-c4c(F)cccc4F)c4nc(c(-c5c(F)cccc5F)c5ccc2[nH]5)C=C4)C=C3)cc1
REMARK SMILES IDX 19 1 20 2 21 3 18 5 10 6 11 7 12 8 17 9 13 10 16 11 14 12
REMARK SMILES IDX 15 13 8 15 7 16 9 18 5 19 6 20 4 21 3 22 2 23 1 24 22 25
REMARK SMILES IDX 23 26 24 27 25 28 26 29 27 31 28 32 29 33 81 34 30 35 80 36
REMARK SMILES IDX 31 37 32 38 33 39 74 40 34 41 79 42 73 43 75 44 35 45 78 46
REMARK SMILES IDX 72 47 71 48 36 50 62 51 45 52 61 53 46 54 49 55 60 56 76 57
REMARK SMILES IDX 47 58 48 59 59 61 77 62 50 63 37 64 38 65 43 66 39 67 40 68
REMARK SMILES IDX 42 69 44 70 41 71 63 72 64 73 69 74 65 75 66 76 68 77 70 78
REMARK SMILES IDX 67 79 51 80 52 81 57 82 53 83 54 84 56 85 58 86 55 87
REMARK H PARENT 21 4 15 14 7 17 25 30 75 49 49 60
REMARK Flexibility Score: inf
ROOT
ATOM      1  C   UNL A   1      31.862  27.660  26.516  1.00  0.00     0.243 C 
ATOM      2  O   UNL A   1      31.553  26.689  27.213  1.00  0.00    -0.273 OA
ATOM      3  N   UNL A   1      32.803  28.508  27.032  1.00  0.00    -0.354 N 
ATOM      4  H   UNL A   1      33.094  28.276  27.943  1.00  0.00     0.163 HD
ENDROOT
BRANCH   1   5
ATOM      5  C   UNL A   1      31.231  27.898  25.131  1.00  0.00     0.182 C 
ATOM      6  N   UNL A   1      31.891  27.341  23.895  1.00  0.00    -0.306 N 
ATOM      7  C   UNL A   1      31.131  27.540  22.632  1.00  0.00     0.180 C 
ATOM      8  C   UNL A   1      30.466  28.879  22.622  1.00  0.00     0.081 A 
ATOM      9  C   UNL A   1      31.017  29.439  25.026  1.00  0.00     0.091 C 
ATOM     10  N   UNL A   1      29.756  29.405  21.576  1.00  0.00    -0.240 NA
ATOM     11  C   UNL A   1      30.406  29.720  23.709  1.00  0.00     0.042 A 
ATOM     12  C   UNL A   1      29.318  30.570  22.010  1.00  0.00     0.197 A 
ATOM     13  N   UNL A   1      29.692  30.807  23.308  1.00  0.00    -0.348 N 
ATOM     14  H   UNL A   1      29.484  31.606  23.844  1.00  0.00     0.167 HD
BRANCH   6  15
ATOM     15  C   UNL A   1      33.259  27.366  23.749  1.00  0.00     0.318 C 
ATOM     16  N   UNL A   1      33.941  26.234  24.075  1.00  0.00    -0.335 N 
ATOM     17  H   UNL A   1      34.922  26.325  24.090  1.00  0.00     0.165 HD
ATOM     18  O   UNL A   1      33.871  28.282  23.207  1.00  0.00    -0.249 OA
BRANCH  16  19
ATOM     19  C   UNL A   1      33.436  24.908  24.407  1.00  0.00     0.083 C 
ATOM     20  C   UNL A   1      33.961  24.490  25.781  1.00  0.00     0.031 C 
BRANCH  19  21
ATOM     21  C   UNL A   1      33.797  23.887  23.309  1.00  0.00     0.053 C 
BRANCH  21  22
ATOM     22  C   UNL A   1      33.022  24.119  22.006  1.00  0.00     0.162 C 
BRANCH  22  23
ATOM     23  O   UNL A   1      33.398  25.197  21.149  1.00  0.00    -0.385 OA
ATOM     24  C   UNL A   1      32.612  25.479  20.009  1.00  0.00     0.194 C 
ENDBRANCH  22  23
ENDBRANCH  21  22
ENDBRANCH  19  21
ENDBRANCH  16  19
ENDBRANCH   6  15
ENDBRANCH   1   5
BRANCH   3  25
ATOM     25  C   UNL A   1      33.460  29.697  26.484  1.00  0.00     0.117 C 
BRANCH  25  26
ATOM     26  C   UNL A   1      33.179  30.973  27.283  1.00  0.00     0.042 C 
BRANCH  26  27
ATOM     27  C   UNL A   1      34.433  31.603  27.849  1.00  0.00     0.118 C 
BRANCH  27  28
ATOM     28  N   UNL A   1      34.371  32.163  29.186  1.00  0.00    -0.352 N 
ATOM     29  C   UNL A   1      35.240  31.964  30.250  1.00  0.00     0.251 C 
ATOM     30  H   UNL A   1      33.610  32.763  29.364  1.00  0.00     0.163 HD
ATOM     31  O   UNL A   1      34.985  32.493  31.335  1.00  0.00    -0.269 OA
BRANCH  29  32
ATOM     32  C   UNL A   1      36.462  31.120  30.119  1.00  0.00     0.039 A 
ATOM     33  C   UNL A   1      36.394  29.721  30.190  1.00  0.00     0.014 A 
ATOM     34  C   UNL A   1      37.710  31.704  29.936  1.00  0.00     0.014 A 
ATOM     35  C   UNL A   1      37.575  28.973  30.133  1.00  0.00     0.010 A 
ATOM     36  C   UNL A   1      38.810  30.978  29.609  1.00  0.00     0.010 A 
ATOM     37  C   UNL A   1      38.783  29.633  29.882  1.00  0.00    -0.014 A 
BRANCH  37  38
ATOM     38  C   UNL A   1      40.082  28.993  29.877  1.00  0.00     0.031 A 
ATOM     39  C   UNL A   1      40.672  28.832  31.216  1.00  0.00     0.074 A 
ATOM     40  C   UNL A   1      40.554  28.321  28.800  1.00  0.00     0.049 A 
ATOM     41  N   UNL A   1      41.689  29.456  31.701  1.00  0.00    -0.248 NA
ATOM     42  C   UNL A   1      39.953  27.994  32.189  1.00  0.00     0.031 C 
ATOM     43  C   UNL A   1      39.886  28.046  27.517  1.00  0.00     0.029 A 
ATOM     44  N   UNL A   1      41.721  27.637  28.674  1.00  0.00    -0.354 N 
ATOM     45  C   UNL A   1      41.878  28.920  32.968  1.00  0.00     0.074 A 
ATOM     46  C   UNL A   1      40.667  28.217  33.293  1.00  0.00     0.031 C 
ATOM     47  C   UNL A   1      40.570  27.096  26.841  1.00  0.00     0.029 A 
ATOM     48  C   UNL A   1      41.800  26.815  27.557  1.00  0.00     0.049 A 
ATOM     49  H   UNL A   1      42.455  27.718  29.326  1.00  0.00     0.167 HD
ATOM     50  C   UNL A   1      43.122  28.866  33.517  1.00  0.00     0.037 A 
ATOM     51  C   UNL A   1      42.800  25.948  27.264  1.00  0.00     0.037 A 
ATOM     52  C   UNL A   1      44.041  29.718  32.795  1.00  0.00     0.049 A 
ATOM     53  C   UNL A   1      43.977  26.348  28.076  1.00  0.00     0.074 A 
ATOM     54  C   UNL A   1      44.078  31.063  32.482  1.00  0.00     0.029 A 
ATOM     55  N   UNL A   1      44.923  29.112  31.932  1.00  0.00    -0.354 N 
ATOM     56  N   UNL A   1      44.643  27.455  27.898  1.00  0.00    -0.248 NA
ATOM     57  C   UNL A   1      44.136  25.729  29.383  1.00  0.00     0.031 C 
ATOM     58  C   UNL A   1      44.602  31.122  31.157  1.00  0.00     0.029 A 
ATOM     59  C   UNL A   1      44.913  29.821  30.759  1.00  0.00     0.049 A 
ATOM     60  H   UNL A   1      45.465  28.312  32.123  1.00  0.00     0.167 HD
ATOM     61  C   UNL A   1      44.948  27.895  29.179  1.00  0.00     0.074 A 
ATOM     62  C   UNL A   1      44.701  26.744  30.043  1.00  0.00     0.031 C 
ATOM     63  C   UNL A   1      45.087  29.226  29.451  1.00  0.00     0.037 A 
BRANCH  50  64
ATOM     64  C   UNL A   1      43.602  27.763  34.429  1.00  0.00     0.057 A 
ATOM     65  C   UNL A   1      43.686  26.456  33.916  1.00  0.00     0.134 A 
ATOM     66  C   UNL A   1      43.711  27.858  35.832  1.00  0.00     0.134 A 
ATOM     67  F   UNL A   1      43.596  26.227  32.596  1.00  0.00    -0.206 F 
ATOM     68  C   UNL A   1      43.773  25.328  34.740  1.00  0.00     0.040 A 
ATOM     69  C   UNL A   1      43.855  26.742  36.660  1.00  0.00     0.040 A 
ATOM     70  F   UNL A   1      43.584  29.013  36.495  1.00  0.00    -0.206 F 
ATOM     71  C   UNL A   1      43.848  25.469  36.119  1.00  0.00     0.006 A 
ENDBRANCH  50  64
BRANCH  51  72
ATOM     72  C   UNL A   1      42.735  24.655  26.547  1.00  0.00     0.057 A 
ATOM     73  C   UNL A   1      43.510  24.412  25.404  1.00  0.00     0.134 A 
ATOM     74  C   UNL A   1      42.119  23.530  27.125  1.00  0.00     0.134 A 
ATOM     75  F   UNL A   1      44.169  25.414  24.805  1.00  0.00    -0.206 F 
ATOM     76  C   UNL A   1      43.683  23.124  24.880  1.00  0.00     0.040 A 
ATOM     77  C   UNL A   1      42.279  22.240  26.609  1.00  0.00     0.040 A 
ATOM     78  F   UNL A   1      41.416  23.636  28.262  1.00  0.00    -0.206 F 
ATOM     79  C   UNL A   1      43.076  22.030  25.490  1.00  0.00     0.006 A 
ENDBRANCH  51  72
BRANCH  63  80
ATOM     80  C   UNL A   1      45.179  30.178  28.289  1.00  0.00     0.057 A 
ATOM     81  C   UNL A   1      44.078  30.838  27.723  1.00  0.00     0.134 A 
ATOM     82  C   UNL A   1      46.445  30.565  27.838  1.00  0.00     0.134 A 
ATOM     83  F   UNL A   1      42.832  30.605  28.152  1.00  0.00    -0.206 F 
ATOM     84  C   UNL A   1      44.229  31.814  26.733  1.00  0.00     0.040 A 
ATOM     85  C   UNL A   1      46.613  31.561  26.873  1.00  0.00     0.040 A 
ATOM     86  F   UNL A   1      47.548  30.016  28.370  1.00  0.00    -0.206 F 
ATOM     87  C   UNL A   1      45.502  32.185  26.312  1.00  0.00     0.006 A 
ENDBRANCH  63  80
ENDBRANCH  37  38
ENDBRANCH  29  32
ENDBRANCH  27  28
ENDBRANCH  26  27
ENDBRANCH  25  26
ENDBRANCH   3  25
TORSDOF 15
ENDMDL
MODEL 3
REMARK VINA RESULT:     -11.2      1.381      3.285
REMARK SMILES COCC[C@@H](C)NC(=O)N1Cc2nc[nH]c2C[C@@H]1C(=O)NCCCNC(=O)c1ccc(-c2c3nc(c(-c4c(F)cccc4F)c4ccc([nH]4)c(-c4c(F)cccc4F)c4nc(c(-c5c(F)cccc5F)c5ccc2[nH]5)C=C4)C=C3)cc1
REMARK SMILES IDX 19 1 20 2 21 3 18 5 10 6 11 7 12 8 17 9 13 10 16 11 14 12
REMARK SMILES IDX 15 13 8 15 7 16 9 18 5 19 6 20 4 21 3 22 2 23 1 24 22 25
REMARK SMILES IDX 23 26 24 27 25 28 26 29 27 31 28 32 29 33 81 34 30 35 80 36
REMARK SMILES IDX 31 37 32 38 33 39 74 40 34 41 79 42 73 43 75 44 35 45 78 46
REMARK SMILES IDX 72 47 71 48 36 50 62 51 45 52 61 53 46 54 49 55 60 56 76 57
REMARK SMILES IDX 47 58 48 59 59 61 77 62 50 63 37 64 38 65 43 66 39 67 40 68
REMARK SMILES IDX 42 69 44 70 41 71 63 72 64 73 69 74 65 75 66 76 68 77 70 78
REMARK SMILES IDX 67 79 51 80 52 81 57 82 53 83 54 84 56 85 58 86 55 87
REMARK H PARENT 21 4 15 14 7 17 25 30 75 49 49 60
REMARK Flexibility Score: inf
ROOT
ATOM      1  C   UNL A   1      34.682  23.050  26.168  1.00  0.00     0.243 C 
ATOM      2  O   UNL A   1      33.975  23.871  26.759  1.00  0.00    -0.273 OA
ATOM      3  N   UNL A   1      36.034  23.251  26.227  1.00  0.00    -0.354 N 
ATOM      4  H   UNL A   1      36.295  24.076  26.696  1.00  0.00     0.163 HD
ENDROOT
BRANCH   1   5
ATOM      5  C   UNL A   1      34.075  21.851  25.415  1.00  0.00     0.182 C 
ATOM      6  N   UNL A   1      32.973  22.069  24.409  1.00  0.00    -0.306 N 
ATOM      7  C   UNL A   1      32.548  20.853  23.668  1.00  0.00     0.180 C 
ATOM      8  C   UNL A   1      32.555  19.658  24.566  1.00  0.00     0.081 A 
ATOM      9  C   UNL A   1      33.656  20.830  26.517  1.00  0.00     0.091 C 
ATOM     10  N   UNL A   1      32.141  18.400  24.218  1.00  0.00    -0.240 NA
ATOM     11  C   UNL A   1      33.069  19.653  25.841  1.00  0.00     0.042 A 
ATOM     12  C   UNL A   1      32.356  17.660  25.286  1.00  0.00     0.197 A 
ATOM     13  N   UNL A   1      32.921  18.382  26.305  1.00  0.00    -0.348 N 
ATOM     14  H   UNL A   1      33.171  18.047  27.196  1.00  0.00     0.167 HD
BRANCH   6  15
ATOM     15  C   UNL A   1      31.965  22.976  24.648  1.00  0.00     0.318 C 
ATOM     16  N   UNL A   1      32.045  24.178  24.015  1.00  0.00    -0.335 N 
ATOM     17  H   UNL A   1      31.387  24.851  24.307  1.00  0.00     0.165 HD
ATOM     18  O   UNL A   1      30.940  22.708  25.268  1.00  0.00    -0.249 OA
BRANCH  16  19
ATOM     19  C   UNL A   1      32.960  24.617  22.968  1.00  0.00     0.083 C 
ATOM     20  C   UNL A   1      33.999  25.567  23.565  1.00  0.00     0.031 C 
BRANCH  19  21
ATOM     21  C   UNL A   1      32.192  25.255  21.793  1.00  0.00     0.053 C 
BRANCH  21  22
ATOM     22  C   UNL A   1      31.513  26.577  22.177  1.00  0.00     0.162 C 
BRANCH  22  23
ATOM     23  O   UNL A   1      30.604  26.605  23.277  1.00  0.00    -0.385 OA
ATOM     24  C   UNL A   1      30.600  27.724  24.140  1.00  0.00     0.194 C 
ENDBRANCH  22  23
ENDBRANCH  21  22
ENDBRANCH  19  21
ENDBRANCH  16  19
ENDBRANCH   6  15
ENDBRANCH   1   5
BRANCH   3  25
ATOM     25  C   UNL A   1      37.167  22.472  25.724  1.00  0.00     0.117 C 
BRANCH  25  26
ATOM     26  C   UNL A   1      38.525  23.133  25.977  1.00  0.00     0.042 C 
BRANCH  26  27
ATOM     27  C   UNL A   1      39.552  22.173  26.535  1.00  0.00     0.118 C 
BRANCH  27  28
ATOM     28  N   UNL A   1      40.875  22.167  25.937  1.00  0.00    -0.352 N 
ATOM     29  C   UNL A   1      41.815  23.188  25.906  1.00  0.00     0.251 C 
ATOM     30  H   UNL A   1      41.140  21.329  25.493  1.00  0.00     0.163 HD
ATOM     31  O   UNL A   1      42.872  23.005  25.297  1.00  0.00    -0.269 OA
BRANCH  29  32
ATOM     32  C   UNL A   1      41.575  24.498  26.575  1.00  0.00     0.039 A 
ATOM     33  C   UNL A   1      40.954  25.559  25.901  1.00  0.00     0.014 A 
ATOM     34  C   UNL A   1      41.979  24.706  27.889  1.00  0.00     0.014 A 
ATOM     35  C   UNL A   1      40.813  26.793  26.546  1.00  0.00     0.010 A 
ATOM     36  C   UNL A   1      41.602  25.801  28.599  1.00  0.00     0.010 A 
ATOM     37  C   UNL A   1      41.186  26.901  27.890  1.00  0.00    -0.014 A 
BRANCH  37  38
ATOM     38  C   UNL A   1      41.168  28.133  28.650  1.00  0.00     0.031 A 
ATOM     39  C   UNL A   1      42.262  29.058  28.312  1.00  0.00     0.074 A 
ATOM     40  C   UNL A   1      40.083  28.534  29.354  1.00  0.00     0.049 A 
ATOM     41  N   UNL A   1      43.276  29.368  29.044  1.00  0.00    -0.248 NA
ATOM     42  C   UNL A   1      42.323  29.579  26.937  1.00  0.00     0.031 C 
ATOM     43  C   UNL A   1      38.756  27.902  29.446  1.00  0.00     0.029 A 
ATOM     44  N   UNL A   1      39.910  29.680  30.064  1.00  0.00    -0.354 N 
ATOM     45  C   UNL A   1      43.988  30.305  28.306  1.00  0.00     0.074 A 
ATOM     46  C   UNL A   1      43.495  30.216  26.959  1.00  0.00     0.031 C 
ATOM     47  C   UNL A   1      37.874  28.768  29.993  1.00  0.00     0.029 A 
ATOM     48  C   UNL A   1      38.598  29.944  30.438  1.00  0.00     0.049 A 
ATOM     49  H   UNL A   1      40.657  30.277  30.295  1.00  0.00     0.167 HD
ATOM     50  C   UNL A   1      44.719  31.266  28.933  1.00  0.00     0.037 A 
ATOM     51  C   UNL A   1      38.145  31.067  31.046  1.00  0.00     0.037 A 
ATOM     52  C   UNL A   1      44.914  30.938  30.328  1.00  0.00     0.049 A 
ATOM     53  C   UNL A   1      39.323  31.748  31.641  1.00  0.00     0.074 A 
ATOM     54  C   UNL A   1      45.465  29.869  31.007  1.00  0.00     0.029 A 
ATOM     55  N   UNL A   1      44.143  31.605  31.250  1.00  0.00    -0.354 N 
ATOM     56  N   UNL A   1      40.014  31.271  32.639  1.00  0.00    -0.248 NA
ATOM     57  C   UNL A   1      40.009  32.742  30.829  1.00  0.00     0.031 C 
ATOM     58  C   UNL A   1      44.628  29.681  32.147  1.00  0.00     0.029 A 
ATOM     59  C   UNL A   1      43.654  30.680  32.134  1.00  0.00     0.049 A 
ATOM     60  H   UNL A   1      43.974  32.576  31.272  1.00  0.00     0.167 HD
ATOM     61  C   UNL A   1      41.334  31.567  32.331  1.00  0.00     0.074 A 
ATOM     62  C   UNL A   1      41.259  32.559  31.261  1.00  0.00     0.031 C 
ATOM     63  C   UNL A   1      42.354  30.770  32.765  1.00  0.00     0.037 A 
BRANCH  50  64
ATOM     64  C   UNL A   1      44.909  32.669  28.407  1.00  0.00     0.057 A 
ATOM     65  C   UNL A   1      46.218  33.134  28.192  1.00  0.00     0.134 A 
ATOM     66  C   UNL A   1      43.911  33.666  28.373  1.00  0.00     0.134 A 
ATOM     67  F   UNL A   1      47.259  32.287  28.201  1.00  0.00    -0.206 F 
ATOM     68  C   UNL A   1      46.520  34.493  28.052  1.00  0.00     0.040 A 
ATOM     69  C   UNL A   1      44.196  35.019  28.177  1.00  0.00     0.040 A 
ATOM     70  F   UNL A   1      42.622  33.414  28.625  1.00  0.00    -0.206 F 
ATOM     71  C   UNL A   1      45.507  35.442  28.054  1.00  0.00     0.006 A 
ENDBRANCH  50  64
BRANCH  51  72
ATOM     72  C   UNL A   1      36.826  31.729  30.924  1.00  0.00     0.057 A 
ATOM     73  C   UNL A   1      36.016  31.957  32.045  1.00  0.00     0.134 A 
ATOM     74  C   UNL A   1      36.454  32.401  29.746  1.00  0.00     0.134 A 
ATOM     75  F   UNL A   1      36.314  31.393  33.224  1.00  0.00    -0.206 F 
ATOM     76  C   UNL A   1      34.913  32.821  32.004  1.00  0.00     0.040 A 
ATOM     77  C   UNL A   1      35.352  33.262  29.690  1.00  0.00     0.040 A 
ATOM     78  F   UNL A   1      37.199  32.314  28.635  1.00  0.00    -0.206 F 
ATOM     79  C   UNL A   1      34.585  33.487  30.826  1.00  0.00     0.006 A 
ENDBRANCH  51  72
BRANCH  63  80
ATOM     80  C   UNL A   1      42.042  29.730  33.807  1.00  0.00     0.057 A 
ATOM     81  C   UNL A   1      41.679  28.406  33.515  1.00  0.00     0.134 A 
ATOM     82  C   UNL A   1      42.280  30.035  35.151  1.00  0.00     0.134 A 
ATOM     83  F   UNL A   1      41.519  27.992  32.252  1.00  0.00    -0.206 F 
ATOM     84  C   UNL A   1      41.529  27.442  34.516  1.00  0.00     0.040 A 
ATOM     85  C   UNL A   1      42.166  29.074  36.158  1.00  0.00     0.040 A 
ATOM     86  F   UNL A   1      42.682  31.267  35.503  1.00  0.00    -0.206 F 
ATOM     87  C   UNL A   1      41.782  27.773  35.843  1.00  0.00     0.006 A 
ENDBRANCH  63  80
ENDBRANCH  37  38
ENDBRANCH  29  32
ENDBRANCH  27  28
ENDBRANCH  26  27
ENDBRANCH  25  26
ENDBRANCH   3  25
TORSDOF 15
ENDMDL
