MODEL 1
REMARK VINA RESULT:     -12.3      0.000      0.000
REMARK SMILES CN(C)S(=O)(=O)c1cccc(-c2cc(Cl)cc(C(=O)NCCCNC(=O)c3ccc(-c4c5nc(c(-c6c(F)cccc6F)c6ccc([nH]6)c(-c6c(F)cccc6F)c6nc(c(-c7c(F)cccc7F)c7ccc4[nH]7)C=C6)C=C5)cc3)c2)c1
REMARK SMILES IDX 21 1 20 2 18 3 19 4 17 6 12 7 13 8 81 9 14 10 15 11 16 12
REMARK SMILES IDX 11 13 7 14 8 15 82 16 9 17 10 18 4 19 5 20 6 21 2 22 1 23
REMARK SMILES IDX 3 24 22 25 23 26 24 27 25 28 26 30 27 31 28 32 80 33 29 34
REMARK SMILES IDX 79 35 30 36 31 37 32 38 73 39 33 40 78 41 72 42 74 43 34 44
REMARK SMILES IDX 77 45 71 46 70 47 35 49 61 50 44 51 60 52 45 53 48 54 59 55
REMARK SMILES IDX 75 56 46 57 47 58 58 60 76 61 49 62 36 63 37 64 42 65 38 66
REMARK SMILES IDX 39 67 41 68 43 69 40 70 62 71 63 72 68 73 64 74 65 75 67 76
REMARK SMILES IDX 69 77 66 78 50 79 51 80 56 81 52 82 53 83 55 84 57 85 54 86
REMARK H PARENT 20 5 24 29 74 48 48 59
REMARK Flexibility Score: inf
ROOT
ATOM      1  C   UNL A   1      32.735  26.368  25.214  1.00  0.00     0.118 C 
ENDROOT
BRANCH   1   2
ATOM      2  N   UNL A   1      33.171  26.070  23.854  1.00  0.00    -0.352 N 
ATOM      3  C   UNL A   1      33.847  25.015  23.281  1.00  0.00     0.251 C 
ATOM      4  O   UNL A   1      34.094  25.078  22.077  1.00  0.00    -0.269 OA
ATOM      5  H   UNL A   1      32.931  26.773  23.207  1.00  0.00     0.163 HD
BRANCH   3   6
ATOM      6  C   UNL A   1      34.348  23.848  24.055  1.00  0.00     0.041 A 
ATOM      7  C   UNL A   1      36.139  22.758  25.303  1.00  0.00    -0.016 A 
ATOM      8  C   UNL A   1      35.467  21.537  25.163  1.00  0.00     0.029 A 
ATOM      9  C   UNL A   1      35.476  23.917  24.870  1.00  0.00     0.022 A 
ATOM     10  C   UNL A   1      34.231  21.484  24.515  1.00  0.00     0.042 A 
ATOM     11  Cl  UNL A   1      33.410  19.977  24.375  1.00  0.00    -0.084 Cl
ATOM     12  C   UNL A   1      33.691  22.622  23.920  1.00  0.00     0.034 A 
BRANCH   7  13
ATOM     13  C   UNL A   1      37.566  22.851  25.680  1.00  0.00    -0.017 A 
ATOM     14  C   UNL A   1      39.657  21.801  26.363  1.00  0.00     0.083 A 
ATOM     15  C   UNL A   1      40.151  23.017  26.835  1.00  0.00     0.022 A 
ATOM     16  C   UNL A   1      38.390  21.717  25.769  1.00  0.00     0.030 A 
ATOM     17  C   UNL A   1      39.363  24.158  26.722  1.00  0.00     0.002 A 
ATOM     18  C   UNL A   1      38.087  24.072  26.157  1.00  0.00     0.009 A 
BRANCH  14  19
ATOM     19  S   UNL A   1      40.631  20.326  26.520  1.00  0.00     0.242 S 
ATOM     20  O   UNL A   1      40.047  19.299  25.682  1.00  0.00    -0.207 OA
ATOM     21  O   UNL A   1      40.846  20.110  27.934  1.00  0.00    -0.207 OA
BRANCH  19  22
ATOM     22  N   UNL A   1      42.133  20.767  25.811  1.00  0.00    -0.204 NA
ATOM     23  C   UNL A   1      42.898  21.707  26.670  1.00  0.00     0.124 C 
ATOM     24  C   UNL A   1      42.984  19.633  25.383  1.00  0.00     0.124 C 
ENDBRANCH  19  22
ENDBRANCH  14  19
ENDBRANCH   7  13
ENDBRANCH   3   6
ENDBRANCH   1   2
BRANCH   1  25
ATOM     25  C   UNL A   1      33.501  27.496  25.885  1.00  0.00     0.042 C 
BRANCH  25  26
ATOM     26  C   UNL A   1      33.570  28.782  25.080  1.00  0.00     0.118 C 
BRANCH  26  27
ATOM     27  N   UNL A   1      32.866  29.887  25.718  1.00  0.00    -0.352 N 
ATOM     28  C   UNL A   1      33.166  30.640  26.828  1.00  0.00     0.251 C 
ATOM     29  H   UNL A   1      32.025  30.140  25.274  1.00  0.00     0.163 HD
ATOM     30  O   UNL A   1      32.303  31.378  27.298  1.00  0.00    -0.269 OA
BRANCH  28  31
ATOM     31  C   UNL A   1      34.492  30.560  27.483  1.00  0.00     0.039 A 
ATOM     32  C   UNL A   1      35.256  31.726  27.610  1.00  0.00     0.014 A 
ATOM     33  C   UNL A   1      35.013  29.347  27.935  1.00  0.00     0.014 A 
ATOM     34  C   UNL A   1      36.494  31.685  28.256  1.00  0.00     0.010 A 
ATOM     35  C   UNL A   1      36.190  29.325  28.674  1.00  0.00     0.010 A 
ATOM     36  C   UNL A   1      36.951  30.491  28.834  1.00  0.00    -0.014 A 
BRANCH  36  37
ATOM     37  C   UNL A   1      38.223  30.430  29.598  1.00  0.00     0.031 A 
ATOM     38  C   UNL A   1      39.414  29.706  29.030  1.00  0.00     0.074 A 
ATOM     39  C   UNL A   1      38.277  30.937  30.844  1.00  0.00     0.049 A 
ATOM     40  N   UNL A   1      40.570  29.449  29.587  1.00  0.00    -0.248 NA
ATOM     41  C   UNL A   1      39.269  29.164  27.671  1.00  0.00     0.031 C 
ATOM     42  C   UNL A   1      37.171  31.600  31.537  1.00  0.00     0.029 A 
ATOM     43  N   UNL A   1      39.300  30.954  31.760  1.00  0.00    -0.354 N 
ATOM     44  C   UNL A   1      41.276  28.693  28.659  1.00  0.00     0.074 A 
ATOM     45  C   UNL A   1      40.397  28.483  27.529  1.00  0.00     0.031 C 
ATOM     46  C   UNL A   1      37.578  31.971  32.761  1.00  0.00     0.029 A 
ATOM     47  C   UNL A   1      38.959  31.541  32.953  1.00  0.00     0.049 A 
ATOM     48  H   UNL A   1      40.193  30.582  31.577  1.00  0.00     0.167 HD
ATOM     49  C   UNL A   1      42.549  28.236  28.728  1.00  0.00     0.037 A 
ATOM     50  C   UNL A   1      39.675  31.706  34.081  1.00  0.00     0.037 A 
ATOM     51  C   UNL A   1      43.432  28.474  29.839  1.00  0.00     0.049 A 
ATOM     52  C   UNL A   1      41.095  31.221  34.128  1.00  0.00     0.074 A 
ATOM     53  C   UNL A   1      44.764  28.128  29.974  1.00  0.00     0.029 A 
ATOM     54  N   UNL A   1      43.065  29.118  31.012  1.00  0.00    -0.354 N 
ATOM     55  N   UNL A   1      41.778  30.580  33.211  1.00  0.00    -0.248 NA
ATOM     56  C   UNL A   1      41.847  31.491  35.361  1.00  0.00     0.031 C 
ATOM     57  C   UNL A   1      45.192  28.524  31.246  1.00  0.00     0.029 A 
ATOM     58  C   UNL A   1      44.140  29.159  31.886  1.00  0.00     0.049 A 
ATOM     59  H   UNL A   1      42.173  29.490  31.197  1.00  0.00     0.167 HD
ATOM     60  C   UNL A   1      43.044  30.384  33.746  1.00  0.00     0.074 A 
ATOM     61  C   UNL A   1      43.038  30.989  35.063  1.00  0.00     0.031 C 
ATOM     62  C   UNL A   1      44.114  29.759  33.196  1.00  0.00     0.037 A 
BRANCH  49  63
ATOM     63  C   UNL A   1      43.053  27.432  27.562  1.00  0.00     0.057 A 
ATOM     64  C   UNL A   1      42.946  26.035  27.523  1.00  0.00     0.134 A 
ATOM     65  C   UNL A   1      43.661  28.061  26.469  1.00  0.00     0.134 A 
ATOM     66  F   UNL A   1      42.385  25.367  28.544  1.00  0.00    -0.206 F 
ATOM     67  C   UNL A   1      43.466  25.289  26.462  1.00  0.00     0.040 A 
ATOM     68  C   UNL A   1      44.156  27.329  25.387  1.00  0.00     0.040 A 
ATOM     69  F   UNL A   1      43.789  29.395  26.435  1.00  0.00    -0.206 F 
ATOM     70  C   UNL A   1      44.070  25.938  25.388  1.00  0.00     0.006 A 
ENDBRANCH  49  63
BRANCH  50  71
ATOM     71  C   UNL A   1      39.055  32.389  35.243  1.00  0.00     0.057 A 
ATOM     72  C   UNL A   1      38.436  31.658  36.264  1.00  0.00     0.134 A 
ATOM     73  C   UNL A   1      39.102  33.781  35.383  1.00  0.00     0.134 A 
ATOM     74  F   UNL A   1      38.348  30.322  36.178  1.00  0.00    -0.206 F 
ATOM     75  C   UNL A   1      37.881  32.287  37.379  1.00  0.00     0.040 A 
ATOM     76  C   UNL A   1      38.571  34.421  36.503  1.00  0.00     0.040 A 
ATOM     77  F   UNL A   1      39.693  34.536  34.444  1.00  0.00    -0.206 F 
ATOM     78  C   UNL A   1      37.956  33.673  37.504  1.00  0.00     0.006 A 
ENDBRANCH  50  71
BRANCH  62  79
ATOM     79  C   UNL A   1      45.373  29.714  34.011  1.00  0.00     0.057 A 
ATOM     80  C   UNL A   1      46.326  30.739  33.954  1.00  0.00     0.134 A 
ATOM     81  C   UNL A   1      45.615  28.654  34.895  1.00  0.00     0.134 A 
ATOM     82  F   UNL A   1      46.160  31.775  33.118  1.00  0.00    -0.206 F 
ATOM     83  C   UNL A   1      47.484  30.701  34.732  1.00  0.00     0.040 A 
ATOM     84  C   UNL A   1      46.757  28.617  35.695  1.00  0.00     0.040 A 
ATOM     85  F   UNL A   1      44.738  27.644  35.003  1.00  0.00    -0.206 F 
ATOM     86  C   UNL A   1      47.698  29.641  35.611  1.00  0.00     0.006 A 
ENDBRANCH  62  79
ENDBRANCH  36  37
ENDBRANCH  28  31
ENDBRANCH  26  27
ENDBRANCH  25  26
ENDBRANCH   1  25
TORSDOF 13
ENDMDL
MODEL 2
REMARK VINA RESULT:     -12.2      4.650      9.457
REMARK SMILES CN(C)S(=O)(=O)c1cccc(-c2cc(Cl)cc(C(=O)NCCCNC(=O)c3ccc(-c4c5nc(c(-c6c(F)cccc6F)c6ccc([nH]6)c(-c6c(F)cccc6F)c6nc(c(-c7c(F)cccc7F)c7ccc4[nH]7)C=C6)C=C5)cc3)c2)c1
REMARK SMILES IDX 21 1 20 2 18 3 19 4 17 6 12 7 13 8 81 9 14 10 15 11 16 12
REMARK SMILES IDX 11 13 7 14 8 15 82 16 9 17 10 18 4 19 5 20 6 21 2 22 1 23
REMARK SMILES IDX 3 24 22 25 23 26 24 27 25 28 26 30 27 31 28 32 80 33 29 34
REMARK SMILES IDX 79 35 30 36 31 37 32 38 73 39 33 40 78 41 72 42 74 43 34 44
REMARK SMILES IDX 77 45 71 46 70 47 35 49 61 50 44 51 60 52 45 53 48 54 59 55
REMARK SMILES IDX 75 56 46 57 47 58 58 60 76 61 49 62 36 63 37 64 42 65 38 66
REMARK SMILES IDX 39 67 41 68 43 69 40 70 62 71 63 72 68 73 64 74 65 75 67 76
REMARK SMILES IDX 69 77 66 78 50 79 51 80 56 81 52 82 53 83 55 84 57 85 54 86
REMARK H PARENT 20 5 24 29 74 48 48 59
REMARK Flexibility Score: inf
ROOT
ATOM      1  C   UNL A   1      36.983  33.846  30.129  1.00  0.00     0.118 C 
ENDROOT
BRANCH   1   2
ATOM      2  N   UNL A   1      36.446  34.372  31.381  1.00  0.00    -0.352 N 
ATOM      3  C   UNL A   1      36.947  34.481  32.660  1.00  0.00     0.251 C 
ATOM      4  O   UNL A   1      36.213  34.959  33.524  1.00  0.00    -0.269 OA
ATOM      5  H   UNL A   1      35.531  34.724  31.292  1.00  0.00     0.163 HD
BRANCH   3   6
ATOM      6  C   UNL A   1      38.294  33.989  33.055  1.00  0.00     0.041 A 
ATOM      7  C   UNL A   1      39.863  32.143  33.342  1.00  0.00    -0.016 A 
ATOM      8  C   UNL A   1      40.653  32.968  34.154  1.00  0.00     0.029 A 
ATOM      9  C   UNL A   1      38.771  32.734  32.687  1.00  0.00     0.022 A 
ATOM     10  C   UNL A   1      40.289  34.297  34.375  1.00  0.00     0.042 A 
ATOM     11  Cl  UNL A   1      41.287  35.300  35.356  1.00  0.00    -0.084 Cl
ATOM     12  C   UNL A   1      39.091  34.798  33.869  1.00  0.00     0.034 A 
BRANCH   7  13
ATOM     13  C   UNL A   1      39.999  30.670  33.318  1.00  0.00    -0.017 A 
ATOM     14  C   UNL A   1      41.373  28.666  33.131  1.00  0.00     0.083 A 
ATOM     15  C   UNL A   1      40.256  27.891  32.816  1.00  0.00     0.022 A 
ATOM     16  C   UNL A   1      41.249  30.035  33.404  1.00  0.00     0.030 A 
ATOM     17  C   UNL A   1      39.006  28.497  32.761  1.00  0.00     0.002 A 
ATOM     18  C   UNL A   1      38.882  29.869  33.004  1.00  0.00     0.009 A 
BRANCH  14  19
ATOM     19  S   UNL A   1      42.984  27.923  33.180  1.00  0.00     0.242 S 
ATOM     20  O   UNL A   1      43.929  28.908  33.666  1.00  0.00    -0.207 OA
ATOM     21  O   UNL A   1      43.180  27.255  31.913  1.00  0.00    -0.207 OA
BRANCH  19  22
ATOM     22  N   UNL A   1      42.828  26.723  34.401  1.00  0.00    -0.204 NA
ATOM     23  C   UNL A   1      43.914  25.712  34.327  1.00  0.00     0.124 C 
ATOM     24  C   UNL A   1      42.686  27.244  35.781  1.00  0.00     0.124 C 
ENDBRANCH  19  22
ENDBRANCH  14  19
ENDBRANCH   7  13
ENDBRANCH   3   6
ENDBRANCH   1   2
BRANCH   1  25
ATOM     25  C   UNL A   1      35.929  33.340  29.159  1.00  0.00     0.042 C 
BRANCH  25  26
ATOM     26  C   UNL A   1      34.830  32.506  29.795  1.00  0.00     0.118 C 
BRANCH  26  27
ATOM     27  N   UNL A   1      34.184  31.607  28.847  1.00  0.00    -0.352 N 
ATOM     28  C   UNL A   1      34.679  30.578  28.082  1.00  0.00     0.251 C 
ATOM     29  H   UNL A   1      33.218  31.765  28.735  1.00  0.00     0.163 HD
ATOM     30  O   UNL A   1      33.976  30.105  27.192  1.00  0.00    -0.269 OA
BRANCH  28  31
ATOM     31  C   UNL A   1      36.047  30.048  28.289  1.00  0.00     0.039 A 
ATOM     32  C   UNL A   1      36.979  30.160  27.251  1.00  0.00     0.014 A 
ATOM     33  C   UNL A   1      36.412  29.405  29.472  1.00  0.00     0.014 A 
ATOM     34  C   UNL A   1      38.287  29.703  27.432  1.00  0.00     0.010 A 
ATOM     35  C   UNL A   1      37.738  29.051  29.693  1.00  0.00     0.010 A 
ATOM     36  C   UNL A   1      38.690  29.185  28.672  1.00  0.00    -0.014 A 
BRANCH  36  37
ATOM     37  C   UNL A   1      40.091  28.765  28.927  1.00  0.00     0.031 A 
ATOM     38  C   UNL A   1      41.081  29.739  29.508  1.00  0.00     0.074 A 
ATOM     39  C   UNL A   1      40.500  27.541  28.543  1.00  0.00     0.049 A 
ATOM     40  N   UNL A   1      42.368  29.597  29.699  1.00  0.00    -0.248 NA
ATOM     41  C   UNL A   1      40.560  31.062  29.884  1.00  0.00     0.031 C 
ATOM     42  C   UNL A   1      39.658  26.528  27.903  1.00  0.00     0.029 A 
ATOM     43  N   UNL A   1      41.736  26.947  28.615  1.00  0.00    -0.354 N 
ATOM     44  C   UNL A   1      42.812  30.819  30.189  1.00  0.00     0.074 A 
ATOM     45  C   UNL A   1      41.670  31.707  30.210  1.00  0.00     0.031 C 
ATOM     46  C   UNL A   1      40.396  25.436  27.655  1.00  0.00     0.029 A 
ATOM     47  C   UNL A   1      41.769  25.682  28.082  1.00  0.00     0.049 A 
ATOM     48  H   UNL A   1      42.523  27.387  29.011  1.00  0.00     0.167 HD
ATOM     49  C   UNL A   1      44.052  31.165  30.610  1.00  0.00     0.037 A 
ATOM     50  C   UNL A   1      42.793  24.819  27.943  1.00  0.00     0.037 A 
ATOM     51  C   UNL A   1      45.179  30.269  30.619  1.00  0.00     0.049 A 
ATOM     52  C   UNL A   1      44.154  25.208  28.443  1.00  0.00     0.074 A 
ATOM     53  C   UNL A   1      46.457  30.492  31.100  1.00  0.00     0.029 A 
ATOM     54  N   UNL A   1      45.161  28.976  30.117  1.00  0.00    -0.354 N 
ATOM     55  N   UNL A   1      44.543  26.338  28.982  1.00  0.00    -0.248 NA
ATOM     56  C   UNL A   1      45.216  24.199  28.327  1.00  0.00     0.031 C 
ATOM     57  C   UNL A   1      47.224  29.349  30.850  1.00  0.00     0.029 A 
ATOM     58  C   UNL A   1      46.412  28.396  30.256  1.00  0.00     0.049 A 
ATOM     59  H   UNL A   1      44.376  28.535  29.719  1.00  0.00     0.167 HD
ATOM     60  C   UNL A   1      45.888  26.173  29.285  1.00  0.00     0.074 A 
ATOM     61  C   UNL A   1      46.243  24.826  28.884  1.00  0.00     0.031 C 
ATOM     62  C   UNL A   1      46.750  27.057  29.844  1.00  0.00     0.037 A 
BRANCH  49  63
ATOM     63  C   UNL A   1      44.245  32.575  31.092  1.00  0.00     0.057 A 
ATOM     64  C   UNL A   1      44.599  33.615  30.222  1.00  0.00     0.134 A 
ATOM     65  C   UNL A   1      44.082  32.897  32.445  1.00  0.00     0.134 A 
ATOM     66  F   UNL A   1      44.783  33.374  28.914  1.00  0.00    -0.206 F 
ATOM     67  C   UNL A   1      44.830  34.912  30.685  1.00  0.00     0.040 A 
ATOM     68  C   UNL A   1      44.279  34.197  32.916  1.00  0.00     0.040 A 
ATOM     69  F   UNL A   1      43.736  31.954  33.333  1.00  0.00    -0.206 F 
ATOM     70  C   UNL A   1      44.666  35.206  32.037  1.00  0.00     0.006 A 
ENDBRANCH  49  63
BRANCH  50  71
ATOM     71  C   UNL A   1      42.549  23.493  27.325  1.00  0.00     0.057 A 
ATOM     72  C   UNL A   1      42.775  23.280  25.960  1.00  0.00     0.134 A 
ATOM     73  C   UNL A   1      42.124  22.398  28.088  1.00  0.00     0.134 A 
ATOM     74  F   UNL A   1      43.169  24.294  25.176  1.00  0.00    -0.206 F 
ATOM     75  C   UNL A   1      42.583  22.028  25.375  1.00  0.00     0.040 A 
ATOM     76  C   UNL A   1      41.950  21.136  27.520  1.00  0.00     0.040 A 
ATOM     77  F   UNL A   1      41.902  22.536  29.404  1.00  0.00    -0.206 F 
ATOM     78  C   UNL A   1      42.177  20.949  26.158  1.00  0.00     0.006 A 
ENDBRANCH  50  71
BRANCH  62  79
ATOM     79  C   UNL A   1      48.158  26.590  30.072  1.00  0.00     0.057 A 
ATOM     80  C   UNL A   1      49.173  26.819  29.134  1.00  0.00     0.134 A 
ATOM     81  C   UNL A   1      48.511  25.940  31.262  1.00  0.00     0.134 A 
ATOM     82  F   UNL A   1      48.897  27.425  27.969  1.00  0.00    -0.206 F 
ATOM     83  C   UNL A   1      50.484  26.401  29.363  1.00  0.00     0.040 A 
ATOM     84  C   UNL A   1      49.823  25.539  31.513  1.00  0.00     0.040 A 
ATOM     85  F   UNL A   1      47.587  25.696  32.204  1.00  0.00    -0.206 F 
ATOM     86  C   UNL A   1      50.814  25.765  30.559  1.00  0.00     0.006 A 
ENDBRANCH  62  79
ENDBRANCH  36  37
ENDBRANCH  28  31
ENDBRANCH  26  27
ENDBRANCH  25  26
ENDBRANCH   1  25
TORSDOF 13
ENDMDL
MODEL 3
REMARK VINA RESULT:     -12.1      3.117      7.370
REMARK SMILES CN(C)S(=O)(=O)c1cccc(-c2cc(Cl)cc(C(=O)NCCCNC(=O)c3ccc(-c4c5nc(c(-c6c(F)cccc6F)c6ccc([nH]6)c(-c6c(F)cccc6F)c6nc(c(-c7c(F)cccc7F)c7ccc4[nH]7)C=C6)C=C5)cc3)c2)c1
REMARK SMILES IDX 21 1 20 2 18 3 19 4 17 6 12 7 13 8 81 9 14 10 15 11 16 12
REMARK SMILES IDX 11 13 7 14 8 15 82 16 9 17 10 18 4 19 5 20 6 21 2 22 1 23
REMARK SMILES IDX 3 24 22 25 23 26 24 27 25 28 26 30 27 31 28 32 80 33 29 34
REMARK SMILES IDX 79 35 30 36 31 37 32 38 73 39 33 40 78 41 72 42 74 43 34 44
REMARK SMILES IDX 77 45 71 46 70 47 35 49 61 50 44 51 60 52 45 53 48 54 59 55
REMARK SMILES IDX 75 56 46 57 47 58 58 60 76 61 49 62 36 63 37 64 42 65 38 66
REMARK SMILES IDX 39 67 41 68 43 69 40 70 62 71 63 72 68 73 64 74 65 75 67 76
REMARK SMILES IDX 69 77 66 78 50 79 51 80 56 81 52 82 53 83 55 84 57 85 54 86
REMARK H PARENT 20 5 24 29 74 48 48 59
REMARK Flexibility Score: inf
ROOT
ATOM      1  C   UNL A   1      31.686  27.927  26.114  1.00  0.00     0.118 C 
ENDROOT
BRANCH   1   2
ATOM      2  N   UNL A   1      30.751  26.913  26.592  1.00  0.00    -0.352 N 
ATOM      3  C   UNL A   1      30.385  25.665  26.136  1.00  0.00     0.251 C 
ATOM      4  O   UNL A   1      29.523  25.055  26.767  1.00  0.00    -0.269 OA
ATOM      5  H   UNL A   1      30.282  27.177  27.417  1.00  0.00     0.163 HD
BRANCH   3   6
ATOM      6  C   UNL A   1      30.927  25.059  24.891  1.00  0.00     0.041 A 
ATOM      7  C   UNL A   1      32.235  23.320  23.790  1.00  0.00    -0.016 A 
ATOM      8  C   UNL A   1      32.290  24.117  22.639  1.00  0.00     0.029 A 
ATOM      9  C   UNL A   1      31.416  23.756  24.843  1.00  0.00     0.022 A 
ATOM     10  C   UNL A   1      31.634  25.349  22.603  1.00  0.00     0.042 A 
ATOM     11  Cl  UNL A   1      31.694  26.302  21.172  1.00  0.00    -0.084 Cl
ATOM     12  C   UNL A   1      30.993  25.845  23.737  1.00  0.00     0.034 A 
BRANCH   7  13
ATOM     13  C   UNL A   1      33.147  22.178  24.021  1.00  0.00    -0.017 A 
ATOM     14  C   UNL A   1      33.517  19.818  24.506  1.00  0.00     0.083 A 
ATOM     15  C   UNL A   1      34.829  20.074  24.908  1.00  0.00     0.022 A 
ATOM     16  C   UNL A   1      32.689  20.850  24.044  1.00  0.00     0.030 A 
ATOM     17  C   UNL A   1      35.311  21.377  24.857  1.00  0.00     0.002 A 
ATOM     18  C   UNL A   1      34.477  22.414  24.424  1.00  0.00     0.009 A 
BRANCH  14  19
ATOM     19  S   UNL A   1      32.869  18.168  24.587  1.00  0.00     0.242 S 
ATOM     20  O   UNL A   1      31.967  17.974  23.471  1.00  0.00    -0.207 OA
ATOM     21  O   UNL A   1      32.436  17.950  25.950  1.00  0.00    -0.207 OA
BRANCH  19  22
ATOM     22  N   UNL A   1      34.251  17.187  24.300  1.00  0.00    -0.204 NA
ATOM     23  C   UNL A   1      34.408  16.133  25.335  1.00  0.00     0.124 C 
ATOM     24  C   UNL A   1      34.339  16.607  22.940  1.00  0.00     0.124 C 
ENDBRANCH  19  22
ENDBRANCH  14  19
ENDBRANCH   7  13
ENDBRANCH   3   6
ENDBRANCH   1   2
BRANCH   1  25
ATOM     25  C   UNL A   1      33.113  27.740  26.599  1.00  0.00     0.042 C 
BRANCH  25  26
ATOM     26  C   UNL A   1      34.100  28.768  26.075  1.00  0.00     0.118 C 
BRANCH  26  27
ATOM     27  N   UNL A   1      33.855  30.106  26.598  1.00  0.00    -0.352 N 
ATOM     28  C   UNL A   1      34.475  30.826  27.591  1.00  0.00     0.251 C 
ATOM     29  H   UNL A   1      33.110  30.580  26.161  1.00  0.00     0.163 HD
ATOM     30  O   UNL A   1      33.945  31.856  28.000  1.00  0.00    -0.269 OA
BRANCH  28  31
ATOM     31  C   UNL A   1      35.750  30.373  28.194  1.00  0.00     0.039 A 
ATOM     32  C   UNL A   1      35.712  29.660  29.398  1.00  0.00     0.014 A 
ATOM     33  C   UNL A   1      36.983  30.676  27.616  1.00  0.00     0.014 A 
ATOM     34  C   UNL A   1      36.896  29.189  29.971  1.00  0.00     0.010 A 
ATOM     35  C   UNL A   1      38.149  30.115  28.124  1.00  0.00     0.010 A 
ATOM     36  C   UNL A   1      38.122  29.374  29.314  1.00  0.00    -0.014 A 
BRANCH  36  37
ATOM     37  C   UNL A   1      39.389  28.816  29.851  1.00  0.00     0.031 A 
ATOM     38  C   UNL A   1      40.034  29.432  31.064  1.00  0.00     0.074 A 
ATOM     39  C   UNL A   1      40.013  27.822  29.191  1.00  0.00     0.049 A 
ATOM     40  N   UNL A   1      41.189  29.161  31.615  1.00  0.00    -0.248 NA
ATOM     41  C   UNL A   1      39.299  30.526  31.717  1.00  0.00     0.031 C 
ATOM     42  C   UNL A   1      39.529  27.186  27.964  1.00  0.00     0.029 A 
ATOM     43  N   UNL A   1      41.201  27.185  29.449  1.00  0.00    -0.354 N 
ATOM     44  C   UNL A   1      41.330  30.067  32.658  1.00  0.00     0.074 A 
ATOM     45  C   UNL A   1      40.172  30.934  32.625  1.00  0.00     0.031 C 
ATOM     46  C   UNL A   1      40.403  26.242  27.584  1.00  0.00     0.029 A 
ATOM     47  C   UNL A   1      41.525  26.230  28.517  1.00  0.00     0.049 A 
ATOM     48  H   UNL A   1      41.766  27.393  30.228  1.00  0.00     0.167 HD
ATOM     49  C   UNL A   1      42.321  30.157  33.578  1.00  0.00     0.037 A 
ATOM     50  C   UNL A   1      42.611  25.440  28.417  1.00  0.00     0.037 A 
ATOM     51  C   UNL A   1      43.456  29.272  33.628  1.00  0.00     0.049 A 
ATOM     52  C   UNL A   1      43.684  25.530  29.463  1.00  0.00     0.074 A 
ATOM     53  C   UNL A   1      44.472  29.223  34.565  1.00  0.00     0.029 A 
ATOM     54  N   UNL A   1      43.724  28.283  32.693  1.00  0.00    -0.354 N 
ATOM     55  N   UNL A   1      43.766  26.337  30.493  1.00  0.00    -0.248 NA
ATOM     56  C   UNL A   1      44.810  24.595  29.340  1.00  0.00     0.031 C 
ATOM     57  C   UNL A   1      45.379  28.232  34.174  1.00  0.00     0.029 A 
ATOM     58  C   UNL A   1      44.904  27.632  33.019  1.00  0.00     0.049 A 
ATOM     59  H   UNL A   1      43.162  28.074  31.914  1.00  0.00     0.167 HD
ATOM     60  C   UNL A   1      44.940  25.998  31.151  1.00  0.00     0.074 A 
ATOM     61  C   UNL A   1      45.530  24.900  30.411  1.00  0.00     0.031 C 
ATOM     62  C   UNL A   1      45.481  26.546  32.267  1.00  0.00     0.037 A 
BRANCH  49  63
ATOM     63  C   UNL A   1      42.212  31.252  34.600  1.00  0.00     0.057 A 
ATOM     64  C   UNL A   1      41.512  31.079  35.803  1.00  0.00     0.134 A 
ATOM     65  C   UNL A   1      42.805  32.501  34.377  1.00  0.00     0.134 A 
ATOM     66  F   UNL A   1      40.908  29.911  36.075  1.00  0.00    -0.206 F 
ATOM     67  C   UNL A   1      41.367  32.119  36.724  1.00  0.00     0.040 A 
ATOM     68  C   UNL A   1      42.695  33.539  35.305  1.00  0.00     0.040 A 
ATOM     69  F   UNL A   1      43.497  32.736  33.252  1.00  0.00    -0.206 F 
ATOM     70  C   UNL A   1      41.964  33.353  36.476  1.00  0.00     0.006 A 
ENDBRANCH  49  63
BRANCH  50  71
ATOM     71  C   UNL A   1      42.709  24.477  27.293  1.00  0.00     0.057 A 
ATOM     72  C   UNL A   1      43.381  24.812  26.112  1.00  0.00     0.134 A 
ATOM     73  C   UNL A   1      42.172  23.187  27.387  1.00  0.00     0.134 A 
ATOM     74  F   UNL A   1      43.905  26.038  25.959  1.00  0.00    -0.206 F 
ATOM     75  C   UNL A   1      43.512  23.902  25.062  1.00  0.00     0.040 A 
ATOM     76  C   UNL A   1      42.314  22.260  26.353  1.00  0.00     0.040 A 
ATOM     77  F   UNL A   1      41.527  22.802  28.498  1.00  0.00    -0.206 F 
ATOM     78  C   UNL A   1      42.984  22.619  25.185  1.00  0.00     0.006 A 
ENDBRANCH  50  71
BRANCH  62  79
ATOM     79  C   UNL A   1      46.766  25.955  32.765  1.00  0.00     0.057 A 
ATOM     80  C   UNL A   1      46.786  24.901  33.687  1.00  0.00     0.134 A 
ATOM     81  C   UNL A   1      47.999  26.418  32.285  1.00  0.00     0.134 A 
ATOM     82  F   UNL A   1      45.640  24.421  34.194  1.00  0.00    -0.206 F 
ATOM     83  C   UNL A   1      47.985  24.341  34.129  1.00  0.00     0.040 A 
ATOM     84  C   UNL A   1      49.203  25.850  32.702  1.00  0.00     0.040 A 
ATOM     85  F   UNL A   1      48.050  27.421  31.395  1.00  0.00    -0.206 F 
ATOM     86  C   UNL A   1      49.198  24.811  33.631  1.00  0.00     0.006 A 
ENDBRANCH  62  79
ENDBRANCH  36  37
ENDBRANCH  28  31
ENDBRANCH  26  27
ENDBRANCH  25  26
ENDBRANCH   1  25
TORSDOF 13
ENDMDL
