MODEL 1
REMARK VINA RESULT:     -11.7      0.000      0.000
REMARK SMILES Cn1ccc(NC(=O)[C@@H]2CCCC[C@@H]2C(=O)NCCCNC(=O)c2ccc(-c3c4nc(c(-c5c(F)cccc5F)c5ccc([nH]5)c(-c5c(F)cccc5F)c5nc(c(-c6c(F)cccc6F)c6ccc3[nH]6)C=C5)C=C4)cc2)n1
REMARK SMILES IDX 19 1 18 2 17 3 15 4 16 5 14 7 9 8 10 9 11 10 13 11 12 12
REMARK SMILES IDX 7 13 6 14 8 16 5 17 1 18 2 19 3 20 78 21 4 22 20 23 21 24
REMARK SMILES IDX 22 25 23 27 24 28 25 29 77 30 26 31 76 32 27 33 28 34 29 35
REMARK SMILES IDX 70 36 30 37 75 38 69 39 71 40 31 41 74 42 68 43 67 44 32 46
REMARK SMILES IDX 58 47 41 48 57 49 42 50 45 51 56 52 72 53 43 54 44 55 55 57
REMARK SMILES IDX 73 58 46 59 33 60 34 61 39 62 35 63 36 64 38 65 40 66 37 67
REMARK SMILES IDX 59 68 60 69 65 70 61 71 62 72 64 73 66 74 63 75 47 76 48 77
REMARK SMILES IDX 53 78 49 79 50 80 52 81 54 82 51 83
REMARK H PARENT 17 6 6 15 21 26 71 45 45 56
REMARK Flexibility Score: inf
ROOT
ATOM      1  C   UNL A   1      38.318  20.032  24.718  1.00  0.00     0.042 C 
ENDROOT
BRANCH   1   2
ATOM      2  C   UNL A   1      36.817  20.050  24.961  1.00  0.00     0.117 C 
BRANCH   2   3
ATOM      3  N   UNL A   1      36.312  21.399  24.921  1.00  0.00    -0.356 N 
ATOM      4  C   UNL A   1      35.084  21.891  25.228  1.00  0.00     0.223 C 
ATOM      5  O   UNL A   1      34.969  23.114  25.130  1.00  0.00    -0.275 OA
ATOM      6  H   UNL A   1      36.963  22.074  24.621  1.00  0.00     0.163 HD
BRANCH   4   7
ATOM      7  C   UNL A   1      33.959  20.981  25.755  1.00  0.00     0.091 C 
ATOM      8  C   UNL A   1      32.581  21.020  25.042  1.00  0.00     0.091 C 
ATOM      9  C   UNL A   1      32.071  22.472  25.047  1.00  0.00     0.014 C 
ATOM     10  C   UNL A   1      31.825  22.943  26.479  1.00  0.00     0.001 C 
ATOM     11  C   UNL A   1      33.678  21.330  27.240  1.00  0.00     0.014 C 
ATOM     12  C   UNL A   1      32.995  22.692  27.429  1.00  0.00     0.001 C 
BRANCH   8  13
ATOM     13  C   UNL A   1      32.394  20.353  23.674  1.00  0.00     0.229 C 
ATOM     14  N   UNL A   1      32.663  19.034  23.450  1.00  0.00    -0.309 N 
ATOM     15  H   UNL A   1      32.508  18.720  22.529  1.00  0.00     0.171 HD
ATOM     16  O   UNL A   1      31.985  20.999  22.702  1.00  0.00    -0.274 OA
BRANCH  14  17
ATOM     17  C   UNL A   1      33.115  18.082  24.328  1.00  0.00     0.154 A 
ATOM     18  C   UNL A   1      35.473  15.720  25.302  1.00  0.00     0.173 C 
ATOM     19  N   UNL A   1      34.307  16.562  25.184  1.00  0.00    -0.274 N 
ATOM     20  C   UNL A   1      33.060  16.328  25.679  1.00  0.00     0.110 A 
ATOM     21  N   UNL A   1      34.371  17.650  24.402  1.00  0.00    -0.155 NA
ATOM     22  C   UNL A   1      32.272  17.350  25.199  1.00  0.00     0.068 A 
ENDBRANCH  14  17
ENDBRANCH   8  13
ENDBRANCH   4   7
ENDBRANCH   2   3
ENDBRANCH   1   2
BRANCH   1  23
ATOM     23  C   UNL A   1      39.122  20.039  26.004  1.00  0.00     0.118 C 
BRANCH  23  24
ATOM     24  N   UNL A   1      40.316  19.211  25.901  1.00  0.00    -0.352 N 
ATOM     25  C   UNL A   1      41.635  19.556  26.036  1.00  0.00     0.251 C 
ATOM     26  H   UNL A   1      40.150  18.260  25.704  1.00  0.00     0.163 HD
ATOM     27  O   UNL A   1      42.508  18.756  25.699  1.00  0.00    -0.269 OA
BRANCH  25  28
ATOM     28  C   UNL A   1      42.011  20.886  26.559  1.00  0.00     0.039 A 
ATOM     29  C   UNL A   1      42.365  21.891  25.657  1.00  0.00     0.014 A 
ATOM     30  C   UNL A   1      42.026  21.145  27.932  1.00  0.00     0.014 A 
ATOM     31  C   UNL A   1      42.677  23.167  26.128  1.00  0.00     0.010 A 
ATOM     32  C   UNL A   1      42.228  22.440  28.393  1.00  0.00     0.010 A 
ATOM     33  C   UNL A   1      42.573  23.461  27.497  1.00  0.00    -0.014 A 
BRANCH  33  34
ATOM     34  C   UNL A   1      42.843  24.823  28.019  1.00  0.00     0.031 A 
ATOM     35  C   UNL A   1      44.239  25.210  28.424  1.00  0.00     0.074 A 
ATOM     36  C   UNL A   1      41.823  25.687  28.186  1.00  0.00     0.049 A 
ATOM     37  N   UNL A   1      44.666  26.322  28.966  1.00  0.00    -0.248 NA
ATOM     38  C   UNL A   1      45.293  24.201  28.223  1.00  0.00     0.031 C 
ATOM     39  C   UNL A   1      40.418  25.409  27.879  1.00  0.00     0.029 A 
ATOM     40  N   UNL A   1      41.809  26.972  28.667  1.00  0.00    -0.354 N 
ATOM     41  C   UNL A   1      46.024  26.138  29.187  1.00  0.00     0.074 A 
ATOM     42  C   UNL A   1      46.342  24.788  28.778  1.00  0.00     0.031 C 
ATOM     43  C   UNL A   1      39.684  26.500  28.149  1.00  0.00     0.029 A 
ATOM     44  C   UNL A   1      40.557  27.537  28.692  1.00  0.00     0.049 A 
ATOM     45  H   UNL A   1      42.619  27.444  28.967  1.00  0.00     0.167 HD
ATOM     46  C   UNL A   1      46.931  27.023  29.664  1.00  0.00     0.037 A 
ATOM     47  C   UNL A   1      40.157  28.751  29.113  1.00  0.00     0.037 A 
ATOM     48  C   UNL A   1      46.613  28.374  30.045  1.00  0.00     0.049 A 
ATOM     49  C   UNL A   1      41.183  29.711  29.649  1.00  0.00     0.074 A 
ATOM     50  C   UNL A   1      47.468  29.371  30.477  1.00  0.00     0.029 A 
ATOM     51  N   UNL A   1      45.336  28.913  30.042  1.00  0.00    -0.354 N 
ATOM     52  N   UNL A   1      42.477  29.552  29.782  1.00  0.00    -0.248 NA
ATOM     53  C   UNL A   1      40.693  31.024  30.092  1.00  0.00     0.031 C 
ATOM     54  C   UNL A   1      46.702  30.497  30.789  1.00  0.00     0.029 A 
ATOM     55  C   UNL A   1      45.376  30.222  30.493  1.00  0.00     0.049 A 
ATOM     56  H   UNL A   1      44.521  28.437  29.761  1.00  0.00     0.167 HD
ATOM     57  C   UNL A   1      42.960  30.749  30.290  1.00  0.00     0.074 A 
ATOM     58  C   UNL A   1      41.820  31.633  30.429  1.00  0.00     0.031 C 
ATOM     59  C   UNL A   1      44.232  31.090  30.614  1.00  0.00     0.037 A 
BRANCH  46  60
ATOM     60  C   UNL A   1      48.353  26.557  29.800  1.00  0.00     0.057 A 
ATOM     61  C   UNL A   1      49.306  26.776  28.795  1.00  0.00     0.134 A 
ATOM     62  C   UNL A   1      48.784  25.909  30.964  1.00  0.00     0.134 A 
ATOM     63  F   UNL A   1      48.958  27.378  27.648  1.00  0.00    -0.206 F 
ATOM     64  C   UNL A   1      50.626  26.342  28.931  1.00  0.00     0.040 A 
ATOM     65  C   UNL A   1      50.109  25.499  31.126  1.00  0.00     0.040 A 
ATOM     66  F   UNL A   1      47.929  25.672  31.970  1.00  0.00    -0.206 F 
ATOM     67  C   UNL A   1      51.032  25.709  30.104  1.00  0.00     0.006 A 
ENDBRANCH  46  60
BRANCH  47  68
ATOM     68  C   UNL A   1      38.725  29.137  29.027  1.00  0.00     0.057 A 
ATOM     69  C   UNL A   1      37.886  29.054  30.145  1.00  0.00     0.134 A 
ATOM     70  C   UNL A   1      38.157  29.585  27.828  1.00  0.00     0.134 A 
ATOM     71  F   UNL A   1      38.367  28.616  31.318  1.00  0.00    -0.206 F 
ATOM     72  C   UNL A   1      36.530  29.378  30.069  1.00  0.00     0.040 A 
ATOM     73  C   UNL A   1      36.810  29.940  27.745  1.00  0.00     0.040 A 
ATOM     74  F   UNL A   1      38.908  29.695  26.723  1.00  0.00    -0.206 F 
ATOM     75  C   UNL A   1      35.990  29.828  28.866  1.00  0.00     0.006 A 
ENDBRANCH  47  68
BRANCH  59  76
ATOM     76  C   UNL A   1      44.465  32.488  31.108  1.00  0.00     0.057 A 
ATOM     77  C   UNL A   1      44.451  32.807  32.471  1.00  0.00     0.134 A 
ATOM     78  C   UNL A   1      44.753  33.521  30.205  1.00  0.00     0.134 A 
ATOM     79  F   UNL A   1      44.170  31.868  33.387  1.00  0.00    -0.206 F 
ATOM     80  C   UNL A   1      44.688  34.108  32.917  1.00  0.00     0.040 A 
ATOM     81  C   UNL A   1      45.023  34.818  30.640  1.00  0.00     0.040 A 
ATOM     82  F   UNL A   1      44.793  33.280  28.885  1.00  0.00    -0.206 F 
ATOM     83  C   UNL A   1      44.984  35.116  32.000  1.00  0.00     0.006 A 
ENDBRANCH  59  76
ENDBRANCH  33  34
ENDBRANCH  25  28
ENDBRANCH  23  24
ENDBRANCH   1  23
TORSDOF 12
ENDMDL
MODEL 2
REMARK VINA RESULT:     -11.6      1.320      6.363
REMARK SMILES Cn1ccc(NC(=O)[C@@H]2CCCC[C@@H]2C(=O)NCCCNC(=O)c2ccc(-c3c4nc(c(-c5c(F)cccc5F)c5ccc([nH]5)c(-c5c(F)cccc5F)c5nc(c(-c6c(F)cccc6F)c6ccc3[nH]6)C=C5)C=C4)cc2)n1
REMARK SMILES IDX 19 1 18 2 17 3 15 4 16 5 14 7 9 8 10 9 11 10 13 11 12 12
REMARK SMILES IDX 7 13 6 14 8 16 5 17 1 18 2 19 3 20 78 21 4 22 20 23 21 24
REMARK SMILES IDX 22 25 23 27 24 28 25 29 77 30 26 31 76 32 27 33 28 34 29 35
REMARK SMILES IDX 70 36 30 37 75 38 69 39 71 40 31 41 74 42 68 43 67 44 32 46
REMARK SMILES IDX 58 47 41 48 57 49 42 50 45 51 56 52 72 53 43 54 44 55 55 57
REMARK SMILES IDX 73 58 46 59 33 60 34 61 39 62 35 63 36 64 38 65 40 66 37 67
REMARK SMILES IDX 59 68 60 69 65 70 61 71 62 72 64 73 66 74 63 75 47 76 48 77
REMARK SMILES IDX 53 78 49 79 50 80 52 81 54 82 51 83
REMARK H PARENT 17 6 6 15 21 26 71 45 45 56
REMARK Flexibility Score: inf
ROOT
ATOM      1  C   UNL A   1      38.191  19.950  24.672  1.00  0.00     0.042 C 
ENDROOT
BRANCH   1   2
ATOM      2  C   UNL A   1      36.706  20.009  24.995  1.00  0.00     0.117 C 
BRANCH   2   3
ATOM      3  N   UNL A   1      36.242  21.373  25.006  1.00  0.00    -0.356 N 
ATOM      4  C   UNL A   1      35.028  21.890  25.324  1.00  0.00     0.223 C 
ATOM      5  O   UNL A   1      34.950  23.119  25.274  1.00  0.00    -0.275 OA
ATOM      6  H   UNL A   1      36.915  22.040  24.739  1.00  0.00     0.163 HD
BRANCH   4   7
ATOM      7  C   UNL A   1      33.871  20.994  25.806  1.00  0.00     0.091 C 
ATOM      8  C   UNL A   1      32.521  21.055  25.043  1.00  0.00     0.091 C 
ATOM      9  C   UNL A   1      32.032  22.513  25.033  1.00  0.00     0.014 C 
ATOM     10  C   UNL A   1      31.739  22.984  26.457  1.00  0.00     0.001 C 
ATOM     11  C   UNL A   1      33.540  21.343  27.281  1.00  0.00     0.014 C 
ATOM     12  C   UNL A   1      32.870  22.714  27.449  1.00  0.00     0.001 C 
BRANCH   8  13
ATOM     13  C   UNL A   1      32.375  20.393  23.667  1.00  0.00     0.229 C 
ATOM     14  N   UNL A   1      32.667  19.079  23.441  1.00  0.00    -0.309 N 
ATOM     15  H   UNL A   1      32.538  18.770  22.515  1.00  0.00     0.171 HD
ATOM     16  O   UNL A   1      31.981  21.040  22.689  1.00  0.00    -0.274 OA
BRANCH  14  17
ATOM     17  C   UNL A   1      33.111  18.128  24.324  1.00  0.00     0.154 A 
ATOM     18  C   UNL A   1      35.436  15.734  25.299  1.00  0.00     0.173 C 
ATOM     19  N   UNL A   1      34.284  16.596  25.184  1.00  0.00    -0.274 N 
ATOM     20  C   UNL A   1      33.038  16.388  25.692  1.00  0.00     0.110 A 
ATOM     21  N   UNL A   1      34.359  17.674  24.391  1.00  0.00    -0.155 NA
ATOM     22  C   UNL A   1      32.263  17.419  25.210  1.00  0.00     0.068 A 
ENDBRANCH  14  17
ENDBRANCH   8  13
ENDBRANCH   4   7
ENDBRANCH   2   3
ENDBRANCH   1   2
BRANCH   1  23
ATOM     23  C   UNL A   1      39.068  20.130  25.896  1.00  0.00     0.118 C 
BRANCH  23  24
ATOM     24  N   UNL A   1      40.122  19.128  25.959  1.00  0.00    -0.352 N 
ATOM     25  C   UNL A   1      41.473  19.288  26.119  1.00  0.00     0.251 C 
ATOM     26  H   UNL A   1      39.818  18.195  25.874  1.00  0.00     0.163 HD
ATOM     27  O   UNL A   1      42.223  18.330  25.930  1.00  0.00    -0.269 OA
BRANCH  25  28
ATOM     28  C   UNL A   1      42.032  20.603  26.492  1.00  0.00     0.039 A 
ATOM     29  C   UNL A   1      42.398  21.493  25.479  1.00  0.00     0.014 A 
ATOM     30  C   UNL A   1      42.208  20.961  27.831  1.00  0.00     0.014 A 
ATOM     31  C   UNL A   1      42.882  22.759  25.811  1.00  0.00     0.010 A 
ATOM     32  C   UNL A   1      42.585  22.258  28.160  1.00  0.00     0.010 A 
ATOM     33  C   UNL A   1      42.944  23.165  27.154  1.00  0.00    -0.014 A 
BRANCH  33  34
ATOM     34  C   UNL A   1      43.401  24.525  27.531  1.00  0.00     0.031 A 
ATOM     35  C   UNL A   1      42.397  25.564  27.951  1.00  0.00     0.074 A 
ATOM     36  C   UNL A   1      44.707  24.840  27.435  1.00  0.00     0.049 A 
ATOM     37  N   UNL A   1      42.587  26.825  28.248  1.00  0.00    -0.248 NA
ATOM     38  C   UNL A   1      40.988  25.142  28.013  1.00  0.00     0.031 C 
ATOM     39  C   UNL A   1      45.767  23.932  26.991  1.00  0.00     0.029 A 
ATOM     40  N   UNL A   1      45.364  26.015  27.696  1.00  0.00    -0.354 N 
ATOM     41  C   UNL A   1      41.327  27.344  28.512  1.00  0.00     0.074 A 
ATOM     42  C   UNL A   1      40.373  26.282  28.282  1.00  0.00     0.031 C 
ATOM     43  C   UNL A   1      46.944  24.575  27.039  1.00  0.00     0.029 A 
ATOM     44  C   UNL A   1      46.718  25.950  27.472  1.00  0.00     0.049 A 
ATOM     45  H   UNL A   1      44.909  26.829  28.012  1.00  0.00     0.167 HD
ATOM     46  C   UNL A   1      40.995  28.588  28.934  1.00  0.00     0.037 A 
ATOM     47  C   UNL A   1      47.668  26.896  27.594  1.00  0.00     0.037 A 
ATOM     48  C   UNL A   1      41.952  29.632  29.187  1.00  0.00     0.049 A 
ATOM     49  C   UNL A   1      47.272  28.272  28.053  1.00  0.00     0.074 A 
ATOM     50  C   UNL A   1      41.728  30.905  29.679  1.00  0.00     0.029 A 
ATOM     51  N   UNL A   1      43.316  29.523  28.962  1.00  0.00    -0.354 N 
ATOM     52  N   UNL A   1      46.085  28.729  28.373  1.00  0.00    -0.248 NA
ATOM     53  C   UNL A   1      48.349  29.265  28.173  1.00  0.00     0.031 C 
ATOM     54  C   UNL A   1      42.949  31.585  29.700  1.00  0.00     0.029 A 
ATOM     55  C   UNL A   1      43.943  30.716  29.279  1.00  0.00     0.049 A 
ATOM     56  H   UNL A   1      43.771  28.717  28.627  1.00  0.00     0.167 HD
ATOM     57  C   UNL A   1      46.276  30.048  28.762  1.00  0.00     0.074 A 
ATOM     58  C   UNL A   1      47.696  30.314  28.651  1.00  0.00     0.031 C 
ATOM     59  C   UNL A   1      45.360  30.959  29.173  1.00  0.00     0.037 A 
BRANCH  46  60
ATOM     60  C   UNL A   1      39.538  28.884  29.148  1.00  0.00     0.057 A 
ATOM     61  C   UNL A   1      38.711  29.330  28.108  1.00  0.00     0.134 A 
ATOM     62  C   UNL A   1      38.946  28.688  30.402  1.00  0.00     0.134 A 
ATOM     63  F   UNL A   1      39.215  29.551  26.885  1.00  0.00    -0.206 F 
ATOM     64  C   UNL A   1      37.356  29.599  28.315  1.00  0.00     0.040 A 
ATOM     65  C   UNL A   1      37.586  28.923  30.613  1.00  0.00     0.040 A 
ATOM     66  F   UNL A   1      39.676  28.256  31.441  1.00  0.00    -0.206 F 
ATOM     67  C   UNL A   1      36.789  29.387  29.570  1.00  0.00     0.006 A 
ENDBRANCH  46  60
BRANCH  47  68
ATOM     68  C   UNL A   1      49.086  26.572  27.297  1.00  0.00     0.057 A 
ATOM     69  C   UNL A   1      49.627  26.793  26.025  1.00  0.00     0.134 A 
ATOM     70  C   UNL A   1      49.932  26.022  28.269  1.00  0.00     0.134 A 
ATOM     71  F   UNL A   1      48.864  27.302  25.046  1.00  0.00    -0.206 F 
ATOM     72  C   UNL A   1      50.949  26.459  25.722  1.00  0.00     0.040 A 
ATOM     73  C   UNL A   1      51.264  25.710  27.988  1.00  0.00     0.040 A 
ATOM     74  F   UNL A   1      49.478  25.792  29.510  1.00  0.00    -0.206 F 
ATOM     75  C   UNL A   1      51.773  25.920  26.708  1.00  0.00     0.006 A 
ENDBRANCH  47  68
BRANCH  59  76
ATOM     76  C   UNL A   1      45.868  32.313  29.576  1.00  0.00     0.057 A 
ATOM     77  C   UNL A   1      46.290  32.590  30.882  1.00  0.00     0.134 A 
ATOM     78  C   UNL A   1      45.977  33.341  28.629  1.00  0.00     0.134 A 
ATOM     79  F   UNL A   1      46.201  31.654  31.838  1.00  0.00    -0.206 F 
ATOM     80  C   UNL A   1      46.778  33.848  31.238  1.00  0.00     0.040 A 
ATOM     81  C   UNL A   1      46.492  34.592  28.966  1.00  0.00     0.040 A 
ATOM     82  F   UNL A   1      45.600  33.138  27.357  1.00  0.00    -0.206 F 
ATOM     83  C   UNL A   1      46.889  34.850  30.276  1.00  0.00     0.006 A 
ENDBRANCH  59  76
ENDBRANCH  33  34
ENDBRANCH  25  28
ENDBRANCH  23  24
ENDBRANCH   1  23
TORSDOF 12
ENDMDL
MODEL 3
REMARK VINA RESULT:     -11.6      2.506      7.204
REMARK SMILES Cn1ccc(NC(=O)[C@@H]2CCCC[C@@H]2C(=O)NCCCNC(=O)c2ccc(-c3c4nc(c(-c5c(F)cccc5F)c5ccc([nH]5)c(-c5c(F)cccc5F)c5nc(c(-c6c(F)cccc6F)c6ccc3[nH]6)C=C5)C=C4)cc2)n1
REMARK SMILES IDX 19 1 18 2 17 3 15 4 16 5 14 7 9 8 10 9 11 10 13 11 12 12
REMARK SMILES IDX 7 13 6 14 8 16 5 17 1 18 2 19 3 20 78 21 4 22 20 23 21 24
REMARK SMILES IDX 22 25 23 27 24 28 25 29 77 30 26 31 76 32 27 33 28 34 29 35
REMARK SMILES IDX 70 36 30 37 75 38 69 39 71 40 31 41 74 42 68 43 67 44 32 46
REMARK SMILES IDX 58 47 41 48 57 49 42 50 45 51 56 52 72 53 43 54 44 55 55 57
REMARK SMILES IDX 73 58 46 59 33 60 34 61 39 62 35 63 36 64 38 65 40 66 37 67
REMARK SMILES IDX 59 68 60 69 65 70 61 71 62 72 64 73 66 74 63 75 47 76 48 77
REMARK SMILES IDX 53 78 49 79 50 80 52 81 54 82 51 83
REMARK H PARENT 17 6 6 15 21 26 71 45 45 56
REMARK Flexibility Score: inf
ROOT
ATOM      1  C   UNL A   1      37.812  19.623  24.979  1.00  0.00     0.042 C 
ENDROOT
BRANCH   1   2
ATOM      2  C   UNL A   1      36.650  20.603  25.006  1.00  0.00     0.117 C 
BRANCH   2   3
ATOM      3  N   UNL A   1      36.853  21.660  24.049  1.00  0.00    -0.356 N 
ATOM      4  C   UNL A   1      35.980  22.564  23.535  1.00  0.00     0.223 C 
ATOM      5  O   UNL A   1      36.471  23.382  22.754  1.00  0.00    -0.275 OA
ATOM      6  H   UNL A   1      37.775  21.741  23.714  1.00  0.00     0.163 HD
BRANCH   4   7
ATOM      7  C   UNL A   1      34.508  22.610  23.983  1.00  0.00     0.091 C 
ATOM      8  C   UNL A   1      33.648  23.834  23.571  1.00  0.00     0.091 C 
ATOM      9  C   UNL A   1      34.346  25.111  24.072  1.00  0.00     0.014 C 
ATOM     10  C   UNL A   1      34.400  25.122  25.599  1.00  0.00     0.001 C 
ATOM     11  C   UNL A   1      34.446  22.550  25.532  1.00  0.00     0.014 C 
ATOM     12  C   UNL A   1      34.946  23.833  26.213  1.00  0.00     0.001 C 
BRANCH   8  13
ATOM     13  C   UNL A   1      33.148  23.984  22.129  1.00  0.00     0.229 C 
ATOM     14  N   UNL A   1      32.136  24.830  21.779  1.00  0.00    -0.309 N 
ATOM     15  H   UNL A   1      31.900  24.836  20.823  1.00  0.00     0.171 HD
ATOM     16  O   UNL A   1      33.653  23.328  21.210  1.00  0.00    -0.274 OA
BRANCH  14  17
ATOM     17  C   UNL A   1      31.403  25.676  22.572  1.00  0.00     0.154 A 
ATOM     18  C   UNL A   1      30.993  28.713  24.212  1.00  0.00     0.173 C 
ATOM     19  N   UNL A   1      30.854  27.366  23.714  1.00  0.00    -0.274 N 
ATOM     20  C   UNL A   1      30.151  26.343  24.273  1.00  0.00     0.110 A 
ATOM     21  N   UNL A   1      31.581  26.992  22.651  1.00  0.00    -0.155 NA
ATOM     22  C   UNL A   1      30.429  25.237  23.502  1.00  0.00     0.068 A 
ENDBRANCH  14  17
ENDBRANCH   8  13
ENDBRANCH   4   7
ENDBRANCH   2   3
ENDBRANCH   1   2
BRANCH   1  23
ATOM     23  C   UNL A   1      39.020  20.121  25.749  1.00  0.00     0.118 C 
BRANCH  23  24
ATOM     24  N   UNL A   1      40.047  19.095  25.869  1.00  0.00    -0.352 N 
ATOM     25  C   UNL A   1      41.397  19.227  26.059  1.00  0.00     0.251 C 
ATOM     26  H   UNL A   1      39.721  18.168  25.805  1.00  0.00     0.163 HD
ATOM     27  O   UNL A   1      42.126  18.245  25.918  1.00  0.00    -0.269 OA
BRANCH  25  28
ATOM     28  C   UNL A   1      41.980  20.539  26.405  1.00  0.00     0.039 A 
ATOM     29  C   UNL A   1      42.320  21.420  25.376  1.00  0.00     0.014 A 
ATOM     30  C   UNL A   1      42.204  20.902  27.736  1.00  0.00     0.014 A 
ATOM     31  C   UNL A   1      42.827  22.683  25.685  1.00  0.00     0.010 A 
ATOM     32  C   UNL A   1      42.604  22.196  28.045  1.00  0.00     0.010 A 
ATOM     33  C   UNL A   1      42.937  23.094  27.023  1.00  0.00    -0.014 A 
BRANCH  33  34
ATOM     34  C   UNL A   1      43.419  24.452  27.378  1.00  0.00     0.031 A 
ATOM     35  C   UNL A   1      42.438  25.508  27.809  1.00  0.00     0.074 A 
ATOM     36  C   UNL A   1      44.726  24.750  27.250  1.00  0.00     0.049 A 
ATOM     37  N   UNL A   1      42.650  26.768  28.091  1.00  0.00    -0.248 NA
ATOM     38  C   UNL A   1      41.025  25.104  27.906  1.00  0.00     0.031 C 
ATOM     39  C   UNL A   1      45.765  23.825  26.791  1.00  0.00     0.029 A 
ATOM     40  N   UNL A   1      45.404  25.919  27.485  1.00  0.00    -0.354 N 
ATOM     41  C   UNL A   1      41.402  27.306  28.377  1.00  0.00     0.074 A 
ATOM     42  C   UNL A   1      40.430  26.254  28.177  1.00  0.00     0.031 C 
ATOM     43  C   UNL A   1      46.951  24.453  26.808  1.00  0.00     0.029 A 
ATOM     44  C   UNL A   1      46.752  25.835  27.233  1.00  0.00     0.049 A 
ATOM     45  H   UNL A   1      44.966  26.741  27.804  1.00  0.00     0.167 HD
ATOM     46  C   UNL A   1      41.095  28.558  28.795  1.00  0.00     0.037 A 
ATOM     47  C   UNL A   1      47.716  26.770  27.325  1.00  0.00     0.037 A 
ATOM     48  C   UNL A   1      42.071  29.592  29.017  1.00  0.00     0.049 A 
ATOM     49  C   UNL A   1      47.347  28.155  27.780  1.00  0.00     0.074 A 
ATOM     50  C   UNL A   1      41.873  30.871  29.502  1.00  0.00     0.029 A 
ATOM     51  N   UNL A   1      43.428  29.463  28.763  1.00  0.00    -0.354 N 
ATOM     52  N   UNL A   1      46.173  28.630  28.122  1.00  0.00    -0.248 NA
ATOM     53  C   UNL A   1      48.438  29.135  27.867  1.00  0.00     0.031 C 
ATOM     54  C   UNL A   1      43.103  31.537  29.490  1.00  0.00     0.029 A 
ATOM     55  C   UNL A   1      44.076  30.651  29.055  1.00  0.00     0.049 A 
ATOM     56  H   UNL A   1      43.866  28.649  28.426  1.00  0.00     0.167 HD
ATOM     57  C   UNL A   1      46.389  29.950  28.494  1.00  0.00     0.074 A 
ATOM     58  C   UNL A   1      47.809  30.196  28.349  1.00  0.00     0.031 C 
ATOM     59  C   UNL A   1      45.493  30.876  28.916  1.00  0.00     0.037 A 
BRANCH  46  60
ATOM     60  C   UNL A   1      39.647  28.874  29.037  1.00  0.00     0.057 A 
ATOM     61  C   UNL A   1      38.802  29.318  28.011  1.00  0.00     0.134 A 
ATOM     62  C   UNL A   1      39.081  28.700  30.306  1.00  0.00     0.134 A 
ATOM     63  F   UNL A   1      39.281  29.519  26.774  1.00  0.00    -0.206 F 
ATOM     64  C   UNL A   1      37.456  29.606  28.244  1.00  0.00     0.040 A 
ATOM     65  C   UNL A   1      37.729  28.954  30.545  1.00  0.00     0.040 A 
ATOM     66  F   UNL A   1      39.828  28.271  31.334  1.00  0.00    -0.206 F 
ATOM     67  C   UNL A   1      36.914  29.415  29.514  1.00  0.00     0.006 A 
ENDBRANCH  46  60
BRANCH  47  68
ATOM     68  C   UNL A   1      49.123  26.425  27.001  1.00  0.00     0.057 A 
ATOM     69  C   UNL A   1      49.622  26.573  25.701  1.00  0.00     0.134 A 
ATOM     70  C   UNL A   1      50.000  25.928  27.973  1.00  0.00     0.134 A 
ATOM     71  F   UNL A   1      48.828  27.028  24.721  1.00  0.00    -0.206 F 
ATOM     72  C   UNL A   1      50.932  26.218  25.374  1.00  0.00     0.040 A 
ATOM     73  C   UNL A   1      51.321  25.597  27.667  1.00  0.00     0.040 A 
ATOM     74  F   UNL A   1      49.587  25.770  29.240  1.00  0.00    -0.206 F 
ATOM     75  C   UNL A   1      51.788  25.732  26.361  1.00  0.00     0.006 A 
ENDBRANCH  47  68
BRANCH  59  76
ATOM     76  C   UNL A   1      46.027  32.226  29.295  1.00  0.00     0.057 A 
ATOM     77  C   UNL A   1      46.128  33.272  28.370  1.00  0.00     0.134 A 
ATOM     78  C   UNL A   1      46.404  32.494  30.618  1.00  0.00     0.134 A 
ATOM     79  F   UNL A   1      45.795  33.079  27.085  1.00  0.00    -0.206 F 
ATOM     80  C   UNL A   1      46.608  34.529  28.741  1.00  0.00     0.040 A 
ATOM     81  C   UNL A   1      46.856  33.755  31.008  1.00  0.00     0.040 A 
ATOM     82  F   UNL A   1      46.322  31.539  31.557  1.00  0.00    -0.206 F 
ATOM     83  C   UNL A   1      46.966  34.775  30.066  1.00  0.00     0.006 A 
ENDBRANCH  59  76
ENDBRANCH  33  34
ENDBRANCH  25  28
ENDBRANCH  23  24
ENDBRANCH   1  23
TORSDOF 12
ENDMDL
