MODEL 1
REMARK VINA RESULT:     -12.9      0.000      0.000
REMARK SMILES COc1ccc(C[NH2+]Cc2cccn2-c2sc(C)c(C)c2C(=O)NCCCNC(=O)c2ccc(-c3c4nc(c(-c5c(F)cccc5F)c5ccc([nH]5)c(-c5c(F)cccc5F)c5nc(c(-c6c(F)cccc6F)c6ccc3[nH]6)C=C5)C=C4)cc2)cc1
REMARK SMILES IDX 22 1 23 2 24 3 21 5 15 6 16 7 17 8 19 9 18 10 20 11 14 12
REMARK SMILES IDX 10 13 11 14 12 15 13 16 9 17 8 18 7 21 6 22 3 23 4 24 86 25
REMARK SMILES IDX 5 26 85 27 2 28 1 29 25 30 26 31 27 32 28 33 29 34 30 36
REMARK SMILES IDX 31 37 32 38 84 39 33 40 83 41 34 42 35 43 36 44 77 45 37 46
REMARK SMILES IDX 82 47 76 48 78 49 38 50 81 51 75 52 74 53 39 55 65 56 48 57
REMARK SMILES IDX 64 58 49 59 52 60 63 61 79 62 50 63 51 64 62 66 80 67 53 68
REMARK SMILES IDX 40 69 41 70 46 71 42 72 43 73 45 74 47 75 44 76 66 77 67 78
REMARK SMILES IDX 72 79 68 80 69 81 71 82 73 83 70 84 54 85 55 86 60 87 56 88
REMARK SMILES IDX 57 89 59 90 61 91 58 92
REMARK H PARENT 24 4 8 19 8 20 28 35 78 54 52 65
REMARK Flexibility Score: inf
ROOT
ATOM      1  C   UNL A   1      32.858  28.764  23.595  1.00  0.00     0.254 C 
ATOM      2  O   UNL A   1      33.405  28.876  22.495  1.00  0.00    -0.269 OA
ATOM      3  N   UNL A   1      33.291  29.649  24.558  1.00  0.00    -0.352 N 
ATOM      4  H   UNL A   1      34.030  30.245  24.298  1.00  0.00     0.163 HD
ENDROOT
BRANCH   1   5
ATOM      5  C   UNL A   1      31.862  27.691  23.832  1.00  0.00     0.078 A 
ATOM      6  C   UNL A   1      32.018  26.356  24.191  1.00  0.00     0.113 A 
ATOM      7  S   UNL A   1      30.576  25.664  24.777  1.00  0.00    -0.122 S 
ATOM      8  C   UNL A   1      29.632  26.852  24.023  1.00  0.00     0.007 A 
ATOM      9  C   UNL A   1      30.406  27.962  23.716  1.00  0.00    -0.022 A 
ATOM     10  C   UNL A   1      28.163  26.629  23.876  1.00  0.00     0.057 C 
ATOM     11  C   UNL A   1      29.823  29.279  23.293  1.00  0.00     0.046 C 
BRANCH   6  12
ATOM     12  N   UNL A   1      33.141  25.544  24.387  1.00  0.00    -0.306 N 
ATOM     13  C   UNL A   1      33.691  24.592  23.504  1.00  0.00     0.078 A 
ATOM     14  C   UNL A   1      34.819  24.059  24.109  1.00  0.00     0.029 A 
ATOM     15  C   UNL A   1      34.953  24.645  25.383  1.00  0.00     0.020 A 
ATOM     16  C   UNL A   1      33.913  25.533  25.536  1.00  0.00     0.092 A 
BRANCH  13  17
ATOM     17  C   UNL A   1      33.204  24.326  22.098  1.00  0.00     0.316 C 
BRANCH  17  18
ATOM     18  N   UNL A   1      32.538  23.027  21.963  1.00  0.00    -0.338 N 
ATOM     19  H   UNL A   1      31.651  23.144  21.473  1.00  0.00     0.346 HD
ATOM     20  H   UNL A   1      33.124  22.385  21.430  1.00  0.00     0.346 HD
BRANCH  18  21
ATOM     21  C   UNL A   1      32.298  22.497  23.294  1.00  0.00     0.297 C 
BRANCH  21  22
ATOM     22  C   UNL A   1      32.628  21.053  23.507  1.00  0.00     0.006 A 
ATOM     23  C   UNL A   1      32.836  18.366  24.234  1.00  0.00     0.118 A 
ATOM     24  C   UNL A   1      32.263  18.721  23.009  1.00  0.00     0.047 A 
ATOM     25  C   UNL A   1      33.393  19.345  25.051  1.00  0.00     0.047 A 
ATOM     26  C   UNL A   1      32.154  20.064  22.645  1.00  0.00     0.013 A 
ATOM     27  C   UNL A   1      33.293  20.683  24.687  1.00  0.00     0.013 A 
BRANCH  23  28
ATOM     28  O   UNL A   1      32.816  17.032  24.546  1.00  0.00    -0.497 OA
ATOM     29  C   UNL A   1      34.110  16.468  24.751  1.00  0.00     0.278 C 
ENDBRANCH  23  28
ENDBRANCH  21  22
ENDBRANCH  18  21
ENDBRANCH  17  18
ENDBRANCH  13  17
ENDBRANCH   6  12
ENDBRANCH   1   5
BRANCH   3  30
ATOM     30  C   UNL A   1      32.796  29.807  25.890  1.00  0.00     0.118 C 
BRANCH  30  31
ATOM     31  C   UNL A   1      33.394  28.981  27.011  1.00  0.00     0.042 C 
BRANCH  31  32
ATOM     32  C   UNL A   1      34.893  29.147  27.157  1.00  0.00     0.118 C 
BRANCH  32  33
ATOM     33  N   UNL A   1      35.309  30.430  27.702  1.00  0.00    -0.352 N 
ATOM     34  C   UNL A   1      36.536  30.736  28.278  1.00  0.00     0.251 C 
ATOM     35  H   UNL A   1      34.650  31.160  27.659  1.00  0.00     0.163 HD
ATOM     36  O   UNL A   1      36.719  31.790  28.856  1.00  0.00    -0.269 OA
BRANCH  34  37
ATOM     37  C   UNL A   1      37.588  29.704  28.233  1.00  0.00     0.039 A 
ATOM     38  C   UNL A   1      38.495  29.716  27.170  1.00  0.00     0.014 A 
ATOM     39  C   UNL A   1      37.746  28.817  29.303  1.00  0.00     0.014 A 
ATOM     40  C   UNL A   1      39.638  28.927  27.247  1.00  0.00     0.010 A 
ATOM     41  C   UNL A   1      38.922  28.097  29.424  1.00  0.00     0.010 A 
ATOM     42  C   UNL A   1      39.877  28.167  28.403  1.00  0.00    -0.014 A 
BRANCH  42  43
ATOM     43  C   UNL A   1      41.197  27.522  28.582  1.00  0.00     0.031 A 
ATOM     44  C   UNL A   1      41.212  26.057  28.136  1.00  0.00     0.074 A 
ATOM     45  C   UNL A   1      42.190  28.299  29.100  1.00  0.00     0.049 A 
ATOM     46  N   UNL A   1      41.900  25.055  28.592  1.00  0.00    -0.248 NA
ATOM     47  C   UNL A   1      40.256  25.623  27.082  1.00  0.00     0.031 C 
ATOM     48  C   UNL A   1      42.010  29.720  29.453  1.00  0.00     0.029 A 
ATOM     49  N   UNL A   1      43.513  28.092  29.434  1.00  0.00    -0.354 N 
ATOM     50  C   UNL A   1      41.607  23.936  27.783  1.00  0.00     0.074 A 
ATOM     51  C   UNL A   1      40.494  24.314  26.963  1.00  0.00     0.031 C 
ATOM     52  C   UNL A   1      43.134  30.226  29.988  1.00  0.00     0.029 A 
ATOM     53  C   UNL A   1      44.154  29.200  30.046  1.00  0.00     0.049 A 
ATOM     54  H   UNL A   1      43.977  27.242  29.259  1.00  0.00     0.167 HD
ATOM     55  C   UNL A   1      42.393  22.819  27.736  1.00  0.00     0.037 A 
ATOM     56  C   UNL A   1      45.394  29.289  30.619  1.00  0.00     0.037 A 
ATOM     57  C   UNL A   1      43.507  22.963  28.615  1.00  0.00     0.049 A 
ATOM     58  C   UNL A   1      46.033  27.980  30.412  1.00  0.00     0.074 A 
ATOM     59  C   UNL A   1      43.642  22.951  29.977  1.00  0.00     0.029 A 
ATOM     60  N   UNL A   1      44.659  23.460  28.059  1.00  0.00    -0.354 N 
ATOM     61  N   UNL A   1      46.515  27.554  29.282  1.00  0.00    -0.248 NA
ATOM     62  C   UNL A   1      46.050  27.020  31.525  1.00  0.00     0.031 C 
ATOM     63  C   UNL A   1      44.712  23.843  30.222  1.00  0.00     0.029 A 
ATOM     64  C   UNL A   1      45.261  24.254  29.003  1.00  0.00     0.049 A 
ATOM     65  H   UNL A   1      44.994  23.279  27.151  1.00  0.00     0.167 HD
ATOM     66  C   UNL A   1      46.575  26.193  29.479  1.00  0.00     0.074 A 
ATOM     67  C   UNL A   1      46.593  25.976  30.906  1.00  0.00     0.031 C 
ATOM     68  C   UNL A   1      46.071  25.358  28.536  1.00  0.00     0.037 A 
BRANCH  55  69
ATOM     69  C   UNL A   1      42.445  21.659  26.773  1.00  0.00     0.057 A 
ATOM     70  C   UNL A   1      41.740  20.477  27.107  1.00  0.00     0.134 A 
ATOM     71  C   UNL A   1      43.389  21.529  25.750  1.00  0.00     0.134 A 
ATOM     72  F   UNL A   1      40.779  20.487  28.046  1.00  0.00    -0.206 F 
ATOM     73  C   UNL A   1      42.046  19.230  26.555  1.00  0.00     0.040 A 
ATOM     74  C   UNL A   1      43.669  20.289  25.153  1.00  0.00     0.040 A 
ATOM     75  F   UNL A   1      44.140  22.563  25.352  1.00  0.00    -0.206 F 
ATOM     76  C   UNL A   1      43.030  19.131  25.584  1.00  0.00     0.006 A 
ENDBRANCH  55  69
BRANCH  56  77
ATOM     77  C   UNL A   1      46.136  30.301  31.462  1.00  0.00     0.057 A 
ATOM     78  C   UNL A   1      47.135  31.174  31.019  1.00  0.00     0.134 A 
ATOM     79  C   UNL A   1      45.815  30.463  32.836  1.00  0.00     0.134 A 
ATOM     80  F   UNL A   1      47.695  31.052  29.813  1.00  0.00    -0.206 F 
ATOM     81  C   UNL A   1      47.656  32.207  31.822  1.00  0.00     0.040 A 
ATOM     82  C   UNL A   1      46.310  31.493  33.642  1.00  0.00     0.040 A 
ATOM     83  F   UNL A   1      44.997  29.619  33.479  1.00  0.00    -0.206 F 
ATOM     84  C   UNL A   1      47.219  32.393  33.126  1.00  0.00     0.006 A 
ENDBRANCH  56  77
BRANCH  68  85
ATOM     85  C   UNL A   1      46.048  25.954  27.143  1.00  0.00     0.057 A 
ATOM     86  C   UNL A   1      47.242  26.136  26.433  1.00  0.00     0.134 A 
ATOM     87  C   UNL A   1      44.898  26.478  26.537  1.00  0.00     0.134 A 
ATOM     88  F   UNL A   1      48.398  25.663  26.925  1.00  0.00    -0.206 F 
ATOM     89  C   UNL A   1      47.286  26.819  25.210  1.00  0.00     0.040 A 
ATOM     90  C   UNL A   1      44.919  27.148  25.309  1.00  0.00     0.040 A 
ATOM     91  F   UNL A   1      43.709  26.372  27.127  1.00  0.00    -0.206 F 
ATOM     92  C   UNL A   1      46.122  27.332  24.644  1.00  0.00     0.006 A 
ENDBRANCH  68  85
ENDBRANCH  42  43
ENDBRANCH  34  37
ENDBRANCH  32  33
ENDBRANCH  31  32
ENDBRANCH  30  31
ENDBRANCH   3  30
TORSDOF 16
ENDMDL
MODEL 2
REMARK VINA RESULT:     -12.8      1.634      2.022
REMARK SMILES COc1ccc(C[NH2+]Cc2cccn2-c2sc(C)c(C)c2C(=O)NCCCNC(=O)c2ccc(-c3c4nc(c(-c5c(F)cccc5F)c5ccc([nH]5)c(-c5c(F)cccc5F)c5nc(c(-c6c(F)cccc6F)c6ccc3[nH]6)C=C5)C=C4)cc2)cc1
REMARK SMILES IDX 22 1 23 2 24 3 21 5 15 6 16 7 17 8 19 9 18 10 20 11 14 12
REMARK SMILES IDX 10 13 11 14 12 15 13 16 9 17 8 18 7 21 6 22 3 23 4 24 86 25
REMARK SMILES IDX 5 26 85 27 2 28 1 29 25 30 26 31 27 32 28 33 29 34 30 36
REMARK SMILES IDX 31 37 32 38 84 39 33 40 83 41 34 42 35 43 36 44 77 45 37 46
REMARK SMILES IDX 82 47 76 48 78 49 38 50 81 51 75 52 74 53 39 55 65 56 48 57
REMARK SMILES IDX 64 58 49 59 52 60 63 61 79 62 50 63 51 64 62 66 80 67 53 68
REMARK SMILES IDX 40 69 41 70 46 71 42 72 43 73 45 74 47 75 44 76 66 77 67 78
REMARK SMILES IDX 72 79 68 80 69 81 71 82 73 83 70 84 54 85 55 86 60 87 56 88
REMARK SMILES IDX 57 89 59 90 61 91 58 92
REMARK H PARENT 24 4 8 19 8 20 28 35 78 54 52 65
REMARK Flexibility Score: inf
ROOT
ATOM      1  C   UNL A   1      32.808  28.772  23.605  1.00  0.00     0.254 C 
ATOM      2  O   UNL A   1      33.384  28.870  22.518  1.00  0.00    -0.269 OA
ATOM      3  N   UNL A   1      33.197  29.685  24.560  1.00  0.00    -0.352 N 
ATOM      4  H   UNL A   1      33.933  30.288  24.308  1.00  0.00     0.163 HD
ENDROOT
BRANCH   1   5
ATOM      5  C   UNL A   1      31.824  27.686  23.837  1.00  0.00     0.078 A 
ATOM      6  C   UNL A   1      31.995  26.349  24.183  1.00  0.00     0.113 A 
ATOM      7  S   UNL A   1      30.562  25.637  24.769  1.00  0.00    -0.122 S 
ATOM      8  C   UNL A   1      29.603  26.824  24.031  1.00  0.00     0.007 A 
ATOM      9  C   UNL A   1      30.364  27.944  23.731  1.00  0.00    -0.022 A 
ATOM     10  C   UNL A   1      28.136  26.587  23.890  1.00  0.00     0.057 C 
ATOM     11  C   UNL A   1      29.766  29.259  23.324  1.00  0.00     0.046 C 
BRANCH   6  12
ATOM     12  N   UNL A   1      33.126  25.547  24.365  1.00  0.00    -0.306 N 
ATOM     13  C   UNL A   1      33.648  24.568  23.494  1.00  0.00     0.078 A 
ATOM     14  C   UNL A   1      34.799  24.057  24.076  1.00  0.00     0.029 A 
ATOM     15  C   UNL A   1      34.976  24.686  25.325  1.00  0.00     0.020 A 
ATOM     16  C   UNL A   1      33.939  25.575  25.485  1.00  0.00     0.092 A 
BRANCH  13  17
ATOM     17  C   UNL A   1      33.113  24.254  22.116  1.00  0.00     0.316 C 
BRANCH  17  18
ATOM     18  N   UNL A   1      32.912  22.819  21.897  1.00  0.00    -0.338 N 
ATOM     19  H   UNL A   1      32.453  22.669  20.999  1.00  0.00     0.346 HD
ATOM     20  H   UNL A   1      33.810  22.336  21.890  1.00  0.00     0.346 HD
BRANCH  18  21
ATOM     21  C   UNL A   1      32.076  22.307  22.969  1.00  0.00     0.297 C 
BRANCH  21  22
ATOM     22  C   UNL A   1      32.431  20.954  23.503  1.00  0.00     0.006 A 
ATOM     23  C   UNL A   1      33.476  18.445  24.140  1.00  0.00     0.118 A 
ATOM     24  C   UNL A   1      33.754  19.550  24.950  1.00  0.00     0.047 A 
ATOM     25  C   UNL A   1      32.598  18.573  23.067  1.00  0.00     0.047 A 
ATOM     26  C   UNL A   1      33.237  20.806  24.632  1.00  0.00     0.013 A 
ATOM     27  C   UNL A   1      32.073  19.822  22.753  1.00  0.00     0.013 A 
BRANCH  23  28
ATOM     28  O   UNL A   1      34.101  17.275  24.478  1.00  0.00    -0.497 OA
ATOM     29  C   UNL A   1      33.208  16.183  24.688  1.00  0.00     0.278 C 
ENDBRANCH  23  28
ENDBRANCH  21  22
ENDBRANCH  18  21
ENDBRANCH  17  18
ENDBRANCH  13  17
ENDBRANCH   6  12
ENDBRANCH   1   5
BRANCH   3  30
ATOM     30  C   UNL A   1      32.662  29.861  25.874  1.00  0.00     0.118 C 
BRANCH  30  31
ATOM     31  C   UNL A   1      33.247  29.076  27.031  1.00  0.00     0.042 C 
BRANCH  31  32
ATOM     32  C   UNL A   1      34.750  29.213  27.161  1.00  0.00     0.118 C 
BRANCH  32  33
ATOM     33  N   UNL A   1      35.205  30.543  27.536  1.00  0.00    -0.352 N 
ATOM     34  C   UNL A   1      36.434  30.881  28.090  1.00  0.00     0.251 C 
ATOM     35  H   UNL A   1      34.576  31.284  27.380  1.00  0.00     0.163 HD
ATOM     36  O   UNL A   1      36.648  31.997  28.523  1.00  0.00    -0.269 OA
BRANCH  34  37
ATOM     37  C   UNL A   1      37.447  29.816  28.208  1.00  0.00     0.039 A 
ATOM     38  C   UNL A   1      38.507  29.796  27.298  1.00  0.00     0.014 A 
ATOM     39  C   UNL A   1      37.410  28.929  29.289  1.00  0.00     0.014 A 
ATOM     40  C   UNL A   1      39.599  28.971  27.550  1.00  0.00     0.010 A 
ATOM     41  C   UNL A   1      38.529  28.173  29.589  1.00  0.00     0.010 A 
ATOM     42  C   UNL A   1      39.633  28.209  28.728  1.00  0.00    -0.014 A 
BRANCH  42  43
ATOM     43  C   UNL A   1      40.887  27.523  29.108  1.00  0.00     0.031 A 
ATOM     44  C   UNL A   1      41.225  26.342  28.193  1.00  0.00     0.074 A 
ATOM     45  C   UNL A   1      41.553  28.024  30.187  1.00  0.00     0.049 A 
ATOM     46  N   UNL A   1      41.841  25.232  28.460  1.00  0.00    -0.248 NA
ATOM     47  C   UNL A   1      40.729  26.363  26.790  1.00  0.00     0.031 C 
ATOM     48  C   UNL A   1      41.097  29.202  30.949  1.00  0.00     0.029 A 
ATOM     49  N   UNL A   1      42.707  27.683  30.863  1.00  0.00    -0.354 N 
ATOM     50  C   UNL A   1      41.967  24.514  27.251  1.00  0.00     0.074 A 
ATOM     51  C   UNL A   1      41.149  25.198  26.292  1.00  0.00     0.031 C 
ATOM     52  C   UNL A   1      41.913  29.445  31.988  1.00  0.00     0.029 A 
ATOM     53  C   UNL A   1      42.973  28.459  32.020  1.00  0.00     0.049 A 
ATOM     54  H   UNL A   1      43.302  26.958  30.563  1.00  0.00     0.167 HD
ATOM     55  C   UNL A   1      42.854  23.489  27.077  1.00  0.00     0.037 A 
ATOM     56  C   UNL A   1      43.934  28.300  32.981  1.00  0.00     0.037 A 
ATOM     57  C   UNL A   1      43.590  23.265  28.277  1.00  0.00     0.049 A 
ATOM     58  C   UNL A   1      44.759  27.161  32.547  1.00  0.00     0.074 A 
ATOM     59  C   UNL A   1      43.270  22.728  29.495  1.00  0.00     0.029 A 
ATOM     60  N   UNL A   1      44.792  23.919  28.384  1.00  0.00    -0.354 N 
ATOM     61  N   UNL A   1      45.634  27.196  31.586  1.00  0.00    -0.248 NA
ATOM     62  C   UNL A   1      44.524  25.847  33.161  1.00  0.00     0.031 C 
ATOM     63  C   UNL A   1      44.083  23.438  30.407  1.00  0.00     0.029 A 
ATOM     64  C   UNL A   1      44.949  24.279  29.699  1.00  0.00     0.049 A 
ATOM     65  H   UNL A   1      45.426  24.096  27.652  1.00  0.00     0.167 HD
ATOM     66  C   UNL A   1      45.789  25.863  31.279  1.00  0.00     0.074 A 
ATOM     67  C   UNL A   1      45.362  25.113  32.436  1.00  0.00     0.031 C 
ATOM     68  C   UNL A   1      45.729  25.463  29.983  1.00  0.00     0.037 A 
BRANCH  55  69
ATOM     69  C   UNL A   1      43.359  22.789  25.840  1.00  0.00     0.057 A 
ATOM     70  C   UNL A   1      43.421  21.374  25.847  1.00  0.00     0.134 A 
ATOM     71  C   UNL A   1      44.079  23.418  24.819  1.00  0.00     0.134 A 
ATOM     72  F   UNL A   1      42.737  20.657  26.755  1.00  0.00    -0.206 F 
ATOM     73  C   UNL A   1      44.245  20.647  24.983  1.00  0.00     0.040 A 
ATOM     74  C   UNL A   1      44.870  22.693  23.914  1.00  0.00     0.040 A 
ATOM     75  F   UNL A   1      44.122  24.751  24.711  1.00  0.00    -0.206 F 
ATOM     76  C   UNL A   1      44.989  21.311  24.022  1.00  0.00     0.006 A 
ENDBRANCH  55  69
BRANCH  56  77
ATOM     77  C   UNL A   1      44.230  28.897  34.338  1.00  0.00     0.057 A 
ATOM     78  C   UNL A   1      45.404  29.557  34.714  1.00  0.00     0.134 A 
ATOM     79  C   UNL A   1      43.252  28.855  35.368  1.00  0.00     0.134 A 
ATOM     80  F   UNL A   1      46.499  29.541  33.949  1.00  0.00    -0.206 F 
ATOM     81  C   UNL A   1      45.538  30.238  35.940  1.00  0.00     0.040 A 
ATOM     82  C   UNL A   1      43.362  29.539  36.583  1.00  0.00     0.040 A 
ATOM     83  F   UNL A   1      42.128  28.137  35.251  1.00  0.00    -0.206 F 
ATOM     84  C   UNL A   1      44.503  30.262  36.864  1.00  0.00     0.006 A 
ENDBRANCH  56  77
BRANCH  68  85
ATOM     85  C   UNL A   1      46.094  26.550  28.993  1.00  0.00     0.057 A 
ATOM     86  C   UNL A   1      47.422  26.977  28.870  1.00  0.00     0.134 A 
ATOM     87  C   UNL A   1      45.153  27.281  28.254  1.00  0.00     0.134 A 
ATOM     88  F   UNL A   1      48.399  26.336  29.531  1.00  0.00    -0.206 F 
ATOM     89  C   UNL A   1      47.783  28.077  28.081  1.00  0.00     0.040 A 
ATOM     90  C   UNL A   1      45.495  28.372  27.448  1.00  0.00     0.040 A 
ATOM     91  F   UNL A   1      43.859  26.970  28.303  1.00  0.00    -0.206 F 
ATOM     92  C   UNL A   1      46.817  28.782  27.368  1.00  0.00     0.006 A 
ENDBRANCH  68  85
ENDBRANCH  42  43
ENDBRANCH  34  37
ENDBRANCH  32  33
ENDBRANCH  31  32
ENDBRANCH  30  31
ENDBRANCH   3  30
TORSDOF 16
ENDMDL
MODEL 3
REMARK VINA RESULT:     -12.4      2.251      2.889
REMARK SMILES COc1ccc(C[NH2+]Cc2cccn2-c2sc(C)c(C)c2C(=O)NCCCNC(=O)c2ccc(-c3c4nc(c(-c5c(F)cccc5F)c5ccc([nH]5)c(-c5c(F)cccc5F)c5nc(c(-c6c(F)cccc6F)c6ccc3[nH]6)C=C5)C=C4)cc2)cc1
REMARK SMILES IDX 22 1 23 2 24 3 21 5 15 6 16 7 17 8 19 9 18 10 20 11 14 12
REMARK SMILES IDX 10 13 11 14 12 15 13 16 9 17 8 18 7 21 6 22 3 23 4 24 86 25
REMARK SMILES IDX 5 26 85 27 2 28 1 29 25 30 26 31 27 32 28 33 29 34 30 36
REMARK SMILES IDX 31 37 32 38 84 39 33 40 83 41 34 42 35 43 36 44 77 45 37 46
REMARK SMILES IDX 82 47 76 48 78 49 38 50 81 51 75 52 74 53 39 55 65 56 48 57
REMARK SMILES IDX 64 58 49 59 52 60 63 61 79 62 50 63 51 64 62 66 80 67 53 68
REMARK SMILES IDX 40 69 41 70 46 71 42 72 43 73 45 74 47 75 44 76 66 77 67 78
REMARK SMILES IDX 72 79 68 80 69 81 71 82 73 83 70 84 54 85 55 86 60 87 56 88
REMARK SMILES IDX 57 89 59 90 61 91 58 92
REMARK H PARENT 24 4 8 19 8 20 28 35 78 54 52 65
REMARK Flexibility Score: inf
ROOT
ATOM      1  C   UNL A   1      33.120  26.928  24.045  1.00  0.00     0.254 C 
ATOM      2  O   UNL A   1      33.787  26.761  23.022  1.00  0.00    -0.269 OA
ATOM      3  N   UNL A   1      33.846  27.220  25.179  1.00  0.00    -0.352 N 
ATOM      4  H   UNL A   1      34.825  27.212  25.080  1.00  0.00     0.163 HD
ENDROOT
BRANCH   1   5
ATOM      5  C   UNL A   1      31.648  26.746  24.019  1.00  0.00     0.078 A 
ATOM      6  C   UNL A   1      30.840  25.719  24.496  1.00  0.00     0.113 A 
ATOM      7  S   UNL A   1      29.205  26.180  24.630  1.00  0.00    -0.122 S 
ATOM      8  C   UNL A   1      29.417  27.457  23.536  1.00  0.00     0.007 A 
ATOM      9  C   UNL A   1      30.762  27.779  23.422  1.00  0.00    -0.022 A 
ATOM     10  C   UNL A   1      28.214  28.109  22.939  1.00  0.00     0.057 C 
ATOM     11  C   UNL A   1      31.254  29.028  22.749  1.00  0.00     0.046 C 
BRANCH   6  12
ATOM     12  N   UNL A   1      31.117  24.485  25.096  1.00  0.00    -0.306 N 
ATOM     13  C   UNL A   1      31.563  23.298  24.478  1.00  0.00     0.078 A 
ATOM     14  C   UNL A   1      31.736  22.346  25.472  1.00  0.00     0.029 A 
ATOM     15  C   UNL A   1      31.363  22.923  26.702  1.00  0.00     0.020 A 
ATOM     16  C   UNL A   1      30.976  24.218  26.446  1.00  0.00     0.092 A 
BRANCH  13  17
ATOM     17  C   UNL A   1      31.919  23.158  23.016  1.00  0.00     0.316 C 
BRANCH  17  18
ATOM     18  N   UNL A   1      33.213  22.502  22.806  1.00  0.00    -0.338 N 
ATOM     19  H   UNL A   1      33.333  21.751  23.485  1.00  0.00     0.346 HD
ATOM     20  H   UNL A   1      33.258  22.106  21.868  1.00  0.00     0.346 HD
BRANCH  18  21
ATOM     21  C   UNL A   1      34.260  23.495  22.980  1.00  0.00     0.297 C 
BRANCH  21  22
ATOM     22  C   UNL A   1      35.285  23.205  24.032  1.00  0.00     0.006 A 
ATOM     23  C   UNL A   1      37.532  22.887  25.657  1.00  0.00     0.118 A 
ATOM     24  C   UNL A   1      36.616  23.910  25.916  1.00  0.00     0.047 A 
ATOM     25  C   UNL A   1      37.277  21.964  24.647  1.00  0.00     0.047 A 
ATOM     26  C   UNL A   1      35.493  24.074  25.103  1.00  0.00     0.013 A 
ATOM     27  C   UNL A   1      36.155  22.119  23.841  1.00  0.00     0.013 A 
BRANCH  23  28
ATOM     28  O   UNL A   1      38.649  22.861  26.449  1.00  0.00    -0.497 OA
ATOM     29  C   UNL A   1      39.531  21.776  26.168  1.00  0.00     0.278 C 
ENDBRANCH  23  28
ENDBRANCH  21  22
ENDBRANCH  18  21
ENDBRANCH  17  18
ENDBRANCH  13  17
ENDBRANCH   6  12
ENDBRANCH   1   5
BRANCH   3  30
ATOM     30  C   UNL A   1      33.349  27.534  26.482  1.00  0.00     0.118 C 
BRANCH  30  31
ATOM     31  C   UNL A   1      33.576  28.918  27.055  1.00  0.00     0.042 C 
BRANCH  31  32
ATOM     32  C   UNL A   1      34.979  29.445  26.838  1.00  0.00     0.118 C 
BRANCH  32  33
ATOM     33  N   UNL A   1      35.289  30.661  27.572  1.00  0.00    -0.352 N 
ATOM     34  C   UNL A   1      36.386  30.885  28.396  1.00  0.00     0.251 C 
ATOM     35  H   UNL A   1      34.653  31.407  27.476  1.00  0.00     0.163 HD
ATOM     36  O   UNL A   1      36.460  31.876  29.097  1.00  0.00    -0.269 OA
BRANCH  34  37
ATOM     37  C   UNL A   1      37.423  29.840  28.452  1.00  0.00     0.039 A 
ATOM     38  C   UNL A   1      38.485  29.899  27.544  1.00  0.00     0.014 A 
ATOM     39  C   UNL A   1      37.406  28.888  29.477  1.00  0.00     0.014 A 
ATOM     40  C   UNL A   1      39.596  29.086  27.749  1.00  0.00     0.010 A 
ATOM     41  C   UNL A   1      38.543  28.141  29.733  1.00  0.00     0.010 A 
ATOM     42  C   UNL A   1      39.646  28.255  28.879  1.00  0.00    -0.014 A 
BRANCH  42  43
ATOM     43  C   UNL A   1      40.916  27.577  29.219  1.00  0.00     0.031 A 
ATOM     44  C   UNL A   1      41.232  26.398  28.295  1.00  0.00     0.074 A 
ATOM     45  C   UNL A   1      41.613  28.084  30.277  1.00  0.00     0.049 A 
ATOM     46  N   UNL A   1      41.862  25.291  28.544  1.00  0.00    -0.248 NA
ATOM     47  C   UNL A   1      40.692  26.414  26.909  1.00  0.00     0.031 C 
ATOM     48  C   UNL A   1      41.174  29.261  31.051  1.00  0.00     0.029 A 
ATOM     49  N   UNL A   1      42.790  27.751  30.916  1.00  0.00    -0.354 N 
ATOM     50  C   UNL A   1      41.955  24.573  27.332  1.00  0.00     0.074 A 
ATOM     51  C   UNL A   1      41.103  25.250  26.400  1.00  0.00     0.031 C 
ATOM     52  C   UNL A   1      42.021  29.509  32.064  1.00  0.00     0.029 A 
ATOM     53  C   UNL A   1      43.087  28.530  32.063  1.00  0.00     0.049 A 
ATOM     54  H   UNL A   1      43.379  27.029  30.598  1.00  0.00     0.167 HD
ATOM     55  C   UNL A   1      42.842  23.553  27.132  1.00  0.00     0.037 A 
ATOM     56  C   UNL A   1      44.080  28.378  32.993  1.00  0.00     0.037 A 
ATOM     57  C   UNL A   1      43.617  23.335  28.308  1.00  0.00     0.049 A 
ATOM     58  C   UNL A   1      44.897  27.244  32.534  1.00  0.00     0.074 A 
ATOM     59  C   UNL A   1      43.339  22.797  29.536  1.00  0.00     0.029 A 
ATOM     60  N   UNL A   1      44.818  23.996  28.376  1.00  0.00    -0.354 N 
ATOM     61  N   UNL A   1      45.741  27.282  31.546  1.00  0.00    -0.248 NA
ATOM     62  C   UNL A   1      44.690  25.929  33.157  1.00  0.00     0.031 C 
ATOM     63  C   UNL A   1      44.176  23.514  30.421  1.00  0.00     0.029 A 
ATOM     64  C   UNL A   1      45.014  24.359  29.685  1.00  0.00     0.049 A 
ATOM     65  H   UNL A   1      45.427  24.176  27.624  1.00  0.00     0.167 HD
ATOM     66  C   UNL A   1      45.894  25.950  31.235  1.00  0.00     0.074 A 
ATOM     67  C   UNL A   1      45.509  25.199  32.406  1.00  0.00     0.031 C 
ATOM     68  C   UNL A   1      45.795  25.548  29.943  1.00  0.00     0.037 A 
BRANCH  55  69
ATOM     69  C   UNL A   1      43.311  22.854  25.880  1.00  0.00     0.057 A 
ATOM     70  C   UNL A   1      43.389  21.440  25.889  1.00  0.00     0.134 A 
ATOM     71  C   UNL A   1      43.989  23.488  24.834  1.00  0.00     0.134 A 
ATOM     72  F   UNL A   1      42.744  20.718  26.822  1.00  0.00    -0.206 F 
ATOM     73  C   UNL A   1      44.190  20.719  25.000  1.00  0.00     0.040 A 
ATOM     74  C   UNL A   1      44.756  22.768  23.904  1.00  0.00     0.040 A 
ATOM     75  F   UNL A   1      44.015  24.821  24.720  1.00  0.00    -0.206 F 
ATOM     76  C   UNL A   1      44.894  21.388  24.011  1.00  0.00     0.006 A 
ENDBRANCH  55  69
BRANCH  56  77
ATOM     77  C   UNL A   1      44.414  28.978  34.340  1.00  0.00     0.057 A 
ATOM     78  C   UNL A   1      45.473  29.850  34.617  1.00  0.00     0.134 A 
ATOM     79  C   UNL A   1      43.597  28.707  35.469  1.00  0.00     0.134 A 
ATOM     80  F   UNL A   1      46.448  30.080  33.734  1.00  0.00    -0.206 F 
ATOM     81  C   UNL A   1      45.617  30.505  35.856  1.00  0.00     0.040 A 
ATOM     82  C   UNL A   1      43.716  29.360  36.700  1.00  0.00     0.040 A 
ATOM     83  F   UNL A   1      42.630  27.780  35.440  1.00  0.00    -0.206 F 
ATOM     84  C   UNL A   1      44.718  30.289  36.891  1.00  0.00     0.006 A 
ENDBRANCH  56  77
BRANCH  68  85
ATOM     85  C   UNL A   1      46.122  26.636  28.940  1.00  0.00     0.057 A 
ATOM     86  C   UNL A   1      47.444  27.067  28.772  1.00  0.00     0.134 A 
ATOM     87  C   UNL A   1      45.154  27.363  28.234  1.00  0.00     0.134 A 
ATOM     88  F   UNL A   1      48.446  26.430  29.399  1.00  0.00    -0.206 F 
ATOM     89  C   UNL A   1      47.774  28.169  27.970  1.00  0.00     0.040 A 
ATOM     90  C   UNL A   1      45.464  28.456  27.417  1.00  0.00     0.040 A 
ATOM     91  F   UNL A   1      43.864  27.048  28.328  1.00  0.00    -0.206 F 
ATOM     92  C   UNL A   1      46.782  28.870  27.291  1.00  0.00     0.006 A 
ENDBRANCH  68  85
ENDBRANCH  42  43
ENDBRANCH  34  37
ENDBRANCH  32  33
ENDBRANCH  31  32
ENDBRANCH  30  31
ENDBRANCH   3  30
TORSDOF 16
ENDMDL
