MODEL 1
REMARK VINA RESULT:     -12.2      0.000      0.000
REMARK SMILES O=C(NCCCNC(=O)[C@@H]1CCC[N@@H+](Cc2ccc(F)cc2Cl)C1)c1ccc(-c2c3nc(c(-c4c(F)cccc4F)c4ccc([nH]4)c(-c4c(F)cccc4F)c4nc(c(-c5c(F)cccc5F)c5ccc2[nH]5)C=C4)C=C3)cc1
REMARK SMILES IDX 5 1 4 2 3 3 1 4 2 5 25 7 26 8 78 9 27 10 77 11 28 12 29 13
REMARK SMILES IDX 30 14 71 15 31 16 76 17 70 18 72 19 32 20 75 21 69 22 68 23
REMARK SMILES IDX 33 25 59 26 42 27 58 28 43 29 46 30 57 31 73 32 44 33 45 34
REMARK SMILES IDX 56 36 74 37 47 38 34 39 35 40 40 41 36 42 37 43 39 44 41 45
REMARK SMILES IDX 38 46 60 47 61 48 66 49 62 50 63 51 65 52 67 53 64 54 48 55
REMARK SMILES IDX 49 56 54 57 50 58 51 59 53 60 55 61 52 62 6 63 7 64 8 65
REMARK SMILES IDX 9 67 10 68 11 69 24 70 12 71 14 72 13 73 15 75 16 76 17 77
REMARK SMILES IDX 22 78 18 79 21 80 23 81 19 82 20 83
REMARK H PARENT 3 6 72 24 46 35 7 66 14 74
REMARK Flexibility Score: inf
ROOT
ATOM      1  C   UNL A   1      37.762  19.551  25.085  1.00  0.00     0.042 C 
ENDROOT
BRANCH   1   2
ATOM      2  C   UNL A   1      39.009  20.155  25.711  1.00  0.00     0.118 C 
BRANCH   2   3
ATOM      3  N   UNL A   1      40.043  19.151  25.925  1.00  0.00    -0.352 N 
ATOM      4  O   UNL A   1      42.116  18.293  25.935  1.00  0.00    -0.269 OA
ATOM      5  C   UNL A   1      41.400  19.285  26.065  1.00  0.00     0.251 C 
ATOM      6  H   UNL A   1      39.714  18.224  25.979  1.00  0.00     0.163 HD
BRANCH   5   7
ATOM      7  C   UNL A   1      42.017  20.593  26.383  1.00  0.00     0.039 A 
ATOM      8  C   UNL A   1      42.339  21.506  25.376  1.00  0.00     0.014 A 
ATOM      9  C   UNL A   1      42.168  20.962  27.725  1.00  0.00     0.014 A 
ATOM     10  C   UNL A   1      42.906  22.733  25.699  1.00  0.00     0.010 A 
ATOM     11  C   UNL A   1      42.655  22.231  28.053  1.00  0.00     0.010 A 
ATOM     12  C   UNL A   1      43.034  23.124  27.040  1.00  0.00    -0.014 A 
BRANCH  12  13
ATOM     13  C   UNL A   1      43.457  24.510  27.354  1.00  0.00     0.031 A 
ATOM     14  C   UNL A   1      42.471  25.541  27.816  1.00  0.00     0.074 A 
ATOM     15  C   UNL A   1      44.759  24.830  27.212  1.00  0.00     0.049 A 
ATOM     16  N   UNL A   1      42.677  26.796  28.124  1.00  0.00    -0.248 NA
ATOM     17  C   UNL A   1      41.070  25.113  27.936  1.00  0.00     0.031 C 
ATOM     18  C   UNL A   1      45.801  23.915  26.739  1.00  0.00     0.029 A 
ATOM     19  N   UNL A   1      45.428  26.001  27.452  1.00  0.00    -0.354 N 
ATOM     20  C   UNL A   1      41.435  27.316  28.455  1.00  0.00     0.074 A 
ATOM     21  C   UNL A   1      40.473  26.244  28.289  1.00  0.00     0.031 C 
ATOM     22  C   UNL A   1      46.983  24.549  26.754  1.00  0.00     0.029 A 
ATOM     23  C   UNL A   1      46.772  25.927  27.182  1.00  0.00     0.049 A 
ATOM     24  H   UNL A   1      44.989  26.817  27.785  1.00  0.00     0.167 HD
ATOM     25  C   UNL A   1      41.127  28.570  28.866  1.00  0.00     0.037 A 
ATOM     26  C   UNL A   1      47.732  26.868  27.250  1.00  0.00     0.037 A 
ATOM     27  C   UNL A   1      42.093  29.624  29.041  1.00  0.00     0.049 A 
ATOM     28  C   UNL A   1      47.366  28.248  27.706  1.00  0.00     0.074 A 
ATOM     29  C   UNL A   1      41.889  30.913  29.505  1.00  0.00     0.029 A 
ATOM     30  N   UNL A   1      43.445  29.513  28.753  1.00  0.00    -0.354 N 
ATOM     31  N   UNL A   1      46.193  28.711  28.064  1.00  0.00    -0.248 NA
ATOM     32  C   UNL A   1      48.450  29.236  27.764  1.00  0.00     0.031 C 
ATOM     33  C   UNL A   1      43.112  31.594  29.457  1.00  0.00     0.029 A 
ATOM     34  C   UNL A   1      44.085  30.717  29.003  1.00  0.00     0.049 A 
ATOM     35  H   UNL A   1      43.887  28.699  28.419  1.00  0.00     0.167 HD
ATOM     36  C   UNL A   1      46.395  30.042  28.397  1.00  0.00     0.074 A 
ATOM     37  C   UNL A   1      47.810  30.306  28.218  1.00  0.00     0.031 C 
ATOM     38  C   UNL A   1      45.491  30.963  28.809  1.00  0.00     0.037 A 
BRANCH  25  39
ATOM     39  C   UNL A   1      39.682  28.875  29.131  1.00  0.00     0.057 A 
ATOM     40  C   UNL A   1      38.820  29.320  28.120  1.00  0.00     0.134 A 
ATOM     41  C   UNL A   1      39.140  28.698  30.410  1.00  0.00     0.134 A 
ATOM     42  F   UNL A   1      39.278  29.521  26.875  1.00  0.00    -0.206 F 
ATOM     43  C   UNL A   1      37.476  29.601  28.377  1.00  0.00     0.040 A 
ATOM     44  C   UNL A   1      37.793  28.954  30.674  1.00  0.00     0.040 A 
ATOM     45  F   UNL A   1      39.907  28.269  31.423  1.00  0.00    -0.206 F 
ATOM     46  C   UNL A   1      36.958  29.413  29.658  1.00  0.00     0.006 A 
ENDBRANCH  25  39
BRANCH  26  47
ATOM     47  C   UNL A   1      49.120  26.522  26.863  1.00  0.00     0.057 A 
ATOM     48  C   UNL A   1      50.008  25.946  27.777  1.00  0.00     0.134 A 
ATOM     49  C   UNL A   1      49.577  26.716  25.553  1.00  0.00     0.134 A 
ATOM     50  F   UNL A   1      49.631  25.748  29.050  1.00  0.00    -0.206 F 
ATOM     51  C   UNL A   1      51.301  25.578  27.405  1.00  0.00     0.040 A 
ATOM     52  C   UNL A   1      50.859  26.330  25.160  1.00  0.00     0.040 A 
ATOM     53  F   UNL A   1      48.769  27.254  24.627  1.00  0.00    -0.206 F 
ATOM     54  C   UNL A   1      51.726  25.762  26.090  1.00  0.00     0.006 A 
ENDBRANCH  26  47
BRANCH  38  55
ATOM     55  C   UNL A   1      46.011  32.338  29.102  1.00  0.00     0.057 A 
ATOM     56  C   UNL A   1      46.507  32.681  30.365  1.00  0.00     0.134 A 
ATOM     57  C   UNL A   1      46.044  33.317  28.103  1.00  0.00     0.134 A 
ATOM     58  F   UNL A   1      46.487  31.790  31.368  1.00  0.00    -0.206 F 
ATOM     59  C   UNL A   1      47.005  33.957  30.629  1.00  0.00     0.040 A 
ATOM     60  C   UNL A   1      46.559  34.590  28.347  1.00  0.00     0.040 A 
ATOM     61  F   UNL A   1      45.587  33.049  26.870  1.00  0.00    -0.206 F 
ATOM     62  C   UNL A   1      47.038  34.914  29.616  1.00  0.00     0.006 A 
ENDBRANCH  38  55
ENDBRANCH  12  13
ENDBRANCH   5   7
ENDBRANCH   2   3
ENDBRANCH   1   2
BRANCH   1  63
ATOM     63  C   UNL A   1      36.592  20.524  25.001  1.00  0.00     0.117 C 
BRANCH  63  64
ATOM     64  N   UNL A   1      36.817  21.566  24.024  1.00  0.00    -0.356 N 
ATOM     65  C   UNL A   1      36.152  22.691  23.688  1.00  0.00     0.228 C 
ATOM     66  H   UNL A   1      37.630  21.423  23.487  1.00  0.00     0.163 HD
ATOM     67  O   UNL A   1      36.654  23.330  22.750  1.00  0.00    -0.275 OA
BRANCH  65  68
ATOM     68  C   UNL A   1      34.872  23.231  24.331  1.00  0.00     0.133 C 
ATOM     69  C   UNL A   1      34.754  23.622  25.801  1.00  0.00     0.025 C 
ATOM     70  C   UNL A   1      33.667  22.394  23.880  1.00  0.00     0.276 C 
ATOM     71  C   UNL A   1      34.276  22.502  26.723  1.00  0.00     0.062 C 
ATOM     72  N   UNL A   1      33.418  21.241  24.753  1.00  0.00    -0.330 N 
ATOM     73  C   UNL A   1      33.149  21.659  26.132  1.00  0.00     0.262 C 
ATOM     74  H   UNL A   1      34.278  20.691  24.778  1.00  0.00     0.348 HD
BRANCH  72  75
ATOM     75  C   UNL A   1      32.381  20.329  24.210  1.00  0.00     0.300 C 
BRANCH  75  76
ATOM     76  C   UNL A   1      32.641  18.842  24.386  1.00  0.00     0.025 A 
ATOM     77  C   UNL A   1      32.819  18.327  25.687  1.00  0.00     0.014 A 
ATOM     78  C   UNL A   1      32.790  17.961  23.297  1.00  0.00     0.052 A 
ATOM     79  C   UNL A   1      33.221  17.006  25.886  1.00  0.00     0.040 A 
ATOM     80  C   UNL A   1      33.177  16.634  23.500  1.00  0.00     0.060 A 
ATOM     81  Cl  UNL A   1      32.528  18.454  21.661  1.00  0.00    -0.084 Cl
ATOM     82  C   UNL A   1      33.409  16.177  24.790  1.00  0.00     0.124 A 
ATOM     83  F   UNL A   1      33.823  14.918  24.979  1.00  0.00    -0.207 F 
ENDBRANCH  75  76
ENDBRANCH  72  75
ENDBRANCH  65  68
ENDBRANCH  63  64
ENDBRANCH   1  63
TORSDOF 12
ENDMDL
MODEL 2
REMARK VINA RESULT:     -12.2      5.707     10.969
REMARK SMILES O=C(NCCCNC(=O)[C@@H]1CCC[N@@H+](Cc2ccc(F)cc2Cl)C1)c1ccc(-c2c3nc(c(-c4c(F)cccc4F)c4ccc([nH]4)c(-c4c(F)cccc4F)c4nc(c(-c5c(F)cccc5F)c5ccc2[nH]5)C=C4)C=C3)cc1
REMARK SMILES IDX 5 1 4 2 3 3 1 4 2 5 25 7 26 8 78 9 27 10 77 11 28 12 29 13
REMARK SMILES IDX 30 14 71 15 31 16 76 17 70 18 72 19 32 20 75 21 69 22 68 23
REMARK SMILES IDX 33 25 59 26 42 27 58 28 43 29 46 30 57 31 73 32 44 33 45 34
REMARK SMILES IDX 56 36 74 37 47 38 34 39 35 40 40 41 36 42 37 43 39 44 41 45
REMARK SMILES IDX 38 46 60 47 61 48 66 49 62 50 63 51 65 52 67 53 64 54 48 55
REMARK SMILES IDX 49 56 54 57 50 58 51 59 53 60 55 61 52 62 6 63 7 64 8 65
REMARK SMILES IDX 9 67 10 68 11 69 24 70 12 71 14 72 13 73 15 75 16 76 17 77
REMARK SMILES IDX 22 78 18 79 21 80 23 81 19 82 20 83
REMARK H PARENT 3 6 72 24 46 35 7 66 14 74
REMARK Flexibility Score: inf
ROOT
ATOM      1  C   UNL A   1      34.341  33.450  27.952  1.00  0.00     0.042 C 
ENDROOT
BRANCH   1   2
ATOM      2  C   UNL A   1      34.662  32.343  28.944  1.00  0.00     0.118 C 
BRANCH   2   3
ATOM      3  N   UNL A   1      34.155  31.053  28.492  1.00  0.00    -0.352 N 
ATOM      4  O   UNL A   1      34.205  29.066  27.453  1.00  0.00    -0.269 OA
ATOM      5  C   UNL A   1      34.822  29.931  28.073  1.00  0.00     0.251 C 
ATOM      6  H   UNL A   1      33.173  30.974  28.488  1.00  0.00     0.163 HD
BRANCH   5   7
ATOM      7  C   UNL A   1      36.260  29.736  28.363  1.00  0.00     0.039 A 
ATOM      8  C   UNL A   1      36.691  29.257  29.602  1.00  0.00     0.014 A 
ATOM      9  C   UNL A   1      37.190  29.925  27.333  1.00  0.00     0.014 A 
ATOM     10  C   UNL A   1      38.046  29.070  29.847  1.00  0.00     0.010 A 
ATOM     11  C   UNL A   1      38.544  29.652  27.552  1.00  0.00     0.010 A 
ATOM     12  C   UNL A   1      38.982  29.228  28.815  1.00  0.00    -0.014 A 
BRANCH  12  13
ATOM     13  C   UNL A   1      40.393  28.834  29.048  1.00  0.00     0.031 A 
ATOM     14  C   UNL A   1      41.355  29.752  29.738  1.00  0.00     0.074 A 
ATOM     15  C   UNL A   1      40.798  27.622  28.618  1.00  0.00     0.049 A 
ATOM     16  N   UNL A   1      42.621  29.562  30.011  1.00  0.00    -0.248 NA
ATOM     17  C   UNL A   1      40.836  31.059  30.166  1.00  0.00     0.031 C 
ATOM     18  C   UNL A   1      39.955  26.658  27.906  1.00  0.00     0.029 A 
ATOM     19  N   UNL A   1      42.010  26.991  28.719  1.00  0.00    -0.354 N 
ATOM     20  C   UNL A   1      43.057  30.727  30.625  1.00  0.00     0.074 A 
ATOM     21  C   UNL A   1      41.925  31.631  30.664  1.00  0.00     0.031 C 
ATOM     22  C   UNL A   1      40.665  25.548  27.662  1.00  0.00     0.029 A 
ATOM     23  C   UNL A   1      42.025  25.742  28.150  1.00  0.00     0.049 A 
ATOM     24  H   UNL A   1      42.794  27.395  29.157  1.00  0.00     0.167 HD
ATOM     25  C   UNL A   1      44.287  31.013  31.116  1.00  0.00     0.037 A 
ATOM     26  C   UNL A   1      43.028  24.855  28.013  1.00  0.00     0.037 A 
ATOM     27  C   UNL A   1      45.403  30.102  31.084  1.00  0.00     0.049 A 
ATOM     28  C   UNL A   1      44.380  25.195  28.564  1.00  0.00     0.074 A 
ATOM     29  C   UNL A   1      46.675  30.277  31.603  1.00  0.00     0.029 A 
ATOM     30  N   UNL A   1      45.382  28.847  30.495  1.00  0.00    -0.354 N 
ATOM     31  N   UNL A   1      44.764  26.283  29.186  1.00  0.00    -0.248 NA
ATOM     32  C   UNL A   1      45.437  24.191  28.391  1.00  0.00     0.031 C 
ATOM     33  C   UNL A   1      47.435  29.143  31.290  1.00  0.00     0.029 A 
ATOM     34  C   UNL A   1      46.625  28.245  30.613  1.00  0.00     0.049 A 
ATOM     35  H   UNL A   1      44.599  28.442  30.056  1.00  0.00     0.167 HD
ATOM     36  C   UNL A   1      46.105  26.095  29.487  1.00  0.00     0.074 A 
ATOM     37  C   UNL A   1      46.462  24.778  28.995  1.00  0.00     0.031 C 
ATOM     38  C   UNL A   1      46.963  26.939  30.109  1.00  0.00     0.037 A 
BRANCH  25  39
ATOM     39  C   UNL A   1      44.496  32.377  31.707  1.00  0.00     0.057 A 
ATOM     40  C   UNL A   1      44.893  33.470  30.928  1.00  0.00     0.134 A 
ATOM     41  C   UNL A   1      44.273  32.603  33.071  1.00  0.00     0.134 A 
ATOM     42  F   UNL A   1      45.135  33.319  29.617  1.00  0.00    -0.206 F 
ATOM     43  C   UNL A   1      45.085  34.735  31.487  1.00  0.00     0.040 A 
ATOM     44  C   UNL A   1      44.439  33.868  33.639  1.00  0.00     0.040 A 
ATOM     45  F   UNL A   1      43.886  31.601  33.874  1.00  0.00    -0.206 F 
ATOM     46  C   UNL A   1      44.853  34.937  32.847  1.00  0.00     0.006 A 
ENDBRANCH  25  39
BRANCH  26  47
ATOM     47  C   UNL A   1      42.774  23.572  27.316  1.00  0.00     0.057 A 
ATOM     48  C   UNL A   1      43.001  23.434  25.943  1.00  0.00     0.134 A 
ATOM     49  C   UNL A   1      42.343  22.439  28.018  1.00  0.00     0.134 A 
ATOM     50  F   UNL A   1      43.401  24.487  25.215  1.00  0.00    -0.206 F 
ATOM     51  C   UNL A   1      42.806  22.215  25.291  1.00  0.00     0.040 A 
ATOM     52  C   UNL A   1      42.168  21.209  27.384  1.00  0.00     0.040 A 
ATOM     53  F   UNL A   1      42.120  22.506  29.338  1.00  0.00    -0.206 F 
ATOM     54  C   UNL A   1      42.396  21.096  26.015  1.00  0.00     0.006 A 
ENDBRANCH  26  47
BRANCH  38  55
ATOM     55  C   UNL A   1      48.369  26.455  30.299  1.00  0.00     0.057 A 
ATOM     56  C   UNL A   1      49.364  26.699  29.344  1.00  0.00     0.134 A 
ATOM     57  C   UNL A   1      48.737  25.767  31.460  1.00  0.00     0.134 A 
ATOM     58  F   UNL A   1      49.069  27.339  28.203  1.00  0.00    -0.206 F 
ATOM     59  C   UNL A   1      50.676  26.261  29.533  1.00  0.00     0.040 A 
ATOM     60  C   UNL A   1      50.049  25.343  31.670  1.00  0.00     0.040 A 
ATOM     61  F   UNL A   1      47.831  25.506  32.414  1.00  0.00    -0.206 F 
ATOM     62  C   UNL A   1      51.022  25.586  30.702  1.00  0.00     0.006 A 
ENDBRANCH  38  55
ENDBRANCH  12  13
ENDBRANCH   5   7
ENDBRANCH   2   3
ENDBRANCH   1   2
BRANCH   1  63
ATOM     63  C   UNL A   1      33.000  34.128  28.212  1.00  0.00     0.117 C 
BRANCH  63  64
ATOM     64  N   UNL A   1      33.151  35.527  28.541  1.00  0.00    -0.356 N 
ATOM     65  C   UNL A   1      33.117  36.225  29.696  1.00  0.00     0.228 C 
ATOM     66  H   UNL A   1      33.312  36.094  27.752  1.00  0.00     0.163 HD
ATOM     67  O   UNL A   1      33.261  37.450  29.566  1.00  0.00    -0.275 OA
BRANCH  65  68
ATOM     68  C   UNL A   1      32.916  35.663  31.105  1.00  0.00     0.133 C 
ATOM     69  C   UNL A   1      32.724  36.525  32.349  1.00  0.00     0.025 C 
ATOM     70  C   UNL A   1      33.919  34.528  31.364  1.00  0.00     0.276 C 
ATOM     71  C   UNL A   1      34.013  36.865  33.095  1.00  0.00     0.062 C 
ATOM     72  N   UNL A   1      35.188  35.010  31.920  1.00  0.00    -0.330 N 
ATOM     73  C   UNL A   1      34.990  35.697  33.199  1.00  0.00     0.262 C 
ATOM     74  H   UNL A   1      35.558  35.705  31.270  1.00  0.00     0.348 HD
BRANCH  72  75
ATOM     75  C   UNL A   1      36.219  33.945  31.987  1.00  0.00     0.300 C 
BRANCH  75  76
ATOM     76  C   UNL A   1      37.535  34.243  31.286  1.00  0.00     0.025 A 
ATOM     77  C   UNL A   1      37.597  34.151  29.880  1.00  0.00     0.014 A 
ATOM     78  C   UNL A   1      38.722  34.535  31.985  1.00  0.00     0.052 A 
ATOM     79  C   UNL A   1      38.815  34.255  29.208  1.00  0.00     0.040 A 
ATOM     80  C   UNL A   1      39.938  34.653  31.308  1.00  0.00     0.060 A 
ATOM     81  Cl  UNL A   1      38.762  34.743  33.701  1.00  0.00    -0.084 Cl
ATOM     82  C   UNL A   1      39.975  34.491  29.931  1.00  0.00     0.124 A 
ATOM     83  F   UNL A   1      41.148  34.561  29.290  1.00  0.00    -0.207 F 
ENDBRANCH  75  76
ENDBRANCH  72  75
ENDBRANCH  65  68
ENDBRANCH  63  64
ENDBRANCH   1  63
TORSDOF 12
ENDMDL
MODEL 3
REMARK VINA RESULT:     -12.2      0.312      6.428
REMARK SMILES O=C(NCCCNC(=O)[C@@H]1CCC[N@@H+](Cc2ccc(F)cc2Cl)C1)c1ccc(-c2c3nc(c(-c4c(F)cccc4F)c4ccc([nH]4)c(-c4c(F)cccc4F)c4nc(c(-c5c(F)cccc5F)c5ccc2[nH]5)C=C4)C=C3)cc1
REMARK SMILES IDX 5 1 4 2 3 3 1 4 2 5 25 7 26 8 78 9 27 10 77 11 28 12 29 13
REMARK SMILES IDX 30 14 71 15 31 16 76 17 70 18 72 19 32 20 75 21 69 22 68 23
REMARK SMILES IDX 33 25 59 26 42 27 58 28 43 29 46 30 57 31 73 32 44 33 45 34
REMARK SMILES IDX 56 36 74 37 47 38 34 39 35 40 40 41 36 42 37 43 39 44 41 45
REMARK SMILES IDX 38 46 60 47 61 48 66 49 62 50 63 51 65 52 67 53 64 54 48 55
REMARK SMILES IDX 49 56 54 57 50 58 51 59 53 60 55 61 52 62 6 63 7 64 8 65
REMARK SMILES IDX 9 67 10 68 11 69 24 70 12 71 14 72 13 73 15 75 16 76 17 77
REMARK SMILES IDX 22 78 18 79 21 80 23 81 19 82 20 83
REMARK H PARENT 3 6 72 24 46 35 7 66 14 74
REMARK Flexibility Score: inf
ROOT
ATOM      1  C   UNL A   1      37.805  19.571  25.084  1.00  0.00     0.042 C 
ENDROOT
BRANCH   1   2
ATOM      2  C   UNL A   1      39.034  20.171  25.749  1.00  0.00     0.118 C 
BRANCH   2   3
ATOM      3  N   UNL A   1      40.090  19.180  25.918  1.00  0.00    -0.352 N 
ATOM      4  O   UNL A   1      42.177  18.361  25.865  1.00  0.00    -0.269 OA
ATOM      5  C   UNL A   1      41.447  19.337  26.034  1.00  0.00     0.251 C 
ATOM      6  H   UNL A   1      39.778  18.247  25.956  1.00  0.00     0.163 HD
BRANCH   5   7
ATOM      7  C   UNL A   1      42.046  20.648  26.370  1.00  0.00     0.039 A 
ATOM      8  C   UNL A   1      42.351  21.581  25.377  1.00  0.00     0.014 A 
ATOM      9  C   UNL A   1      42.199  20.997  27.717  1.00  0.00     0.014 A 
ATOM     10  C   UNL A   1      42.902  22.811  25.717  1.00  0.00     0.010 A 
ATOM     11  C   UNL A   1      42.669  22.267  28.064  1.00  0.00     0.010 A 
ATOM     12  C   UNL A   1      43.031  23.182  27.064  1.00  0.00    -0.014 A 
BRANCH  12  13
ATOM     13  C   UNL A   1      43.436  24.568  27.399  1.00  0.00     0.031 A 
ATOM     14  C   UNL A   1      44.867  25.007  27.304  1.00  0.00     0.074 A 
ATOM     15  C   UNL A   1      42.485  25.434  27.800  1.00  0.00     0.049 A 
ATOM     16  N   UNL A   1      45.386  26.179  27.568  1.00  0.00    -0.248 NA
ATOM     17  C   UNL A   1      45.844  23.999  26.869  1.00  0.00     0.031 C 
ATOM     18  C   UNL A   1      41.065  25.107  27.960  1.00  0.00     0.029 A 
ATOM     19  N   UNL A   1      42.559  26.760  28.139  1.00  0.00    -0.354 N 
ATOM     20  C   UNL A   1      46.750  26.049  27.352  1.00  0.00     0.074 A 
ATOM     21  C   UNL A   1      46.983  24.675  26.955  1.00  0.00     0.031 C 
ATOM     22  C   UNL A   1      40.399  26.208  28.335  1.00  0.00     0.029 A 
ATOM     23  C   UNL A   1      41.350  27.302  28.495  1.00  0.00     0.049 A 
ATOM     24  H   UNL A   1      43.399  27.273  28.129  1.00  0.00     0.167 HD
ATOM     25  C   UNL A   1      47.716  26.991  27.467  1.00  0.00     0.037 A 
ATOM     26  C   UNL A   1      41.038  28.538  28.927  1.00  0.00     0.037 A 
ATOM     27  C   UNL A   1      47.473  28.359  27.848  1.00  0.00     0.049 A 
ATOM     28  C   UNL A   1      42.125  29.562  29.047  1.00  0.00     0.074 A 
ATOM     29  C   UNL A   1      48.377  29.404  27.942  1.00  0.00     0.029 A 
ATOM     30  N   UNL A   1      46.234  28.870  28.207  1.00  0.00    -0.354 N 
ATOM     31  N   UNL A   1      43.404  29.436  28.791  1.00  0.00    -0.248 NA
ATOM     32  C   UNL A   1      41.731  30.895  29.520  1.00  0.00     0.031 C 
ATOM     33  C   UNL A   1      47.691  30.536  28.397  1.00  0.00     0.029 A 
ATOM     34  C   UNL A   1      46.353  30.209  28.548  1.00  0.00     0.049 A 
ATOM     35  H   UNL A   1      45.393  28.358  28.218  1.00  0.00     0.167 HD
ATOM     36  C   UNL A   1      43.969  30.673  29.062  1.00  0.00     0.074 A 
ATOM     37  C   UNL A   1      42.888  31.542  29.484  1.00  0.00     0.031 C 
ATOM     38  C   UNL A   1      45.267  31.053  28.975  1.00  0.00     0.037 A 
BRANCH  25  39
ATOM     39  C   UNL A   1      49.131  26.567  27.200  1.00  0.00     0.057 A 
ATOM     40  C   UNL A   1      49.982  26.136  28.225  1.00  0.00     0.134 A 
ATOM     41  C   UNL A   1      49.640  26.567  25.895  1.00  0.00     0.134 A 
ATOM     42  F   UNL A   1      49.561  26.123  29.499  1.00  0.00    -0.206 F 
ATOM     43  C   UNL A   1      51.297  25.743  27.966  1.00  0.00     0.040 A 
ATOM     44  C   UNL A   1      50.945  26.154  25.620  1.00  0.00     0.040 A 
ATOM     45  F   UNL A   1      48.877  26.962  24.865  1.00  0.00    -0.206 F 
ATOM     46  C   UNL A   1      51.780  25.747  26.658  1.00  0.00     0.006 A 
ENDBRANCH  25  39
BRANCH  26  47
ATOM     47  C   UNL A   1      39.633  28.852  29.281  1.00  0.00     0.057 A 
ATOM     48  C   UNL A   1      38.722  29.294  28.317  1.00  0.00     0.134 A 
ATOM     49  C   UNL A   1      39.157  28.672  30.586  1.00  0.00     0.134 A 
ATOM     50  F   UNL A   1      39.122  29.499  27.053  1.00  0.00    -0.206 F 
ATOM     51  C   UNL A   1      37.387  29.549  28.638  1.00  0.00     0.040 A 
ATOM     52  C   UNL A   1      37.821  28.898  30.916  1.00  0.00     0.040 A 
ATOM     53  F   UNL A   1      39.981  28.239  31.553  1.00  0.00    -0.206 F 
ATOM     54  C   UNL A   1      36.933  29.342  29.939  1.00  0.00     0.006 A 
ENDBRANCH  26  47
BRANCH  38  55
ATOM     55  C   UNL A   1      45.582  32.473  29.335  1.00  0.00     0.057 A 
ATOM     56  C   UNL A   1      45.485  33.507  28.396  1.00  0.00     0.134 A 
ATOM     57  C   UNL A   1      45.954  32.814  30.641  1.00  0.00     0.134 A 
ATOM     58  F   UNL A   1      45.149  33.242  27.125  1.00  0.00    -0.206 F 
ATOM     59  C   UNL A   1      45.763  34.831  28.740  1.00  0.00     0.040 A 
ATOM     60  C   UNL A   1      46.214  34.136  31.003  1.00  0.00     0.040 A 
ATOM     61  F   UNL A   1      46.061  31.869  31.587  1.00  0.00    -0.206 F 
ATOM     62  C   UNL A   1      46.123  35.148  30.049  1.00  0.00     0.006 A 
ENDBRANCH  38  55
ENDBRANCH  12  13
ENDBRANCH   5   7
ENDBRANCH   2   3
ENDBRANCH   1   2
BRANCH   1  63
ATOM     63  C   UNL A   1      36.628  20.536  25.001  1.00  0.00     0.117 C 
BRANCH  63  64
ATOM     64  N   UNL A   1      36.844  21.579  24.023  1.00  0.00    -0.356 N 
ATOM     65  C   UNL A   1      36.175  22.703  23.691  1.00  0.00     0.228 C 
ATOM     66  H   UNL A   1      37.655  21.438  23.482  1.00  0.00     0.163 HD
ATOM     67  O   UNL A   1      36.670  23.343  22.751  1.00  0.00    -0.275 OA
BRANCH  65  68
ATOM     68  C   UNL A   1      34.898  23.239  24.341  1.00  0.00     0.133 C 
ATOM     69  C   UNL A   1      34.781  23.612  25.816  1.00  0.00     0.025 C 
ATOM     70  C   UNL A   1      33.689  22.412  23.880  1.00  0.00     0.276 C 
ATOM     71  C   UNL A   1      34.299  22.483  26.724  1.00  0.00     0.062 C 
ATOM     72  N   UNL A   1      33.436  21.249  24.739  1.00  0.00    -0.330 N 
ATOM     73  C   UNL A   1      33.170  21.650  26.124  1.00  0.00     0.262 C 
ATOM     74  H   UNL A   1      34.294  20.696  24.757  1.00  0.00     0.348 HD
BRANCH  72  75
ATOM     75  C   UNL A   1      32.396  20.348  24.185  1.00  0.00     0.300 C 
BRANCH  75  76
ATOM     76  C   UNL A   1      32.634  18.858  24.372  1.00  0.00     0.025 A 
ATOM     77  C   UNL A   1      32.799  18.349  25.677  1.00  0.00     0.014 A 
ATOM     78  C   UNL A   1      32.776  17.968  23.290  1.00  0.00     0.052 A 
ATOM     79  C   UNL A   1      33.182  17.024  25.887  1.00  0.00     0.040 A 
ATOM     80  C   UNL A   1      33.144  16.638  23.504  1.00  0.00     0.060 A 
ATOM     81  Cl  UNL A   1      32.528  18.453  21.650  1.00  0.00    -0.084 Cl
ATOM     82  C   UNL A   1      33.363  16.186  24.797  1.00  0.00     0.124 A 
ATOM     83  F   UNL A   1      33.758  14.923  24.997  1.00  0.00    -0.207 F 
ENDBRANCH  75  76
ENDBRANCH  72  75
ENDBRANCH  65  68
ENDBRANCH  63  64
ENDBRANCH   1  63
TORSDOF 12
ENDMDL
