MODEL 1
REMARK VINA RESULT:     -12.2      0.000      0.000
REMARK SMILES C[C@H]1SC[C@H](C(=O)NCCCNC(=O)c2ccc(-c3c4nc(c(-c5c(F)cccc5F)c5ccc([nH]5)c(-c5c(F)cccc5F)c5nc(c(-c6c(F)cccc6F)c6ccc3[nH]6)C=C5)C=C4)cc2)N1C(=O)[C@@H]1CSc2ccccc21
REMARK SMILES IDX 10 1 9 2 8 3 6 4 7 5 5 7 1 8 2 9 3 10 69 11 4 12 70 13 71 14
REMARK SMILES IDX 72 15 73 16 80 17 74 18 75 19 79 20 76 21 78 22 77 23 11 24
REMARK SMILES IDX 12 25 13 26 14 28 15 29 16 30 68 31 17 32 67 33 18 34 19 35
REMARK SMILES IDX 20 36 61 37 21 38 66 39 60 40 62 41 22 42 65 43 59 44 58 45
REMARK SMILES IDX 23 47 49 48 32 49 48 50 33 51 36 52 47 53 63 54 34 55 35 56
REMARK SMILES IDX 46 58 64 59 37 60 24 61 25 62 30 63 26 64 27 65 29 66 31 67
REMARK SMILES IDX 28 68 50 69 51 70 56 71 52 72 53 73 55 74 57 75 54 76 38 77
REMARK SMILES IDX 39 78 44 79 40 80 41 81 43 82 45 83 42 84
REMARK H PARENT 8 6 12 27 62 46 36 57
REMARK Flexibility Score: inf
ROOT
ATOM      1  C   UNL A   1      31.457  32.127  26.776  1.00  0.00     0.042 C 
ENDROOT
BRANCH   1   2
ATOM      2  C   UNL A   1      31.603  30.618  26.721  1.00  0.00     0.117 C 
BRANCH   2   3
ATOM      3  N   UNL A   1      32.726  30.211  25.905  1.00  0.00    -0.354 N 
ATOM      4  C   UNL A   1      32.789  29.314  24.884  1.00  0.00     0.243 C 
ATOM      5  O   UNL A   1      33.914  28.976  24.498  1.00  0.00    -0.273 OA
ATOM      6  H   UNL A   1      33.579  30.652  26.124  1.00  0.00     0.163 HD
BRANCH   4   7
ATOM      7  C   UNL A   1      31.541  28.568  24.380  1.00  0.00     0.185 C 
ATOM      8  C   UNL A   1      29.060  26.701  23.959  1.00  0.00     0.043 C 
ATOM      9  C   UNL A   1      30.554  26.438  23.765  1.00  0.00     0.141 C 
ATOM     10  S   UNL A   1      31.031  27.113  22.155  1.00  0.00    -0.135 SA
ATOM     11  N   UNL A   1      31.373  27.145  24.737  1.00  0.00    -0.318 N 
ATOM     12  C   UNL A   1      31.557  28.701  22.846  1.00  0.00     0.107 C 
BRANCH  11  13
ATOM     13  C   UNL A   1      31.628  26.735  26.038  1.00  0.00     0.232 C 
ATOM     14  O   UNL A   1      31.023  27.263  26.979  1.00  0.00    -0.274 OA
BRANCH  13  15
ATOM     15  C   UNL A   1      32.697  25.681  26.380  1.00  0.00     0.120 C 
ATOM     16  C   UNL A   1      34.076  25.914  25.745  1.00  0.00     0.093 C 
ATOM     17  C   UNL A   1      32.252  24.278  26.091  1.00  0.00    -0.021 A 
ATOM     18  S   UNL A   1      34.521  24.453  24.743  1.00  0.00    -0.125 SA
ATOM     19  C   UNL A   1      33.049  23.581  25.184  1.00  0.00     0.011 A 
ATOM     20  C   UNL A   1      31.097  23.699  26.613  1.00  0.00     0.006 A 
ATOM     21  C   UNL A   1      32.641  22.357  24.683  1.00  0.00     0.015 A 
ATOM     22  C   UNL A   1      30.692  22.456  26.130  1.00  0.00     0.000 A 
ATOM     23  C   UNL A   1      31.445  21.803  25.147  1.00  0.00     0.001 A 
ENDBRANCH  13  15
ENDBRANCH  11  13
ENDBRANCH   4   7
ENDBRANCH   2   3
ENDBRANCH   1   2
BRANCH   1  24
ATOM     24  C   UNL A   1      32.710  32.837  27.257  1.00  0.00     0.118 C 
BRANCH  24  25
ATOM     25  N   UNL A   1      32.461  34.225  27.622  1.00  0.00    -0.352 N 
ATOM     26  C   UNL A   1      33.010  34.976  28.629  1.00  0.00     0.251 C 
ATOM     27  H   UNL A   1      31.800  34.694  27.062  1.00  0.00     0.163 HD
ATOM     28  O   UNL A   1      32.528  36.071  28.914  1.00  0.00    -0.269 OA
BRANCH  26  29
ATOM     29  C   UNL A   1      34.168  34.459  29.386  1.00  0.00     0.039 A 
ATOM     30  C   UNL A   1      33.962  33.916  30.657  1.00  0.00     0.014 A 
ATOM     31  C   UNL A   1      35.455  34.500  28.842  1.00  0.00     0.014 A 
ATOM     32  C   UNL A   1      35.034  33.353  31.348  1.00  0.00     0.010 A 
ATOM     33  C   UNL A   1      36.499  33.847  29.485  1.00  0.00     0.010 A 
ATOM     34  C   UNL A   1      36.303  33.276  30.750  1.00  0.00    -0.014 A 
BRANCH  34  35
ATOM     35  C   UNL A   1      37.441  32.612  31.433  1.00  0.00     0.031 A 
ATOM     36  C   UNL A   1      38.142  31.454  30.777  1.00  0.00     0.074 A 
ATOM     37  C   UNL A   1      37.800  33.008  32.669  1.00  0.00     0.049 A 
ATOM     38  N   UNL A   1      39.115  30.709  31.236  1.00  0.00    -0.248 NA
ATOM     39  C   UNL A   1      37.669  31.063  29.440  1.00  0.00     0.031 C 
ATOM     40  C   UNL A   1      37.169  34.087  33.431  1.00  0.00     0.029 A 
ATOM     41  N   UNL A   1      38.784  32.545  33.505  1.00  0.00    -0.354 N 
ATOM     42  C   UNL A   1      39.357  29.757  30.253  1.00  0.00     0.074 A 
ATOM     43  C   UNL A   1      38.389  29.978  29.203  1.00  0.00     0.031 C 
ATOM     44  C   UNL A   1      37.801  34.226  34.606  1.00  0.00     0.029 A 
ATOM     45  C   UNL A   1      38.853  33.218  34.702  1.00  0.00     0.049 A 
ATOM     46  H   UNL A   1      39.384  31.801  33.272  1.00  0.00     0.167 HD
ATOM     47  C   UNL A   1      40.316  28.801  30.218  1.00  0.00     0.037 A 
ATOM     48  C   UNL A   1      39.667  33.038  35.759  1.00  0.00     0.037 A 
ATOM     49  C   UNL A   1      41.288  28.596  31.258  1.00  0.00     0.049 A 
ATOM     50  C   UNL A   1      40.705  31.952  35.705  1.00  0.00     0.074 A 
ATOM     51  C   UNL A   1      42.339  27.695  31.292  1.00  0.00     0.029 A 
ATOM     52  N   UNL A   1      41.325  29.297  32.455  1.00  0.00    -0.354 N 
ATOM     53  N   UNL A   1      40.973  31.108  34.738  1.00  0.00    -0.248 NA
ATOM     54  C   UNL A   1      41.558  31.794  36.891  1.00  0.00     0.031 C 
ATOM     55  C   UNL A   1      42.973  27.812  32.532  1.00  0.00     0.029 A 
ATOM     56  C   UNL A   1      42.360  28.829  33.246  1.00  0.00     0.049 A 
ATOM     57  H   UNL A   1      40.706  30.022  32.704  1.00  0.00     0.167 HD
ATOM     58  C   UNL A   1      42.046  30.345  35.184  1.00  0.00     0.074 A 
ATOM     59  C   UNL A   1      42.387  30.836  36.502  1.00  0.00     0.031 C 
ATOM     60  C   UNL A   1      42.692  29.332  34.556  1.00  0.00     0.037 A 
BRANCH  47  61
ATOM     61  C   UNL A   1      40.352  27.903  29.012  1.00  0.00     0.057 A 
ATOM     62  C   UNL A   1      41.107  28.217  27.874  1.00  0.00     0.134 A 
ATOM     63  C   UNL A   1      39.638  26.699  28.998  1.00  0.00     0.134 A 
ATOM     64  F   UNL A   1      41.806  29.362  27.816  1.00  0.00    -0.206 F 
ATOM     65  C   UNL A   1      41.122  27.386  26.753  1.00  0.00     0.040 A 
ATOM     66  C   UNL A   1      39.671  25.842  27.895  1.00  0.00     0.040 A 
ATOM     67  F   UNL A   1      38.899  26.330  30.056  1.00  0.00    -0.206 F 
ATOM     68  C   UNL A   1      40.408  26.190  26.764  1.00  0.00     0.006 A 
ENDBRANCH  47  61
BRANCH  48  69
ATOM     69  C   UNL A   1      39.553  33.920  36.948  1.00  0.00     0.057 A 
ATOM     70  C   UNL A   1      38.820  33.522  38.073  1.00  0.00     0.134 A 
ATOM     71  C   UNL A   1      40.160  35.181  36.988  1.00  0.00     0.134 A 
ATOM     72  F   UNL A   1      38.202  32.332  38.087  1.00  0.00    -0.206 F 
ATOM     73  C   UNL A   1      38.673  34.354  39.183  1.00  0.00     0.040 A 
ATOM     74  C   UNL A   1      40.045  36.012  38.104  1.00  0.00     0.040 A 
ATOM     75  F   UNL A   1      40.884  35.619  35.948  1.00  0.00    -0.206 F 
ATOM     76  C   UNL A   1      39.291  35.603  39.202  1.00  0.00     0.006 A 
ENDBRANCH  48  69
BRANCH  60  77
ATOM     77  C   UNL A   1      43.860  28.714  35.269  1.00  0.00     0.057 A 
ATOM     78  C   UNL A   1      43.708  27.643  36.157  1.00  0.00     0.134 A 
ATOM     79  C   UNL A   1      45.162  29.178  35.034  1.00  0.00     0.134 A 
ATOM     80  F   UNL A   1      42.488  27.159  36.437  1.00  0.00    -0.206 F 
ATOM     81  C   UNL A   1      44.805  27.072  36.806  1.00  0.00     0.040 A 
ATOM     82  C   UNL A   1      46.268  28.595  35.653  1.00  0.00     0.040 A 
ATOM     83  F   UNL A   1      45.381  30.196  34.188  1.00  0.00    -0.206 F 
ATOM     84  C   UNL A   1      46.091  27.543  36.548  1.00  0.00     0.006 A 
ENDBRANCH  60  77
ENDBRANCH  34  35
ENDBRANCH  26  29
ENDBRANCH  24  25
ENDBRANCH   1  24
TORSDOF 12
ENDMDL
MODEL 2
REMARK VINA RESULT:     -12.2      4.894      9.314
REMARK SMILES C[C@H]1SC[C@H](C(=O)NCCCNC(=O)c2ccc(-c3c4nc(c(-c5c(F)cccc5F)c5ccc([nH]5)c(-c5c(F)cccc5F)c5nc(c(-c6c(F)cccc6F)c6ccc3[nH]6)C=C5)C=C4)cc2)N1C(=O)[C@@H]1CSc2ccccc21
REMARK SMILES IDX 10 1 9 2 8 3 6 4 7 5 5 7 1 8 2 9 3 10 69 11 4 12 70 13 71 14
REMARK SMILES IDX 72 15 73 16 80 17 74 18 75 19 79 20 76 21 78 22 77 23 11 24
REMARK SMILES IDX 12 25 13 26 14 28 15 29 16 30 68 31 17 32 67 33 18 34 19 35
REMARK SMILES IDX 20 36 61 37 21 38 66 39 60 40 62 41 22 42 65 43 59 44 58 45
REMARK SMILES IDX 23 47 49 48 32 49 48 50 33 51 36 52 47 53 63 54 34 55 35 56
REMARK SMILES IDX 46 58 64 59 37 60 24 61 25 62 30 63 26 64 27 65 29 66 31 67
REMARK SMILES IDX 28 68 50 69 51 70 56 71 52 72 53 73 55 74 57 75 54 76 38 77
REMARK SMILES IDX 39 78 44 79 40 80 41 81 43 82 45 83 42 84
REMARK H PARENT 8 6 12 27 62 46 36 57
REMARK Flexibility Score: inf
ROOT
ATOM      1  C   UNL A   1      38.120  19.879  24.913  1.00  0.00     0.042 C 
ENDROOT
BRANCH   1   2
ATOM      2  C   UNL A   1      37.289  21.104  24.583  1.00  0.00     0.117 C 
BRANCH   2   3
ATOM      3  N   UNL A   1      36.716  21.705  25.768  1.00  0.00    -0.354 N 
ATOM      4  C   UNL A   1      35.423  22.020  26.054  1.00  0.00     0.243 C 
ATOM      5  O   UNL A   1      35.222  22.734  27.043  1.00  0.00    -0.273 OA
ATOM      6  H   UNL A   1      37.363  21.920  26.479  1.00  0.00     0.163 HD
BRANCH   4   7
ATOM      7  C   UNL A   1      34.276  21.709  25.077  1.00  0.00     0.185 C 
ATOM      8  C   UNL A   1      32.202  21.621  22.730  1.00  0.00     0.043 C 
ATOM      9  C   UNL A   1      32.275  22.517  23.967  1.00  0.00     0.141 C 
ATOM     10  S   UNL A   1      31.587  21.591  25.363  1.00  0.00    -0.135 SA
ATOM     11  N   UNL A   1      33.643  22.828  24.349  1.00  0.00    -0.318 N 
ATOM     12  C   UNL A   1      33.201  20.977  25.901  1.00  0.00     0.107 C 
BRANCH  11  13
ATOM     13  C   UNL A   1      34.442  23.810  23.782  1.00  0.00     0.232 C 
ATOM     14  O   UNL A   1      35.331  23.494  22.981  1.00  0.00    -0.274 OA
BRANCH  13  15
ATOM     15  C   UNL A   1      34.321  25.298  24.160  1.00  0.00     0.120 C 
ATOM     16  C   UNL A   1      34.275  25.590  25.668  1.00  0.00     0.093 C 
ATOM     17  C   UNL A   1      33.165  25.981  23.492  1.00  0.00    -0.021 A 
ATOM     18  S   UNL A   1      32.733  26.491  26.050  1.00  0.00    -0.125 SA
ATOM     19  C   UNL A   1      32.229  26.541  24.358  1.00  0.00     0.011 A 
ATOM     20  C   UNL A   1      32.967  26.016  22.112  1.00  0.00     0.006 A 
ATOM     21  C   UNL A   1      31.024  27.024  23.877  1.00  0.00     0.015 A 
ATOM     22  C   UNL A   1      31.767  26.523  21.619  1.00  0.00     0.000 A 
ATOM     23  C   UNL A   1      30.787  26.996  22.501  1.00  0.00     0.001 A 
ENDBRANCH  13  15
ENDBRANCH  11  13
ENDBRANCH   4   7
ENDBRANCH   2   3
ENDBRANCH   1   2
BRANCH   1  24
ATOM     24  C   UNL A   1      39.160  20.127  25.991  1.00  0.00     0.118 C 
BRANCH  24  25
ATOM     25  N   UNL A   1      40.325  19.264  25.851  1.00  0.00    -0.352 N 
ATOM     26  C   UNL A   1      41.657  19.570  25.966  1.00  0.00     0.251 C 
ATOM     27  H   UNL A   1      40.128  18.322  25.644  1.00  0.00     0.163 HD
ATOM     28  O   UNL A   1      42.508  18.755  25.613  1.00  0.00    -0.269 OA
BRANCH  26  29
ATOM     29  C   UNL A   1      42.068  20.887  26.492  1.00  0.00     0.039 A 
ATOM     30  C   UNL A   1      42.415  21.900  25.595  1.00  0.00     0.014 A 
ATOM     31  C   UNL A   1      42.104  21.128  27.869  1.00  0.00     0.014 A 
ATOM     32  C   UNL A   1      42.728  23.170  26.077  1.00  0.00     0.010 A 
ATOM     33  C   UNL A   1      42.313  22.419  28.340  1.00  0.00     0.010 A 
ATOM     34  C   UNL A   1      42.638  23.452  27.451  1.00  0.00    -0.014 A 
BRANCH  34  35
ATOM     35  C   UNL A   1      42.890  24.815  27.979  1.00  0.00     0.031 A 
ATOM     36  C   UNL A   1      44.282  25.225  28.374  1.00  0.00     0.074 A 
ATOM     37  C   UNL A   1      41.858  25.660  28.164  1.00  0.00     0.049 A 
ATOM     38  N   UNL A   1      44.694  26.347  28.908  1.00  0.00    -0.248 NA
ATOM     39  C   UNL A   1      45.350  24.233  28.169  1.00  0.00     0.031 C 
ATOM     40  C   UNL A   1      40.455  25.364  27.864  1.00  0.00     0.029 A 
ATOM     41  N   UNL A   1      41.828  26.941  28.654  1.00  0.00    -0.354 N 
ATOM     42  C   UNL A   1      46.059  26.189  29.114  1.00  0.00     0.074 A 
ATOM     43  C   UNL A   1      46.394  24.842  28.709  1.00  0.00     0.031 C 
ATOM     44  C   UNL A   1      39.708  26.443  28.144  1.00  0.00     0.029 A 
ATOM     45  C   UNL A   1      40.569  27.490  28.685  1.00  0.00     0.049 A 
ATOM     46  H   UNL A   1      42.632  27.422  28.956  1.00  0.00     0.167 HD
ATOM     47  C   UNL A   1      46.956  27.091  29.576  1.00  0.00     0.037 A 
ATOM     48  C   UNL A   1      40.154  28.699  29.108  1.00  0.00     0.037 A 
ATOM     49  C   UNL A   1      46.621  28.436  29.962  1.00  0.00     0.049 A 
ATOM     50  C   UNL A   1      41.167  29.674  29.642  1.00  0.00     0.074 A 
ATOM     51  C   UNL A   1      47.465  29.448  30.386  1.00  0.00     0.029 A 
ATOM     52  N   UNL A   1      45.334  28.955  29.980  1.00  0.00    -0.354 N 
ATOM     53  N   UNL A   1      42.466  29.538  29.761  1.00  0.00    -0.248 NA
ATOM     54  C   UNL A   1      40.656  30.974  30.099  1.00  0.00     0.031 C 
ATOM     55  C   UNL A   1      46.682  30.559  30.715  1.00  0.00     0.029 A 
ATOM     56  C   UNL A   1      45.357  30.262  30.436  1.00  0.00     0.049 A 
ATOM     57  H   UNL A   1      44.524  28.466  29.708  1.00  0.00     0.167 HD
ATOM     58  C   UNL A   1      42.930  30.745  30.271  1.00  0.00     0.074 A 
ATOM     59  C   UNL A   1      41.775  31.603  30.427  1.00  0.00     0.031 C 
ATOM     60  C   UNL A   1      44.199  31.108  30.579  1.00  0.00     0.037 A 
BRANCH  47  61
ATOM     61  C   UNL A   1      48.388  26.646  29.691  1.00  0.00     0.057 A 
ATOM     62  C   UNL A   1      48.886  26.037  30.851  1.00  0.00     0.134 A 
ATOM     63  C   UNL A   1      49.274  26.810  28.620  1.00  0.00     0.134 A 
ATOM     64  F   UNL A   1      48.094  25.859  31.920  1.00  0.00    -0.206 F 
ATOM     65  C   UNL A   1      50.220  25.641  30.954  1.00  0.00     0.040 A 
ATOM     66  C   UNL A   1      50.603  26.389  28.699  1.00  0.00     0.040 A 
ATOM     67  F   UNL A   1      48.865  27.379  27.475  1.00  0.00    -0.206 F 
ATOM     68  C   UNL A   1      51.082  25.811  29.873  1.00  0.00     0.006 A 
ENDBRANCH  47  61
BRANCH  48  69
ATOM     69  C   UNL A   1      38.718  29.069  29.021  1.00  0.00     0.057 A 
ATOM     70  C   UNL A   1      38.168  29.544  27.824  1.00  0.00     0.134 A 
ATOM     71  C   UNL A   1      37.865  28.971  30.127  1.00  0.00     0.134 A 
ATOM     72  F   UNL A   1      38.939  29.676  26.734  1.00  0.00    -0.206 F 
ATOM     73  C   UNL A   1      36.830  29.931  27.735  1.00  0.00     0.040 A 
ATOM     74  C   UNL A   1      36.518  29.327  30.045  1.00  0.00     0.040 A 
ATOM     75  F   UNL A   1      38.326  28.515  31.300  1.00  0.00    -0.206 F 
ATOM     76  C   UNL A   1      36.000  29.818  28.848  1.00  0.00     0.006 A 
ENDBRANCH  48  69
BRANCH  60  77
ATOM     77  C   UNL A   1      44.411  32.509  31.077  1.00  0.00     0.057 A 
ATOM     78  C   UNL A   1      44.417  32.821  32.442  1.00  0.00     0.134 A 
ATOM     79  C   UNL A   1      44.648  33.555  30.174  1.00  0.00     0.134 A 
ATOM     80  F   UNL A   1      44.183  31.870  33.359  1.00  0.00    -0.206 F 
ATOM     81  C   UNL A   1      44.625  34.128  32.890  1.00  0.00     0.040 A 
ATOM     82  C   UNL A   1      44.889  34.857  30.612  1.00  0.00     0.040 A 
ATOM     83  F   UNL A   1      44.666  33.324  28.853  1.00  0.00    -0.206 F 
ATOM     84  C   UNL A   1      44.870  35.149  31.973  1.00  0.00     0.006 A 
ENDBRANCH  60  77
ENDBRANCH  34  35
ENDBRANCH  26  29
ENDBRANCH  24  25
ENDBRANCH   1  24
TORSDOF 12
ENDMDL
MODEL 3
REMARK VINA RESULT:     -12.2      4.032      8.042
REMARK SMILES C[C@H]1SC[C@H](C(=O)NCCCNC(=O)c2ccc(-c3c4nc(c(-c5c(F)cccc5F)c5ccc([nH]5)c(-c5c(F)cccc5F)c5nc(c(-c6c(F)cccc6F)c6ccc3[nH]6)C=C5)C=C4)cc2)N1C(=O)[C@@H]1CSc2ccccc21
REMARK SMILES IDX 10 1 9 2 8 3 6 4 7 5 5 7 1 8 2 9 3 10 69 11 4 12 70 13 71 14
REMARK SMILES IDX 72 15 73 16 80 17 74 18 75 19 79 20 76 21 78 22 77 23 11 24
REMARK SMILES IDX 12 25 13 26 14 28 15 29 16 30 68 31 17 32 67 33 18 34 19 35
REMARK SMILES IDX 20 36 61 37 21 38 66 39 60 40 62 41 22 42 65 43 59 44 58 45
REMARK SMILES IDX 23 47 49 48 32 49 48 50 33 51 36 52 47 53 63 54 34 55 35 56
REMARK SMILES IDX 46 58 64 59 37 60 24 61 25 62 30 63 26 64 27 65 29 66 31 67
REMARK SMILES IDX 28 68 50 69 51 70 56 71 52 72 53 73 55 74 57 75 54 76 38 77
REMARK SMILES IDX 39 78 44 79 40 80 41 81 43 82 45 83 42 84
REMARK H PARENT 8 6 12 27 62 46 36 57
REMARK Flexibility Score: inf
ROOT
ATOM      1  C   UNL A   1      32.932  28.127  27.425  1.00  0.00     0.042 C 
ENDROOT
BRANCH   1   2
ATOM      2  C   UNL A   1      31.673  28.034  26.584  1.00  0.00     0.117 C 
BRANCH   2   3
ATOM      3  N   UNL A   1      30.923  26.829  26.861  1.00  0.00    -0.354 N 
ATOM      4  C   UNL A   1      30.597  25.790  26.044  1.00  0.00     0.243 C 
ATOM      5  O   UNL A   1      29.756  24.987  26.461  1.00  0.00    -0.273 OA
ATOM      6  H   UNL A   1      30.597  26.746  27.787  1.00  0.00     0.163 HD
BRANCH   4   7
ATOM      7  C   UNL A   1      31.065  25.733  24.579  1.00  0.00     0.185 C 
ATOM      8  C   UNL A   1      32.572  25.280  21.869  1.00  0.00     0.043 C 
ATOM      9  C   UNL A   1      32.782  26.322  22.968  1.00  0.00     0.141 C 
ATOM     10  S   UNL A   1      31.565  27.639  22.723  1.00  0.00    -0.135 SA
ATOM     11  N   UNL A   1      32.514  25.792  24.296  1.00  0.00    -0.318 N 
ATOM     12  C   UNL A   1      30.368  26.903  23.863  1.00  0.00     0.107 C 
BRANCH  11  13
ATOM     13  C   UNL A   1      33.388  25.035  25.061  1.00  0.00     0.232 C 
ATOM     14  O   UNL A   1      34.272  25.595  25.721  1.00  0.00    -0.274 OA
BRANCH  13  15
ATOM     15  C   UNL A   1      33.356  23.495  25.077  1.00  0.00     0.120 C 
ATOM     16  C   UNL A   1      32.863  22.863  26.388  1.00  0.00     0.093 C 
ATOM     17  C   UNL A   1      34.667  22.875  24.696  1.00  0.00    -0.021 A 
ATOM     18  S   UNL A   1      34.162  21.756  27.037  1.00  0.00    -0.125 SA
ATOM     19  C   UNL A   1      35.232  22.046  25.662  1.00  0.00     0.011 A 
ATOM     20  C   UNL A   1      35.340  23.138  23.503  1.00  0.00     0.006 A 
ATOM     21  C   UNL A   1      36.525  21.573  25.516  1.00  0.00     0.015 A 
ATOM     22  C   UNL A   1      36.633  22.646  23.340  1.00  0.00     0.000 A 
ATOM     23  C   UNL A   1      37.234  21.893  24.356  1.00  0.00     0.001 A 
ENDBRANCH  13  15
ENDBRANCH  11  13
ENDBRANCH   4   7
ENDBRANCH   2   3
ENDBRANCH   1   2
BRANCH   1  24
ATOM     24  C   UNL A   1      33.924  29.157  26.914  1.00  0.00     0.118 C 
BRANCH  24  25
ATOM     25  N   UNL A   1      33.873  30.402  27.668  1.00  0.00    -0.352 N 
ATOM     26  C   UNL A   1      34.787  30.932  28.543  1.00  0.00     0.251 C 
ATOM     27  H   UNL A   1      33.063  30.945  27.529  1.00  0.00     0.163 HD
ATOM     28  O   UNL A   1      34.481  31.897  29.243  1.00  0.00    -0.269 OA
BRANCH  26  29
ATOM     29  C   UNL A   1      36.129  30.329  28.662  1.00  0.00     0.039 A 
ATOM     30  C   UNL A   1      37.020  30.438  27.592  1.00  0.00     0.014 A 
ATOM     31  C   UNL A   1      36.514  29.663  29.829  1.00  0.00     0.014 A 
ATOM     32  C   UNL A   1      38.317  29.941  27.721  1.00  0.00     0.010 A 
ATOM     33  C   UNL A   1      37.835  29.264  29.994  1.00  0.00     0.010 A 
ATOM     34  C   UNL A   1      38.748  29.388  28.938  1.00  0.00    -0.014 A 
BRANCH  34  35
ATOM     35  C   UNL A   1      40.145  28.925  29.126  1.00  0.00     0.031 A 
ATOM     36  C   UNL A   1      41.171  29.847  29.725  1.00  0.00     0.074 A 
ATOM     37  C   UNL A   1      40.504  27.699  28.699  1.00  0.00     0.049 A 
ATOM     38  N   UNL A   1      42.451  29.649  29.916  1.00  0.00    -0.248 NA
ATOM     39  C   UNL A   1      40.704  31.181  30.137  1.00  0.00     0.031 C 
ATOM     40  C   UNL A   1      39.613  26.729  28.060  1.00  0.00     0.029 A 
ATOM     41  N   UNL A   1      41.718  27.060  28.735  1.00  0.00    -0.354 N 
ATOM     42  C   UNL A   1      42.940  30.832  30.455  1.00  0.00     0.074 A 
ATOM     43  C   UNL A   1      41.836  31.764  30.500  1.00  0.00     0.031 C 
ATOM     44  C   UNL A   1      40.301  25.607  27.795  1.00  0.00     0.029 A 
ATOM     45  C   UNL A   1      41.690  25.794  28.203  1.00  0.00     0.049 A 
ATOM     46  H   UNL A   1      42.532  27.471  29.105  1.00  0.00     0.167 HD
ATOM     47  C   UNL A   1      44.191  31.109  30.895  1.00  0.00     0.037 A 
ATOM     48  C   UNL A   1      42.675  24.888  28.054  1.00  0.00     0.037 A 
ATOM     49  C   UNL A   1      45.282  30.173  30.863  1.00  0.00     0.049 A 
ATOM     50  C   UNL A   1      44.061  25.230  28.527  1.00  0.00     0.074 A 
ATOM     51  C   UNL A   1      46.571  30.334  31.340  1.00  0.00     0.029 A 
ATOM     52  N   UNL A   1      45.214  28.899  30.316  1.00  0.00    -0.354 N 
ATOM     53  N   UNL A   1      44.493  26.326  29.104  1.00  0.00    -0.248 NA
ATOM     54  C   UNL A   1      45.097  24.207  28.329  1.00  0.00     0.031 C 
ATOM     55  C   UNL A   1      47.298  29.181  31.028  1.00  0.00     0.029 A 
ATOM     56  C   UNL A   1      46.447  28.276  30.415  1.00  0.00     0.049 A 
ATOM     57  H   UNL A   1      44.408  28.498  29.917  1.00  0.00     0.167 HD
ATOM     58  C   UNL A   1      45.840  26.110  29.370  1.00  0.00     0.074 A 
ATOM     59  C   UNL A   1      46.148  24.775  28.902  1.00  0.00     0.031 C 
ATOM     60  C   UNL A   1      46.738  26.942  29.952  1.00  0.00     0.037 A 
BRANCH  47  61
ATOM     61  C   UNL A   1      44.440  32.486  31.445  1.00  0.00     0.057 A 
ATOM     62  C   UNL A   1      44.878  33.542  30.634  1.00  0.00     0.134 A 
ATOM     63  C   UNL A   1      44.220  32.764  32.799  1.00  0.00     0.134 A 
ATOM     64  F   UNL A   1      45.120  33.343  29.329  1.00  0.00    -0.206 F 
ATOM     65  C   UNL A   1      45.122  34.813  31.155  1.00  0.00     0.040 A 
ATOM     66  C   UNL A   1      44.430  34.040  33.327  1.00  0.00     0.040 A 
ATOM     67  F   UNL A   1      43.794  31.804  33.634  1.00  0.00    -0.206 F 
ATOM     68  C   UNL A   1      44.892  35.067  32.506  1.00  0.00     0.006 A 
ENDBRANCH  47  61
BRANCH  48  69
ATOM     69  C   UNL A   1      42.384  23.560  27.456  1.00  0.00     0.057 A 
ATOM     70  C   UNL A   1      42.091  22.455  28.264  1.00  0.00     0.134 A 
ATOM     71  C   UNL A   1      42.403  23.357  26.071  1.00  0.00     0.134 A 
ATOM     72  F   UNL A   1      42.075  22.582  29.599  1.00  0.00    -0.206 F 
ATOM     73  C   UNL A   1      41.852  21.192  27.720  1.00  0.00     0.040 A 
ATOM     74  C   UNL A   1      42.138  22.106  25.511  1.00  0.00     0.040 A 
ATOM     75  F   UNL A   1      42.667  24.376  25.240  1.00  0.00    -0.206 F 
ATOM     76  C   UNL A   1      41.871  21.017  26.338  1.00  0.00     0.006 A 
ENDBRANCH  48  69
BRANCH  60  77
ATOM     77  C   UNL A   1      48.130  26.418  30.154  1.00  0.00     0.057 A 
ATOM     78  C   UNL A   1      49.125  26.549  29.177  1.00  0.00     0.134 A 
ATOM     79  C   UNL A   1      48.489  25.803  31.362  1.00  0.00     0.134 A 
ATOM     80  F   UNL A   1      48.845  27.115  27.994  1.00  0.00    -0.206 F 
ATOM     81  C   UNL A   1      50.419  26.064  29.384  1.00  0.00     0.040 A 
ATOM     82  C   UNL A   1      49.786  25.344  31.591  1.00  0.00     0.040 A 
ATOM     83  F   UNL A   1      47.588  25.654  32.345  1.00  0.00    -0.206 F 
ATOM     84  C   UNL A   1      50.754  25.467  30.598  1.00  0.00     0.006 A 
ENDBRANCH  60  77
ENDBRANCH  34  35
ENDBRANCH  26  29
ENDBRANCH  24  25
ENDBRANCH   1  24
TORSDOF 12
ENDMDL
