MODEL 1
REMARK VINA RESULT:     -11.4      0.000      0.000
REMARK SMILES CC(C)(C)OC(=O)N[C@H](Cc1ccc(N=[N+]=[N-])cc1)C(=O)NCCCNC(=O)c1ccc(-c2c3nc(c(-c4c(F)cccc4F)c4ccc([nH]4)c(-c4c(F)cccc4F)c4nc(c(-c5c(F)cccc5F)c5ccc2[nH]5)C=C4)C=C3)cc1
REMARK SMILES IDX 23 1 22 2 20 3 21 4 9 6 8 7 6 8 7 9 5 11 2 12 1 13 3 14 4 15
REMARK SMILES IDX 10 16 11 17 12 18 19 19 13 20 18 21 14 22 15 23 16 24 17 25
REMARK SMILES IDX 24 26 25 27 26 28 27 29 28 31 29 32 30 33 82 34 31 35 81 36
REMARK SMILES IDX 32 37 33 38 34 39 75 40 35 41 80 42 74 43 76 44 36 45 79 46
REMARK SMILES IDX 73 47 72 48 37 50 63 51 46 52 62 53 47 54 50 55 61 56 77 57
REMARK SMILES IDX 48 58 49 59 60 61 78 62 51 63 38 64 39 65 44 66 40 67 41 68
REMARK SMILES IDX 43 69 45 70 42 71 64 72 65 73 70 74 66 75 67 76 69 77 71 78
REMARK SMILES IDX 68 79 52 80 53 81 58 82 54 83 55 84 57 85 59 86 56 87
REMARK H PARENT 22 5 8 10 26 30 76 49 50 60
REMARK Flexibility Score: inf
ROOT
ATOM      1  C   UNL A   1      34.151  23.890  26.120  1.00  0.00     0.117 C 
ENDROOT
BRANCH   1   2
ATOM      2  N   UNL A   1      32.875  23.379  26.580  1.00  0.00    -0.354 N 
ATOM      3  C   UNL A   1      31.650  23.983  26.589  1.00  0.00     0.243 C 
ATOM      4  O   UNL A   1      30.754  23.443  27.244  1.00  0.00    -0.273 OA
ATOM      5  H   UNL A   1      32.894  22.462  26.939  1.00  0.00     0.163 HD
BRANCH   3   6
ATOM      6  C   UNL A   1      31.429  25.366  25.931  1.00  0.00     0.179 C 
BRANCH   6   7
ATOM      7  N   UNL A   1      31.016  26.408  26.874  1.00  0.00    -0.309 N 
ATOM      8  C   UNL A   1      31.682  27.524  27.272  1.00  0.00     0.408 C 
ATOM      9  O   UNL A   1      31.109  28.351  27.968  1.00  0.00    -0.225 OA
ATOM     10  H   UNL A   1      30.127  26.282  27.279  1.00  0.00     0.167 HD
BRANCH   8  11
ATOM     11  O   UNL A   1      32.973  27.561  26.886  1.00  0.00    -0.444 OA
BRANCH  11  12
ATOM     12  C   UNL A   1      33.462  28.680  26.100  1.00  0.00     0.106 C 
ATOM     13  C   UNL A   1      32.225  29.545  25.821  1.00  0.00     0.056 C 
ATOM     14  C   UNL A   1      34.028  28.194  24.759  1.00  0.00     0.056 C 
ATOM     15  C   UNL A   1      34.479  29.522  26.879  1.00  0.00     0.056 C 
ENDBRANCH  11  12
ENDBRANCH   8  11
ENDBRANCH   6   7
BRANCH   6  16
ATOM     16  C   UNL A   1      30.422  25.156  24.754  1.00  0.00     0.070 C 
BRANCH  16  17
ATOM     17  C   UNL A   1      29.887  26.381  24.036  1.00  0.00    -0.045 A 
ATOM     18  C   UNL A   1      30.750  27.255  23.373  1.00  0.00     0.004 A 
ATOM     19  C   UNL A   1      28.511  26.650  23.975  1.00  0.00     0.004 A 
ATOM     20  C   UNL A   1      30.251  28.405  22.745  1.00  0.00     0.010 A 
ATOM     21  C   UNL A   1      28.020  27.816  23.386  1.00  0.00     0.010 A 
ATOM     22  C   UNL A   1      28.887  28.723  22.769  1.00  0.00     0.038 A 
BRANCH  22  23
ATOM     23  N   UNL A   1      28.490  29.923  22.148  1.00  0.00    -0.061 NA
ATOM     24  N   UNL A   1      27.862  30.725  22.858  1.00  0.00     0.005 N 
ATOM     25  N   UNL A   1      27.275  31.465  23.504  1.00  0.00    -0.003 NA
ENDBRANCH  22  23
ENDBRANCH  16  17
ENDBRANCH   6  16
ENDBRANCH   3   6
ENDBRANCH   1   2
BRANCH   1  26
ATOM     26  C   UNL A   1      35.254  22.854  26.292  1.00  0.00     0.042 C 
BRANCH  26  27
ATOM     27  C   UNL A   1      36.586  23.308  25.717  1.00  0.00     0.118 C 
BRANCH  27  28
ATOM     28  N   UNL A   1      37.670  22.401  26.065  1.00  0.00    -0.352 N 
ATOM     29  C   UNL A   1      38.937  22.682  26.507  1.00  0.00     0.251 C 
ATOM     30  H   UNL A   1      37.462  21.443  25.970  1.00  0.00     0.163 HD
ATOM     31  O   UNL A   1      39.784  21.796  26.541  1.00  0.00    -0.269 OA
BRANCH  29  32
ATOM     32  C   UNL A   1      39.282  24.056  26.923  1.00  0.00     0.039 A 
ATOM     33  C   UNL A   1      39.041  24.444  28.243  1.00  0.00     0.014 A 
ATOM     34  C   UNL A   1      39.840  24.960  26.015  1.00  0.00     0.014 A 
ATOM     35  C   UNL A   1      39.416  25.719  28.666  1.00  0.00     0.010 A 
ATOM     36  C   UNL A   1      40.304  26.191  26.461  1.00  0.00     0.010 A 
ATOM     37  C   UNL A   1      40.085  26.589  27.788  1.00  0.00    -0.014 A 
BRANCH  37  38
ATOM     38  C   UNL A   1      40.556  27.922  28.234  1.00  0.00     0.031 A 
ATOM     39  C   UNL A   1      42.025  28.240  28.248  1.00  0.00     0.074 A 
ATOM     40  C   UNL A   1      39.665  28.825  28.684  1.00  0.00     0.049 A 
ATOM     41  N   UNL A   1      42.633  29.330  28.643  1.00  0.00    -0.248 NA
ATOM     42  C   UNL A   1      42.933  27.180  27.784  1.00  0.00     0.031 C 
ATOM     43  C   UNL A   1      38.217  28.622  28.756  1.00  0.00     0.029 A 
ATOM     44  N   UNL A   1      39.847  30.096  29.166  1.00  0.00    -0.354 N 
ATOM     45  C   UNL A   1      43.991  29.082  28.483  1.00  0.00     0.074 A 
ATOM     46  C   UNL A   1      44.119  27.715  28.028  1.00  0.00     0.031 C 
ATOM     47  C   UNL A   1      37.639  29.745  29.208  1.00  0.00     0.029 A 
ATOM     48  C   UNL A   1      38.676  30.728  29.504  1.00  0.00     0.049 A 
ATOM     49  H   UNL A   1      40.733  30.516  29.259  1.00  0.00     0.167 HD
ATOM     50  C   UNL A   1      45.034  29.925  28.669  1.00  0.00     0.037 A 
ATOM     51  C   UNL A   1      38.464  31.962  29.998  1.00  0.00     0.037 A 
ATOM     52  C   UNL A   1      44.899  31.284  29.124  1.00  0.00     0.049 A 
ATOM     53  C   UNL A   1      39.641  32.863  30.250  1.00  0.00     0.074 A 
ATOM     54  C   UNL A   1      45.885  32.236  29.306  1.00  0.00     0.029 A 
ATOM     55  N   UNL A   1      43.697  31.880  29.483  1.00  0.00    -0.354 N 
ATOM     56  N   UNL A   1      40.914  32.643  30.030  1.00  0.00    -0.248 NA
ATOM     57  C   UNL A   1      39.348  34.184  30.819  1.00  0.00     0.031 C 
ATOM     58  C   UNL A   1      45.290  33.387  29.837  1.00  0.00     0.029 A 
ATOM     59  C   UNL A   1      43.923  33.176  29.919  1.00  0.00     0.049 A 
ATOM     60  H   UNL A   1      42.815  31.446  29.435  1.00  0.00     0.167 HD
ATOM     61  C   UNL A   1      41.572  33.810  30.399  1.00  0.00     0.074 A 
ATOM     62  C   UNL A   1      40.552  34.737  30.848  1.00  0.00     0.031 C 
ATOM     63  C   UNL A   1      42.898  34.090  30.363  1.00  0.00     0.037 A 
BRANCH  50  64
ATOM     64  C   UNL A   1      46.410  29.381  28.394  1.00  0.00     0.057 A 
ATOM     65  C   UNL A   1      46.993  29.444  27.119  1.00  0.00     0.134 A 
ATOM     66  C   UNL A   1      47.157  28.772  29.410  1.00  0.00     0.134 A 
ATOM     67  F   UNL A   1      46.331  30.005  26.095  1.00  0.00    -0.206 F 
ATOM     68  C   UNL A   1      48.240  28.875  26.855  1.00  0.00     0.040 A 
ATOM     69  C   UNL A   1      48.421  28.233  29.166  1.00  0.00     0.040 A 
ATOM     70  F   UNL A   1      46.668  28.684  30.656  1.00  0.00    -0.206 F 
ATOM     71  C   UNL A   1      48.959  28.269  27.881  1.00  0.00     0.006 A 
ENDBRANCH  50  64
BRANCH  51  72
ATOM     72  C   UNL A   1      37.077  32.433  30.240  1.00  0.00     0.057 A 
ATOM     73  C   UNL A   1      36.351  33.068  29.226  1.00  0.00     0.134 A 
ATOM     74  C   UNL A   1      36.440  32.253  31.474  1.00  0.00     0.134 A 
ATOM     75  F   UNL A   1      36.912  33.283  28.027  1.00  0.00    -0.206 F 
ATOM     76  C   UNL A   1      35.046  33.520  29.433  1.00  0.00     0.040 A 
ATOM     77  C   UNL A   1      35.127  32.677  31.686  1.00  0.00     0.040 A 
ATOM     78  F   UNL A   1      37.078  31.644  32.483  1.00  0.00    -0.206 F 
ATOM     79  C   UNL A   1      34.429  33.318  30.665  1.00  0.00     0.006 A 
ENDBRANCH  51  72
BRANCH  63  80
ATOM     80  C   UNL A   1      43.321  35.469  30.785  1.00  0.00     0.057 A 
ATOM     81  C   UNL A   1      43.473  36.516  29.867  1.00  0.00     0.134 A 
ATOM     82  C   UNL A   1      43.547  35.760  32.137  1.00  0.00     0.134 A 
ATOM     83  F   UNL A   1      43.287  36.304  28.555  1.00  0.00    -0.206 F 
ATOM     84  C   UNL A   1      43.859  37.794  30.275  1.00  0.00     0.040 A 
ATOM     85  C   UNL A   1      43.901  37.042  32.560  1.00  0.00     0.040 A 
ATOM     86  F   UNL A   1      43.411  34.807  33.072  1.00  0.00    -0.206 F 
ATOM     87  C   UNL A   1      44.066  38.061  31.627  1.00  0.00     0.006 A 
ENDBRANCH  63  80
ENDBRANCH  37  38
ENDBRANCH  29  32
ENDBRANCH  27  28
ENDBRANCH  26  27
ENDBRANCH   1  26
TORSDOF 16
ENDMDL
MODEL 2
REMARK VINA RESULT:     -11.4      3.332      8.403
REMARK SMILES CC(C)(C)OC(=O)N[C@H](Cc1ccc(N=[N+]=[N-])cc1)C(=O)NCCCNC(=O)c1ccc(-c2c3nc(c(-c4c(F)cccc4F)c4ccc([nH]4)c(-c4c(F)cccc4F)c4nc(c(-c5c(F)cccc5F)c5ccc2[nH]5)C=C4)C=C3)cc1
REMARK SMILES IDX 23 1 22 2 20 3 21 4 9 6 8 7 6 8 7 9 5 11 2 12 1 13 3 14 4 15
REMARK SMILES IDX 10 16 11 17 12 18 19 19 13 20 18 21 14 22 15 23 16 24 17 25
REMARK SMILES IDX 24 26 25 27 26 28 27 29 28 31 29 32 30 33 82 34 31 35 81 36
REMARK SMILES IDX 32 37 33 38 34 39 75 40 35 41 80 42 74 43 76 44 36 45 79 46
REMARK SMILES IDX 73 47 72 48 37 50 63 51 46 52 62 53 47 54 50 55 61 56 77 57
REMARK SMILES IDX 48 58 49 59 60 61 78 62 51 63 38 64 39 65 44 66 40 67 41 68
REMARK SMILES IDX 43 69 45 70 42 71 64 72 65 73 70 74 66 75 67 76 69 77 71 78
REMARK SMILES IDX 68 79 52 80 53 81 58 82 54 83 55 84 57 85 59 86 56 87
REMARK H PARENT 22 5 8 10 26 30 76 49 50 60
REMARK Flexibility Score: inf
ROOT
ATOM      1  C   UNL A   1      33.611  26.607  25.320  1.00  0.00     0.117 C 
ENDROOT
BRANCH   1   2
ATOM      2  N   UNL A   1      32.770  26.464  24.148  1.00  0.00    -0.354 N 
ATOM      3  C   UNL A   1      32.542  25.363  23.372  1.00  0.00     0.243 C 
ATOM      4  O   UNL A   1      31.974  25.538  22.290  1.00  0.00    -0.273 OA
ATOM      5  H   UNL A   1      32.294  27.280  23.870  1.00  0.00     0.163 HD
BRANCH   3   6
ATOM      6  C   UNL A   1      33.102  23.975  23.760  1.00  0.00     0.179 C 
BRANCH   6   7
ATOM      7  N   UNL A   1      34.259  23.562  22.960  1.00  0.00    -0.309 N 
ATOM      8  C   UNL A   1      35.560  23.433  23.330  1.00  0.00     0.408 C 
ATOM      9  O   UNL A   1      36.362  22.939  22.548  1.00  0.00    -0.225 OA
ATOM     10  H   UNL A   1      34.066  23.348  22.019  1.00  0.00     0.167 HD
BRANCH   8  11
ATOM     11  O   UNL A   1      35.840  23.942  24.546  1.00  0.00    -0.444 OA
BRANCH  11  12
ATOM     12  C   UNL A   1      36.134  23.051  25.654  1.00  0.00     0.106 C 
ATOM     13  C   UNL A   1      37.492  23.520  26.196  1.00  0.00     0.056 C 
ATOM     14  C   UNL A   1      36.282  21.604  25.162  1.00  0.00     0.056 C 
ATOM     15  C   UNL A   1      35.095  23.171  26.774  1.00  0.00     0.056 C 
ENDBRANCH  11  12
ENDBRANCH   8  11
ENDBRANCH   6   7
BRANCH   6  16
ATOM     16  C   UNL A   1      31.910  22.966  23.695  1.00  0.00     0.070 C 
BRANCH  16  17
ATOM     17  C   UNL A   1      32.202  21.490  23.890  1.00  0.00    -0.045 A 
ATOM     18  C   UNL A   1      32.098  20.593  22.825  1.00  0.00     0.004 A 
ATOM     19  C   UNL A   1      32.628  20.987  25.129  1.00  0.00     0.004 A 
ATOM     20  C   UNL A   1      32.331  19.226  23.025  1.00  0.00     0.010 A 
ATOM     21  C   UNL A   1      32.819  19.619  25.336  1.00  0.00     0.010 A 
ATOM     22  C   UNL A   1      32.661  18.711  24.285  1.00  0.00     0.038 A 
BRANCH  22  23
ATOM     23  N   UNL A   1      32.832  17.317  24.392  1.00  0.00    -0.061 NA
ATOM     24  N   UNL A   1      33.581  16.792  23.552  1.00  0.00     0.005 N 
ATOM     25  N   UNL A   1      34.264  16.300  22.776  1.00  0.00    -0.003 NA
ENDBRANCH  22  23
ENDBRANCH  16  17
ENDBRANCH   6  16
ENDBRANCH   3   6
ENDBRANCH   1   2
BRANCH   1  26
ATOM     26  C   UNL A   1      33.791  28.072  25.694  1.00  0.00     0.042 C 
BRANCH  26  27
ATOM     27  C   UNL A   1      33.669  28.319  27.189  1.00  0.00     0.118 C 
BRANCH  27  28
ATOM     28  N   UNL A   1      33.619  29.739  27.507  1.00  0.00    -0.352 N 
ATOM     29  C   UNL A   1      34.558  30.532  28.115  1.00  0.00     0.251 C 
ATOM     30  H   UNL A   1      32.788  30.197  27.247  1.00  0.00     0.163 HD
ATOM     31  O   UNL A   1      34.254  31.657  28.497  1.00  0.00    -0.269 OA
BRANCH  29  32
ATOM     32  C   UNL A   1      35.928  30.022  28.322  1.00  0.00     0.039 A 
ATOM     33  C   UNL A   1      36.865  30.163  27.296  1.00  0.00     0.014 A 
ATOM     34  C   UNL A   1      36.287  29.405  29.524  1.00  0.00     0.014 A 
ATOM     35  C   UNL A   1      38.178  29.738  27.500  1.00  0.00     0.010 A 
ATOM     36  C   UNL A   1      37.615  29.076  29.761  1.00  0.00     0.010 A 
ATOM     37  C   UNL A   1      38.573  29.227  28.747  1.00  0.00    -0.014 A 
BRANCH  37  38
ATOM     38  C   UNL A   1      39.978  28.836  29.010  1.00  0.00     0.031 A 
ATOM     39  C   UNL A   1      40.911  29.786  29.709  1.00  0.00     0.074 A 
ATOM     40  C   UNL A   1      40.431  27.648  28.567  1.00  0.00     0.049 A 
ATOM     41  N   UNL A   1      42.181  29.643  29.989  1.00  0.00    -0.248 NA
ATOM     42  C   UNL A   1      40.347  31.081  30.118  1.00  0.00     0.031 C 
ATOM     43  C   UNL A   1      39.635  26.655  27.843  1.00  0.00     0.029 A 
ATOM     44  N   UNL A   1      41.673  27.074  28.661  1.00  0.00    -0.354 N 
ATOM     45  C   UNL A   1      42.567  30.830  30.599  1.00  0.00     0.074 A 
ATOM     46  C   UNL A   1      41.418  31.707  30.578  1.00  0.00     0.031 C 
ATOM     47  C   UNL A   1      40.395  25.577  27.600  1.00  0.00     0.029 A 
ATOM     48  C   UNL A   1      41.742  25.820  28.105  1.00  0.00     0.049 A 
ATOM     49  H   UNL A   1      42.442  27.519  29.086  1.00  0.00     0.167 HD
ATOM     50  C   UNL A   1      43.761  31.150  31.153  1.00  0.00     0.037 A 
ATOM     51  C   UNL A   1      42.777  24.965  28.014  1.00  0.00     0.037 A 
ATOM     52  C   UNL A   1      44.901  30.272  31.169  1.00  0.00     0.049 A 
ATOM     53  C   UNL A   1      44.109  25.361  28.586  1.00  0.00     0.074 A 
ATOM     54  C   UNL A   1      46.144  30.480  31.739  1.00  0.00     0.029 A 
ATOM     55  N   UNL A   1      44.941  29.019  30.571  1.00  0.00    -0.354 N 
ATOM     56  N   UNL A   1      44.444  26.458  29.221  1.00  0.00    -0.248 NA
ATOM     57  C   UNL A   1      45.206  24.398  28.428  1.00  0.00     0.031 C 
ATOM     58  C   UNL A   1      46.956  29.382  31.432  1.00  0.00     0.029 A 
ATOM     59  C   UNL A   1      46.198  28.457  30.730  1.00  0.00     0.049 A 
ATOM     60  H   UNL A   1      44.187  28.592  30.104  1.00  0.00     0.167 HD
ATOM     61  C   UNL A   1      45.780  26.303  29.570  1.00  0.00     0.074 A 
ATOM     62  C   UNL A   1      46.188  25.001  29.083  1.00  0.00     0.031 C 
ATOM     63  C   UNL A   1      46.592  27.159  30.239  1.00  0.00     0.037 A 
BRANCH  50  64
ATOM     64  C   UNL A   1      43.885  32.518  31.768  1.00  0.00     0.057 A 
ATOM     65  C   UNL A   1      44.192  33.653  31.002  1.00  0.00     0.134 A 
ATOM     66  C   UNL A   1      43.713  32.703  33.145  1.00  0.00     0.134 A 
ATOM     67  F   UNL A   1      44.381  33.548  29.677  1.00  0.00    -0.206 F 
ATOM     68  C   UNL A   1      44.376  34.905  31.589  1.00  0.00     0.040 A 
ATOM     69  C   UNL A   1      43.857  33.958  33.739  1.00  0.00     0.040 A 
ATOM     70  F   UNL A   1      43.409  31.666  33.940  1.00  0.00    -0.206 F 
ATOM     71  C   UNL A   1      44.205  35.061  32.962  1.00  0.00     0.006 A 
ENDBRANCH  50  64
BRANCH  51  72
ATOM     72  C   UNL A   1      42.579  23.628  27.397  1.00  0.00     0.057 A 
ATOM     73  C   UNL A   1      42.755  23.444  26.021  1.00  0.00     0.134 A 
ATOM     74  C   UNL A   1      42.223  22.508  28.158  1.00  0.00     0.134 A 
ATOM     75  F   UNL A   1      43.080  24.483  25.237  1.00  0.00    -0.206 F 
ATOM     76  C   UNL A   1      42.573  22.198  25.420  1.00  0.00     0.040 A 
ATOM     77  C   UNL A   1      42.063  21.250  27.574  1.00  0.00     0.040 A 
ATOM     78  F   UNL A   1      42.048  22.617  29.482  1.00  0.00    -0.206 F 
ATOM     79  C   UNL A   1      42.232  21.095  26.199  1.00  0.00     0.006 A 
ENDBRANCH  51  72
BRANCH  63  80
ATOM     80  C   UNL A   1      47.995  26.699  30.519  1.00  0.00     0.057 A 
ATOM     81  C   UNL A   1      48.357  26.106  31.735  1.00  0.00     0.134 A 
ATOM     82  C   UNL A   1      48.991  26.821  29.540  1.00  0.00     0.134 A 
ATOM     83  F   UNL A   1      47.458  25.971  32.722  1.00  0.00    -0.206 F 
ATOM     84  C   UNL A   1      49.663  25.676  31.978  1.00  0.00     0.040 A 
ATOM     85  C   UNL A   1      50.291  26.364  29.759  1.00  0.00     0.040 A 
ATOM     86  F   UNL A   1      48.712  27.371  28.348  1.00  0.00    -0.206 F 
ATOM     87  C   UNL A   1      50.632  25.798  30.984  1.00  0.00     0.006 A 
ENDBRANCH  63  80
ENDBRANCH  37  38
ENDBRANCH  29  32
ENDBRANCH  27  28
ENDBRANCH  26  27
ENDBRANCH   1  26
TORSDOF 16
ENDMDL
MODEL 3
REMARK VINA RESULT:     -11.3      3.723      6.558
REMARK SMILES CC(C)(C)OC(=O)N[C@H](Cc1ccc(N=[N+]=[N-])cc1)C(=O)NCCCNC(=O)c1ccc(-c2c3nc(c(-c4c(F)cccc4F)c4ccc([nH]4)c(-c4c(F)cccc4F)c4nc(c(-c5c(F)cccc5F)c5ccc2[nH]5)C=C4)C=C3)cc1
REMARK SMILES IDX 23 1 22 2 20 3 21 4 9 6 8 7 6 8 7 9 5 11 2 12 1 13 3 14 4 15
REMARK SMILES IDX 10 16 11 17 12 18 19 19 13 20 18 21 14 22 15 23 16 24 17 25
REMARK SMILES IDX 24 26 25 27 26 28 27 29 28 31 29 32 30 33 82 34 31 35 81 36
REMARK SMILES IDX 32 37 33 38 34 39 75 40 35 41 80 42 74 43 76 44 36 45 79 46
REMARK SMILES IDX 73 47 72 48 37 50 63 51 46 52 62 53 47 54 50 55 61 56 77 57
REMARK SMILES IDX 48 58 49 59 60 61 78 62 51 63 38 64 39 65 44 66 40 67 41 68
REMARK SMILES IDX 43 69 45 70 42 71 64 72 65 73 70 74 66 75 67 76 69 77 71 78
REMARK SMILES IDX 68 79 52 80 53 81 58 82 54 83 55 84 57 85 59 86 56 87
REMARK H PARENT 22 5 8 10 26 30 76 49 50 60
REMARK Flexibility Score: inf
ROOT
ATOM      1  C   UNL A   1      33.521  29.069  25.174  1.00  0.00     0.117 C 
ENDROOT
BRANCH   1   2
ATOM      2  N   UNL A   1      33.906  29.004  23.778  1.00  0.00    -0.354 N 
ATOM      3  C   UNL A   1      33.660  28.028  22.854  1.00  0.00     0.243 C 
ATOM      4  O   UNL A   1      34.287  28.080  21.792  1.00  0.00    -0.273 OA
ATOM      5  H   UNL A   1      34.418  29.777  23.447  1.00  0.00     0.163 HD
BRANCH   3   6
ATOM      6  C   UNL A   1      32.750  26.821  23.181  1.00  0.00     0.179 C 
BRANCH   6   7
ATOM      7  N   UNL A   1      33.442  25.531  23.137  1.00  0.00    -0.309 N 
ATOM      8  C   UNL A   1      33.292  24.444  23.938  1.00  0.00     0.408 C 
ATOM      9  O   UNL A   1      33.868  23.402  23.654  1.00  0.00    -0.225 OA
ATOM     10  H   UNL A   1      34.115  25.437  22.424  1.00  0.00     0.167 HD
BRANCH   8  11
ATOM     11  O   UNL A   1      32.539  24.668  25.034  1.00  0.00    -0.444 OA
BRANCH  11  12
ATOM     12  C   UNL A   1      31.165  24.200  25.077  1.00  0.00     0.106 C 
ATOM     13  C   UNL A   1      31.185  22.982  26.011  1.00  0.00     0.056 C 
ATOM     14  C   UNL A   1      30.705  23.738  23.687  1.00  0.00     0.056 C 
ATOM     15  C   UNL A   1      30.223  25.253  25.671  1.00  0.00     0.056 C 
ENDBRANCH  11  12
ENDBRANCH   8  11
ENDBRANCH   6   7
BRANCH   6  16
ATOM     16  C   UNL A   1      31.522  26.901  22.217  1.00  0.00     0.070 C 
BRANCH  16  17
ATOM     17  C   UNL A   1      30.507  28.007  22.431  1.00  0.00    -0.045 A 
ATOM     18  C   UNL A   1      29.299  27.754  23.085  1.00  0.00     0.004 A 
ATOM     19  C   UNL A   1      30.764  29.325  22.022  1.00  0.00     0.004 A 
ATOM     20  C   UNL A   1      28.351  28.773  23.242  1.00  0.00     0.010 A 
ATOM     21  C   UNL A   1      29.801  30.329  22.143  1.00  0.00     0.010 A 
ATOM     22  C   UNL A   1      28.568  30.065  22.746  1.00  0.00     0.038 A 
BRANCH  22  23
ATOM     23  N   UNL A   1      27.536  31.008  22.916  1.00  0.00    -0.061 NA
ATOM     24  N   UNL A   1      27.732  32.130  22.422  1.00  0.00     0.005 N 
ATOM     25  N   UNL A   1      27.910  33.168  21.976  1.00  0.00    -0.003 NA
ENDBRANCH  22  23
ENDBRANCH  16  17
ENDBRANCH   6  16
ENDBRANCH   3   6
ENDBRANCH   1   2
BRANCH   1  26
ATOM     26  C   UNL A   1      32.201  29.808  25.348  1.00  0.00     0.042 C 
BRANCH  26  27
ATOM     27  C   UNL A   1      32.009  30.351  26.755  1.00  0.00     0.118 C 
BRANCH  27  28
ATOM     28  N   UNL A   1      31.932  31.804  26.775  1.00  0.00    -0.352 N 
ATOM     29  C   UNL A   1      32.740  32.714  27.406  1.00  0.00     0.251 C 
ATOM     30  H   UNL A   1      31.189  32.191  26.258  1.00  0.00     0.163 HD
ATOM     31  O   UNL A   1      32.393  33.888  27.489  1.00  0.00    -0.269 OA
BRANCH  29  32
ATOM     32  C   UNL A   1      34.019  32.274  28.000  1.00  0.00     0.039 A 
ATOM     33  C   UNL A   1      35.032  33.215  28.197  1.00  0.00     0.014 A 
ATOM     34  C   UNL A   1      34.218  30.938  28.358  1.00  0.00     0.014 A 
ATOM     35  C   UNL A   1      36.223  32.825  28.810  1.00  0.00     0.010 A 
ATOM     36  C   UNL A   1      35.361  30.574  29.058  1.00  0.00     0.010 A 
ATOM     37  C   UNL A   1      36.382  31.511  29.281  1.00  0.00    -0.014 A 
BRANCH  37  38
ATOM     38  C   UNL A   1      37.609  31.092  29.998  1.00  0.00     0.031 A 
ATOM     39  C   UNL A   1      38.628  30.224  29.312  1.00  0.00     0.074 A 
ATOM     40  C   UNL A   1      37.779  31.443  31.287  1.00  0.00     0.049 A 
ATOM     41  N   UNL A   1      39.740  29.721  29.786  1.00  0.00    -0.248 NA
ATOM     42  C   UNL A   1      38.343  29.849  27.919  1.00  0.00     0.031 C 
ATOM     43  C   UNL A   1      36.844  32.250  32.074  1.00  0.00     0.029 A 
ATOM     44  N   UNL A   1      38.797  31.165  32.162  1.00  0.00    -0.354 N 
ATOM     45  C   UNL A   1      40.279  28.965  28.752  1.00  0.00     0.074 A 
ATOM     46  C   UNL A   1      39.336  29.015  27.657  1.00  0.00     0.031 C 
ATOM     47  C   UNL A   1      37.355  32.440  33.300  1.00  0.00     0.029 A 
ATOM     48  C   UNL A   1      38.625  31.731  33.401  1.00  0.00     0.049 A 
ATOM     49  H   UNL A   1      39.577  30.613  31.924  1.00  0.00     0.167 HD
ATOM     50  C   UNL A   1      41.465  28.313  28.708  1.00  0.00     0.037 A 
ATOM     51  C   UNL A   1      39.407  31.681  34.496  1.00  0.00     0.037 A 
ATOM     52  C   UNL A   1      42.398  28.266  29.803  1.00  0.00     0.049 A 
ATOM     53  C   UNL A   1      40.693  30.905  34.444  1.00  0.00     0.074 A 
ATOM     54  C   UNL A   1      43.645  27.669  29.851  1.00  0.00     0.029 A 
ATOM     55  N   UNL A   1      42.176  28.828  31.054  1.00  0.00    -0.354 N 
ATOM     56  N   UNL A   1      41.226  30.251  33.441  1.00  0.00    -0.248 NA
ATOM     57  C   UNL A   1      41.486  30.862  35.680  1.00  0.00     0.031 C 
ATOM     58  C   UNL A   1      44.150  27.815  31.148  1.00  0.00     0.029 A 
ATOM     59  C   UNL A   1      43.249  28.563  31.890  1.00  0.00     0.049 A 
ATOM     60  H   UNL A   1      41.376  29.340  31.308  1.00  0.00     0.167 HD
ATOM     61  C   UNL A   1      42.433  29.749  33.911  1.00  0.00     0.074 A 
ATOM     62  C   UNL A   1      42.555  30.184  35.288  1.00  0.00     0.031 C 
ATOM     63  C   UNL A   1      43.359  29.002  33.260  1.00  0.00     0.037 A 
BRANCH  50  64
ATOM     64  C   UNL A   1      41.800  27.586  27.434  1.00  0.00     0.057 A 
ATOM     65  C   UNL A   1      41.514  26.223  27.258  1.00  0.00     0.134 A 
ATOM     66  C   UNL A   1      42.429  28.250  26.374  1.00  0.00     0.134 A 
ATOM     67  F   UNL A   1      40.920  25.521  28.236  1.00  0.00    -0.206 F 
ATOM     68  C   UNL A   1      41.891  25.539  26.102  1.00  0.00     0.040 A 
ATOM     69  C   UNL A   1      42.777  27.584  25.197  1.00  0.00     0.040 A 
ATOM     70  F   UNL A   1      42.725  29.555  26.466  1.00  0.00    -0.206 F 
ATOM     71  C   UNL A   1      42.522  26.220  25.065  1.00  0.00     0.006 A 
ENDBRANCH  50  64
BRANCH  51  72
ATOM     72  C   UNL A   1      39.015  32.428  35.718  1.00  0.00     0.057 A 
ATOM     73  C   UNL A   1      38.254  31.811  36.719  1.00  0.00     0.134 A 
ATOM     74  C   UNL A   1      39.394  33.759  35.925  1.00  0.00     0.134 A 
ATOM     75  F   UNL A   1      37.847  30.541  36.572  1.00  0.00    -0.206 F 
ATOM     76  C   UNL A   1      37.874  32.494  37.875  1.00  0.00     0.040 A 
ATOM     77  C   UNL A   1      39.042  34.447  37.087  1.00  0.00     0.040 A 
ATOM     78  F   UNL A   1      40.130  34.403  35.008  1.00  0.00    -0.206 F 
ATOM     79  C   UNL A   1      38.275  33.815  38.064  1.00  0.00     0.006 A 
ENDBRANCH  51  72
BRANCH  63  80
ATOM     80  C   UNL A   1      44.606  28.639  34.016  1.00  0.00     0.057 A 
ATOM     81  C   UNL A   1      44.718  27.444  34.739  1.00  0.00     0.134 A 
ATOM     82  C   UNL A   1      45.723  29.484  33.991  1.00  0.00     0.134 A 
ATOM     83  F   UNL A   1      43.682  26.595  34.818  1.00  0.00    -0.206 F 
ATOM     84  C   UNL A   1      45.886  27.117  35.431  1.00  0.00     0.040 A 
ATOM     85  C   UNL A   1      46.907  29.152  34.650  1.00  0.00     0.040 A 
ATOM     86  F   UNL A   1      45.688  30.640  33.311  1.00  0.00    -0.206 F 
ATOM     87  C   UNL A   1      46.988  27.969  35.380  1.00  0.00     0.006 A 
ENDBRANCH  63  80
ENDBRANCH  37  38
ENDBRANCH  29  32
ENDBRANCH  27  28
ENDBRANCH  26  27
ENDBRANCH   1  26
TORSDOF 16
ENDMDL
