MODEL 1
REMARK VINA RESULT:     -12.8      0.000      0.000
REMARK SMILES Cc1nn2c(nnc3c(=O)n(CCCC(=O)NCCCNC(=O)c4ccc(-c5c6nc(c(-c7c(F)cccc7F)c7ccc([nH]7)c(-c7c(F)cccc7F)c7nc(c(-c8c(F)cccc8F)c8ccc5[nH]8)C=C7)C=C6)cc4)ccc32)c1-c1ccc(F)cc1
REMARK SMILES IDX 18 1 17 2 15 3 16 4 14 6 13 7 12 8 11 9 1 10 2 11 3 12 81 13
REMARK SMILES IDX 4 14 5 15 80 16 6 17 8 18 79 19 7 20 9 21 78 22 10 23 82 24
REMARK SMILES IDX 83 25 88 26 84 27 87 28 85 29 86 30 19 31 20 32 21 33 22 34
REMARK SMILES IDX 23 36 24 37 25 38 77 39 26 40 76 41 27 42 28 43 29 44 70 45
REMARK SMILES IDX 30 46 75 47 69 48 71 49 31 50 74 51 68 52 67 53 32 55 58 56
REMARK SMILES IDX 41 57 57 58 42 59 45 60 56 61 72 62 43 63 44 64 55 66 73 67
REMARK SMILES IDX 46 68 33 69 34 70 39 71 35 72 36 73 38 74 40 75 37 76 59 77
REMARK SMILES IDX 60 78 65 79 61 80 62 81 64 82 66 83 63 84 47 85 48 86 53 87
REMARK SMILES IDX 49 88 50 89 52 90 54 91 51 92
REMARK H PARENT 17 5 21 35 71 54 45 65
REMARK Flexibility Score: inf
ROOT
ATOM      1  C   UNL A   1      40.058  21.277  26.864  1.00  0.00     0.117 C 
ENDROOT
BRANCH   1   2
ATOM      2  N   UNL A   1      39.289  22.129  25.981  1.00  0.00    -0.356 N 
ATOM      3  C   UNL A   1      38.148  21.960  25.273  1.00  0.00     0.220 C 
ATOM      4  O   UNL A   1      37.724  22.987  24.723  1.00  0.00    -0.275 OA
ATOM      5  H   UNL A   1      39.680  23.025  25.872  1.00  0.00     0.163 HD
BRANCH   3   6
ATOM      6  C   UNL A   1      37.313  20.691  25.185  1.00  0.00     0.102 C 
BRANCH   6   7
ATOM      7  C   UNL A   1      35.809  20.591  25.459  1.00  0.00     0.032 C 
BRANCH   7   8
ATOM      8  C   UNL A   1      34.688  21.057  24.523  1.00  0.00     0.126 C 
BRANCH   8   9
ATOM      9  N   UNL A   1      34.045  22.385  24.587  1.00  0.00    -0.313 N 
ATOM     10  C   UNL A   1      31.580  29.420  26.082  1.00  0.00     0.069 C 
ATOM     11  C   UNL A   1      31.859  28.253  25.209  1.00  0.00     0.070 A 
ATOM     12  N   UNL A   1      32.746  27.318  25.589  1.00  0.00    -0.170 NA
ATOM     13  C   UNL A   1      31.248  27.935  23.976  1.00  0.00     0.051 A 
ATOM     14  N   UNL A   1      32.626  26.332  24.657  1.00  0.00    -0.210 N 
ATOM     15  C   UNL A   1      31.755  26.703  23.642  1.00  0.00     0.186 A 
ATOM     16  C   UNL A   1      33.166  25.046  24.647  1.00  0.00     0.102 A 
ATOM     17  N   UNL A   1      31.497  25.866  22.600  1.00  0.00    -0.129 NA
ATOM     18  C   UNL A   1      32.725  24.248  23.661  1.00  0.00     0.177 A 
ATOM     19  C   UNL A   1      34.110  24.544  25.619  1.00  0.00     0.049 A 
ATOM     20  N   UNL A   1      31.915  24.686  22.633  1.00  0.00    -0.141 NA
ATOM     21  C   UNL A   1      33.075  22.802  23.677  1.00  0.00     0.280 A 
ATOM     22  C   UNL A   1      34.540  23.277  25.539  1.00  0.00     0.091 A 
ATOM     23  O   UNL A   1      32.514  22.078  22.867  1.00  0.00    -0.267 OA
BRANCH  13  24
ATOM     24  C   UNL A   1      30.255  28.587  23.153  1.00  0.00    -0.012 A 
ATOM     25  C   UNL A   1      28.895  28.407  23.424  1.00  0.00     0.012 A 
ATOM     26  C   UNL A   1      30.657  29.510  22.175  1.00  0.00     0.012 A 
ATOM     27  C   UNL A   1      27.944  29.159  22.730  1.00  0.00     0.040 A 
ATOM     28  C   UNL A   1      29.706  30.258  21.482  1.00  0.00     0.040 A 
ATOM     29  C   UNL A   1      28.358  30.079  21.771  1.00  0.00     0.123 A 
ATOM     30  F   UNL A   1      27.444  30.815  21.126  1.00  0.00    -0.207 F 
ENDBRANCH  13  24
ENDBRANCH   8   9
ENDBRANCH   7   8
ENDBRANCH   6   7
ENDBRANCH   3   6
ENDBRANCH   1   2
BRANCH   1  31
ATOM     31  C   UNL A   1      40.872  20.226  26.102  1.00  0.00     0.042 C 
BRANCH  31  32
ATOM     32  C   UNL A   1      42.082  19.749  26.870  1.00  0.00     0.118 C 
BRANCH  32  33
ATOM     33  N   UNL A   1      43.235  19.491  26.008  1.00  0.00    -0.352 N 
ATOM     34  C   UNL A   1      43.928  20.413  25.254  1.00  0.00     0.251 C 
ATOM     35  H   UNL A   1      43.550  18.559  25.960  1.00  0.00     0.163 HD
ATOM     36  O   UNL A   1      44.605  20.058  24.287  1.00  0.00    -0.269 OA
BRANCH  34  37
ATOM     37  C   UNL A   1      43.838  21.834  25.624  1.00  0.00     0.039 A 
ATOM     38  C   UNL A   1      43.111  22.740  24.853  1.00  0.00     0.014 A 
ATOM     39  C   UNL A   1      44.470  22.243  26.799  1.00  0.00     0.014 A 
ATOM     40  C   UNL A   1      42.975  24.042  25.321  1.00  0.00     0.010 A 
ATOM     41  C   UNL A   1      44.175  23.459  27.354  1.00  0.00     0.010 A 
ATOM     42  C   UNL A   1      43.489  24.382  26.588  1.00  0.00    -0.014 A 
BRANCH  42  43
ATOM     43  C   UNL A   1      43.217  25.686  27.166  1.00  0.00     0.031 A 
ATOM     44  C   UNL A   1      44.181  26.725  26.743  1.00  0.00     0.074 A 
ATOM     45  C   UNL A   1      42.138  25.980  27.921  1.00  0.00     0.049 A 
ATOM     46  N   UNL A   1      45.201  27.124  27.420  1.00  0.00    -0.248 NA
ATOM     47  C   UNL A   1      44.153  27.219  25.359  1.00  0.00     0.031 C 
ATOM     48  C   UNL A   1      40.942  25.179  28.192  1.00  0.00     0.029 A 
ATOM     49  N   UNL A   1      41.877  27.138  28.586  1.00  0.00    -0.354 N 
ATOM     50  C   UNL A   1      45.808  28.108  26.655  1.00  0.00     0.074 A 
ATOM     51  C   UNL A   1      45.259  27.969  25.332  1.00  0.00     0.031 C 
ATOM     52  C   UNL A   1      40.000  25.955  28.778  1.00  0.00     0.029 A 
ATOM     53  C   UNL A   1      40.579  27.254  29.074  1.00  0.00     0.049 A 
ATOM     54  H   UNL A   1      42.555  27.841  28.714  1.00  0.00     0.167 HD
ATOM     55  C   UNL A   1      46.492  29.112  27.273  1.00  0.00     0.037 A 
ATOM     56  C   UNL A   1      40.036  28.352  29.660  1.00  0.00     0.037 A 
ATOM     57  C   UNL A   1      46.762  28.763  28.655  1.00  0.00     0.049 A 
ATOM     58  C   UNL A   1      41.164  29.187  30.158  1.00  0.00     0.074 A 
ATOM     59  C   UNL A   1      47.388  27.698  29.282  1.00  0.00     0.029 A 
ATOM     60  N   UNL A   1      45.986  29.353  29.624  1.00  0.00    -0.354 N 
ATOM     61  N   UNL A   1      41.927  28.837  31.158  1.00  0.00    -0.248 NA
ATOM     62  C   UNL A   1      41.754  30.141  29.230  1.00  0.00     0.031 C 
ATOM     63  C   UNL A   1      46.566  27.405  30.413  1.00  0.00     0.029 A 
ATOM     64  C   UNL A   1      45.556  28.364  30.471  1.00  0.00     0.049 A 
ATOM     65  H   UNL A   1      45.777  30.313  29.697  1.00  0.00     0.167 HD
ATOM     66  C   UNL A   1      43.214  29.138  30.737  1.00  0.00     0.074 A 
ATOM     67  C   UNL A   1      43.039  30.009  29.573  1.00  0.00     0.031 C 
ATOM     68  C   UNL A   1      44.291  28.415  31.168  1.00  0.00     0.037 A 
BRANCH  55  69
ATOM     69  C   UNL A   1      46.507  30.549  26.804  1.00  0.00     0.057 A 
ATOM     70  C   UNL A   1      45.364  31.355  26.631  1.00  0.00     0.134 A 
ATOM     71  C   UNL A   1      47.725  31.253  26.861  1.00  0.00     0.134 A 
ATOM     72  F   UNL A   1      44.126  30.857  26.555  1.00  0.00    -0.206 F 
ATOM     73  C   UNL A   1      45.417  32.750  26.622  1.00  0.00     0.040 A 
ATOM     74  C   UNL A   1      47.785  32.650  26.900  1.00  0.00     0.040 A 
ATOM     75  F   UNL A   1      48.892  30.603  26.992  1.00  0.00    -0.206 F 
ATOM     76  C   UNL A   1      46.624  33.404  26.803  1.00  0.00     0.006 A 
ENDBRANCH  55  69
BRANCH  56  77
ATOM     77  C   UNL A   1      38.646  28.861  29.586  1.00  0.00     0.057 A 
ATOM     78  C   UNL A   1      38.177  29.555  28.457  1.00  0.00     0.134 A 
ATOM     79  C   UNL A   1      37.830  28.929  30.726  1.00  0.00     0.134 A 
ATOM     80  F   UNL A   1      38.905  29.624  27.333  1.00  0.00    -0.206 F 
ATOM     81  C   UNL A   1      36.985  30.289  28.465  1.00  0.00     0.040 A 
ATOM     82  C   UNL A   1      36.635  29.664  30.750  1.00  0.00     0.040 A 
ATOM     83  F   UNL A   1      38.206  28.339  31.871  1.00  0.00    -0.206 F 
ATOM     84  C   UNL A   1      36.216  30.358  29.619  1.00  0.00     0.006 A 
ENDBRANCH  56  77
BRANCH  68  85
ATOM     85  C   UNL A   1      44.100  27.453  32.311  1.00  0.00     0.057 A 
ATOM     86  C   UNL A   1      44.227  27.940  33.617  1.00  0.00     0.134 A 
ATOM     87  C   UNL A   1      43.927  26.067  32.171  1.00  0.00     0.134 A 
ATOM     88  F   UNL A   1      44.454  29.247  33.833  1.00  0.00    -0.206 F 
ATOM     89  C   UNL A   1      44.168  27.101  34.732  1.00  0.00     0.040 A 
ATOM     90  C   UNL A   1      43.826  25.220  33.281  1.00  0.00     0.040 A 
ATOM     91  F   UNL A   1      43.906  25.484  30.965  1.00  0.00    -0.206 F 
ATOM     92  C   UNL A   1      43.951  25.737  34.567  1.00  0.00     0.006 A 
ENDBRANCH  68  85
ENDBRANCH  42  43
ENDBRANCH  34  37
ENDBRANCH  32  33
ENDBRANCH  31  32
ENDBRANCH   1  31
TORSDOF 14
ENDMDL
MODEL 2
REMARK VINA RESULT:     -12.5      3.297      8.748
REMARK SMILES Cc1nn2c(nnc3c(=O)n(CCCC(=O)NCCCNC(=O)c4ccc(-c5c6nc(c(-c7c(F)cccc7F)c7ccc([nH]7)c(-c7c(F)cccc7F)c7nc(c(-c8c(F)cccc8F)c8ccc5[nH]8)C=C7)C=C6)cc4)ccc32)c1-c1ccc(F)cc1
REMARK SMILES IDX 18 1 17 2 15 3 16 4 14 6 13 7 12 8 11 9 1 10 2 11 3 12 81 13
REMARK SMILES IDX 4 14 5 15 80 16 6 17 8 18 79 19 7 20 9 21 78 22 10 23 82 24
REMARK SMILES IDX 83 25 88 26 84 27 87 28 85 29 86 30 19 31 20 32 21 33 22 34
REMARK SMILES IDX 23 36 24 37 25 38 77 39 26 40 76 41 27 42 28 43 29 44 70 45
REMARK SMILES IDX 30 46 75 47 69 48 71 49 31 50 74 51 68 52 67 53 32 55 58 56
REMARK SMILES IDX 41 57 57 58 42 59 45 60 56 61 72 62 43 63 44 64 55 66 73 67
REMARK SMILES IDX 46 68 33 69 34 70 39 71 35 72 36 73 38 74 40 75 37 76 59 77
REMARK SMILES IDX 60 78 65 79 61 80 62 81 64 82 66 83 63 84 47 85 48 86 53 87
REMARK SMILES IDX 49 88 50 89 52 90 54 91 51 92
REMARK H PARENT 17 5 21 35 71 54 45 65
REMARK Flexibility Score: inf
ROOT
ATOM      1  C   UNL A   1      33.924  29.560  26.743  1.00  0.00     0.117 C 
ENDROOT
BRANCH   1   2
ATOM      2  N   UNL A   1      32.847  30.520  26.617  1.00  0.00    -0.356 N 
ATOM      3  C   UNL A   1      31.765  30.616  25.811  1.00  0.00     0.220 C 
ATOM      4  O   UNL A   1      30.987  31.537  26.098  1.00  0.00    -0.275 OA
ATOM      5  H   UNL A   1      32.918  31.264  27.257  1.00  0.00     0.163 HD
BRANCH   3   6
ATOM      6  C   UNL A   1      31.379  29.660  24.691  1.00  0.00     0.102 C 
BRANCH   6   7
ATOM      7  C   UNL A   1      31.450  28.131  24.758  1.00  0.00     0.032 C 
BRANCH   7   8
ATOM      8  C   UNL A   1      31.852  27.195  23.613  1.00  0.00     0.126 C 
BRANCH   8   9
ATOM      9  N   UNL A   1      32.484  25.873  23.798  1.00  0.00    -0.313 N 
ATOM     10  C   UNL A   1      36.947  19.836  25.001  1.00  0.00     0.069 C 
ATOM     11  C   UNL A   1      35.654  20.562  24.962  1.00  0.00     0.070 A 
ATOM     12  N   UNL A   1      35.629  21.905  24.981  1.00  0.00    -0.170 NA
ATOM     13  C   UNL A   1      34.359  20.010  24.848  1.00  0.00     0.051 A 
ATOM     14  N   UNL A   1      34.324  22.228  24.763  1.00  0.00    -0.210 N 
ATOM     15  C   UNL A   1      33.525  21.094  24.723  1.00  0.00     0.186 A 
ATOM     16  C   UNL A   1      33.745  23.470  24.501  1.00  0.00     0.102 A 
ATOM     17  N   UNL A   1      32.182  21.189  24.524  1.00  0.00    -0.129 NA
ATOM     18  C   UNL A   1      32.447  23.436  24.162  1.00  0.00     0.177 A 
ATOM     19  C   UNL A   1      34.451  24.730  24.545  1.00  0.00     0.049 A 
ATOM     20  N   UNL A   1      31.677  22.291  24.208  1.00  0.00    -0.141 NA
ATOM     21  C   UNL A   1      31.787  24.674  23.664  1.00  0.00     0.280 A 
ATOM     22  C   UNL A   1      33.808  25.867  24.239  1.00  0.00     0.091 A 
ATOM     23  O   UNL A   1      30.660  24.564  23.202  1.00  0.00    -0.267 OA
BRANCH  13  24
ATOM     24  C   UNL A   1      33.850  18.658  24.784  1.00  0.00    -0.012 A 
ATOM     25  C   UNL A   1      34.394  17.748  23.872  1.00  0.00     0.012 A 
ATOM     26  C   UNL A   1      32.910  18.222  25.731  1.00  0.00     0.012 A 
ATOM     27  C   UNL A   1      34.012  16.406  23.919  1.00  0.00     0.040 A 
ATOM     28  C   UNL A   1      32.528  16.882  25.774  1.00  0.00     0.040 A 
ATOM     29  C   UNL A   1      33.087  15.986  24.871  1.00  0.00     0.123 A 
ATOM     30  F   UNL A   1      32.742  14.693  24.928  1.00  0.00    -0.207 F 
ENDBRANCH  13  24
ENDBRANCH   8   9
ENDBRANCH   7   8
ENDBRANCH   6   7
ENDBRANCH   3   6
ENDBRANCH   1   2
BRANCH   1  31
ATOM     31  C   UNL A   1      34.957  29.973  27.798  1.00  0.00     0.042 C 
BRANCH  31  32
ATOM     32  C   UNL A   1      35.349  31.428  27.700  1.00  0.00     0.118 C 
BRANCH  32  33
ATOM     33  N   UNL A   1      35.004  32.191  28.899  1.00  0.00    -0.352 N 
ATOM     34  C   UNL A   1      35.400  31.924  30.192  1.00  0.00     0.251 C 
ATOM     35  H   UNL A   1      34.427  32.977  28.770  1.00  0.00     0.163 HD
ATOM     36  O   UNL A   1      34.764  32.364  31.151  1.00  0.00    -0.269 OA
BRANCH  34  37
ATOM     37  C   UNL A   1      36.598  31.097  30.404  1.00  0.00     0.039 A 
ATOM     38  C   UNL A   1      36.501  29.781  30.854  1.00  0.00     0.014 A 
ATOM     39  C   UNL A   1      37.839  31.658  30.100  1.00  0.00     0.014 A 
ATOM     40  C   UNL A   1      37.663  29.022  30.924  1.00  0.00     0.010 A 
ATOM     41  C   UNL A   1      38.946  30.861  29.982  1.00  0.00     0.010 A 
ATOM     42  C   UNL A   1      38.878  29.566  30.459  1.00  0.00    -0.014 A 
BRANCH  42  43
ATOM     43  C   UNL A   1      40.068  28.739  30.371  1.00  0.00     0.031 A 
ATOM     44  C   UNL A   1      40.760  28.573  31.668  1.00  0.00     0.074 A 
ATOM     45  C   UNL A   1      40.463  28.080  29.262  1.00  0.00     0.049 A 
ATOM     46  N   UNL A   1      41.787  29.241  32.062  1.00  0.00    -0.248 NA
ATOM     47  C   UNL A   1      40.142  27.752  32.719  1.00  0.00     0.031 C 
ATOM     48  C   UNL A   1      39.760  27.882  27.993  1.00  0.00     0.029 A 
ATOM     49  N   UNL A   1      41.618  27.385  29.073  1.00  0.00    -0.354 N 
ATOM     50  C   UNL A   1      42.106  28.750  33.318  1.00  0.00     0.074 A 
ATOM     51  C   UNL A   1      40.952  28.007  33.752  1.00  0.00     0.031 C 
ATOM     52  C   UNL A   1      40.404  26.945  27.259  1.00  0.00     0.029 A 
ATOM     53  C   UNL A   1      41.648  26.600  27.925  1.00  0.00     0.049 A 
ATOM     54  H   UNL A   1      42.375  27.434  29.701  1.00  0.00     0.167 HD
ATOM     55  C   UNL A   1      43.401  28.779  33.742  1.00  0.00     0.037 A 
ATOM     56  C   UNL A   1      42.626  25.725  27.575  1.00  0.00     0.037 A 
ATOM     57  C   UNL A   1      44.185  29.669  32.907  1.00  0.00     0.049 A 
ATOM     58  C   UNL A   1      43.856  26.122  28.314  1.00  0.00     0.074 A 
ATOM     59  C   UNL A   1      44.079  31.001  32.542  1.00  0.00     0.029 A 
ATOM     60  N   UNL A   1      45.015  29.098  31.970  1.00  0.00    -0.354 N 
ATOM     61  N   UNL A   1      44.523  27.214  28.058  1.00  0.00    -0.248 NA
ATOM     62  C   UNL A   1      44.038  25.582  29.654  1.00  0.00     0.031 C 
ATOM     63  C   UNL A   1      44.411  31.027  31.153  1.00  0.00     0.029 A 
ATOM     64  C   UNL A   1      44.800  29.742  30.779  1.00  0.00     0.049 A 
ATOM     65  H   UNL A   1      45.648  28.360  32.127  1.00  0.00     0.167 HD
ATOM     66  C   UNL A   1      44.815  27.746  29.306  1.00  0.00     0.074 A 
ATOM     67  C   UNL A   1      44.558  26.658  30.252  1.00  0.00     0.031 C 
ATOM     68  C   UNL A   1      44.938  29.094  29.494  1.00  0.00     0.037 A 
BRANCH  55  69
ATOM     69  C   UNL A   1      44.052  27.695  34.570  1.00  0.00     0.057 A 
ATOM     70  C   UNL A   1      44.184  26.348  34.180  1.00  0.00     0.134 A 
ATOM     71  C   UNL A   1      44.880  28.085  35.641  1.00  0.00     0.134 A 
ATOM     72  F   UNL A   1      43.478  25.805  33.183  1.00  0.00    -0.206 F 
ATOM     73  C   UNL A   1      45.135  25.489  34.736  1.00  0.00     0.040 A 
ATOM     74  C   UNL A   1      45.867  27.249  36.172  1.00  0.00     0.040 A 
ATOM     75  F   UNL A   1      44.830  29.334  36.132  1.00  0.00    -0.206 F 
ATOM     76  C   UNL A   1      46.012  25.951  35.703  1.00  0.00     0.006 A 
ENDBRANCH  55  69
BRANCH  56  77
ATOM     77  C   UNL A   1      42.511  24.427  26.868  1.00  0.00     0.057 A 
ATOM     78  C   UNL A   1      42.064  23.269  27.528  1.00  0.00     0.134 A 
ATOM     79  C   UNL A   1      43.101  24.224  25.611  1.00  0.00     0.134 A 
ATOM     80  F   UNL A   1      41.550  23.329  28.764  1.00  0.00    -0.206 F 
ATOM     81  C   UNL A   1      42.213  21.988  26.983  1.00  0.00     0.040 A 
ATOM     82  C   UNL A   1      43.261  22.946  25.056  1.00  0.00     0.040 A 
ATOM     83  F   UNL A   1      43.602  25.257  24.918  1.00  0.00    -0.206 F 
ATOM     84  C   UNL A   1      42.827  21.820  25.749  1.00  0.00     0.006 A 
ENDBRANCH  56  77
BRANCH  68  85
ATOM     85  C   UNL A   1      45.013  29.985  28.283  1.00  0.00     0.057 A 
ATOM     86  C   UNL A   1      46.274  30.410  27.849  1.00  0.00     0.134 A 
ATOM     87  C   UNL A   1      43.902  30.533  27.622  1.00  0.00     0.134 A 
ATOM     88  F   UNL A   1      47.384  29.978  28.468  1.00  0.00    -0.206 F 
ATOM     89  C   UNL A   1      46.431  31.318  26.799  1.00  0.00     0.040 A 
ATOM     90  C   UNL A   1      44.047  31.413  26.543  1.00  0.00     0.040 A 
ATOM     91  F   UNL A   1      42.652  30.280  28.029  1.00  0.00    -0.206 F 
ATOM     92  C   UNL A   1      45.314  31.811  26.131  1.00  0.00     0.006 A 
ENDBRANCH  68  85
ENDBRANCH  42  43
ENDBRANCH  34  37
ENDBRANCH  32  33
ENDBRANCH  31  32
ENDBRANCH   1  31
TORSDOF 14
ENDMDL
MODEL 3
REMARK VINA RESULT:     -12.1      1.879      5.478
REMARK SMILES Cc1nn2c(nnc3c(=O)n(CCCC(=O)NCCCNC(=O)c4ccc(-c5c6nc(c(-c7c(F)cccc7F)c7ccc([nH]7)c(-c7c(F)cccc7F)c7nc(c(-c8c(F)cccc8F)c8ccc5[nH]8)C=C7)C=C6)cc4)ccc32)c1-c1ccc(F)cc1
REMARK SMILES IDX 18 1 17 2 15 3 16 4 14 6 13 7 12 8 11 9 1 10 2 11 3 12 81 13
REMARK SMILES IDX 4 14 5 15 80 16 6 17 8 18 79 19 7 20 9 21 78 22 10 23 82 24
REMARK SMILES IDX 83 25 88 26 84 27 87 28 85 29 86 30 19 31 20 32 21 33 22 34
REMARK SMILES IDX 23 36 24 37 25 38 77 39 26 40 76 41 27 42 28 43 29 44 70 45
REMARK SMILES IDX 30 46 75 47 69 48 71 49 31 50 74 51 68 52 67 53 32 55 58 56
REMARK SMILES IDX 41 57 57 58 42 59 45 60 56 61 72 62 43 63 44 64 55 66 73 67
REMARK SMILES IDX 46 68 33 69 34 70 39 71 35 72 36 73 38 74 40 75 37 76 59 77
REMARK SMILES IDX 60 78 65 79 61 80 62 81 64 82 66 83 63 84 47 85 48 86 53 87
REMARK SMILES IDX 49 88 50 89 52 90 54 91 51 92
REMARK H PARENT 17 5 21 35 71 54 45 65
REMARK Flexibility Score: inf
ROOT
ATOM      1  C   UNL A   1      38.665  21.452  26.033  1.00  0.00     0.117 C 
ENDROOT
BRANCH   1   2
ATOM      2  N   UNL A   1      38.201  22.346  24.993  1.00  0.00    -0.356 N 
ATOM      3  C   UNL A   1      37.041  22.467  24.307  1.00  0.00     0.220 C 
ATOM      4  O   UNL A   1      36.979  23.459  23.567  1.00  0.00    -0.275 OA
ATOM      5  H   UNL A   1      38.876  23.011  24.726  1.00  0.00     0.163 HD
BRANCH   3   6
ATOM      6  C   UNL A   1      35.811  21.581  24.441  1.00  0.00     0.102 C 
BRANCH   6   7
ATOM      7  C   UNL A   1      34.358  22.039  24.267  1.00  0.00     0.032 C 
BRANCH   7   8
ATOM      8  C   UNL A   1      33.759  22.683  23.012  1.00  0.00     0.126 C 
BRANCH   8   9
ATOM      9  N   UNL A   1      32.675  23.687  23.026  1.00  0.00    -0.313 N 
ATOM     10  C   UNL A   1      26.332  27.812  23.765  1.00  0.00     0.069 C 
ATOM     11  C   UNL A   1      27.795  27.616  23.615  1.00  0.00     0.070 A 
ATOM     12  N   UNL A   1      28.356  26.436  23.930  1.00  0.00    -0.170 NA
ATOM     13  C   UNL A   1      28.739  28.534  23.107  1.00  0.00     0.051 A 
ATOM     14  N   UNL A   1      29.650  26.551  23.517  1.00  0.00    -0.210 N 
ATOM     15  C   UNL A   1      29.918  27.831  23.054  1.00  0.00     0.186 A 
ATOM     16  C   UNL A   1      30.644  25.577  23.424  1.00  0.00     0.102 A 
ATOM     17  N   UNL A   1      31.156  28.167  22.600  1.00  0.00    -0.129 NA
ATOM     18  C   UNL A   1      31.775  25.970  22.817  1.00  0.00     0.177 A 
ATOM     19  C   UNL A   1      30.510  24.219  23.899  1.00  0.00     0.049 A 
ATOM     20  N   UNL A   1      32.022  27.275  22.440  1.00  0.00    -0.141 NA
ATOM     21  C   UNL A   1      32.816  24.961  22.481  1.00  0.00     0.280 A 
ATOM     22  C   UNL A   1      31.516  23.349  23.726  1.00  0.00     0.091 A 
ATOM     23  O   UNL A   1      33.747  25.326  21.777  1.00  0.00    -0.267 OA
BRANCH  13  24
ATOM     24  C   UNL A   1      28.655  29.897  22.634  1.00  0.00    -0.012 A 
ATOM     25  C   UNL A   1      28.286  30.157  21.310  1.00  0.00     0.012 A 
ATOM     26  C   UNL A   1      28.807  30.959  23.540  1.00  0.00     0.012 A 
ATOM     27  C   UNL A   1      28.053  31.472  20.901  1.00  0.00     0.040 A 
ATOM     28  C   UNL A   1      28.576  32.272  23.127  1.00  0.00     0.040 A 
ATOM     29  C   UNL A   1      28.196  32.514  21.812  1.00  0.00     0.123 A 
ATOM     30  F   UNL A   1      27.947  33.771  21.421  1.00  0.00    -0.207 F 
ENDBRANCH  13  24
ENDBRANCH   8   9
ENDBRANCH   7   8
ENDBRANCH   6   7
ENDBRANCH   3   6
ENDBRANCH   1   2
BRANCH   1  31
ATOM     31  C   UNL A   1      39.367  20.211  25.470  1.00  0.00     0.042 C 
BRANCH  31  32
ATOM     32  C   UNL A   1      40.390  19.633  26.419  1.00  0.00     0.118 C 
BRANCH  32  33
ATOM     33  N   UNL A   1      41.631  19.248  25.749  1.00  0.00    -0.352 N 
ATOM     34  C   UNL A   1      42.715  20.057  25.485  1.00  0.00     0.251 C 
ATOM     35  H   UNL A   1      41.700  18.312  25.454  1.00  0.00     0.163 HD
ATOM     36  O   UNL A   1      43.520  19.766  24.598  1.00  0.00    -0.269 OA
BRANCH  34  37
ATOM     37  C   UNL A   1      42.890  21.281  26.282  1.00  0.00     0.039 A 
ATOM     38  C   UNL A   1      43.111  22.517  25.676  1.00  0.00     0.014 A 
ATOM     39  C   UNL A   1      42.784  21.175  27.670  1.00  0.00     0.014 A 
ATOM     40  C   UNL A   1      43.155  23.647  26.484  1.00  0.00     0.010 A 
ATOM     41  C   UNL A   1      42.631  22.298  28.437  1.00  0.00     0.010 A 
ATOM     42  C   UNL A   1      42.886  23.528  27.862  1.00  0.00    -0.014 A 
BRANCH  42  43
ATOM     43  C   UNL A   1      42.764  24.713  28.692  1.00  0.00     0.031 A 
ATOM     44  C   UNL A   1      41.546  25.502  28.407  1.00  0.00     0.074 A 
ATOM     45  C   UNL A   1      43.596  25.027  29.707  1.00  0.00     0.049 A 
ATOM     46  N   UNL A   1      41.488  26.553  27.666  1.00  0.00    -0.248 NA
ATOM     47  C   UNL A   1      40.231  24.971  28.793  1.00  0.00     0.031 C 
ATOM     48  C   UNL A   1      44.659  24.230  30.323  1.00  0.00     0.029 A 
ATOM     49  N   UNL A   1      43.612  26.168  30.449  1.00  0.00    -0.354 N 
ATOM     50  C   UNL A   1      40.166  26.969  27.691  1.00  0.00     0.074 A 
ATOM     51  C   UNL A   1      39.416  25.855  28.209  1.00  0.00     0.031 C 
ATOM     52  C   UNL A   1      45.062  24.823  31.472  1.00  0.00     0.029 A 
ATOM     53  C   UNL A   1      44.410  26.115  31.587  1.00  0.00     0.049 A 
ATOM     54  H   UNL A   1      43.099  26.970  30.199  1.00  0.00     0.167 HD
ATOM     55  C   UNL A   1      39.875  28.292  27.543  1.00  0.00     0.037 A 
ATOM     56  C   UNL A   1      44.499  27.069  32.550  1.00  0.00     0.037 A 
ATOM     57  C   UNL A   1      41.024  29.005  27.019  1.00  0.00     0.049 A 
ATOM     58  C   UNL A   1      44.039  28.348  31.945  1.00  0.00     0.074 A 
ATOM     59  C   UNL A   1      41.826  28.865  25.899  1.00  0.00     0.029 A 
ATOM     60  N   UNL A   1      41.758  29.765  27.901  1.00  0.00    -0.354 N 
ATOM     61  N   UNL A   1      44.711  28.989  31.027  1.00  0.00    -0.248 NA
ATOM     62  C   UNL A   1      42.612  28.635  31.985  1.00  0.00     0.031 C 
ATOM     63  C   UNL A   1      43.156  29.091  26.370  1.00  0.00     0.029 A 
ATOM     64  C   UNL A   1      43.081  29.457  27.712  1.00  0.00     0.049 A 
ATOM     65  H   UNL A   1      41.399  30.412  28.550  1.00  0.00     0.167 HD
ATOM     66  C   UNL A   1      43.755  29.372  30.098  1.00  0.00     0.074 A 
ATOM     67  C   UNL A   1      42.470  29.193  30.779  1.00  0.00     0.031 C 
ATOM     68  C   UNL A   1      44.062  29.501  28.773  1.00  0.00     0.037 A 
BRANCH  55  69
ATOM     69  C   UNL A   1      38.768  29.010  28.281  1.00  0.00     0.057 A 
ATOM     70  C   UNL A   1      37.658  29.627  27.671  1.00  0.00     0.134 A 
ATOM     71  C   UNL A   1      38.631  28.776  29.663  1.00  0.00     0.134 A 
ATOM     72  F   UNL A   1      37.613  29.924  26.368  1.00  0.00    -0.206 F 
ATOM     73  C   UNL A   1      36.470  29.892  28.356  1.00  0.00     0.040 A 
ATOM     74  C   UNL A   1      37.431  28.993  30.347  1.00  0.00     0.040 A 
ATOM     75  F   UNL A   1      39.628  28.222  30.370  1.00  0.00    -0.206 F 
ATOM     76  C   UNL A   1      36.336  29.533  29.686  1.00  0.00     0.006 A 
ENDBRANCH  55  69
BRANCH  56  77
ATOM     77  C   UNL A   1      44.694  26.907  34.011  1.00  0.00     0.057 A 
ATOM     78  C   UNL A   1      43.672  26.411  34.838  1.00  0.00     0.134 A 
ATOM     79  C   UNL A   1      45.781  27.498  34.674  1.00  0.00     0.134 A 
ATOM     80  F   UNL A   1      42.551  25.890  34.318  1.00  0.00    -0.206 F 
ATOM     81  C   UNL A   1      43.715  26.512  36.233  1.00  0.00     0.040 A 
ATOM     82  C   UNL A   1      45.836  27.612  36.071  1.00  0.00     0.040 A 
ATOM     83  F   UNL A   1      46.790  28.045  33.978  1.00  0.00    -0.206 F 
ATOM     84  C   UNL A   1      44.793  27.128  36.855  1.00  0.00     0.006 A 
ENDBRANCH  56  77
BRANCH  68  85
ATOM     85  C   UNL A   1      45.512  29.479  28.366  1.00  0.00     0.057 A 
ATOM     86  C   UNL A   1      46.097  28.243  28.063  1.00  0.00     0.134 A 
ATOM     87  C   UNL A   1      46.367  30.591  28.388  1.00  0.00     0.134 A 
ATOM     88  F   UNL A   1      45.358  27.122  28.080  1.00  0.00    -0.206 F 
ATOM     89  C   UNL A   1      47.458  28.117  27.776  1.00  0.00     0.040 A 
ATOM     90  C   UNL A   1      47.725  30.484  28.063  1.00  0.00     0.040 A 
ATOM     91  F   UNL A   1      45.934  31.798  28.773  1.00  0.00    -0.206 F 
ATOM     92  C   UNL A   1      48.275  29.243  27.760  1.00  0.00     0.006 A 
ENDBRANCH  68  85
ENDBRANCH  42  43
ENDBRANCH  34  37
ENDBRANCH  32  33
ENDBRANCH  31  32
ENDBRANCH   1  31
TORSDOF 14
ENDMDL
