MODEL 1
REMARK VINA RESULT:     -13.5      0.000      0.000
REMARK SMILES C[C@H]1CC[C@H]([NH2+]Cc2c(C(=O)NCCCNC(=O)c3ccc(-c4c5nc(c(-c6c(F)cccc6F)c6ccc([nH]6)c(-c6c(F)cccc6F)c6nc(c(-c7c(F)cccc7F)c7ccc4[nH]7)C=C6)C=C5)cc3)n(Cc3ccccc3F)c3ccccc23)CC1
REMARK SMILES IDX 13 1 12 2 10 3 11 4 9 6 8 7 87 8 73 9 82 10 86 11 83 12
REMARK SMILES IDX 85 13 84 14 7 15 6 16 5 19 1 20 2 21 3 22 89 23 4 24 88 25
REMARK SMILES IDX 74 26 75 27 76 28 80 29 77 30 79 31 81 32 78 33 14 34 15 35
REMARK SMILES IDX 16 36 17 37 18 39 19 40 20 41 72 42 21 43 71 44 22 45 23 46
REMARK SMILES IDX 24 47 65 48 25 49 70 50 64 51 66 52 26 53 69 54 63 55 62 56
REMARK SMILES IDX 27 58 53 59 36 60 52 61 37 62 40 63 51 64 67 65 38 66 39 67
REMARK SMILES IDX 50 69 68 70 41 71 28 72 29 73 34 74 30 75 31 76 33 77 35 78
REMARK SMILES IDX 32 79 54 80 55 81 60 82 56 83 57 84 59 85 61 86 58 87 42 88
REMARK SMILES IDX 43 89 48 90 44 91 45 92 47 93 49 94 46 95
REMARK H PARENT 12 5 6 17 6 18 16 38 66 57 40 68
REMARK Flexibility Score: inf
ROOT
ATOM      1  C   UNL A   1      32.328  27.870  27.252  1.00  0.00     0.118 C 
ENDROOT
BRANCH   1   2
ATOM      2  N   UNL A   1      31.130  27.075  27.146  1.00  0.00    -0.351 N 
ATOM      3  C   UNL A   1      30.669  26.245  26.154  1.00  0.00     0.268 C 
ATOM      4  O   UNL A   1      29.605  25.683  26.460  1.00  0.00    -0.268 OA
ATOM      5  H   UNL A   1      30.535  27.137  27.927  1.00  0.00     0.163 HD
BRANCH   3   6
ATOM      6  C   UNL A   1      31.294  26.062  24.836  1.00  0.00     0.117 A 
ATOM      7  C   UNL A   1      31.616  26.949  23.789  1.00  0.00     0.045 A 
ATOM      8  C   UNL A   1      31.893  26.141  22.637  1.00  0.00     0.009 A 
ATOM      9  N   UNL A   1      31.927  24.853  24.448  1.00  0.00    -0.331 N 
ATOM     10  C   UNL A   1      32.294  24.903  23.109  1.00  0.00     0.049 A 
ATOM     11  C   UNL A   1      31.995  26.416  21.254  1.00  0.00     0.011 A 
ATOM     12  C   UNL A   1      32.972  23.998  22.269  1.00  0.00     0.027 A 
ATOM     13  C   UNL A   1      32.523  25.455  20.390  1.00  0.00     0.001 A 
ATOM     14  C   UNL A   1      33.045  24.276  20.902  1.00  0.00     0.002 A 
BRANCH   7  15
ATOM     15  C   UNL A   1      31.741  28.440  23.671  1.00  0.00     0.300 C 
BRANCH  15  16
ATOM     16  N   UNL A   1      30.644  29.218  24.205  1.00  0.00    -0.340 N 
ATOM     17  H   UNL A   1      30.239  28.655  24.952  1.00  0.00     0.346 HD
ATOM     18  H   UNL A   1      31.109  30.100  24.422  1.00  0.00     0.346 HD
BRANCH  16  19
ATOM     19  C   UNL A   1      29.518  29.678  23.392  1.00  0.00     0.182 C 
ATOM     20  C   UNL A   1      27.657  32.779  20.831  1.00  0.00     0.007 C 
ATOM     21  C   UNL A   1      28.618  31.914  21.635  1.00  0.00    -0.014 C 
ATOM     22  C   UNL A   1      28.649  30.471  21.122  1.00  0.00     0.009 C 
ATOM     23  C   UNL A   1      28.250  31.908  23.119  1.00  0.00     0.009 C 
ATOM     24  C   UNL A   1      29.714  29.674  21.871  1.00  0.00     0.065 C 
ATOM     25  C   UNL A   1      29.269  31.109  23.918  1.00  0.00     0.065 C 
ENDBRANCH  16  19
ENDBRANCH  15  16
ENDBRANCH   7  15
BRANCH   9  26
ATOM     26  C   UNL A   1      32.333  23.743  25.329  1.00  0.00     0.161 C 
BRANCH  26  27
ATOM     27  C   UNL A   1      33.800  23.382  25.290  1.00  0.00     0.008 A 
ATOM     28  C   UNL A   1      34.254  22.098  24.943  1.00  0.00     0.008 A 
ATOM     29  C   UNL A   1      34.773  24.366  25.485  1.00  0.00     0.128 A 
ATOM     30  C   UNL A   1      35.616  21.810  24.811  1.00  0.00     0.001 A 
ATOM     31  C   UNL A   1      36.137  24.084  25.374  1.00  0.00     0.039 A 
ATOM     32  F   UNL A   1      34.415  25.631  25.738  1.00  0.00    -0.207 F 
ATOM     33  C   UNL A   1      36.561  22.803  25.033  1.00  0.00     0.003 A 
ENDBRANCH  26  27
ENDBRANCH   9  26
ENDBRANCH   3   6
ENDBRANCH   1   2
BRANCH   1  34
ATOM     34  C   UNL A   1      32.109  29.380  27.240  1.00  0.00     0.042 C 
BRANCH  34  35
ATOM     35  C   UNL A   1      33.352  30.261  26.990  1.00  0.00     0.118 C 
BRANCH  35  36
ATOM     36  N   UNL A   1      33.695  31.249  28.007  1.00  0.00    -0.352 N 
ATOM     37  C   UNL A   1      34.872  31.758  28.495  1.00  0.00     0.251 C 
ATOM     38  H   UNL A   1      32.902  31.639  28.441  1.00  0.00     0.163 HD
ATOM     39  O   UNL A   1      34.819  32.861  29.045  1.00  0.00    -0.269 OA
BRANCH  37  40
ATOM     40  C   UNL A   1      36.176  31.044  28.485  1.00  0.00     0.039 A 
ATOM     41  C   UNL A   1      36.299  29.683  28.229  1.00  0.00     0.014 A 
ATOM     42  C   UNL A   1      37.316  31.747  28.923  1.00  0.00     0.014 A 
ATOM     43  C   UNL A   1      37.498  29.018  28.466  1.00  0.00     0.010 A 
ATOM     44  C   UNL A   1      38.527  31.086  29.155  1.00  0.00     0.010 A 
ATOM     45  C   UNL A   1      38.605  29.707  28.967  1.00  0.00    -0.014 A 
BRANCH  45  46
ATOM     46  C   UNL A   1      39.789  28.908  29.287  1.00  0.00     0.031 A 
ATOM     47  C   UNL A   1      40.137  28.732  30.728  1.00  0.00     0.074 A 
ATOM     48  C   UNL A   1      40.561  28.290  28.372  1.00  0.00     0.049 A 
ATOM     49  N   UNL A   1      41.219  29.095  31.342  1.00  0.00    -0.248 NA
ATOM     50  C   UNL A   1      39.148  28.075  31.591  1.00  0.00     0.031 C 
ATOM     51  C   UNL A   1      40.294  28.077  26.950  1.00  0.00     0.029 A 
ATOM     52  N   UNL A   1      41.745  27.639  28.574  1.00  0.00    -0.354 N 
ATOM     53  C   UNL A   1      41.119  28.597  32.640  1.00  0.00     0.074 A 
ATOM     54  C   UNL A   1      39.795  28.034  32.757  1.00  0.00     0.031 C 
ATOM     55  C   UNL A   1      41.177  27.173  26.469  1.00  0.00     0.029 A 
ATOM     56  C   UNL A   1      42.138  26.846  27.511  1.00  0.00     0.049 A 
ATOM     57  H   UNL A   1      42.271  27.725  29.402  1.00  0.00     0.167 HD
ATOM     58  C   UNL A   1      42.173  28.556  33.503  1.00  0.00     0.037 A 
ATOM     59  C   UNL A   1      43.140  25.935  27.504  1.00  0.00     0.037 A 
ATOM     60  C   UNL A   1      43.256  29.406  33.095  1.00  0.00     0.049 A 
ATOM     61  C   UNL A   1      44.083  26.264  28.599  1.00  0.00     0.074 A 
ATOM     62  C   UNL A   1      43.406  30.760  32.865  1.00  0.00     0.029 A 
ATOM     63  N   UNL A   1      44.405  28.830  32.614  1.00  0.00    -0.354 N 
ATOM     64  N   UNL A   1      44.896  27.283  28.597  1.00  0.00    -0.248 NA
ATOM     65  C   UNL A   1      43.886  25.630  29.895  1.00  0.00     0.031 C 
ATOM     66  C   UNL A   1      44.386  30.859  31.835  1.00  0.00     0.029 A 
ATOM     67  C   UNL A   1      44.758  29.556  31.506  1.00  0.00     0.049 A 
ATOM     68  H   UNL A   1      44.879  28.052  32.989  1.00  0.00     0.167 HD
ATOM     69  C   UNL A   1      44.986  27.669  29.926  1.00  0.00     0.074 A 
ATOM     70  C   UNL A   1      44.450  26.546  30.685  1.00  0.00     0.031 C 
ATOM     71  C   UNL A   1      45.226  28.967  30.275  1.00  0.00     0.037 A 
BRANCH  58  72
ATOM     72  C   UNL A   1      42.334  27.553  34.613  1.00  0.00     0.057 A 
ATOM     73  C   UNL A   1      41.766  27.718  35.890  1.00  0.00     0.134 A 
ATOM     74  C   UNL A   1      42.830  26.265  34.335  1.00  0.00     0.134 A 
ATOM     75  F   UNL A   1      41.161  28.859  36.249  1.00  0.00    -0.206 F 
ATOM     76  C   UNL A   1      41.707  26.684  36.830  1.00  0.00     0.040 A 
ATOM     77  C   UNL A   1      42.733  25.210  35.250  1.00  0.00     0.040 A 
ATOM     78  F   UNL A   1      43.363  25.976  33.138  1.00  0.00    -0.206 F 
ATOM     79  C   UNL A   1      42.169  25.418  36.503  1.00  0.00     0.006 A 
ENDBRANCH  58  72
BRANCH  59  80
ATOM     80  C   UNL A   1      43.215  24.679  26.729  1.00  0.00     0.057 A 
ATOM     81  C   UNL A   1      43.861  24.625  25.479  1.00  0.00     0.134 A 
ATOM     82  C   UNL A   1      42.462  23.551  27.079  1.00  0.00     0.134 A 
ATOM     83  F   UNL A   1      44.523  25.686  24.992  1.00  0.00    -0.206 F 
ATOM     84  C   UNL A   1      43.785  23.511  24.640  1.00  0.00     0.040 A 
ATOM     85  C   UNL A   1      42.364  22.433  26.240  1.00  0.00     0.040 A 
ATOM     86  F   UNL A   1      41.759  23.528  28.220  1.00  0.00    -0.206 F 
ATOM     87  C   UNL A   1      43.027  22.411  25.016  1.00  0.00     0.006 A 
ENDBRANCH  59  80
BRANCH  71  88
ATOM     88  C   UNL A   1      45.682  29.911  29.203  1.00  0.00     0.057 A 
ATOM     89  C   UNL A   1      44.735  30.495  28.355  1.00  0.00     0.134 A 
ATOM     90  C   UNL A   1      47.033  30.134  28.900  1.00  0.00     0.134 A 
ATOM     91  F   UNL A   1      43.424  30.268  28.543  1.00  0.00    -0.206 F 
ATOM     92  C   UNL A   1      45.111  31.287  27.267  1.00  0.00     0.040 A 
ATOM     93  C   UNL A   1      47.422  30.951  27.835  1.00  0.00     0.040 A 
ATOM     94  F   UNL A   1      48.006  29.522  29.588  1.00  0.00    -0.206 F 
ATOM     95  C   UNL A   1      46.459  31.528  27.013  1.00  0.00     0.006 A 
ENDBRANCH  71  88
ENDBRANCH  45  46
ENDBRANCH  37  40
ENDBRANCH  35  36
ENDBRANCH  34  35
ENDBRANCH   1  34
TORSDOF 15
ENDMDL
MODEL 2
REMARK VINA RESULT:     -13.3      0.826      1.643
REMARK SMILES C[C@H]1CC[C@H]([NH2+]Cc2c(C(=O)NCCCNC(=O)c3ccc(-c4c5nc(c(-c6c(F)cccc6F)c6ccc([nH]6)c(-c6c(F)cccc6F)c6nc(c(-c7c(F)cccc7F)c7ccc4[nH]7)C=C6)C=C5)cc3)n(Cc3ccccc3F)c3ccccc23)CC1
REMARK SMILES IDX 13 1 12 2 10 3 11 4 9 6 8 7 87 8 73 9 82 10 86 11 83 12
REMARK SMILES IDX 85 13 84 14 7 15 6 16 5 19 1 20 2 21 3 22 89 23 4 24 88 25
REMARK SMILES IDX 74 26 75 27 76 28 80 29 77 30 79 31 81 32 78 33 14 34 15 35
REMARK SMILES IDX 16 36 17 37 18 39 19 40 20 41 72 42 21 43 71 44 22 45 23 46
REMARK SMILES IDX 24 47 65 48 25 49 70 50 64 51 66 52 26 53 69 54 63 55 62 56
REMARK SMILES IDX 27 58 53 59 36 60 52 61 37 62 40 63 51 64 67 65 38 66 39 67
REMARK SMILES IDX 50 69 68 70 41 71 28 72 29 73 34 74 30 75 31 76 33 77 35 78
REMARK SMILES IDX 32 79 54 80 55 81 60 82 56 83 57 84 59 85 61 86 58 87 42 88
REMARK SMILES IDX 43 89 48 90 44 91 45 92 47 93 49 94 46 95
REMARK H PARENT 12 5 6 17 6 18 16 38 66 57 40 68
REMARK Flexibility Score: inf
ROOT
ATOM      1  C   UNL A   1      32.641  27.842  27.206  1.00  0.00     0.118 C 
ENDROOT
BRANCH   1   2
ATOM      2  N   UNL A   1      31.434  27.056  27.134  1.00  0.00    -0.351 N 
ATOM      3  C   UNL A   1      30.932  26.243  26.148  1.00  0.00     0.268 C 
ATOM      4  O   UNL A   1      29.875  25.683  26.485  1.00  0.00    -0.268 OA
ATOM      5  H   UNL A   1      30.868  27.112  27.937  1.00  0.00     0.163 HD
BRANCH   3   6
ATOM      6  C   UNL A   1      31.506  26.073  24.806  1.00  0.00     0.117 A 
ATOM      7  C   UNL A   1      31.844  26.978  23.780  1.00  0.00     0.045 A 
ATOM      8  C   UNL A   1      32.043  26.198  22.593  1.00  0.00     0.009 A 
ATOM      9  N   UNL A   1      32.061  24.847  24.357  1.00  0.00    -0.331 N 
ATOM     10  C   UNL A   1      32.391  24.925  23.010  1.00  0.00     0.049 A 
ATOM     11  C   UNL A   1      32.119  26.516  21.217  1.00  0.00     0.011 A 
ATOM     12  C   UNL A   1      32.993  24.015  22.120  1.00  0.00     0.027 A 
ATOM     13  C   UNL A   1      32.569  25.559  20.305  1.00  0.00     0.001 A 
ATOM     14  C   UNL A   1      33.041  24.337  20.761  1.00  0.00     0.002 A 
BRANCH   7  15
ATOM     15  C   UNL A   1      32.046  28.464  23.708  1.00  0.00     0.300 C 
BRANCH  15  16
ATOM     16  N   UNL A   1      30.976  29.281  24.239  1.00  0.00    -0.340 N 
ATOM     17  H   UNL A   1      30.610  28.773  25.044  1.00  0.00     0.346 HD
ATOM     18  H   UNL A   1      31.451  30.175  24.370  1.00  0.00     0.346 HD
BRANCH  16  19
ATOM     19  C   UNL A   1      29.811  29.685  23.452  1.00  0.00     0.182 C 
ATOM     20  C   UNL A   1      27.741  32.691  20.939  1.00  0.00     0.007 C 
ATOM     21  C   UNL A   1      28.762  31.874  21.719  1.00  0.00    -0.014 C 
ATOM     22  C   UNL A   1      28.852  30.435  21.204  1.00  0.00     0.009 C 
ATOM     23  C   UNL A   1      28.428  31.850  23.212  1.00  0.00     0.009 C 
ATOM     24  C   UNL A   1      29.973  29.691  21.928  1.00  0.00     0.065 C 
ATOM     25  C   UNL A   1      29.504  31.102  23.986  1.00  0.00     0.065 C 
ENDBRANCH  16  19
ENDBRANCH  15  16
ENDBRANCH   7  15
BRANCH   9  26
ATOM     26  C   UNL A   1      32.432  23.687  25.188  1.00  0.00     0.161 C 
BRANCH  26  27
ATOM     27  C   UNL A   1      33.905  23.345  25.210  1.00  0.00     0.008 A 
ATOM     28  C   UNL A   1      34.884  24.248  25.659  1.00  0.00     0.008 A 
ATOM     29  C   UNL A   1      34.334  22.054  24.889  1.00  0.00     0.128 A 
ATOM     30  C   UNL A   1      36.228  23.879  25.771  1.00  0.00     0.001 A 
ATOM     31  C   UNL A   1      35.677  21.682  24.980  1.00  0.00     0.039 A 
ATOM     32  F   UNL A   1      33.447  21.116  24.531  1.00  0.00    -0.207 F 
ATOM     33  C   UNL A   1      36.628  22.595  25.424  1.00  0.00     0.003 A 
ENDBRANCH  26  27
ENDBRANCH   9  26
ENDBRANCH   3   6
ENDBRANCH   1   2
BRANCH   1  34
ATOM     34  C   UNL A   1      32.429  29.352  27.273  1.00  0.00     0.042 C 
BRANCH  34  35
ATOM     35  C   UNL A   1      33.694  30.234  27.206  1.00  0.00     0.118 C 
BRANCH  35  36
ATOM     36  N   UNL A   1      33.769  31.377  28.110  1.00  0.00    -0.352 N 
ATOM     37  C   UNL A   1      34.783  31.996  28.795  1.00  0.00     0.251 C 
ATOM     38  H   UNL A   1      32.893  31.799  28.262  1.00  0.00     0.163 HD
ATOM     39  O   UNL A   1      34.596  33.167  29.135  1.00  0.00    -0.269 OA
BRANCH  37  40
ATOM     40  C   UNL A   1      36.044  31.336  29.229  1.00  0.00     0.039 A 
ATOM     41  C   UNL A   1      37.303  31.885  29.020  1.00  0.00     0.014 A 
ATOM     42  C   UNL A   1      35.962  30.017  29.717  1.00  0.00     0.014 A 
ATOM     43  C   UNL A   1      38.453  31.129  29.223  1.00  0.00     0.010 A 
ATOM     44  C   UNL A   1      37.114  29.254  29.932  1.00  0.00     0.010 A 
ATOM     45  C   UNL A   1      38.364  29.799  29.641  1.00  0.00    -0.014 A 
BRANCH  45  46
ATOM     46  C   UNL A   1      39.619  29.048  29.724  1.00  0.00     0.031 A 
ATOM     47  C   UNL A   1      40.256  28.911  31.066  1.00  0.00     0.074 A 
ATOM     48  C   UNL A   1      40.213  28.441  28.678  1.00  0.00     0.049 A 
ATOM     49  N   UNL A   1      41.424  29.324  31.446  1.00  0.00    -0.248 NA
ATOM     50  C   UNL A   1      39.487  28.236  32.119  1.00  0.00     0.031 C 
ATOM     51  C   UNL A   1      39.673  28.192  27.341  1.00  0.00     0.029 A 
ATOM     52  N   UNL A   1      41.438  27.836  28.643  1.00  0.00    -0.354 N 
ATOM     53  C   UNL A   1      41.607  28.846  32.742  1.00  0.00     0.074 A 
ATOM     54  C   UNL A   1      40.357  28.239  33.130  1.00  0.00     0.031 C 
ATOM     55  C   UNL A   1      40.475  27.311  26.702  1.00  0.00     0.029 A 
ATOM     56  C   UNL A   1      41.639  27.038  27.532  1.00  0.00     0.049 A 
ATOM     57  H   UNL A   1      42.116  27.956  29.347  1.00  0.00     0.167 HD
ATOM     58  C   UNL A   1      42.815  28.858  33.374  1.00  0.00     0.037 A 
ATOM     59  C   UNL A   1      42.653  26.164  27.333  1.00  0.00     0.037 A 
ATOM     60  C   UNL A   1      43.760  29.739  32.746  1.00  0.00     0.049 A 
ATOM     61  C   UNL A   1      43.784  26.546  28.210  1.00  0.00     0.074 A 
ATOM     62  C   UNL A   1      43.808  31.093  32.476  1.00  0.00     0.029 A 
ATOM     63  N   UNL A   1      44.809  29.194  32.049  1.00  0.00    -0.354 N 
ATOM     64  N   UNL A   1      44.540  27.593  28.033  1.00  0.00    -0.248 NA
ATOM     65  C   UNL A   1      43.876  25.929  29.527  1.00  0.00     0.031 C 
ATOM     66  C   UNL A   1      44.556  31.207  31.268  1.00  0.00     0.029 A 
ATOM     67  C   UNL A   1      44.904  29.912  30.885  1.00  0.00     0.049 A 
ATOM     68  H   UNL A   1      45.379  28.442  32.329  1.00  0.00     0.167 HD
ATOM     69  C   UNL A   1      44.881  28.006  29.312  1.00  0.00     0.074 A 
ATOM     70  C   UNL A   1      44.553  26.879  30.176  1.00  0.00     0.031 C 
ATOM     71  C   UNL A   1      45.136  29.318  29.592  1.00  0.00     0.037 A 
BRANCH  58  72
ATOM     72  C   UNL A   1      43.234  27.882  34.440  1.00  0.00     0.057 A 
ATOM     73  C   UNL A   1      43.151  28.161  35.816  1.00  0.00     0.134 A 
ATOM     74  C   UNL A   1      43.471  26.534  34.110  1.00  0.00     0.134 A 
ATOM     75  F   UNL A   1      42.825  29.379  36.269  1.00  0.00    -0.206 F 
ATOM     76  C   UNL A   1      43.304  27.175  36.797  1.00  0.00     0.040 A 
ATOM     77  C   UNL A   1      43.578  25.531  35.081  1.00  0.00     0.040 A 
ATOM     78  F   UNL A   1      43.536  26.140  32.828  1.00  0.00    -0.206 F 
ATOM     79  C   UNL A   1      43.494  25.850  36.430  1.00  0.00     0.006 A 
ENDBRANCH  58  72
BRANCH  59  80
ATOM     80  C   UNL A   1      42.618  24.897  26.572  1.00  0.00     0.057 A 
ATOM     81  C   UNL A   1      42.010  23.741  27.096  1.00  0.00     0.134 A 
ATOM     82  C   UNL A   1      43.377  24.716  25.408  1.00  0.00     0.134 A 
ATOM     83  F   UNL A   1      41.348  23.773  28.263  1.00  0.00    -0.206 F 
ATOM     84  C   UNL A   1      42.126  22.488  26.490  1.00  0.00     0.040 A 
ATOM     85  C   UNL A   1      43.515  23.461  24.799  1.00  0.00     0.040 A 
ATOM     86  F   UNL A   1      44.047  25.741  24.864  1.00  0.00    -0.206 F 
ATOM     87  C   UNL A   1      42.888  22.343  25.340  1.00  0.00     0.006 A 
ENDBRANCH  59  80
BRANCH  71  88
ATOM     88  C   UNL A   1      45.330  30.258  28.439  1.00  0.00     0.057 A 
ATOM     89  C   UNL A   1      46.624  30.669  28.100  1.00  0.00     0.134 A 
ATOM     90  C   UNL A   1      44.267  30.874  27.764  1.00  0.00     0.134 A 
ATOM     91  F   UNL A   1      47.687  30.172  28.753  1.00  0.00    -0.206 F 
ATOM     92  C   UNL A   1      46.855  31.632  27.114  1.00  0.00     0.040 A 
ATOM     93  C   UNL A   1      44.485  31.815  26.754  1.00  0.00     0.040 A 
ATOM     94  F   UNL A   1      42.995  30.627  28.105  1.00  0.00    -0.206 F 
ATOM     95  C   UNL A   1      45.783  32.198  26.429  1.00  0.00     0.006 A 
ENDBRANCH  71  88
ENDBRANCH  45  46
ENDBRANCH  37  40
ENDBRANCH  35  36
ENDBRANCH  34  35
ENDBRANCH   1  34
TORSDOF 15
ENDMDL
MODEL 3
REMARK VINA RESULT:     -13.2      1.385      2.174
REMARK SMILES C[C@H]1CC[C@H]([NH2+]Cc2c(C(=O)NCCCNC(=O)c3ccc(-c4c5nc(c(-c6c(F)cccc6F)c6ccc([nH]6)c(-c6c(F)cccc6F)c6nc(c(-c7c(F)cccc7F)c7ccc4[nH]7)C=C6)C=C5)cc3)n(Cc3ccccc3F)c3ccccc23)CC1
REMARK SMILES IDX 13 1 12 2 10 3 11 4 9 6 8 7 87 8 73 9 82 10 86 11 83 12
REMARK SMILES IDX 85 13 84 14 7 15 6 16 5 19 1 20 2 21 3 22 89 23 4 24 88 25
REMARK SMILES IDX 74 26 75 27 76 28 80 29 77 30 79 31 81 32 78 33 14 34 15 35
REMARK SMILES IDX 16 36 17 37 18 39 19 40 20 41 72 42 21 43 71 44 22 45 23 46
REMARK SMILES IDX 24 47 65 48 25 49 70 50 64 51 66 52 26 53 69 54 63 55 62 56
REMARK SMILES IDX 27 58 53 59 36 60 52 61 37 62 40 63 51 64 67 65 38 66 39 67
REMARK SMILES IDX 50 69 68 70 41 71 28 72 29 73 34 74 30 75 31 76 33 77 35 78
REMARK SMILES IDX 32 79 54 80 55 81 60 82 56 83 57 84 59 85 61 86 58 87 42 88
REMARK SMILES IDX 43 89 48 90 44 91 45 92 47 93 49 94 46 95
REMARK H PARENT 12 5 6 17 6 18 16 38 66 57 40 68
REMARK Flexibility Score: inf
ROOT
ATOM      1  C   UNL A   1      34.014  28.894  26.448  1.00  0.00     0.118 C 
ENDROOT
BRANCH   1   2
ATOM      2  N   UNL A   1      34.014  28.691  25.021  1.00  0.00    -0.351 N 
ATOM      3  C   UNL A   1      33.453  27.712  24.238  1.00  0.00     0.268 C 
ATOM      4  O   UNL A   1      33.627  27.916  23.026  1.00  0.00    -0.268 OA
ATOM      5  H   UNL A   1      34.505  29.378  24.516  1.00  0.00     0.163 HD
BRANCH   3   6
ATOM      6  C   UNL A   1      32.772  26.508  24.734  1.00  0.00     0.117 A 
ATOM      7  C   UNL A   1      31.535  25.906  24.430  1.00  0.00     0.045 A 
ATOM      8  C   UNL A   1      31.276  24.952  25.471  1.00  0.00     0.009 A 
ATOM      9  N   UNL A   1      33.418  25.540  25.546  1.00  0.00    -0.331 N 
ATOM     10  C   UNL A   1      32.506  24.591  25.991  1.00  0.00     0.049 A 
ATOM     11  C   UNL A   1      30.120  24.254  25.888  1.00  0.00     0.011 A 
ATOM     12  C   UNL A   1      32.643  23.428  26.774  1.00  0.00     0.027 A 
ATOM     13  C   UNL A   1      30.234  23.195  26.791  1.00  0.00     0.001 A 
ATOM     14  C   UNL A   1      31.489  22.762  27.194  1.00  0.00     0.002 A 
BRANCH   7  15
ATOM     15  C   UNL A   1      30.543  26.038  23.311  1.00  0.00     0.300 C 
BRANCH  15  16
ATOM     16  N   UNL A   1      29.282  26.666  23.646  1.00  0.00    -0.340 N 
ATOM     17  H   UNL A   1      28.583  26.222  23.051  1.00  0.00     0.346 HD
ATOM     18  H   UNL A   1      29.254  26.534  24.657  1.00  0.00     0.346 HD
BRANCH  16  19
ATOM     19  C   UNL A   1      29.050  28.106  23.535  1.00  0.00     0.182 C 
ATOM     20  C   UNL A   1      28.256  31.674  21.029  1.00  0.00     0.007 C 
ATOM     21  C   UNL A   1      28.415  30.260  21.572  1.00  0.00    -0.014 C 
ATOM     22  C   UNL A   1      27.521  30.016  22.791  1.00  0.00     0.009 C 
ATOM     23  C   UNL A   1      29.868  29.972  21.952  1.00  0.00     0.009 C 
ATOM     24  C   UNL A   1      27.617  28.554  23.223  1.00  0.00     0.065 C 
ATOM     25  C   UNL A   1      30.023  28.530  22.411  1.00  0.00     0.065 C 
ENDBRANCH  16  19
ENDBRANCH  15  16
ENDBRANCH   7  15
BRANCH   9  26
ATOM     26  C   UNL A   1      34.868  25.398  25.770  1.00  0.00     0.161 C 
BRANCH  26  27
ATOM     27  C   UNL A   1      35.530  24.247  25.046  1.00  0.00     0.008 A 
ATOM     28  C   UNL A   1      35.084  23.783  23.797  1.00  0.00     0.008 A 
ATOM     29  C   UNL A   1      36.701  23.676  25.553  1.00  0.00     0.128 A 
ATOM     30  C   UNL A   1      35.771  22.789  23.094  1.00  0.00     0.001 A 
ATOM     31  C   UNL A   1      37.384  22.669  24.868  1.00  0.00     0.039 A 
ATOM     32  F   UNL A   1      37.230  24.123  26.699  1.00  0.00    -0.207 F 
ATOM     33  C   UNL A   1      36.920  22.224  23.633  1.00  0.00     0.003 A 
ENDBRANCH  26  27
ENDBRANCH   9  26
ENDBRANCH   3   6
ENDBRANCH   1   2
BRANCH   1  34
ATOM     34  C   UNL A   1      32.963  29.874  26.965  1.00  0.00     0.042 C 
BRANCH  34  35
ATOM     35  C   UNL A   1      33.410  31.341  27.146  1.00  0.00     0.118 C 
BRANCH  35  36
ATOM     36  N   UNL A   1      33.654  31.809  28.506  1.00  0.00    -0.352 N 
ATOM     37  C   UNL A   1      34.777  31.993  29.273  1.00  0.00     0.251 C 
ATOM     38  H   UNL A   1      32.825  32.048  28.980  1.00  0.00     0.163 HD
ATOM     39  O   UNL A   1      34.687  32.782  30.217  1.00  0.00    -0.269 OA
BRANCH  37  40
ATOM     40  C   UNL A   1      36.055  31.251  29.101  1.00  0.00     0.039 A 
ATOM     41  C   UNL A   1      36.127  29.865  29.019  1.00  0.00     0.014 A 
ATOM     42  C   UNL A   1      37.257  31.978  29.199  1.00  0.00     0.014 A 
ATOM     43  C   UNL A   1      37.351  29.209  29.102  1.00  0.00     0.010 A 
ATOM     44  C   UNL A   1      38.492  31.325  29.273  1.00  0.00     0.010 A 
ATOM     45  C   UNL A   1      38.534  29.932  29.268  1.00  0.00    -0.014 A 
BRANCH  45  46
ATOM     46  C   UNL A   1      39.761  29.155  29.453  1.00  0.00     0.031 A 
ATOM     47  C   UNL A   1      40.241  28.939  30.850  1.00  0.00     0.074 A 
ATOM     48  C   UNL A   1      40.462  28.589  28.451  1.00  0.00     0.049 A 
ATOM     49  N   UNL A   1      41.365  29.311  31.378  1.00  0.00    -0.248 NA
ATOM     50  C   UNL A   1      39.349  28.228  31.773  1.00  0.00     0.031 C 
ATOM     51  C   UNL A   1      40.074  28.417  27.051  1.00  0.00     0.029 A 
ATOM     52  N   UNL A   1      41.675  27.963  28.523  1.00  0.00    -0.354 N 
ATOM     53  C   UNL A   1      41.393  28.766  32.661  1.00  0.00     0.074 A 
ATOM     54  C   UNL A   1      40.099  28.165  32.875  1.00  0.00     0.031 C 
ATOM     55  C   UNL A   1      40.932  27.553  26.462  1.00  0.00     0.029 A 
ATOM     56  C   UNL A   1      41.990  27.218  27.402  1.00  0.00     0.049 A 
ATOM     57  H   UNL A   1      42.271  28.036  29.304  1.00  0.00     0.167 HD
ATOM     58  C   UNL A   1      42.522  28.725  33.425  1.00  0.00     0.037 A 
ATOM     59  C   UNL A   1      43.009  26.335  27.274  1.00  0.00     0.037 A 
ATOM     60  C   UNL A   1      43.543  29.617  32.953  1.00  0.00     0.049 A 
ATOM     61  C   UNL A   1      44.038  26.652  28.291  1.00  0.00     0.074 A 
ATOM     62  C   UNL A   1      43.640  30.982  32.759  1.00  0.00     0.029 A 
ATOM     63  N   UNL A   1      44.657  29.088  32.351  1.00  0.00    -0.354 N 
ATOM     64  N   UNL A   1      44.823  27.692  28.253  1.00  0.00    -0.248 NA
ATOM     65  C   UNL A   1      43.973  25.969  29.576  1.00  0.00     0.031 C 
ATOM     66  C   UNL A   1      44.521  31.141  31.651  1.00  0.00     0.029 A 
ATOM     67  C   UNL A   1      44.892  29.860  31.243  1.00  0.00     0.049 A 
ATOM     68  H   UNL A   1      45.181  28.312  32.654  1.00  0.00     0.167 HD
ATOM     69  C   UNL A   1      45.023  28.035  29.582  1.00  0.00     0.074 A 
ATOM     70  C   UNL A   1      44.584  26.873  30.345  1.00  0.00     0.031 C 
ATOM     71  C   UNL A   1      45.262  29.327  29.955  1.00  0.00     0.037 A 
BRANCH  58  72
ATOM     72  C   UNL A   1      42.805  27.689  34.480  1.00  0.00     0.057 A 
ATOM     73  C   UNL A   1      42.436  27.842  35.828  1.00  0.00     0.134 A 
ATOM     74  C   UNL A   1      43.208  26.393  34.107  1.00  0.00     0.134 A 
ATOM     75  F   UNL A   1      41.932  28.993  36.294  1.00  0.00    -0.206 F 
ATOM     76  C   UNL A   1      42.476  26.787  36.747  1.00  0.00     0.040 A 
ATOM     77  C   UNL A   1      43.206  25.319  35.005  1.00  0.00     0.040 A 
ATOM     78  F   UNL A   1      43.551  26.116  32.839  1.00  0.00    -0.206 F 
ATOM     79  C   UNL A   1      42.839  25.515  36.330  1.00  0.00     0.006 A 
ENDBRANCH  58  72
BRANCH  59  80
ATOM     80  C   UNL A   1      43.043  25.108  26.449  1.00  0.00     0.057 A 
ATOM     81  C   UNL A   1      42.429  23.917  26.880  1.00  0.00     0.134 A 
ATOM     82  C   UNL A   1      43.871  25.000  25.324  1.00  0.00     0.134 A 
ATOM     83  F   UNL A   1      41.701  23.877  28.006  1.00  0.00    -0.206 F 
ATOM     84  C   UNL A   1      42.606  22.699  26.220  1.00  0.00     0.040 A 
ATOM     85  C   UNL A   1      44.070  23.780  24.662  1.00  0.00     0.040 A 
ATOM     86  F   UNL A   1      44.550  26.063  24.872  1.00  0.00    -0.206 F 
ATOM     87  C   UNL A   1      43.435  22.625  25.110  1.00  0.00     0.006 A 
ENDBRANCH  59  80
BRANCH  71  88
ATOM     88  C   UNL A   1      45.597  30.318  28.881  1.00  0.00     0.057 A 
ATOM     89  C   UNL A   1      44.563  30.912  28.149  1.00  0.00     0.134 A 
ATOM     90  C   UNL A   1      46.909  30.580  28.461  1.00  0.00     0.134 A 
ATOM     91  F   UNL A   1      43.281  30.651  28.451  1.00  0.00    -0.206 F 
ATOM     92  C   UNL A   1      44.820  31.751  27.061  1.00  0.00     0.040 A 
ATOM     93  C   UNL A   1      47.181  31.443  27.396  1.00  0.00     0.040 A 
ATOM     94  F   UNL A   1      47.954  29.964  29.030  1.00  0.00    -0.206 F 
ATOM     95  C   UNL A   1      46.134  32.029  26.691  1.00  0.00     0.006 A 
ENDBRANCH  71  88
ENDBRANCH  45  46
ENDBRANCH  37  40
ENDBRANCH  35  36
ENDBRANCH  34  35
ENDBRANCH   1  34
TORSDOF 15
ENDMDL
