MODEL 1
REMARK VINA RESULT:     -12.1      0.000      0.000
REMARK SMILES O=C(Cc1ccc(F)c(F)c1)NC1(C(=O)NCCCNC(=O)c2ccc(-c3c4nc(c(-c5c(F)cccc5F)c5ccc([nH]5)c(-c5c(F)cccc5F)c5nc(c(-c6c(F)cccc6F)c6ccc3[nH]6)C=C5)C=C4)cc2)CCCC1
REMARK SMILES IDX 17 1 16 2 14 3 15 4 13 6 77 7 80 8 78 9 79 10 12 11 1 12
REMARK SMILES IDX 2 13 3 15 4 16 5 17 11 18 6 19 9 20 7 21 10 22 8 23 18 24
REMARK SMILES IDX 19 25 20 26 21 27 22 29 23 30 24 31 76 32 25 33 75 34 26 35
REMARK SMILES IDX 27 36 28 37 69 38 29 39 74 40 68 41 70 42 30 43 73 44 67 45
REMARK SMILES IDX 66 46 31 48 57 49 40 50 56 51 41 52 44 53 55 54 71 55 42 56
REMARK SMILES IDX 43 57 54 59 72 60 45 61 32 62 33 63 38 64 34 65 35 66 37 67
REMARK SMILES IDX 39 68 36 69 58 70 59 71 64 72 60 73 61 74 63 75 65 76 62 77
REMARK SMILES IDX 46 78 47 79 52 80 48 81 49 82 51 83 53 84 50 85
REMARK H PARENT 16 5 12 14 20 28 70 47 44 58
REMARK Flexibility Score: inf
ROOT
ATOM      1  C   UNL A   1      36.667  20.443  24.997  1.00  0.00     0.117 C 
ENDROOT
BRANCH   1   2
ATOM      2  N   UNL A   1      36.903  21.521  24.065  1.00  0.00    -0.354 N 
ATOM      3  C   UNL A   1      36.148  22.603  23.745  1.00  0.00     0.245 C 
ATOM      4  O   UNL A   1      36.674  23.411  22.963  1.00  0.00    -0.272 OA
ATOM      5  H   UNL A   1      37.757  21.460  23.578  1.00  0.00     0.163 HD
BRANCH   3   6
ATOM      6  C   UNL A   1      34.706  22.872  24.304  1.00  0.00     0.119 C 
ATOM      7  C   UNL A   1      34.059  24.121  23.691  1.00  0.00     0.038 C 
ATOM      8  C   UNL A   1      34.673  23.041  25.825  1.00  0.00     0.038 C 
ATOM      9  C   UNL A   1      33.803  25.118  24.814  1.00  0.00     0.003 C 
ATOM     10  C   UNL A   1      34.198  24.457  26.125  1.00  0.00     0.003 C 
BRANCH   6  11
ATOM     11  N   UNL A   1      33.983  21.657  23.873  1.00  0.00    -0.341 N 
ATOM     12  O   UNL A   1      31.972  21.998  24.922  1.00  0.00    -0.275 OA
ATOM     13  C   UNL A   1      32.680  21.342  24.166  1.00  0.00     0.225 C 
ATOM     14  H   UNL A   1      34.483  21.013  23.322  1.00  0.00     0.164 HD
BRANCH  13  15
ATOM     15  C   UNL A   1      32.153  20.147  23.389  1.00  0.00     0.135 C 
BRANCH  15  16
ATOM     16  C   UNL A   1      32.672  18.817  23.901  1.00  0.00    -0.036 A 
ATOM     17  C   UNL A   1      32.481  18.473  25.251  1.00  0.00     0.007 A 
ATOM     18  C   UNL A   1      33.305  17.890  23.056  1.00  0.00     0.046 A 
ATOM     19  C   UNL A   1      32.940  17.249  25.746  1.00  0.00     0.043 A 
ATOM     20  C   UNL A   1      33.775  16.681  23.559  1.00  0.00     0.159 A 
ATOM     21  C   UNL A   1      33.593  16.362  24.897  1.00  0.00     0.158 A 
ATOM     22  F   UNL A   1      34.403  15.829  22.739  1.00  0.00    -0.204 F 
ATOM     23  F   UNL A   1      34.039  15.195  25.379  1.00  0.00    -0.204 F 
ENDBRANCH  15  16
ENDBRANCH  13  15
ENDBRANCH   6  11
ENDBRANCH   3   6
ENDBRANCH   1   2
BRANCH   1  24
ATOM     24  C   UNL A   1      37.831  19.470  25.075  1.00  0.00     0.042 C 
BRANCH  24  25
ATOM     25  C   UNL A   1      39.078  20.086  25.684  1.00  0.00     0.118 C 
BRANCH  25  26
ATOM     26  N   UNL A   1      40.137  19.102  25.875  1.00  0.00    -0.352 N 
ATOM     27  C   UNL A   1      41.480  19.276  26.070  1.00  0.00     0.251 C 
ATOM     28  H   UNL A   1      39.838  18.164  25.861  1.00  0.00     0.163 HD
ATOM     29  O   UNL A   1      42.234  18.306  25.979  1.00  0.00    -0.269 OA
BRANCH  27  30
ATOM     30  C   UNL A   1      42.030  20.609  26.388  1.00  0.00     0.039 A 
ATOM     31  C   UNL A   1      42.259  20.948  27.724  1.00  0.00     0.014 A 
ATOM     32  C   UNL A   1      42.277  21.543  25.379  1.00  0.00     0.014 A 
ATOM     33  C   UNL A   1      42.761  22.212  28.040  1.00  0.00     0.010 A 
ATOM     34  C   UNL A   1      42.887  22.751  25.684  1.00  0.00     0.010 A 
ATOM     35  C   UNL A   1      43.096  23.116  27.019  1.00  0.00    -0.014 A 
BRANCH  35  36
ATOM     36  C   UNL A   1      43.588  24.480  27.325  1.00  0.00     0.031 A 
ATOM     37  C   UNL A   1      42.618  25.532  27.797  1.00  0.00     0.074 A 
ATOM     38  C   UNL A   1      44.884  24.787  27.131  1.00  0.00     0.049 A 
ATOM     39  N   UNL A   1      42.826  26.798  28.055  1.00  0.00    -0.248 NA
ATOM     40  C   UNL A   1      41.215  25.113  27.965  1.00  0.00     0.031 C 
ATOM     41  C   UNL A   1      45.908  23.868  26.627  1.00  0.00     0.029 A 
ATOM     42  N   UNL A   1      45.561  25.961  27.333  1.00  0.00    -0.354 N 
ATOM     43  C   UNL A   1      41.583  27.323  28.389  1.00  0.00     0.074 A 
ATOM     44  C   UNL A   1      40.616  26.262  28.230  1.00  0.00     0.031 C 
ATOM     45  C   UNL A   1      47.089  24.505  26.592  1.00  0.00     0.029 A 
ATOM     46  C   UNL A   1      46.899  25.882  27.034  1.00  0.00     0.049 A 
ATOM     47  H   UNL A   1      45.129  26.784  27.659  1.00  0.00     0.167 HD
ATOM     48  C   UNL A   1      41.279  28.569  28.824  1.00  0.00     0.037 A 
ATOM     49  C   UNL A   1      47.862  26.819  27.112  1.00  0.00     0.037 A 
ATOM     50  C   UNL A   1      42.254  29.610  29.015  1.00  0.00     0.049 A 
ATOM     51  C   UNL A   1      47.503  28.191  27.617  1.00  0.00     0.074 A 
ATOM     52  C   UNL A   1      42.066  30.892  29.497  1.00  0.00     0.029 A 
ATOM     53  N   UNL A   1      43.607  29.480  28.736  1.00  0.00    -0.354 N 
ATOM     54  N   UNL A   1      46.336  28.659  27.986  1.00  0.00    -0.248 NA
ATOM     55  C   UNL A   1      48.602  29.158  27.731  1.00  0.00     0.031 C 
ATOM     56  C   UNL A   1      43.299  31.552  29.470  1.00  0.00     0.029 A 
ATOM     57  C   UNL A   1      44.264  30.663  29.027  1.00  0.00     0.049 A 
ATOM     58  H   UNL A   1      44.035  28.666  28.383  1.00  0.00     0.167 HD
ATOM     59  C   UNL A   1      46.566  29.960  28.415  1.00  0.00     0.074 A 
ATOM     60  C   UNL A   1      47.987  30.200  28.269  1.00  0.00     0.031 C 
ATOM     61  C   UNL A   1      45.683  30.874  28.891  1.00  0.00     0.037 A 
BRANCH  48  62
ATOM     62  C   UNL A   1      39.836  28.862  29.127  1.00  0.00     0.057 A 
ATOM     63  C   UNL A   1      39.309  28.734  30.420  1.00  0.00     0.134 A 
ATOM     64  C   UNL A   1      38.965  29.285  28.116  1.00  0.00     0.134 A 
ATOM     65  F   UNL A   1      40.083  28.316  31.432  1.00  0.00    -0.206 F 
ATOM     66  C   UNL A   1      37.961  28.982  30.689  1.00  0.00     0.040 A 
ATOM     67  C   UNL A   1      37.622  29.569  28.379  1.00  0.00     0.040 A 
ATOM     68  F   UNL A   1      39.401  29.433  26.856  1.00  0.00    -0.206 F 
ATOM     69  C   UNL A   1      37.115  29.408  29.667  1.00  0.00     0.006 A 
ENDBRANCH  48  62
BRANCH  49  70
ATOM     70  C   UNL A   1      49.262  26.482  26.751  1.00  0.00     0.057 A 
ATOM     71  C   UNL A   1      49.735  26.665  25.445  1.00  0.00     0.134 A 
ATOM     72  C   UNL A   1      50.158  25.963  27.693  1.00  0.00     0.134 A 
ATOM     73  F   UNL A   1      48.921  27.146  24.494  1.00  0.00    -0.206 F 
ATOM     74  C   UNL A   1      51.036  26.317  25.082  1.00  0.00     0.040 A 
ATOM     75  C   UNL A   1      51.471  25.637  27.350  1.00  0.00     0.040 A 
ATOM     76  F   UNL A   1      49.772  25.777  28.964  1.00  0.00    -0.206 F 
ATOM     77  C   UNL A   1      51.910  25.804  26.038  1.00  0.00     0.006 A 
ENDBRANCH  49  70
BRANCH  61  78
ATOM     78  C   UNL A   1      46.242  32.190  29.347  1.00  0.00     0.057 A 
ATOM     79  C   UNL A   1      46.678  32.402  30.661  1.00  0.00     0.134 A 
ATOM     80  C   UNL A   1      46.359  33.257  28.447  1.00  0.00     0.134 A 
ATOM     81  F   UNL A   1      46.585  31.424  31.576  1.00  0.00    -0.206 F 
ATOM     82  C   UNL A   1      47.175  33.639  31.074  1.00  0.00     0.040 A 
ATOM     83  C   UNL A   1      46.884  34.489  28.838  1.00  0.00     0.040 A 
ATOM     84  F   UNL A   1      45.971  33.118  27.170  1.00  0.00    -0.206 F 
ATOM     85  C   UNL A   1      47.283  34.686  30.159  1.00  0.00     0.006 A 
ENDBRANCH  61  78
ENDBRANCH  35  36
ENDBRANCH  27  30
ENDBRANCH  25  26
ENDBRANCH  24  25
ENDBRANCH   1  24
TORSDOF 13
ENDMDL
MODEL 2
REMARK VINA RESULT:     -12.1      5.282      9.084
REMARK SMILES O=C(Cc1ccc(F)c(F)c1)NC1(C(=O)NCCCNC(=O)c2ccc(-c3c4nc(c(-c5c(F)cccc5F)c5ccc([nH]5)c(-c5c(F)cccc5F)c5nc(c(-c6c(F)cccc6F)c6ccc3[nH]6)C=C5)C=C4)cc2)CCCC1
REMARK SMILES IDX 17 1 16 2 14 3 15 4 13 6 77 7 80 8 78 9 79 10 12 11 1 12
REMARK SMILES IDX 2 13 3 15 4 16 5 17 11 18 6 19 9 20 7 21 10 22 8 23 18 24
REMARK SMILES IDX 19 25 20 26 21 27 22 29 23 30 24 31 76 32 25 33 75 34 26 35
REMARK SMILES IDX 27 36 28 37 69 38 29 39 74 40 68 41 70 42 30 43 73 44 67 45
REMARK SMILES IDX 66 46 31 48 57 49 40 50 56 51 41 52 44 53 55 54 71 55 42 56
REMARK SMILES IDX 43 57 54 59 72 60 45 61 32 62 33 63 38 64 34 65 35 66 37 67
REMARK SMILES IDX 39 68 36 69 58 70 59 71 64 72 60 73 61 74 63 75 65 76 62 77
REMARK SMILES IDX 46 78 47 79 52 80 48 81 49 82 51 83 53 84 50 85
REMARK H PARENT 16 5 12 14 20 28 70 47 44 58
REMARK Flexibility Score: inf
ROOT
ATOM      1  C   UNL A   1      31.629  28.194  26.712  1.00  0.00     0.117 C 
ENDROOT
BRANCH   1   2
ATOM      2  N   UNL A   1      31.022  26.894  26.878  1.00  0.00    -0.354 N 
ATOM      3  C   UNL A   1      30.708  25.936  25.968  1.00  0.00     0.245 C 
ATOM      4  O   UNL A   1      30.275  24.872  26.439  1.00  0.00    -0.272 OA
ATOM      5  H   UNL A   1      30.798  26.663  27.809  1.00  0.00     0.163 HD
BRANCH   3   6
ATOM      6  C   UNL A   1      30.869  26.102  24.417  1.00  0.00     0.119 C 
ATOM      7  C   UNL A   1      30.632  24.791  23.654  1.00  0.00     0.038 C 
ATOM      8  C   UNL A   1      32.250  26.624  24.009  1.00  0.00     0.038 C 
ATOM      9  C   UNL A   1      31.924  24.425  22.935  1.00  0.00     0.003 C 
ATOM     10  C   UNL A   1      32.925  25.546  23.169  1.00  0.00     0.003 C 
BRANCH   6  11
ATOM     11  N   UNL A   1      29.803  27.077  24.104  1.00  0.00    -0.341 N 
ATOM     12  O   UNL A   1      30.475  27.745  22.014  1.00  0.00    -0.275 OA
ATOM     13  C   UNL A   1      29.659  27.773  22.930  1.00  0.00     0.225 C 
ATOM     14  H   UNL A   1      29.131  27.241  24.803  1.00  0.00     0.164 HD
BRANCH  13  15
ATOM     15  C   UNL A   1      28.339  28.518  22.822  1.00  0.00     0.135 C 
BRANCH  15  16
ATOM     16  C   UNL A   1      28.493  30.027  22.863  1.00  0.00    -0.036 A 
ATOM     17  C   UNL A   1      29.207  30.621  23.917  1.00  0.00     0.007 A 
ATOM     18  C   UNL A   1      27.979  30.854  21.850  1.00  0.00     0.046 A 
ATOM     19  C   UNL A   1      29.373  32.009  23.972  1.00  0.00     0.043 A 
ATOM     20  C   UNL A   1      28.133  32.235  21.920  1.00  0.00     0.159 A 
ATOM     21  C   UNL A   1      28.826  32.809  22.975  1.00  0.00     0.158 A 
ATOM     22  F   UNL A   1      27.605  33.004  20.958  1.00  0.00    -0.204 F 
ATOM     23  F   UNL A   1      28.980  34.138  23.039  1.00  0.00    -0.204 F 
ENDBRANCH  15  16
ENDBRANCH  13  15
ENDBRANCH   6  11
ENDBRANCH   3   6
ENDBRANCH   1   2
BRANCH   1  24
ATOM     24  C   UNL A   1      33.091  28.216  27.126  1.00  0.00     0.042 C 
BRANCH  24  25
ATOM     25  C   UNL A   1      33.912  29.226  26.345  1.00  0.00     0.118 C 
BRANCH  25  26
ATOM     26  N   UNL A   1      33.816  30.565  26.913  1.00  0.00    -0.352 N 
ATOM     27  C   UNL A   1      34.557  31.164  27.895  1.00  0.00     0.251 C 
ATOM     28  H   UNL A   1      33.106  31.127  26.527  1.00  0.00     0.163 HD
ATOM     29  O   UNL A   1      34.164  32.223  28.387  1.00  0.00    -0.269 OA
BRANCH  27  30
ATOM     30  C   UNL A   1      35.816  30.556  28.368  1.00  0.00     0.039 A 
ATOM     31  C   UNL A   1      35.789  29.721  29.488  1.00  0.00     0.014 A 
ATOM     32  C   UNL A   1      37.032  30.841  27.741  1.00  0.00     0.014 A 
ATOM     33  C   UNL A   1      36.975  29.154  29.958  1.00  0.00     0.010 A 
ATOM     34  C   UNL A   1      38.188  30.183  28.134  1.00  0.00     0.010 A 
ATOM     35  C   UNL A   1      38.181  29.368  29.271  1.00  0.00    -0.014 A 
BRANCH  35  36
ATOM     36  C   UNL A   1      39.463  28.816  29.771  1.00  0.00     0.031 A 
ATOM     37  C   UNL A   1      40.102  29.415  30.997  1.00  0.00     0.074 A 
ATOM     38  C   UNL A   1      40.075  27.823  29.100  1.00  0.00     0.049 A 
ATOM     39  N   UNL A   1      41.248  29.128  31.560  1.00  0.00    -0.248 NA
ATOM     40  C   UNL A   1      39.371  30.511  31.658  1.00  0.00     0.031 C 
ATOM     41  C   UNL A   1      39.580  27.198  27.871  1.00  0.00     0.029 A 
ATOM     42  N   UNL A   1      41.249  27.165  29.358  1.00  0.00    -0.354 N 
ATOM     43  C   UNL A   1      41.381  30.020  32.617  1.00  0.00     0.074 A 
ATOM     44  C   UNL A   1      40.240  30.904  32.575  1.00  0.00     0.031 C 
ATOM     45  C   UNL A   1      40.429  26.225  27.502  1.00  0.00     0.029 A 
ATOM     46  C   UNL A   1      41.541  26.183  28.443  1.00  0.00     0.049 A 
ATOM     47  H   UNL A   1      41.829  27.378  30.125  1.00  0.00     0.167 HD
ATOM     48  C   UNL A   1      42.350  30.076  33.562  1.00  0.00     0.037 A 
ATOM     49  C   UNL A   1      42.590  25.342  28.379  1.00  0.00     0.037 A 
ATOM     50  C   UNL A   1      43.465  29.168  33.619  1.00  0.00     0.049 A 
ATOM     51  C   UNL A   1      43.644  25.410  29.451  1.00  0.00     0.074 A 
ATOM     52  C   UNL A   1      44.477  29.101  34.558  1.00  0.00     0.029 A 
ATOM     53  N   UNL A   1      43.706  28.162  32.695  1.00  0.00    -0.354 N 
ATOM     54  N   UNL A   1      43.729  26.219  30.480  1.00  0.00    -0.248 NA
ATOM     55  C   UNL A   1      44.738  24.435  29.360  1.00  0.00     0.031 C 
ATOM     56  C   UNL A   1      45.355  28.080  34.180  1.00  0.00     0.029 A 
ATOM     57  C   UNL A   1      44.858  27.474  33.037  1.00  0.00     0.049 A 
ATOM     58  H   UNL A   1      43.142  27.966  31.912  1.00  0.00     0.167 HD
ATOM     59  C   UNL A   1      44.861  25.824  31.181  1.00  0.00     0.074 A 
ATOM     60  C   UNL A   1      45.422  24.697  30.465  1.00  0.00     0.031 C 
ATOM     61  C   UNL A   1      45.389  26.344  32.318  1.00  0.00     0.037 A 
BRANCH  48  62
ATOM     62  C   UNL A   1      42.234  31.149  34.608  1.00  0.00     0.057 A 
ATOM     63  C   UNL A   1      41.510  30.957  35.793  1.00  0.00     0.134 A 
ATOM     64  C   UNL A   1      42.861  32.389  34.432  1.00  0.00     0.134 A 
ATOM     65  F   UNL A   1      40.870  29.799  36.018  1.00  0.00    -0.206 F 
ATOM     66  C   UNL A   1      41.385  31.967  36.748  1.00  0.00     0.040 A 
ATOM     67  C   UNL A   1      42.771  33.397  35.396  1.00  0.00     0.040 A 
ATOM     68  F   UNL A   1      43.573  32.644  33.325  1.00  0.00    -0.206 F 
ATOM     69  C   UNL A   1      42.023  33.190  36.553  1.00  0.00     0.006 A 
ENDBRANCH  48  62
BRANCH  49  70
ATOM     70  C   UNL A   1      42.673  24.335  27.292  1.00  0.00     0.057 A 
ATOM     71  C   UNL A   1      42.119  23.058  27.447  1.00  0.00     0.134 A 
ATOM     72  C   UNL A   1      43.313  24.615  26.080  1.00  0.00     0.134 A 
ATOM     73  F   UNL A   1      41.504  22.724  28.591  1.00  0.00    -0.206 F 
ATOM     74  C   UNL A   1      42.222  22.088  26.449  1.00  0.00     0.040 A 
ATOM     75  C   UNL A   1      43.400  23.665  25.061  1.00  0.00     0.040 A 
ATOM     76  F   UNL A   1      43.853  25.824  25.862  1.00  0.00    -0.206 F 
ATOM     77  C   UNL A   1      42.863  22.392  25.250  1.00  0.00     0.006 A 
ENDBRANCH  49  70
BRANCH  61  78
ATOM     78  C   UNL A   1      46.595  25.655  32.888  1.00  0.00     0.057 A 
ATOM     79  C   UNL A   1      47.898  25.976  32.487  1.00  0.00     0.134 A 
ATOM     80  C   UNL A   1      46.445  24.667  33.869  1.00  0.00     0.134 A 
ATOM     81  F   UNL A   1      48.110  26.908  31.544  1.00  0.00    -0.206 F 
ATOM     82  C   UNL A   1      49.007  25.311  33.012  1.00  0.00     0.040 A 
ATOM     83  C   UNL A   1      47.548  24.017  34.426  1.00  0.00     0.040 A 
ATOM     84  F   UNL A   1      45.226  24.320  34.308  1.00  0.00    -0.206 F 
ATOM     85  C   UNL A   1      48.833  24.331  33.988  1.00  0.00     0.006 A 
ENDBRANCH  61  78
ENDBRANCH  35  36
ENDBRANCH  27  30
ENDBRANCH  25  26
ENDBRANCH  24  25
ENDBRANCH   1  24
TORSDOF 13
ENDMDL
MODEL 3
REMARK VINA RESULT:     -11.9      6.270     10.442
REMARK SMILES O=C(Cc1ccc(F)c(F)c1)NC1(C(=O)NCCCNC(=O)c2ccc(-c3c4nc(c(-c5c(F)cccc5F)c5ccc([nH]5)c(-c5c(F)cccc5F)c5nc(c(-c6c(F)cccc6F)c6ccc3[nH]6)C=C5)C=C4)cc2)CCCC1
REMARK SMILES IDX 17 1 16 2 14 3 15 4 13 6 77 7 80 8 78 9 79 10 12 11 1 12
REMARK SMILES IDX 2 13 3 15 4 16 5 17 11 18 6 19 9 20 7 21 10 22 8 23 18 24
REMARK SMILES IDX 19 25 20 26 21 27 22 29 23 30 24 31 76 32 25 33 75 34 26 35
REMARK SMILES IDX 27 36 28 37 69 38 29 39 74 40 68 41 70 42 30 43 73 44 67 45
REMARK SMILES IDX 66 46 31 48 57 49 40 50 56 51 41 52 44 53 55 54 71 55 42 56
REMARK SMILES IDX 43 57 54 59 72 60 45 61 32 62 33 63 38 64 34 65 35 66 37 67
REMARK SMILES IDX 39 68 36 69 58 70 59 71 64 72 60 73 61 74 63 75 65 76 62 77
REMARK SMILES IDX 46 78 47 79 52 80 48 81 49 82 51 83 53 84 50 85
REMARK H PARENT 16 5 12 14 20 28 70 47 44 58
REMARK Flexibility Score: inf
ROOT
ATOM      1  C   UNL A   1      31.392  30.909  25.792  1.00  0.00     0.117 C 
ENDROOT
BRANCH   1   2
ATOM      2  N   UNL A   1      31.637  29.794  26.677  1.00  0.00    -0.354 N 
ATOM      3  C   UNL A   1      31.901  28.489  26.413  1.00  0.00     0.245 C 
ATOM      4  O   UNL A   1      32.163  27.784  27.401  1.00  0.00    -0.272 OA
ATOM      5  H   UNL A   1      31.609  30.019  27.636  1.00  0.00     0.163 HD
BRANCH   3   6
ATOM      6  C   UNL A   1      31.899  27.859  24.976  1.00  0.00     0.119 C 
ATOM      7  C   UNL A   1      31.991  26.327  25.001  1.00  0.00     0.038 C 
ATOM      8  C   UNL A   1      33.042  28.370  24.095  1.00  0.00     0.038 C 
ATOM      9  C   UNL A   1      33.280  25.922  24.298  1.00  0.00     0.003 C 
ATOM     10  C   UNL A   1      33.934  27.183  23.755  1.00  0.00     0.003 C 
BRANCH   6  11
ATOM     11  N   UNL A   1      30.580  28.284  24.461  1.00  0.00    -0.341 N 
ATOM     12  O   UNL A   1      30.674  27.400  22.346  1.00  0.00    -0.275 OA
ATOM     13  C   UNL A   1      30.055  27.985  23.229  1.00  0.00     0.225 C 
ATOM     14  H   UNL A   1      30.024  28.833  25.060  1.00  0.00     0.164 HD
BRANCH  13  15
ATOM     15  C   UNL A   1      28.591  28.364  23.082  1.00  0.00     0.135 C 
BRANCH  15  16
ATOM     16  C   UNL A   1      28.381  29.796  22.625  1.00  0.00    -0.036 A 
ATOM     17  C   UNL A   1      28.523  30.845  23.549  1.00  0.00     0.007 A 
ATOM     18  C   UNL A   1      28.090  30.114  21.288  1.00  0.00     0.046 A 
ATOM     19  C   UNL A   1      28.346  32.173  23.152  1.00  0.00     0.043 A 
ATOM     20  C   UNL A   1      27.897  31.437  20.903  1.00  0.00     0.159 A 
ATOM     21  C   UNL A   1      28.025  32.461  21.829  1.00  0.00     0.158 A 
ATOM     22  F   UNL A   1      27.589  31.711  19.628  1.00  0.00    -0.204 F 
ATOM     23  F   UNL A   1      27.847  33.735  21.457  1.00  0.00    -0.204 F 
ENDBRANCH  15  16
ENDBRANCH  13  15
ENDBRANCH   6  11
ENDBRANCH   3   6
ENDBRANCH   1   2
BRANCH   1  24
ATOM     24  C   UNL A   1      31.286  32.232  26.532  1.00  0.00     0.042 C 
BRANCH  24  25
ATOM     25  C   UNL A   1      32.624  32.727  27.054  1.00  0.00     0.118 C 
BRANCH  25  26
ATOM     26  N   UNL A   1      32.519  34.048  27.662  1.00  0.00    -0.352 N 
ATOM     27  C   UNL A   1      33.184  34.584  28.731  1.00  0.00     0.251 C 
ATOM     28  H   UNL A   1      31.865  34.648  27.236  1.00  0.00     0.163 HD
ATOM     29  O   UNL A   1      32.781  35.639  29.226  1.00  0.00    -0.269 OA
BRANCH  27  30
ATOM     30  C   UNL A   1      34.374  33.915  29.292  1.00  0.00     0.039 A 
ATOM     31  C   UNL A   1      35.641  34.287  28.836  1.00  0.00     0.014 A 
ATOM     32  C   UNL A   1      34.244  32.889  30.232  1.00  0.00     0.014 A 
ATOM     33  C   UNL A   1      36.774  33.649  29.345  1.00  0.00     0.010 A 
ATOM     34  C   UNL A   1      35.373  32.340  30.823  1.00  0.00     0.010 A 
ATOM     35  C   UNL A   1      36.648  32.682  30.356  1.00  0.00    -0.014 A 
BRANCH  35  36
ATOM     36  C   UNL A   1      37.827  31.957  30.883  1.00  0.00     0.031 A 
ATOM     37  C   UNL A   1      38.368  32.308  32.245  1.00  0.00     0.074 A 
ATOM     38  C   UNL A   1      38.440  31.028  30.126  1.00  0.00     0.049 A 
ATOM     39  N   UNL A   1      39.424  31.845  32.863  1.00  0.00    -0.248 NA
ATOM     40  C   UNL A   1      37.646  33.349  32.998  1.00  0.00     0.031 C 
ATOM     41  C   UNL A   1      38.041  30.640  28.771  1.00  0.00     0.029 A 
ATOM     42  N   UNL A   1      39.532  30.243  30.389  1.00  0.00    -0.354 N 
ATOM     43  C   UNL A   1      39.502  32.553  34.057  1.00  0.00     0.074 A 
ATOM     44  C   UNL A   1      38.434  33.525  34.045  1.00  0.00     0.031 C 
ATOM     45  C   UNL A   1      38.857  29.666  28.336  1.00  0.00     0.029 A 
ATOM     46  C   UNL A   1      39.854  29.389  29.362  1.00  0.00     0.049 A 
ATOM     47  H   UNL A   1      40.038  30.288  31.232  1.00  0.00     0.167 HD
ATOM     48  C   UNL A   1      40.363  32.384  35.088  1.00  0.00     0.037 A 
ATOM     49  C   UNL A   1      40.845  28.482  29.268  1.00  0.00     0.037 A 
ATOM     50  C   UNL A   1      41.401  31.388  35.108  1.00  0.00     0.049 A 
ATOM     51  C   UNL A   1      41.778  28.300  30.434  1.00  0.00     0.074 A 
ATOM     52  C   UNL A   1      42.298  31.095  36.118  1.00  0.00     0.029 A 
ATOM     53  N   UNL A   1      41.673  30.515  34.064  1.00  0.00    -0.354 N 
ATOM     54  N   UNL A   1      41.805  28.934  31.581  1.00  0.00    -0.248 NA
ATOM     55  C   UNL A   1      42.808  27.262  30.296  1.00  0.00     0.031 C 
ATOM     56  C   UNL A   1      43.142  30.073  35.670  1.00  0.00     0.029 A 
ATOM     57  C   UNL A   1      42.732  29.690  34.403  1.00  0.00     0.049 A 
ATOM     58  H   UNL A   1      41.186  30.488  33.209  1.00  0.00     0.167 HD
ATOM     59  C   UNL A   1      42.825  28.345  32.318  1.00  0.00     0.074 A 
ATOM     60  C   UNL A   1      43.383  27.296  31.489  1.00  0.00     0.031 C 
ATOM     61  C   UNL A   1      43.260  28.641  33.568  1.00  0.00     0.037 A 
BRANCH  48  62
ATOM     62  C   UNL A   1      40.207  33.293  36.275  1.00  0.00     0.057 A 
ATOM     63  C   UNL A   1      40.955  34.471  36.411  1.00  0.00     0.134 A 
ATOM     64  C   UNL A   1      39.292  32.992  37.291  1.00  0.00     0.134 A 
ATOM     65  F   UNL A   1      41.862  34.812  35.484  1.00  0.00    -0.206 F 
ATOM     66  C   UNL A   1      40.823  35.297  37.529  1.00  0.00     0.040 A 
ATOM     67  C   UNL A   1      39.127  33.828  38.398  1.00  0.00     0.040 A 
ATOM     68  F   UNL A   1      38.540  31.883  37.226  1.00  0.00    -0.206 F 
ATOM     69  C   UNL A   1      39.902  34.979  38.524  1.00  0.00     0.006 A 
ENDBRANCH  48  62
BRANCH  49  70
ATOM     70  C   UNL A   1      40.978  27.647  28.048  1.00  0.00     0.057 A 
ATOM     71  C   UNL A   1      41.740  28.080  26.955  1.00  0.00     0.134 A 
ATOM     72  C   UNL A   1      40.343  26.405  27.937  1.00  0.00     0.134 A 
ATOM     73  F   UNL A   1      42.362  29.268  26.996  1.00  0.00    -0.206 F 
ATOM     74  C   UNL A   1      41.843  27.324  25.788  1.00  0.00     0.040 A 
ATOM     75  C   UNL A   1      40.460  25.624  26.786  1.00  0.00     0.040 A 
ATOM     76  F   UNL A   1      39.609  25.926  28.953  1.00  0.00    -0.206 F 
ATOM     77  C   UNL A   1      41.203  26.089  25.702  1.00  0.00     0.006 A 
ENDBRANCH  49  70
BRANCH  61  78
ATOM     78  C   UNL A   1      44.348  27.776  34.136  1.00  0.00     0.057 A 
ATOM     79  C   UNL A   1      44.076  26.582  34.816  1.00  0.00     0.134 A 
ATOM     80  C   UNL A   1      45.692  28.141  33.982  1.00  0.00     0.134 A 
ATOM     81  F   UNL A   1      42.809  26.180  35.006  1.00  0.00    -0.206 F 
ATOM     82  C   UNL A   1      45.099  25.801  35.356  1.00  0.00     0.040 A 
ATOM     83  C   UNL A   1      46.725  27.353  34.489  1.00  0.00     0.040 A 
ATOM     84  F   UNL A   1      46.023  29.265  33.330  1.00  0.00    -0.206 F 
ATOM     85  C   UNL A   1      46.429  26.184  35.188  1.00  0.00     0.006 A 
ENDBRANCH  61  78
ENDBRANCH  35  36
ENDBRANCH  27  30
ENDBRANCH  25  26
ENDBRANCH  24  25
ENDBRANCH   1  24
TORSDOF 13
ENDMDL
