MODEL 1
REMARK VINA RESULT:     -13.3      0.000      0.000
REMARK SMILES C[NH+]1CCC([NH+]2CCC(Oc3ccc4ccccc4c3)(C(=O)NCCCNC(=O)c3ccc(-c4c5nc(c(-c6c(F)cccc6F)c6ccc([nH]6)c(-c6c(F)cccc6F)c6nc(c(-c7c(F)cccc7F)c7ccc4[nH]7)C=C6)C=C5)cc3)CC2)CC1
REMARK SMILES IDX 25 1 24 2 23 3 21 4 22 5 9 7 6 8 7 9 85 10 8 12 84 13 5 14
REMARK SMILES IDX 1 15 2 16 3 17 87 18 4 20 86 21 10 22 11 23 12 24 20 25
REMARK SMILES IDX 13 26 19 27 14 28 18 29 15 30 17 31 16 32 26 33 27 34 28 35
REMARK SMILES IDX 29 37 30 38 31 39 83 40 32 41 82 42 33 43 34 44 35 45 76 46
REMARK SMILES IDX 36 47 81 48 75 49 77 50 37 51 80 52 74 53 73 54 38 56 64 57
REMARK SMILES IDX 47 58 63 59 48 60 51 61 62 62 78 63 49 64 50 65 61 67 79 68
REMARK SMILES IDX 52 69 39 70 40 71 45 72 41 73 42 74 44 75 46 76 43 77 65 78
REMARK SMILES IDX 66 79 71 80 67 81 68 82 70 83 72 84 69 85 53 86 54 87 59 88
REMARK SMILES IDX 55 89 56 90 58 91 60 92 57 93
REMARK H PARENT 23 6 6 11 2 19 27 36 77 55 51 66
REMARK Flexibility Score: inf
ROOT
ATOM      1  C   UNL A   1      34.543  30.852  27.492  1.00  0.00     0.042 C 
ENDROOT
BRANCH   1   2
ATOM      2  C   UNL A   1      34.511  29.328  27.420  1.00  0.00     0.118 C 
BRANCH   2   3
ATOM      3  N   UNL A   1      33.210  28.785  27.771  1.00  0.00    -0.353 N 
ATOM      4  C   UNL A   1      32.435  27.844  27.153  1.00  0.00     0.264 C 
ATOM      5  O   UNL A   1      31.419  27.502  27.771  1.00  0.00    -0.270 OA
ATOM      6  H   UNL A   1      32.820  29.159  28.594  1.00  0.00     0.163 HD
BRANCH   4   7
ATOM      7  C   UNL A   1      32.801  27.259  25.755  1.00  0.00     0.197 C 
ATOM      8  N   UNL A   1      30.999  28.638  23.872  1.00  0.00    -0.332 N 
ATOM      9  C   UNL A   1      32.093  29.351  24.537  1.00  0.00     0.267 C 
ATOM     10  C   UNL A   1      30.473  27.552  24.718  1.00  0.00     0.267 C 
ATOM     11  H   UNL A   1      31.405  28.213  23.039  1.00  0.00     0.348 HD
ATOM     12  C   UNL A   1      33.234  28.378  24.801  1.00  0.00     0.120 C 
ATOM     13  C   UNL A   1      31.568  26.557  25.145  1.00  0.00     0.120 C 
BRANCH   8  14
ATOM     14  C   UNL A   1      29.926  29.526  23.357  1.00  0.00     0.195 C 
ATOM     15  C   UNL A   1      27.992  32.819  21.349  1.00  0.00     0.332 C 
ATOM     16  N   UNL A   1      28.965  31.907  21.946  1.00  0.00    -0.337 N 
ATOM     17  C   UNL A   1      28.928  30.599  21.281  1.00  0.00     0.268 C 
ATOM     18  C   UNL A   1      28.729  31.761  23.386  1.00  0.00     0.268 C 
ATOM     19  H   UNL A   1      29.895  32.306  21.815  1.00  0.00     0.347 HD
ATOM     20  C   UNL A   1      30.029  29.690  21.827  1.00  0.00     0.126 C 
ATOM     21  C   UNL A   1      29.825  30.908  24.030  1.00  0.00     0.126 C 
ENDBRANCH   8  14
BRANCH   7  22
ATOM     22  O   UNL A   1      33.839  26.317  26.120  1.00  0.00    -0.477 OA
BRANCH  22  23
ATOM     23  C   UNL A   1      33.874  25.088  25.534  1.00  0.00     0.121 A 
ATOM     24  C   UNL A   1      34.425  24.875  24.275  1.00  0.00     0.047 A 
ATOM     25  C   UNL A   1      33.503  23.999  26.321  1.00  0.00     0.055 A 
ATOM     26  C   UNL A   1      34.501  23.583  23.754  1.00  0.00     0.012 A 
ATOM     27  C   UNL A   1      33.608  22.688  25.828  1.00  0.00    -0.015 A 
ATOM     28  C   UNL A   1      34.093  22.480  24.516  1.00  0.00    -0.018 A 
ATOM     29  C   UNL A   1      33.254  21.577  26.610  1.00  0.00     0.009 A 
ATOM     30  C   UNL A   1      34.181  21.174  24.011  1.00  0.00     0.009 A 
ATOM     31  C   UNL A   1      33.362  20.282  26.099  1.00  0.00     0.001 A 
ATOM     32  C   UNL A   1      33.816  20.082  24.799  1.00  0.00     0.001 A 
ENDBRANCH  22  23
ENDBRANCH   7  22
ENDBRANCH   4   7
ENDBRANCH   2   3
ENDBRANCH   1   2
BRANCH   1  33
ATOM     33  C   UNL A   1      35.630  31.421  28.396  1.00  0.00     0.118 C 
BRANCH  33  34
ATOM     34  N   UNL A   1      35.516  30.959  29.771  1.00  0.00    -0.352 N 
ATOM     35  C   UNL A   1      36.369  30.197  30.529  1.00  0.00     0.251 C 
ATOM     36  H   UNL A   1      34.693  31.240  30.233  1.00  0.00     0.163 HD
ATOM     37  O   UNL A   1      35.987  29.773  31.618  1.00  0.00    -0.269 OA
BRANCH  35  38
ATOM     38  C   UNL A   1      37.729  29.860  30.052  1.00  0.00     0.039 A 
ATOM     39  C   UNL A   1      38.713  29.564  31.002  1.00  0.00     0.014 A 
ATOM     40  C   UNL A   1      38.061  29.885  28.695  1.00  0.00     0.014 A 
ATOM     41  C   UNL A   1      40.007  29.237  30.589  1.00  0.00     0.010 A 
ATOM     42  C   UNL A   1      39.331  29.490  28.280  1.00  0.00     0.010 A 
ATOM     43  C   UNL A   1      40.319  29.167  29.221  1.00  0.00    -0.014 A 
BRANCH  43  44
ATOM     44  C   UNL A   1      41.672  28.757  28.766  1.00  0.00     0.031 A 
ATOM     45  C   UNL A   1      41.936  27.341  28.336  1.00  0.00     0.074 A 
ATOM     46  C   UNL A   1      42.681  29.650  28.798  1.00  0.00     0.049 A 
ATOM     47  N   UNL A   1      43.063  26.786  27.966  1.00  0.00    -0.248 NA
ATOM     48  C   UNL A   1      40.789  26.420  28.348  1.00  0.00     0.031 C 
ATOM     49  C   UNL A   1      42.569  31.039  29.242  1.00  0.00     0.029 A 
ATOM     50  N   UNL A   1      44.005  29.514  28.459  1.00  0.00    -0.354 N 
ATOM     51  C   UNL A   1      42.765  25.453  27.720  1.00  0.00     0.074 A 
ATOM     52  C   UNL A   1      41.361  25.271  28.023  1.00  0.00     0.031 C 
ATOM     53  C   UNL A   1      43.769  31.633  29.132  1.00  0.00     0.029 A 
ATOM     54  C   UNL A   1      44.738  30.660  28.641  1.00  0.00     0.049 A 
ATOM     55  H   UNL A   1      44.391  28.675  28.119  1.00  0.00     0.167 HD
ATOM     56  C   UNL A   1      43.581  24.471  27.265  1.00  0.00     0.037 A 
ATOM     57  C   UNL A   1      46.047  30.900  28.437  1.00  0.00     0.037 A 
ATOM     58  C   UNL A   1      44.969  24.658  26.931  1.00  0.00     0.049 A 
ATOM     59  C   UNL A   1      46.928  29.802  27.913  1.00  0.00     0.074 A 
ATOM     60  C   UNL A   1      45.858  23.742  26.394  1.00  0.00     0.029 A 
ATOM     61  N   UNL A   1      45.669  25.842  27.102  1.00  0.00    -0.354 N 
ATOM     62  N   UNL A   1      46.615  28.563  27.621  1.00  0.00    -0.248 NA
ATOM     63  C   UNL A   1      48.340  30.136  27.684  1.00  0.00     0.031 C 
ATOM     64  C   UNL A   1      47.106  24.363  26.272  1.00  0.00     0.029 A 
ATOM     65  C   UNL A   1      46.983  25.676  26.698  1.00  0.00     0.049 A 
ATOM     66  H   UNL A   1      45.288  26.678  27.458  1.00  0.00     0.167 HD
ATOM     67  C   UNL A   1      47.785  27.977  27.155  1.00  0.00     0.074 A 
ATOM     68  C   UNL A   1      48.809  29.001  27.189  1.00  0.00     0.031 C 
ATOM     69  C   UNL A   1      47.992  26.704  26.738  1.00  0.00     0.037 A 
BRANCH  56  70
ATOM     70  C   UNL A   1      42.989  23.103  27.098  1.00  0.00     0.057 A 
ATOM     71  C   UNL A   1      42.725  22.274  28.197  1.00  0.00     0.134 A 
ATOM     72  C   UNL A   1      42.650  22.620  25.828  1.00  0.00     0.134 A 
ATOM     73  F   UNL A   1      43.037  22.673  29.439  1.00  0.00    -0.206 F 
ATOM     74  C   UNL A   1      42.167  21.004  28.035  1.00  0.00     0.040 A 
ATOM     75  C   UNL A   1      42.070  21.362  25.657  1.00  0.00     0.040 A 
ATOM     76  F   UNL A   1      42.871  23.365  24.734  1.00  0.00    -0.206 F 
ATOM     77  C   UNL A   1      41.833  20.549  26.762  1.00  0.00     0.006 A 
ENDBRANCH  56  70
BRANCH  57  78
ATOM     78  C   UNL A   1      46.600  32.249  28.707  1.00  0.00     0.057 A 
ATOM     79  C   UNL A   1      46.617  33.233  27.712  1.00  0.00     0.134 A 
ATOM     80  C   UNL A   1      47.123  32.587  29.961  1.00  0.00     0.134 A 
ATOM     81  F   UNL A   1      46.146  32.961  26.487  1.00  0.00    -0.206 F 
ATOM     82  C   UNL A   1      47.147  34.502  27.949  1.00  0.00     0.040 A 
ATOM     83  C   UNL A   1      47.637  33.859  30.219  1.00  0.00     0.040 A 
ATOM     84  F   UNL A   1      47.129  31.689  30.957  1.00  0.00    -0.206 F 
ATOM     85  C   UNL A   1      47.654  34.820  29.208  1.00  0.00     0.006 A 
ENDBRANCH  57  78
BRANCH  69  86
ATOM     86  C   UNL A   1      49.370  26.357  26.263  1.00  0.00     0.057 A 
ATOM     87  C   UNL A   1      49.812  26.694  24.977  1.00  0.00     0.134 A 
ATOM     88  C   UNL A   1      50.274  25.703  27.109  1.00  0.00     0.134 A 
ATOM     89  F   UNL A   1      48.988  27.308  24.114  1.00  0.00    -0.206 F 
ATOM     90  C   UNL A   1      51.099  26.374  24.542  1.00  0.00     0.040 A 
ATOM     91  C   UNL A   1      51.570  25.397  26.693  1.00  0.00     0.040 A 
ATOM     92  F   UNL A   1      49.914  25.358  28.354  1.00  0.00    -0.206 F 
ATOM     93  C   UNL A   1      51.984  25.729  25.405  1.00  0.00     0.006 A 
ENDBRANCH  69  86
ENDBRANCH  43  44
ENDBRANCH  35  38
ENDBRANCH  33  34
ENDBRANCH   1  33
TORSDOF 13
ENDMDL
MODEL 2
REMARK VINA RESULT:     -13.2      3.341      8.645
REMARK SMILES C[NH+]1CCC([NH+]2CCC(Oc3ccc4ccccc4c3)(C(=O)NCCCNC(=O)c3ccc(-c4c5nc(c(-c6c(F)cccc6F)c6ccc([nH]6)c(-c6c(F)cccc6F)c6nc(c(-c7c(F)cccc7F)c7ccc4[nH]7)C=C6)C=C5)cc3)CC2)CC1
REMARK SMILES IDX 25 1 24 2 23 3 21 4 22 5 9 7 6 8 7 9 85 10 8 12 84 13 5 14
REMARK SMILES IDX 1 15 2 16 3 17 87 18 4 20 86 21 10 22 11 23 12 24 20 25
REMARK SMILES IDX 13 26 19 27 14 28 18 29 15 30 17 31 16 32 26 33 27 34 28 35
REMARK SMILES IDX 29 37 30 38 31 39 83 40 32 41 82 42 33 43 34 44 35 45 76 46
REMARK SMILES IDX 36 47 81 48 75 49 77 50 37 51 80 52 74 53 73 54 38 56 64 57
REMARK SMILES IDX 47 58 63 59 48 60 51 61 62 62 78 63 49 64 50 65 61 67 79 68
REMARK SMILES IDX 52 69 39 70 40 71 45 72 41 73 42 74 44 75 46 76 43 77 65 78
REMARK SMILES IDX 66 79 71 80 67 81 68 82 70 83 72 84 69 85 53 86 54 87 59 88
REMARK SMILES IDX 55 89 56 90 58 91 60 92 57 93
REMARK H PARENT 23 6 6 11 2 19 27 36 77 55 51 66
REMARK Flexibility Score: inf
ROOT
ATOM      1  C   UNL A   1      39.022  21.670  26.199  1.00  0.00     0.042 C 
ENDROOT
BRANCH   1   2
ATOM      2  C   UNL A   1      38.035  22.780  25.851  1.00  0.00     0.118 C 
BRANCH   2   3
ATOM      3  N   UNL A   1      37.603  22.720  24.465  1.00  0.00    -0.353 N 
ATOM      4  C   UNL A   1      36.381  22.952  23.896  1.00  0.00     0.264 C 
ATOM      5  O   UNL A   1      36.359  22.939  22.660  1.00  0.00    -0.270 OA
ATOM      6  H   UNL A   1      38.310  22.471  23.827  1.00  0.00     0.163 HD
BRANCH   4   7
ATOM      7  C   UNL A   1      35.102  23.194  24.754  1.00  0.00     0.197 C 
ATOM      8  N   UNL A   1      33.774  20.564  24.876  1.00  0.00    -0.332 N 
ATOM      9  C   UNL A   1      35.035  20.812  25.582  1.00  0.00     0.267 C 
ATOM     10  C   UNL A   1      33.680  21.369  23.645  1.00  0.00     0.267 C 
ATOM     11  H   UNL A   1      33.034  20.871  25.506  1.00  0.00     0.348 HD
ATOM     12  C   UNL A   1      35.099  22.279  25.984  1.00  0.00     0.120 C 
ATOM     13  C   UNL A   1      33.845  22.876  23.915  1.00  0.00     0.120 C 
BRANCH   8  14
ATOM     14  C   UNL A   1      33.492  19.125  24.636  1.00  0.00     0.195 C 
ATOM     15  C   UNL A   1      33.262  14.866  25.286  1.00  0.00     0.332 C 
ATOM     16  N   UNL A   1      33.543  16.296  25.394  1.00  0.00    -0.337 N 
ATOM     17  C   UNL A   1      32.297  17.062  25.516  1.00  0.00     0.268 C 
ATOM     18  C   UNL A   1      34.327  16.763  24.246  1.00  0.00     0.268 C 
ATOM     19  H   UNL A   1      34.095  16.447  26.238  1.00  0.00     0.347 HD
ATOM     20  C   UNL A   1      32.600  18.542  25.751  1.00  0.00     0.126 C 
ATOM     21  C   UNL A   1      34.727  18.230  24.426  1.00  0.00     0.126 C 
ENDBRANCH   8  14
BRANCH   7  22
ATOM     22  O   UNL A   1      35.227  24.610  25.033  1.00  0.00    -0.477 OA
BRANCH  22  23
ATOM     23  C   UNL A   1      34.120  25.402  25.024  1.00  0.00     0.121 A 
ATOM     24  C   UNL A   1      33.286  25.534  26.129  1.00  0.00     0.047 A 
ATOM     25  C   UNL A   1      33.943  26.233  23.918  1.00  0.00     0.055 A 
ATOM     26  C   UNL A   1      32.206  26.417  26.089  1.00  0.00     0.012 A 
ATOM     27  C   UNL A   1      32.884  27.155  23.876  1.00  0.00    -0.015 A 
ATOM     28  C   UNL A   1      31.990  27.231  24.968  1.00  0.00    -0.018 A 
ATOM     29  C   UNL A   1      32.699  28.012  22.780  1.00  0.00     0.009 A 
ATOM     30  C   UNL A   1      30.918  28.135  24.922  1.00  0.00     0.009 A 
ATOM     31  C   UNL A   1      31.636  28.918  22.755  1.00  0.00     0.001 A 
ATOM     32  C   UNL A   1      30.743  28.973  23.820  1.00  0.00     0.001 A 
ENDBRANCH  22  23
ENDBRANCH   7  22
ENDBRANCH   4   7
ENDBRANCH   2   3
ENDBRANCH   1   2
BRANCH   1  33
ATOM     33  C   UNL A   1      38.792  20.360  25.455  1.00  0.00     0.118 C 
BRANCH  33  34
ATOM     34  N   UNL A   1      39.870  19.405  25.651  1.00  0.00    -0.352 N 
ATOM     35  C   UNL A   1      41.156  19.589  26.091  1.00  0.00     0.251 C 
ATOM     36  H   UNL A   1      39.639  18.473  25.432  1.00  0.00     0.163 HD
ATOM     37  O   UNL A   1      41.958  18.660  26.008  1.00  0.00    -0.269 OA
BRANCH  35  38
ATOM     38  C   UNL A   1      41.601  20.888  26.642  1.00  0.00     0.039 A 
ATOM     39  C   UNL A   1      42.091  21.855  25.758  1.00  0.00     0.014 A 
ATOM     40  C   UNL A   1      41.593  21.147  28.015  1.00  0.00     0.014 A 
ATOM     41  C   UNL A   1      42.516  23.095  26.242  1.00  0.00     0.010 A 
ATOM     42  C   UNL A   1      41.950  22.407  28.491  1.00  0.00     0.010 A 
ATOM     43  C   UNL A   1      42.419  23.393  27.611  1.00  0.00    -0.014 A 
BRANCH  43  44
ATOM     44  C   UNL A   1      42.806  24.730  28.131  1.00  0.00     0.031 A 
ATOM     45  C   UNL A   1      41.764  25.788  28.362  1.00  0.00     0.074 A 
ATOM     46  C   UNL A   1      44.107  25.010  28.338  1.00  0.00     0.049 A 
ATOM     47  N   UNL A   1      41.918  27.028  28.754  1.00  0.00    -0.248 NA
ATOM     48  C   UNL A   1      40.367  25.414  28.093  1.00  0.00     0.031 C 
ATOM     49  C   UNL A   1      45.220  24.089  28.105  1.00  0.00     0.029 A 
ATOM     50  N   UNL A   1      44.713  26.158  28.784  1.00  0.00    -0.354 N 
ATOM     51  C   UNL A   1      40.646  27.584  28.760  1.00  0.00     0.074 A 
ATOM     52  C   UNL A   1      39.735  26.560  28.293  1.00  0.00     0.031 C 
ATOM     53  C   UNL A   1      46.371  24.701  28.424  1.00  0.00     0.029 A 
ATOM     54  C   UNL A   1      46.081  26.065  28.855  1.00  0.00     0.049 A 
ATOM     55  H   UNL A   1      44.215  26.971  29.027  1.00  0.00     0.167 HD
ATOM     56  C   UNL A   1      40.266  28.829  29.139  1.00  0.00     0.037 A 
ATOM     57  C   UNL A   1      47.001  26.977  29.224  1.00  0.00     0.037 A 
ATOM     58  C   UNL A   1      41.166  29.837  29.635  1.00  0.00     0.049 A 
ATOM     59  C   UNL A   1      46.553  28.343  29.659  1.00  0.00     0.074 A 
ATOM     60  C   UNL A   1      40.865  31.102  30.111  1.00  0.00     0.029 A 
ATOM     61  N   UNL A   1      42.542  29.694  29.720  1.00  0.00    -0.354 N 
ATOM     62  N   UNL A   1      45.339  28.832  29.723  1.00  0.00    -0.248 NA
ATOM     63  C   UNL A   1      47.603  29.282  30.077  1.00  0.00     0.031 C 
ATOM     64  C   UNL A   1      42.065  31.738  30.453  1.00  0.00     0.029 A 
ATOM     65  C   UNL A   1      43.107  30.854  30.223  1.00  0.00     0.049 A 
ATOM     66  H   UNL A   1      43.043  28.887  29.460  1.00  0.00     0.167 HD
ATOM     67  C   UNL A   1      45.477  30.126  30.208  1.00  0.00     0.074 A 
ATOM     68  C   UNL A   1      46.891  30.340  30.436  1.00  0.00     0.031 C 
ATOM     69  C   UNL A   1      44.517  31.053  30.444  1.00  0.00     0.037 A 
BRANCH  56  70
ATOM     70  C   UNL A   1      38.808  29.168  29.033  1.00  0.00     0.057 A 
ATOM     71  C   UNL A   1      37.958  29.119  30.145  1.00  0.00     0.134 A 
ATOM     72  C   UNL A   1      38.256  29.578  27.813  1.00  0.00     0.134 A 
ATOM     73  F   UNL A   1      38.423  28.723  31.340  1.00  0.00    -0.206 F 
ATOM     74  C   UNL A   1      36.603  29.442  30.042  1.00  0.00     0.040 A 
ATOM     75  C   UNL A   1      36.909  29.927  27.704  1.00  0.00     0.040 A 
ATOM     76  F   UNL A   1      39.017  29.652  26.711  1.00  0.00    -0.206 F 
ATOM     77  C   UNL A   1      36.078  29.854  28.819  1.00  0.00     0.006 A 
ENDBRANCH  56  70
BRANCH  57  78
ATOM     78  C   UNL A   1      48.439  26.616  29.222  1.00  0.00     0.057 A 
ATOM     79  C   UNL A   1      49.019  25.963  30.314  1.00  0.00     0.134 A 
ATOM     80  C   UNL A   1      49.265  26.915  28.132  1.00  0.00     0.134 A 
ATOM     81  F   UNL A   1      48.281  25.669  31.394  1.00  0.00    -0.206 F 
ATOM     82  C   UNL A   1      50.374  25.630  30.331  1.00  0.00     0.040 A 
ATOM     83  C   UNL A   1      50.617  26.568  28.125  1.00  0.00     0.040 A 
ATOM     84  F   UNL A   1      48.766  27.534  27.052  1.00  0.00    -0.206 F 
ATOM     85  C   UNL A   1      51.177  25.929  29.230  1.00  0.00     0.006 A 
ENDBRANCH  57  78
BRANCH  69  86
ATOM     86  C   UNL A   1      44.963  32.373  30.996  1.00  0.00     0.057 A 
ATOM     87  C   UNL A   1      45.079  32.593  32.374  1.00  0.00     0.134 A 
ATOM     88  C   UNL A   1      45.307  33.426  30.140  1.00  0.00     0.134 A 
ATOM     89  F   UNL A   1      44.750  31.628  33.247  1.00  0.00    -0.206 F 
ATOM     90  C   UNL A   1      45.502  33.821  32.883  1.00  0.00     0.040 A 
ATOM     91  C   UNL A   1      45.752  34.652  30.635  1.00  0.00     0.040 A 
ATOM     92  F   UNL A   1      45.224  33.277  28.810  1.00  0.00    -0.206 F 
ATOM     93  C   UNL A   1      45.845  34.854  32.011  1.00  0.00     0.006 A 
ENDBRANCH  69  86
ENDBRANCH  43  44
ENDBRANCH  35  38
ENDBRANCH  33  34
ENDBRANCH   1  33
TORSDOF 13
ENDMDL
MODEL 3
REMARK VINA RESULT:     -13.2      0.319      5.878
REMARK SMILES C[NH+]1CCC([NH+]2CCC(Oc3ccc4ccccc4c3)(C(=O)NCCCNC(=O)c3ccc(-c4c5nc(c(-c6c(F)cccc6F)c6ccc([nH]6)c(-c6c(F)cccc6F)c6nc(c(-c7c(F)cccc7F)c7ccc4[nH]7)C=C6)C=C5)cc3)CC2)CC1
REMARK SMILES IDX 25 1 24 2 23 3 21 4 22 5 9 7 6 8 7 9 85 10 8 12 84 13 5 14
REMARK SMILES IDX 1 15 2 16 3 17 87 18 4 20 86 21 10 22 11 23 12 24 20 25
REMARK SMILES IDX 13 26 19 27 14 28 18 29 15 30 17 31 16 32 26 33 27 34 28 35
REMARK SMILES IDX 29 37 30 38 31 39 83 40 32 41 82 42 33 43 34 44 35 45 76 46
REMARK SMILES IDX 36 47 81 48 75 49 77 50 37 51 80 52 74 53 73 54 38 56 64 57
REMARK SMILES IDX 47 58 63 59 48 60 51 61 62 62 78 63 49 64 50 65 61 67 79 68
REMARK SMILES IDX 52 69 39 70 40 71 45 72 41 73 42 74 44 75 46 76 43 77 65 78
REMARK SMILES IDX 66 79 71 80 67 81 68 82 70 83 72 84 69 85 53 86 54 87 59 88
REMARK SMILES IDX 55 89 56 90 58 91 60 92 57 93
REMARK H PARENT 23 6 6 11 2 19 27 36 77 55 51 66
REMARK Flexibility Score: inf
ROOT
ATOM      1  C   UNL A   1      34.538  30.967  27.574  1.00  0.00     0.042 C 
ENDROOT
BRANCH   1   2
ATOM      2  C   UNL A   1      34.472  29.443  27.522  1.00  0.00     0.118 C 
BRANCH   2   3
ATOM      3  N   UNL A   1      33.145  28.937  27.831  1.00  0.00    -0.353 N 
ATOM      4  C   UNL A   1      32.362  28.022  27.183  1.00  0.00     0.264 C 
ATOM      5  O   UNL A   1      31.319  27.706  27.768  1.00  0.00    -0.270 OA
ATOM      6  H   UNL A   1      32.742  29.316  28.644  1.00  0.00     0.163 HD
BRANCH   4   7
ATOM      7  C   UNL A   1      32.752  27.436  25.793  1.00  0.00     0.197 C 
ATOM      8  N   UNL A   1      30.940  28.767  23.884  1.00  0.00    -0.332 N 
ATOM      9  C   UNL A   1      32.014  29.506  24.555  1.00  0.00     0.267 C 
ATOM     10  C   UNL A   1      30.428  27.676  24.733  1.00  0.00     0.267 C 
ATOM     11  H   UNL A   1      31.363  28.345  23.058  1.00  0.00     0.348 HD
ATOM     12  C   UNL A   1      33.172  28.557  24.835  1.00  0.00     0.120 C 
ATOM     13  C   UNL A   1      31.539  26.705  25.176  1.00  0.00     0.120 C 
BRANCH   8  14
ATOM     14  C   UNL A   1      29.854  29.631  23.354  1.00  0.00     0.195 C 
ATOM     15  C   UNL A   1      27.870  32.813  21.221  1.00  0.00     0.332 C 
ATOM     16  N   UNL A   1      28.858  31.931  21.839  1.00  0.00    -0.337 N 
ATOM     17  C   UNL A   1      28.792  30.586  21.253  1.00  0.00     0.268 C 
ATOM     18  C   UNL A   1      28.670  31.871  23.292  1.00  0.00     0.268 C 
ATOM     19  H   UNL A   1      29.785  32.315  21.653  1.00  0.00     0.347 HD
ATOM     20  C   UNL A   1      29.907  29.703  21.814  1.00  0.00     0.126 C 
ATOM     21  C   UNL A   1      29.783  31.050  23.947  1.00  0.00     0.126 C 
ENDBRANCH   8  14
BRANCH   7  22
ATOM     22  O   UNL A   1      33.805  26.517  26.172  1.00  0.00    -0.477 OA
BRANCH  22  23
ATOM     23  C   UNL A   1      33.859  25.278  25.609  1.00  0.00     0.121 A 
ATOM     24  C   UNL A   1      34.420  25.049  24.358  1.00  0.00     0.047 A 
ATOM     25  C   UNL A   1      33.494  24.199  26.413  1.00  0.00     0.055 A 
ATOM     26  C   UNL A   1      34.515  23.749  23.861  1.00  0.00     0.012 A 
ATOM     27  C   UNL A   1      33.618  22.881  25.944  1.00  0.00    -0.015 A 
ATOM     28  C   UNL A   1      34.115  22.655  24.640  1.00  0.00    -0.018 A 
ATOM     29  C   UNL A   1      33.271  21.780  26.744  1.00  0.00     0.009 A 
ATOM     30  C   UNL A   1      34.221  21.341  24.159  1.00  0.00     0.009 A 
ATOM     31  C   UNL A   1      33.398  20.477  26.256  1.00  0.00     0.001 A 
ATOM     32  C   UNL A   1      33.864  20.259  24.964  1.00  0.00     0.001 A 
ENDBRANCH  22  23
ENDBRANCH   7  22
ENDBRANCH   4   7
ENDBRANCH   2   3
ENDBRANCH   1   2
BRANCH   1  33
ATOM     33  C   UNL A   1      35.645  31.523  28.462  1.00  0.00     0.118 C 
BRANCH  33  34
ATOM     34  N   UNL A   1      35.524  31.093  29.847  1.00  0.00    -0.352 N 
ATOM     35  C   UNL A   1      36.369  30.343  30.625  1.00  0.00     0.251 C 
ATOM     36  H   UNL A   1      34.702  31.391  30.299  1.00  0.00     0.163 HD
ATOM     37  O   UNL A   1      35.981  29.947  31.723  1.00  0.00    -0.269 OA
BRANCH  35  38
ATOM     38  C   UNL A   1      37.728  29.985  30.160  1.00  0.00     0.039 A 
ATOM     39  C   UNL A   1      38.694  29.655  31.116  1.00  0.00     0.014 A 
ATOM     40  C   UNL A   1      38.077  30.023  28.808  1.00  0.00     0.014 A 
ATOM     41  C   UNL A   1      39.986  29.307  30.714  1.00  0.00     0.010 A 
ATOM     42  C   UNL A   1      39.345  29.608  28.401  1.00  0.00     0.010 A 
ATOM     43  C   UNL A   1      40.314  29.251  29.350  1.00  0.00    -0.014 A 
BRANCH  43  44
ATOM     44  C   UNL A   1      41.664  28.820  28.905  1.00  0.00     0.031 A 
ATOM     45  C   UNL A   1      42.794  29.809  28.830  1.00  0.00     0.074 A 
ATOM     46  C   UNL A   1      41.857  27.546  28.509  1.00  0.00     0.049 A 
ATOM     47  N   UNL A   1      44.021  29.630  28.410  1.00  0.00    -0.248 NA
ATOM     48  C   UNL A   1      42.500  31.184  29.259  1.00  0.00     0.031 C 
ATOM     49  C   UNL A   1      40.832  26.502  28.485  1.00  0.00     0.029 A 
ATOM     50  N   UNL A   1      42.983  26.918  28.040  1.00  0.00    -0.354 N 
ATOM     51  C   UNL A   1      44.637  30.871  28.506  1.00  0.00     0.074 A 
ATOM     52  C   UNL A   1      43.638  31.803  28.984  1.00  0.00     0.031 C 
ATOM     53  C   UNL A   1      41.380  25.359  28.042  1.00  0.00     0.029 A 
ATOM     54  C   UNL A   1      42.783  25.597  27.723  1.00  0.00     0.049 A 
ATOM     55  H   UNL A   1      43.851  27.371  27.941  1.00  0.00     0.167 HD
ATOM     56  C   UNL A   1      45.924  31.202  28.238  1.00  0.00     0.037 A 
ATOM     57  C   UNL A   1      43.635  24.680  27.226  1.00  0.00     0.037 A 
ATOM     58  C   UNL A   1      46.927  30.269  27.795  1.00  0.00     0.049 A 
ATOM     59  C   UNL A   1      45.062  25.066  26.957  1.00  0.00     0.074 A 
ATOM     60  C   UNL A   1      48.274  30.495  27.567  1.00  0.00     0.029 A 
ATOM     61  N   UNL A   1      46.692  28.933  27.511  1.00  0.00    -0.354 N 
ATOM     62  N   UNL A   1      45.646  26.227  27.117  1.00  0.00    -0.248 NA
ATOM     63  C   UNL A   1      45.947  24.011  26.443  1.00  0.00     0.031 C 
ATOM     64  C   UNL A   1      48.848  29.301  27.113  1.00  0.00     0.029 A 
ATOM     65  C   UNL A   1      47.865  28.325  27.094  1.00  0.00     0.049 A 
ATOM     66  H   UNL A   1      45.820  28.482  27.594  1.00  0.00     0.167 HD
ATOM     67  C   UNL A   1      46.971  26.039  26.745  1.00  0.00     0.074 A 
ATOM     68  C   UNL A   1      47.106  24.648  26.366  1.00  0.00     0.031 C 
ATOM     69  C   UNL A   1      47.984  26.939  26.720  1.00  0.00     0.037 A 
BRANCH  56  70
ATOM     70  C   UNL A   1      46.321  32.637  28.423  1.00  0.00     0.057 A 
ATOM     71  C   UNL A   1      46.804  33.116  29.648  1.00  0.00     0.134 A 
ATOM     72  C   UNL A   1      46.249  33.542  27.357  1.00  0.00     0.134 A 
ATOM     73  F   UNL A   1      46.886  32.302  30.712  1.00  0.00    -0.206 F 
ATOM     74  C   UNL A   1      47.178  34.451  29.812  1.00  0.00     0.040 A 
ATOM     75  C   UNL A   1      46.643  34.873  27.503  1.00  0.00     0.040 A 
ATOM     76  F   UNL A   1      45.801  33.147  26.156  1.00  0.00    -0.206 F 
ATOM     77  C   UNL A   1      47.104  35.332  28.735  1.00  0.00     0.006 A 
ENDBRANCH  56  70
BRANCH  57  78
ATOM     78  C   UNL A   1      43.164  23.297  26.974  1.00  0.00     0.057 A 
ATOM     79  C   UNL A   1      42.909  22.849  25.674  1.00  0.00     0.134 A 
ATOM     80  C   UNL A   1      42.959  22.393  28.023  1.00  0.00     0.134 A 
ATOM     81  F   UNL A   1      43.071  23.677  24.632  1.00  0.00    -0.206 F 
ATOM     82  C   UNL A   1      42.453  21.554  25.424  1.00  0.00     0.040 A 
ATOM     83  C   UNL A   1      42.524  21.087  27.785  1.00  0.00     0.040 A 
ATOM     84  F   UNL A   1      43.193  22.761  29.291  1.00  0.00    -0.206 F 
ATOM     85  C   UNL A   1      42.264  20.667  26.482  1.00  0.00     0.006 A 
ENDBRANCH  57  78
BRANCH  69  86
ATOM     86  C   UNL A   1      49.330  26.440  26.289  1.00  0.00     0.057 A 
ATOM     87  C   UNL A   1      49.827  26.682  25.003  1.00  0.00     0.134 A 
ATOM     88  C   UNL A   1      50.148  25.733  27.179  1.00  0.00     0.134 A 
ATOM     89  F   UNL A   1      49.086  27.341  24.099  1.00  0.00    -0.206 F 
ATOM     90  C   UNL A   1      51.084  26.220  24.609  1.00  0.00     0.040 A 
ATOM     91  C   UNL A   1      51.416  25.285  26.804  1.00  0.00     0.040 A 
ATOM     92  F   UNL A   1      49.732  25.473  28.427  1.00  0.00    -0.206 F 
ATOM     93  C   UNL A   1      51.884  25.524  25.514  1.00  0.00     0.006 A 
ENDBRANCH  69  86
ENDBRANCH  43  44
ENDBRANCH  35  38
ENDBRANCH  33  34
ENDBRANCH   1  33
TORSDOF 13
ENDMDL
