MODEL 1
REMARK VINA RESULT:     -11.0      0.000      0.000
REMARK SMILES CCC1(CC)CCN(C(=O)NC(=O)CCC(=O)NCCCNC(=O)c2ccc(-c3c4nc(c(-c5c(F)cccc5F)c5ccc([nH]5)c(-c5c(F)cccc5F)c5nc(c(-c6c(F)cccc6F)c6ccc3[nH]6)C=C5)C=C4)cc2)C1
REMARK SMILES IDX 19 1 18 2 16 3 17 4 15 6 14 7 12 8 9 9 10 10 11 11 13 13
REMARK SMILES IDX 8 14 3 15 6 16 79 17 7 18 2 19 1 20 4 21 5 22 20 23 21 24
REMARK SMILES IDX 22 25 23 26 24 28 25 29 26 30 78 31 27 32 77 33 28 34 29 35
REMARK SMILES IDX 30 36 71 37 31 38 76 39 70 40 72 41 32 42 75 43 69 44 68 45
REMARK SMILES IDX 33 47 59 48 42 49 58 50 43 51 46 52 57 53 73 54 44 55 45 56
REMARK SMILES IDX 56 58 74 59 47 60 34 61 35 62 40 63 36 64 37 65 39 66 41 67
REMARK SMILES IDX 38 68 60 69 61 70 66 71 62 72 63 73 65 74 67 75 64 76 48 77
REMARK SMILES IDX 49 78 54 79 50 80 51 81 53 82 55 83 52 84
REMARK H PARENT 18 5 11 12 22 27 72 46 46 57
REMARK Flexibility Score: inf
ROOT
ATOM      1  C   UNL A   1      31.809  30.603  26.837  1.00  0.00     0.117 C 
ENDROOT
BRANCH   1   2
ATOM      2  N   UNL A   1      33.055  30.163  27.449  1.00  0.00    -0.356 N 
ATOM      3  C   UNL A   1      33.919  29.185  27.079  1.00  0.00     0.220 C 
ATOM      4  O   UNL A   1      34.969  29.051  27.706  1.00  0.00    -0.275 OA
ATOM      5  H   UNL A   1      33.311  30.656  28.262  1.00  0.00     0.163 HD
BRANCH   3   6
ATOM      6  C   UNL A   1      33.592  28.291  25.913  1.00  0.00     0.110 C 
BRANCH   6   7
ATOM      7  C   UNL A   1      33.263  26.847  26.242  1.00  0.00     0.110 C 
BRANCH   7   8
ATOM      8  C   UNL A   1      31.879  26.513  26.736  1.00  0.00     0.228 C 
ATOM      9  C   UNL A   1      31.658  23.984  26.619  1.00  0.00     0.324 C 
ATOM     10  O   UNL A   1      31.160  23.302  27.518  1.00  0.00    -0.248 OA
ATOM     11  N   UNL A   1      31.264  25.299  26.519  1.00  0.00    -0.278 N 
ATOM     12  H   UNL A   1      30.329  25.394  26.224  1.00  0.00     0.174 HD
ATOM     13  O   UNL A   1      31.241  27.372  27.356  1.00  0.00    -0.275 OA
BRANCH   9  14
ATOM     14  N   UNL A   1      32.441  23.445  25.641  1.00  0.00    -0.324 N 
ATOM     15  C   UNL A   1      34.391  22.428  24.642  1.00  0.00    -0.011 C 
ATOM     16  C   UNL A   1      33.092  21.990  23.927  1.00  0.00     0.030 C 
ATOM     17  C   UNL A   1      33.854  23.175  25.891  1.00  0.00     0.128 C 
ATOM     18  C   UNL A   1      32.054  23.005  24.327  1.00  0.00     0.122 C 
BRANCH  15  19
ATOM     19  C   UNL A   1      35.221  23.380  23.735  1.00  0.00     0.005 C 
ATOM     20  C   UNL A   1      36.569  22.833  23.265  1.00  0.00     0.004 C 
ENDBRANCH  15  19
BRANCH  15  21
ATOM     21  C   UNL A   1      35.189  21.153  25.032  1.00  0.00     0.005 C 
ATOM     22  C   UNL A   1      34.457  19.837  24.759  1.00  0.00     0.004 C 
ENDBRANCH  15  21
ENDBRANCH   9  14
ENDBRANCH   7   8
ENDBRANCH   6   7
ENDBRANCH   3   6
ENDBRANCH   1   2
BRANCH   1  23
ATOM     23  C   UNL A   1      31.529  32.084  27.075  1.00  0.00     0.042 C 
BRANCH  23  24
ATOM     24  C   UNL A   1      32.739  32.985  26.879  1.00  0.00     0.118 C 
BRANCH  24  25
ATOM     25  N   UNL A   1      32.582  34.253  27.570  1.00  0.00    -0.352 N 
ATOM     26  C   UNL A   1      33.170  34.697  28.728  1.00  0.00     0.251 C 
ATOM     27  H   UNL A   1      31.961  34.888  27.144  1.00  0.00     0.163 HD
ATOM     28  O   UNL A   1      32.706  35.677  29.303  1.00  0.00    -0.269 OA
BRANCH  26  29
ATOM     29  C   UNL A   1      34.350  34.003  29.298  1.00  0.00     0.039 A 
ATOM     30  C   UNL A   1      34.139  32.931  30.171  1.00  0.00     0.014 A 
ATOM     31  C   UNL A   1      35.651  34.443  29.044  1.00  0.00     0.014 A 
ATOM     32  C   UNL A   1      35.230  32.286  30.761  1.00  0.00     0.010 A 
ATOM     33  C   UNL A   1      36.740  33.746  29.565  1.00  0.00     0.010 A 
ATOM     34  C   UNL A   1      36.542  32.678  30.449  1.00  0.00    -0.014 A 
BRANCH  34  35
ATOM     35  C   UNL A   1      37.712  32.007  31.074  1.00  0.00     0.031 A 
ATOM     36  C   UNL A   1      38.448  30.919  30.339  1.00  0.00     0.074 A 
ATOM     37  C   UNL A   1      38.087  32.337  32.325  1.00  0.00     0.049 A 
ATOM     38  N   UNL A   1      39.465  30.194  30.732  1.00  0.00    -0.248 NA
ATOM     39  C   UNL A   1      37.957  30.582  28.992  1.00  0.00     0.031 C 
ATOM     40  C   UNL A   1      37.427  33.333  33.170  1.00  0.00     0.029 A 
ATOM     41  N   UNL A   1      39.111  31.862  33.106  1.00  0.00    -0.354 N 
ATOM     42  C   UNL A   1      39.719  29.303  29.696  1.00  0.00     0.074 A 
ATOM     43  C   UNL A   1      38.720  29.545  28.677  1.00  0.00     0.031 C 
ATOM     44  C   UNL A   1      38.074  33.409  34.344  1.00  0.00     0.029 A 
ATOM     45  C   UNL A   1      39.173  32.447  34.346  1.00  0.00     0.049 A 
ATOM     46  H   UNL A   1      39.741  31.168  32.804  1.00  0.00     0.167 HD
ATOM     47  C   UNL A   1      40.706  28.382  29.590  1.00  0.00     0.037 A 
ATOM     48  C   UNL A   1      40.017  32.232  35.372  1.00  0.00     0.037 A 
ATOM     49  C   UNL A   1      41.721  28.163  30.586  1.00  0.00     0.049 A 
ATOM     50  C   UNL A   1      41.120  31.223  35.227  1.00  0.00     0.074 A 
ATOM     51  C   UNL A   1      42.815  27.317  30.532  1.00  0.00     0.029 A 
ATOM     52  N   UNL A   1      41.764  28.794  31.821  1.00  0.00    -0.354 N 
ATOM     53  N   UNL A   1      41.399  30.446  34.208  1.00  0.00    -0.248 NA
ATOM     54  C   UNL A   1      42.029  31.065  36.370  1.00  0.00     0.031 C 
ATOM     55  C   UNL A   1      43.496  27.403  31.752  1.00  0.00     0.029 A 
ATOM     56  C   UNL A   1      42.851  28.336  32.549  1.00  0.00     0.049 A 
ATOM     57  H   UNL A   1      41.119  29.468  32.133  1.00  0.00     0.167 HD
ATOM     58  C   UNL A   1      42.524  29.721  34.578  1.00  0.00     0.074 A 
ATOM     59  C   UNL A   1      42.885  30.161  35.910  1.00  0.00     0.031 C 
ATOM     60  C   UNL A   1      43.195  28.776  33.876  1.00  0.00     0.037 A 
BRANCH  47  61
ATOM     61  C   UNL A   1      40.729  27.536  28.350  1.00  0.00     0.057 A 
ATOM     62  C   UNL A   1      41.481  27.894  27.223  1.00  0.00     0.134 A 
ATOM     63  C   UNL A   1      40.000  26.342  28.286  1.00  0.00     0.134 A 
ATOM     64  F   UNL A   1      42.193  29.031  27.213  1.00  0.00    -0.206 F 
ATOM     65  C   UNL A   1      41.478  27.114  26.065  1.00  0.00     0.040 A 
ATOM     66  C   UNL A   1      40.012  25.539  27.144  1.00  0.00     0.040 A 
ATOM     67  F   UNL A   1      39.265  25.936  29.333  1.00  0.00    -0.206 F 
ATOM     68  C   UNL A   1      40.745  25.930  26.026  1.00  0.00     0.006 A 
ENDBRANCH  47  61
BRANCH  48  69
ATOM     69  C   UNL A   1      39.860  33.015  36.621  1.00  0.00     0.057 A 
ATOM     70  C   UNL A   1      38.933  32.636  37.600  1.00  0.00     0.134 A 
ATOM     71  C   UNL A   1      40.650  34.142  36.880  1.00  0.00     0.134 A 
ATOM     72  F   UNL A   1      38.135  31.577  37.399  1.00  0.00    -0.206 F 
ATOM     73  C   UNL A   1      38.793  33.353  38.789  1.00  0.00     0.040 A 
ATOM     74  C   UNL A   1      40.536  34.854  38.075  1.00  0.00     0.040 A 
ATOM     75  F   UNL A   1      41.561  34.550  35.984  1.00  0.00    -0.206 F 
ATOM     76  C   UNL A   1      39.603  34.461  39.032  1.00  0.00     0.006 A 
ENDBRANCH  48  69
BRANCH  60  77
ATOM     77  C   UNL A   1      44.399  28.161  34.530  1.00  0.00     0.057 A 
ATOM     78  C   UNL A   1      44.309  26.978  35.273  1.00  0.00     0.134 A 
ATOM     79  C   UNL A   1      45.666  28.738  34.379  1.00  0.00     0.134 A 
ATOM     80  F   UNL A   1      43.121  26.384  35.466  1.00  0.00    -0.206 F 
ATOM     81  C   UNL A   1      45.435  26.399  35.860  1.00  0.00     0.040 A 
ATOM     82  C   UNL A   1      46.804  28.155  34.941  1.00  0.00     0.040 A 
ATOM     83  F   UNL A   1      45.822  29.867  33.673  1.00  0.00    -0.206 F 
ATOM     84  C   UNL A   1      46.689  26.985  35.688  1.00  0.00     0.006 A 
ENDBRANCH  60  77
ENDBRANCH  34  35
ENDBRANCH  26  29
ENDBRANCH  24  25
ENDBRANCH  23  24
ENDBRANCH   1  23
TORSDOF 15
ENDMDL
MODEL 2
REMARK VINA RESULT:     -11.0      2.782      7.348
REMARK SMILES CCC1(CC)CCN(C(=O)NC(=O)CCC(=O)NCCCNC(=O)c2ccc(-c3c4nc(c(-c5c(F)cccc5F)c5ccc([nH]5)c(-c5c(F)cccc5F)c5nc(c(-c6c(F)cccc6F)c6ccc3[nH]6)C=C5)C=C4)cc2)C1
REMARK SMILES IDX 19 1 18 2 16 3 17 4 15 6 14 7 12 8 9 9 10 10 11 11 13 13
REMARK SMILES IDX 8 14 3 15 6 16 79 17 7 18 2 19 1 20 4 21 5 22 20 23 21 24
REMARK SMILES IDX 22 25 23 26 24 28 25 29 26 30 78 31 27 32 77 33 28 34 29 35
REMARK SMILES IDX 30 36 71 37 31 38 76 39 70 40 72 41 32 42 75 43 69 44 68 45
REMARK SMILES IDX 33 47 59 48 42 49 58 50 43 51 46 52 57 53 73 54 44 55 45 56
REMARK SMILES IDX 56 58 74 59 47 60 34 61 35 62 40 63 36 64 37 65 39 66 41 67
REMARK SMILES IDX 38 68 60 69 61 70 66 71 62 72 63 73 65 74 67 75 64 76 48 77
REMARK SMILES IDX 49 78 54 79 50 80 51 81 53 82 55 83 52 84
REMARK H PARENT 18 5 11 12 22 27 72 46 46 57
REMARK Flexibility Score: inf
ROOT
ATOM      1  C   UNL A   1      31.788  27.967  26.576  1.00  0.00     0.117 C 
ENDROOT
BRANCH   1   2
ATOM      2  N   UNL A   1      31.036  26.748  26.839  1.00  0.00    -0.356 N 
ATOM      3  C   UNL A   1      30.170  26.062  26.052  1.00  0.00     0.220 C 
ATOM      4  O   UNL A   1      29.717  24.992  26.459  1.00  0.00    -0.275 OA
ATOM      5  H   UNL A   1      31.180  26.360  27.732  1.00  0.00     0.163 HD
BRANCH   3   6
ATOM      6  C   UNL A   1      29.784  26.605  24.703  1.00  0.00     0.110 C 
BRANCH   6   7
ATOM      7  C   UNL A   1      30.454  25.966  23.501  1.00  0.00     0.110 C 
BRANCH   7   8
ATOM      8  C   UNL A   1      31.024  26.857  22.428  1.00  0.00     0.228 C 
ATOM      9  C   UNL A   1      32.874  25.535  21.293  1.00  0.00     0.324 C 
ATOM     10  O   UNL A   1      33.027  25.492  20.070  1.00  0.00    -0.248 OA
ATOM     11  N   UNL A   1      32.241  26.638  21.821  1.00  0.00    -0.278 N 
ATOM     12  H   UNL A   1      32.782  27.457  21.749  1.00  0.00     0.174 HD
ATOM     13  O   UNL A   1      30.383  27.855  22.076  1.00  0.00    -0.275 OA
BRANCH   9  14
ATOM     14  N   UNL A   1      33.446  24.628  22.134  1.00  0.00    -0.324 N 
ATOM     15  C   UNL A   1      34.577  23.805  24.104  1.00  0.00    -0.011 C 
ATOM     16  C   UNL A   1      33.619  22.744  23.514  1.00  0.00     0.030 C 
ATOM     17  C   UNL A   1      34.217  25.075  23.291  1.00  0.00     0.128 C 
ATOM     18  C   UNL A   1      33.347  23.193  22.103  1.00  0.00     0.122 C 
BRANCH  15  19
ATOM     19  C   UNL A   1      36.059  23.394  23.871  1.00  0.00     0.005 C 
ATOM     20  C   UNL A   1      37.002  23.631  25.050  1.00  0.00     0.004 C 
ENDBRANCH  15  19
BRANCH  15  21
ATOM     21  C   UNL A   1      34.251  23.975  25.614  1.00  0.00     0.005 C 
ATOM     22  C   UNL A   1      32.851  23.504  26.018  1.00  0.00     0.004 C 
ENDBRANCH  15  21
ENDBRANCH   9  14
ENDBRANCH   7   8
ENDBRANCH   6   7
ENDBRANCH   3   6
ENDBRANCH   1   2
BRANCH   1  23
ATOM     23  C   UNL A   1      33.292  27.726  26.505  1.00  0.00     0.042 C 
BRANCH  23  24
ATOM     24  C   UNL A   1      34.068  28.833  25.808  1.00  0.00     0.118 C 
BRANCH  24  25
ATOM     25  N   UNL A   1      33.835  30.125  26.430  1.00  0.00    -0.352 N 
ATOM     26  C   UNL A   1      34.460  30.702  27.507  1.00  0.00     0.251 C 
ATOM     27  H   UNL A   1      33.125  30.668  26.017  1.00  0.00     0.163 HD
ATOM     28  O   UNL A   1      33.944  31.671  28.056  1.00  0.00    -0.269 OA
BRANCH  26  29
ATOM     29  C   UNL A   1      35.742  30.166  28.023  1.00  0.00     0.039 A 
ATOM     30  C   UNL A   1      35.755  29.550  29.278  1.00  0.00     0.014 A 
ATOM     31  C   UNL A   1      36.940  30.330  27.321  1.00  0.00     0.014 A 
ATOM     32  C   UNL A   1      36.956  29.075  29.812  1.00  0.00     0.010 A 
ATOM     33  C   UNL A   1      38.122  29.781  27.814  1.00  0.00     0.010 A 
ATOM     34  C   UNL A   1      38.149  29.171  29.076  1.00  0.00    -0.014 A 
BRANCH  34  35
ATOM     35  C   UNL A   1      39.435  28.678  29.633  1.00  0.00     0.031 A 
ATOM     36  C   UNL A   1      40.055  29.350  30.829  1.00  0.00     0.074 A 
ATOM     37  C   UNL A   1      40.077  27.655  29.036  1.00  0.00     0.049 A 
ATOM     38  N   UNL A   1      41.187  29.087  31.433  1.00  0.00    -0.248 NA
ATOM     39  C   UNL A   1      39.318  30.486  31.405  1.00  0.00     0.031 C 
ATOM     40  C   UNL A   1      39.617  26.952  27.838  1.00  0.00     0.029 A 
ATOM     41  N   UNL A   1      41.261  27.037  29.352  1.00  0.00    -0.354 N 
ATOM     42  C   UNL A   1      41.307  30.037  32.440  1.00  0.00     0.074 A 
ATOM     43  C   UNL A   1      40.159  30.911  32.336  1.00  0.00     0.031 C 
ATOM     44  C   UNL A   1      40.497  25.986  27.532  1.00  0.00     0.029 A 
ATOM     45  C   UNL A   1      41.598  26.022  28.491  1.00  0.00     0.049 A 
ATOM     46  H   UNL A   1      41.816  27.297  30.123  1.00  0.00     0.167 HD
ATOM     47  C   UNL A   1      42.273  30.159  33.382  1.00  0.00     0.037 A 
ATOM     48  C   UNL A   1      42.673  25.213  28.472  1.00  0.00     0.037 A 
ATOM     49  C   UNL A   1      43.398  29.270  33.510  1.00  0.00     0.049 A 
ATOM     50  C   UNL A   1      43.722  25.348  29.539  1.00  0.00     0.074 A 
ATOM     51  C   UNL A   1      44.381  29.257  34.484  1.00  0.00     0.029 A 
ATOM     52  N   UNL A   1      43.691  28.237  32.632  1.00  0.00    -0.354 N 
ATOM     53  N   UNL A   1      43.781  26.198  30.536  1.00  0.00    -0.248 NA
ATOM     54  C   UNL A   1      44.851  24.408  29.483  1.00  0.00     0.031 C 
ATOM     55  C   UNL A   1      45.293  28.244  34.171  1.00  0.00     0.029 A 
ATOM     56  C   UNL A   1      44.855  27.597  33.026  1.00  0.00     0.049 A 
ATOM     57  H   UNL A   1      43.152  27.995  31.845  1.00  0.00     0.167 HD
ATOM     58  C   UNL A   1      44.940  25.886  31.235  1.00  0.00     0.074 A 
ATOM     59  C   UNL A   1      45.545  24.759  30.557  1.00  0.00     0.031 C 
ATOM     60  C   UNL A   1      45.453  26.481  32.339  1.00  0.00     0.037 A 
BRANCH  47  61
ATOM     61  C   UNL A   1      42.155  31.304  34.346  1.00  0.00     0.057 A 
ATOM     62  C   UNL A   1      41.445  31.190  35.549  1.00  0.00     0.134 A 
ATOM     63  C   UNL A   1      42.770  32.533  34.074  1.00  0.00     0.134 A 
ATOM     64  F   UNL A   1      40.823  30.044  35.866  1.00  0.00    -0.206 F 
ATOM     65  C   UNL A   1      41.320  32.266  36.429  1.00  0.00     0.040 A 
ATOM     66  C   UNL A   1      42.675  33.608  34.959  1.00  0.00     0.040 A 
ATOM     67  F   UNL A   1      43.472  32.709  32.945  1.00  0.00    -0.206 F 
ATOM     68  C   UNL A   1      41.941  33.479  36.136  1.00  0.00     0.006 A 
ENDBRANCH  47  61
BRANCH  48  69
ATOM     69  C   UNL A   1      42.791  24.182  27.413  1.00  0.00     0.057 A 
ATOM     70  C   UNL A   1      42.315  22.881  27.616  1.00  0.00     0.134 A 
ATOM     71  C   UNL A   1      43.354  24.478  26.166  1.00  0.00     0.134 A 
ATOM     72  F   UNL A   1      41.783  22.534  28.797  1.00  0.00    -0.206 F 
ATOM     73  C   UNL A   1      42.399  21.909  26.618  1.00  0.00     0.040 A 
ATOM     74  C   UNL A   1      43.424  23.522  25.152  1.00  0.00     0.040 A 
ATOM     75  F   UNL A   1      43.821  25.708  25.910  1.00  0.00    -0.206 F 
ATOM     76  C   UNL A   1      42.948  22.232  25.379  1.00  0.00     0.006 A 
ENDBRANCH  48  69
BRANCH  60  77
ATOM     77  C   UNL A   1      46.728  25.917  32.893  1.00  0.00     0.057 A 
ATOM     78  C   UNL A   1      46.727  24.907  33.863  1.00  0.00     0.134 A 
ATOM     79  C   UNL A   1      47.970  26.360  32.421  1.00  0.00     0.134 A 
ATOM     80  F   UNL A   1      45.570  24.449  34.365  1.00  0.00    -0.206 F 
ATOM     81  C   UNL A   1      47.916  24.371  34.358  1.00  0.00     0.040 A 
ATOM     82  C   UNL A   1      49.166  25.815  32.891  1.00  0.00     0.040 A 
ATOM     83  F   UNL A   1      48.041  27.320  31.486  1.00  0.00    -0.206 F 
ATOM     84  C   UNL A   1      49.141  24.821  33.866  1.00  0.00     0.006 A 
ENDBRANCH  60  77
ENDBRANCH  34  35
ENDBRANCH  26  29
ENDBRANCH  24  25
ENDBRANCH  23  24
ENDBRANCH   1  23
TORSDOF 15
ENDMDL
MODEL 3
REMARK VINA RESULT:     -11.0      4.813      9.731
REMARK SMILES CCC1(CC)CCN(C(=O)NC(=O)CCC(=O)NCCCNC(=O)c2ccc(-c3c4nc(c(-c5c(F)cccc5F)c5ccc([nH]5)c(-c5c(F)cccc5F)c5nc(c(-c6c(F)cccc6F)c6ccc3[nH]6)C=C5)C=C4)cc2)C1
REMARK SMILES IDX 19 1 18 2 16 3 17 4 15 6 14 7 12 8 9 9 10 10 11 11 13 13
REMARK SMILES IDX 8 14 3 15 6 16 79 17 7 18 2 19 1 20 4 21 5 22 20 23 21 24
REMARK SMILES IDX 22 25 23 26 24 28 25 29 26 30 78 31 27 32 77 33 28 34 29 35
REMARK SMILES IDX 30 36 71 37 31 38 76 39 70 40 72 41 32 42 75 43 69 44 68 45
REMARK SMILES IDX 33 47 59 48 42 49 58 50 43 51 46 52 57 53 73 54 44 55 45 56
REMARK SMILES IDX 56 58 74 59 47 60 34 61 35 62 40 63 36 64 37 65 39 66 41 67
REMARK SMILES IDX 38 68 60 69 61 70 66 71 62 72 63 73 65 74 67 75 64 76 48 77
REMARK SMILES IDX 49 78 54 79 50 80 51 81 53 82 55 83 52 84
REMARK H PARENT 18 5 11 12 22 27 72 46 46 57
REMARK Flexibility Score: inf
ROOT
ATOM      1  C   UNL A   1      37.387  20.943  24.561  1.00  0.00     0.117 C 
ENDROOT
BRANCH   1   2
ATOM      2  N   UNL A   1      37.890  22.192  25.113  1.00  0.00    -0.356 N 
ATOM      3  C   UNL A   1      37.231  23.221  25.704  1.00  0.00     0.220 C 
ATOM      4  O   UNL A   1      37.883  24.148  26.183  1.00  0.00    -0.275 OA
ATOM      5  H   UNL A   1      38.865  22.309  25.048  1.00  0.00     0.163 HD
BRANCH   3   6
ATOM      6  C   UNL A   1      35.728  23.213  25.773  1.00  0.00     0.110 C 
BRANCH   6   7
ATOM      7  C   UNL A   1      35.006  24.228  24.906  1.00  0.00     0.110 C 
BRANCH   7   8
ATOM      8  C   UNL A   1      34.845  23.941  23.435  1.00  0.00     0.228 C 
ATOM      9  C   UNL A   1      33.399  25.804  22.488  1.00  0.00     0.324 C 
ATOM     10  O   UNL A   1      33.640  26.378  21.423  1.00  0.00    -0.248 OA
ATOM     11  N   UNL A   1      33.876  24.522  22.647  1.00  0.00    -0.278 N 
ATOM     12  H   UNL A   1      33.420  23.872  22.064  1.00  0.00     0.174 HD
ATOM     13  O   UNL A   1      35.606  23.128  22.897  1.00  0.00    -0.275 OA
BRANCH   9  14
ATOM     14  N   UNL A   1      32.552  26.321  23.423  1.00  0.00    -0.324 N 
ATOM     15  C   UNL A   1      31.625  27.952  24.944  1.00  0.00    -0.011 C 
ATOM     16  C   UNL A   1      30.533  27.007  24.392  1.00  0.00     0.030 C 
ATOM     17  C   UNL A   1      32.858  27.591  24.075  1.00  0.00     0.128 C 
ATOM     18  C   UNL A   1      31.276  25.813  23.852  1.00  0.00     0.122 C 
BRANCH  15  19
ATOM     19  C   UNL A   1      31.894  27.658  26.447  1.00  0.00     0.005 C 
ATOM     20  C   UNL A   1      31.806  28.865  27.381  1.00  0.00     0.004 C 
ENDBRANCH  15  19
BRANCH  15  21
ATOM     21  C   UNL A   1      31.166  29.419  24.711  1.00  0.00     0.005 C 
ATOM     22  C   UNL A   1      30.109  29.587  23.617  1.00  0.00     0.004 C 
ENDBRANCH  15  21
ENDBRANCH   9  14
ENDBRANCH   7   8
ENDBRANCH   6   7
ENDBRANCH   3   6
ENDBRANCH   1   2
BRANCH   1  23
ATOM     23  C   UNL A   1      38.280  19.752  24.895  1.00  0.00     0.042 C 
BRANCH  23  24
ATOM     24  C   UNL A   1      39.227  19.992  26.062  1.00  0.00     0.118 C 
BRANCH  24  25
ATOM     25  N   UNL A   1      40.398  19.137  25.987  1.00  0.00    -0.352 N 
ATOM     26  C   UNL A   1      41.729  19.472  26.029  1.00  0.00     0.251 C 
ATOM     27  H   UNL A   1      40.210  18.175  25.893  1.00  0.00     0.163 HD
ATOM     28  O   UNL A   1      42.569  18.650  25.674  1.00  0.00    -0.269 OA
BRANCH  26  29
ATOM     29  C   UNL A   1      42.164  20.813  26.486  1.00  0.00     0.039 A 
ATOM     30  C   UNL A   1      42.148  21.092  27.857  1.00  0.00     0.014 A 
ATOM     31  C   UNL A   1      42.511  21.818  25.580  1.00  0.00     0.014 A 
ATOM     32  C   UNL A   1      42.508  22.362  28.316  1.00  0.00     0.010 A 
ATOM     33  C   UNL A   1      42.952  23.057  26.043  1.00  0.00     0.010 A 
ATOM     34  C   UNL A   1      42.930  23.351  27.413  1.00  0.00    -0.014 A 
BRANCH  34  35
ATOM     35  C   UNL A   1      43.309  24.709  27.885  1.00  0.00     0.031 A 
ATOM     36  C   UNL A   1      42.249  25.737  28.176  1.00  0.00     0.074 A 
ATOM     37  C   UNL A   1      44.609  25.039  28.006  1.00  0.00     0.049 A 
ATOM     38  N   UNL A   1      42.385  26.982  28.560  1.00  0.00    -0.248 NA
ATOM     39  C   UNL A   1      40.851  25.318  27.983  1.00  0.00     0.031 C 
ATOM     40  C   UNL A   1      45.737  24.158  27.703  1.00  0.00     0.029 A 
ATOM     41  N   UNL A   1      45.200  26.211  28.408  1.00  0.00    -0.354 N 
ATOM     42  C   UNL A   1      41.097  27.499  28.630  1.00  0.00     0.074 A 
ATOM     43  C   UNL A   1      40.197  26.449  28.203  1.00  0.00     0.031 C 
ATOM     44  C   UNL A   1      46.883  24.812  27.947  1.00  0.00     0.029 A 
ATOM     45  C   UNL A   1      46.572  26.168  28.395  1.00  0.00     0.049 A 
ATOM     46  H   UNL A   1      44.688  27.007  28.679  1.00  0.00     0.167 HD
ATOM     47  C   UNL A   1      40.696  28.728  29.034  1.00  0.00     0.037 A 
ATOM     48  C   UNL A   1      47.479  27.113  28.704  1.00  0.00     0.037 A 
ATOM     49  C   UNL A   1      41.586  29.761  29.493  1.00  0.00     0.049 A 
ATOM     50  C   UNL A   1      47.014  28.462  29.172  1.00  0.00     0.074 A 
ATOM     51  C   UNL A   1      41.270  31.007  30.007  1.00  0.00     0.029 A 
ATOM     52  N   UNL A   1      42.970  29.670  29.487  1.00  0.00    -0.354 N 
ATOM     53  N   UNL A   1      45.790  28.910  29.314  1.00  0.00    -0.248 NA
ATOM     54  C   UNL A   1      48.056  29.435  29.531  1.00  0.00     0.031 C 
ATOM     55  C   UNL A   1      42.464  31.686  30.272  1.00  0.00     0.029 A 
ATOM     56  C   UNL A   1      43.524  30.848  29.964  1.00  0.00     0.049 A 
ATOM     57  H   UNL A   1      43.483  28.885  29.190  1.00  0.00     0.167 HD
ATOM     58  C   UNL A   1      45.912  30.208  29.794  1.00  0.00     0.074 A 
ATOM     59  C   UNL A   1      47.330  30.469  29.933  1.00  0.00     0.031 C 
ATOM     60  C   UNL A   1      44.936  31.099  30.091  1.00  0.00     0.037 A 
BRANCH  47  61
ATOM     61  C   UNL A   1      39.224  29.021  28.991  1.00  0.00     0.057 A 
ATOM     62  C   UNL A   1      38.404  28.862  30.117  1.00  0.00     0.134 A 
ATOM     63  C   UNL A   1      38.620  29.479  27.814  1.00  0.00     0.134 A 
ATOM     64  F   UNL A   1      38.916  28.417  31.275  1.00  0.00    -0.206 F 
ATOM     65  C   UNL A   1      37.032  29.115  30.063  1.00  0.00     0.040 A 
ATOM     66  C   UNL A   1      37.255  29.761  27.755  1.00  0.00     0.040 A 
ATOM     67  F   UNL A   1      39.348  29.660  26.702  1.00  0.00    -0.206 F 
ATOM     68  C   UNL A   1      36.455  29.570  28.879  1.00  0.00     0.006 A 
ENDBRANCH  47  61
BRANCH  48  69
ATOM     69  C   UNL A   1      48.924  26.797  28.602  1.00  0.00     0.057 A 
ATOM     70  C   UNL A   1      49.616  26.226  29.677  1.00  0.00     0.134 A 
ATOM     71  C   UNL A   1      49.641  27.029  27.422  1.00  0.00     0.134 A 
ATOM     72  F   UNL A   1      48.986  25.998  30.840  1.00  0.00    -0.206 F 
ATOM     73  C   UNL A   1      50.970  25.903  29.585  1.00  0.00     0.040 A 
ATOM     74  C   UNL A   1      50.990  26.690  27.309  1.00  0.00     0.040 A 
ATOM     75  F   UNL A   1      49.032  27.568  26.356  1.00  0.00    -0.206 F 
ATOM     76  C   UNL A   1      51.659  26.128  28.395  1.00  0.00     0.006 A 
ENDBRANCH  48  69
BRANCH  60  77
ATOM     77  C   UNL A   1      45.367  32.440  30.610  1.00  0.00     0.057 A 
ATOM     78  C   UNL A   1      45.613  32.659  31.971  1.00  0.00     0.134 A 
ATOM     79  C   UNL A   1      45.577  33.512  29.733  1.00  0.00     0.134 A 
ATOM     80  F   UNL A   1      45.418  31.676  32.864  1.00  0.00    -0.206 F 
ATOM     81  C   UNL A   1      46.034  33.902  32.445  1.00  0.00     0.040 A 
ATOM     82  C   UNL A   1      46.021  34.753  30.192  1.00  0.00     0.040 A 
ATOM     83  F   UNL A   1      45.366  33.367  28.417  1.00  0.00    -0.206 F 
ATOM     84  C   UNL A   1      46.246  34.952  31.552  1.00  0.00     0.006 A 
ENDBRANCH  60  77
ENDBRANCH  34  35
ENDBRANCH  26  29
ENDBRANCH  24  25
ENDBRANCH  23  24
ENDBRANCH   1  23
TORSDOF 15
ENDMDL
