MODEL 1
REMARK VINA RESULT:     -11.8      0.000      0.000
REMARK SMILES O=C(NCCCNC(=O)c1ccc(F)c(NS(=O)(=O)c2cc(Cl)sc2Cl)c1)c1ccc(-c2c3nc(c(-c4c(F)cccc4F)c4ccc([nH]4)c(-c4c(F)cccc4F)c4nc(c(-c5c(F)cccc5F)c5ccc2[nH]5)C=C4)C=C3)cc1
REMARK SMILES IDX 5 1 4 2 3 3 1 4 2 5 28 7 29 8 81 9 30 10 80 11 31 12 32 13
REMARK SMILES IDX 33 14 74 15 34 16 79 17 73 18 75 19 35 20 78 21 72 22 71 23
REMARK SMILES IDX 36 25 62 26 45 27 61 28 46 29 49 30 60 31 76 32 47 33 48 34
REMARK SMILES IDX 59 36 77 37 50 38 37 39 38 40 43 41 39 42 40 43 42 44 44 45
REMARK SMILES IDX 41 46 63 47 64 48 69 49 65 50 66 51 68 52 70 53 67 54 51 55
REMARK SMILES IDX 52 56 57 57 53 58 54 59 56 60 58 61 55 62 6 63 7 64 8 65
REMARK SMILES IDX 9 67 10 68 11 69 27 70 12 71 15 72 13 73 14 74 16 75 17 77
REMARK SMILES IDX 18 78 19 79 20 80 21 81 25 82 22 83 24 84 26 85 23 86
REMARK H PARENT 3 6 75 24 49 35 7 66 16 76
REMARK Flexibility Score: inf
ROOT
ATOM      1  C   UNL A   1      37.524  19.487  24.957  1.00  0.00     0.042 C 
ENDROOT
BRANCH   1   2
ATOM      2  C   UNL A   1      38.744  20.137  25.603  1.00  0.00     0.118 C 
BRANCH   2   3
ATOM      3  N   UNL A   1      39.871  19.223  25.740  1.00  0.00    -0.352 N 
ATOM      4  O   UNL A   1      42.003  18.552  25.981  1.00  0.00    -0.269 OA
ATOM      5  C   UNL A   1      41.174  19.450  26.110  1.00  0.00     0.251 C 
ATOM      6  H   UNL A   1      39.662  18.284  25.532  1.00  0.00     0.163 HD
BRANCH   5   7
ATOM      7  C   UNL A   1      41.595  20.766  26.634  1.00  0.00     0.039 A 
ATOM      8  C   UNL A   1      41.573  21.038  28.002  1.00  0.00     0.014 A 
ATOM      9  C   UNL A   1      42.061  21.736  25.740  1.00  0.00     0.014 A 
ATOM     10  C   UNL A   1      41.850  22.323  28.457  1.00  0.00     0.010 A 
ATOM     11  C   UNL A   1      42.435  22.999  26.210  1.00  0.00     0.010 A 
ATOM     12  C   UNL A   1      42.296  23.315  27.569  1.00  0.00    -0.014 A 
BRANCH  12  13
ATOM     13  C   UNL A   1      42.654  24.656  28.095  1.00  0.00     0.031 A 
ATOM     14  C   UNL A   1      44.086  25.044  28.329  1.00  0.00     0.074 A 
ATOM     15  C   UNL A   1      41.669  25.546  28.328  1.00  0.00     0.049 A 
ATOM     16  N   UNL A   1      44.572  26.183  28.756  1.00  0.00    -0.248 NA
ATOM     17  C   UNL A   1      45.109  24.023  28.055  1.00  0.00     0.031 C 
ATOM     18  C   UNL A   1      40.241  25.284  28.140  1.00  0.00     0.029 A 
ATOM     19  N   UNL A   1      41.717  26.852  28.743  1.00  0.00    -0.354 N 
ATOM     20  C   UNL A   1      45.949  26.012  28.815  1.00  0.00     0.074 A 
ATOM     21  C   UNL A   1      46.221  24.650  28.411  1.00  0.00     0.031 C 
ATOM     22  C   UNL A   1      39.553  26.409  28.381  1.00  0.00     0.029 A 
ATOM     23  C   UNL A   1      40.483  27.451  28.803  1.00  0.00     0.049 A 
ATOM     24  H   UNL A   1      42.555  27.314  28.975  1.00  0.00     0.167 HD
ATOM     25  C   UNL A   1      46.898  26.915  29.161  1.00  0.00     0.037 A 
ATOM     26  C   UNL A   1      40.131  28.699  29.165  1.00  0.00     0.037 A 
ATOM     27  C   UNL A   1      46.621  28.273  29.554  1.00  0.00     0.049 A 
ATOM     28  C   UNL A   1      41.197  29.669  29.579  1.00  0.00     0.074 A 
ATOM     29  C   UNL A   1      47.518  29.268  29.906  1.00  0.00     0.029 A 
ATOM     30  N   UNL A   1      45.354  28.828  29.650  1.00  0.00    -0.354 N 
ATOM     31  N   UNL A   1      42.495  29.496  29.619  1.00  0.00    -0.248 NA
ATOM     32  C   UNL A   1      40.750  31.002  30.005  1.00  0.00     0.031 C 
ATOM     33  C   UNL A   1      46.790  30.408  30.259  1.00  0.00     0.029 A 
ATOM     34  C   UNL A   1      45.443  30.144  30.075  1.00  0.00     0.049 A 
ATOM     35  H   UNL A   1      44.513  28.356  29.446  1.00  0.00     0.167 HD
ATOM     36  C   UNL A   1      43.025  30.701  30.059  1.00  0.00     0.074 A 
ATOM     37  C   UNL A   1      41.906  31.600  30.261  1.00  0.00     0.031 C 
ATOM     38  C   UNL A   1      44.322  31.029  30.275  1.00  0.00     0.037 A 
BRANCH  25  39
ATOM     39  C   UNL A   1      48.330  26.460  29.146  1.00  0.00     0.057 A 
ATOM     40  C   UNL A   1      49.133  26.663  28.016  1.00  0.00     0.134 A 
ATOM     41  C   UNL A   1      48.901  25.777  30.227  1.00  0.00     0.134 A 
ATOM     42  F   UNL A   1      48.648  27.303  26.942  1.00  0.00    -0.206 F 
ATOM     43  C   UNL A   1      50.449  26.200  27.961  1.00  0.00     0.040 A 
ATOM     44  C   UNL A   1      50.224  25.331  30.194  1.00  0.00     0.040 A 
ATOM     45  F   UNL A   1      48.192  25.558  31.345  1.00  0.00    -0.206 F 
ATOM     46  C   UNL A   1      50.999  25.534  29.053  1.00  0.00     0.006 A 
ENDBRANCH  25  39
BRANCH  26  47
ATOM     47  C   UNL A   1      38.700  29.085  29.124  1.00  0.00     0.057 A 
ATOM     48  C   UNL A   1      38.121  29.615  27.965  1.00  0.00     0.134 A 
ATOM     49  C   UNL A   1      37.901  29.005  30.269  1.00  0.00     0.134 A 
ATOM     50  F   UNL A   1      38.842  29.729  26.839  1.00  0.00    -0.206 F 
ATOM     51  C   UNL A   1      36.806  30.082  27.953  1.00  0.00     0.040 A 
ATOM     52  C   UNL A   1      36.577  29.445  30.265  1.00  0.00     0.040 A 
ATOM     53  F   UNL A   1      38.397  28.494  31.404  1.00  0.00    -0.206 F 
ATOM     54  C   UNL A   1      36.030  29.997  29.107  1.00  0.00     0.006 A 
ENDBRANCH  26  47
BRANCH  38  55
ATOM     55  C   UNL A   1      44.614  32.426  30.735  1.00  0.00     0.057 A 
ATOM     56  C   UNL A   1      44.856  33.446  29.806  1.00  0.00     0.134 A 
ATOM     57  C   UNL A   1      44.726  32.746  32.093  1.00  0.00     0.134 A 
ATOM     58  F   UNL A   1      44.772  33.202  28.489  1.00  0.00    -0.206 F 
ATOM     59  C   UNL A   1      45.212  34.732  30.211  1.00  0.00     0.040 A 
ATOM     60  C   UNL A   1      45.058  34.036  32.512  1.00  0.00     0.040 A 
ATOM     61  F   UNL A   1      44.496  31.818  33.033  1.00  0.00    -0.206 F 
ATOM     62  C   UNL A   1      45.311  35.031  31.568  1.00  0.00     0.006 A 
ENDBRANCH  38  55
ENDBRANCH  12  13
ENDBRANCH   5   7
ENDBRANCH   2   3
ENDBRANCH   1   2
BRANCH   1  63
ATOM     63  C   UNL A   1      36.266  20.349  24.970  1.00  0.00     0.118 C 
BRANCH  63  64
ATOM     64  N   UNL A   1      36.487  21.628  25.622  1.00  0.00    -0.352 N 
ATOM     65  C   UNL A   1      35.725  22.761  25.610  1.00  0.00     0.251 C 
ATOM     66  H   UNL A   1      37.314  21.688  26.154  1.00  0.00     0.163 HD
ATOM     67  O   UNL A   1      36.182  23.820  26.028  1.00  0.00    -0.269 OA
BRANCH  65  68
ATOM     68  C   UNL A   1      34.363  22.743  25.052  1.00  0.00     0.042 A 
ATOM     69  C   UNL A   1      33.300  22.107  25.698  1.00  0.00     0.017 A 
ATOM     70  C   UNL A   1      34.159  23.451  23.864  1.00  0.00     0.043 A 
ATOM     71  C   UNL A   1      32.027  22.172  25.130  1.00  0.00     0.042 A 
ATOM     72  C   UNL A   1      32.887  23.555  23.312  1.00  0.00     0.085 A 
ATOM     73  C   UNL A   1      31.831  22.890  23.948  1.00  0.00     0.147 A 
ATOM     74  F   UNL A   1      30.607  22.917  23.400  1.00  0.00    -0.205 F 
BRANCH  72  75
ATOM     75  N   UNL A   1      32.673  24.158  22.021  1.00  0.00    -0.277 N 
ATOM     76  H   UNL A   1      32.572  23.593  21.222  1.00  0.00     0.180 HD
BRANCH  75  77
ATOM     77  S   UNL A   1      32.594  25.849  21.890  1.00  0.00     0.264 S 
ATOM     78  O   UNL A   1      33.923  26.288  21.545  1.00  0.00    -0.201 OA
ATOM     79  O   UNL A   1      31.454  26.176  21.058  1.00  0.00    -0.201 OA
BRANCH  77  80
ATOM     80  C   UNL A   1      32.325  26.563  23.439  1.00  0.00     0.118 A 
ATOM     81  C   UNL A   1      33.395  27.193  24.168  1.00  0.00     0.056 A 
ATOM     82  C   UNL A   1      31.161  26.558  24.172  1.00  0.00     0.115 A 
ATOM     83  C   UNL A   1      32.986  27.567  25.421  1.00  0.00     0.096 A 
ATOM     84  S   UNL A   1      31.350  27.257  25.716  1.00  0.00    -0.110 S 
ATOM     85  Cl  UNL A   1      29.609  25.918  23.796  1.00  0.00    -0.071 Cl
ATOM     86  Cl  UNL A   1      33.959  28.252  26.656  1.00  0.00    -0.072 Cl
ENDBRANCH  77  80
ENDBRANCH  75  77
ENDBRANCH  72  75
ENDBRANCH  65  68
ENDBRANCH  63  64
ENDBRANCH   1  63
TORSDOF 13
ENDMDL
MODEL 2
REMARK VINA RESULT:     -11.8      1.681      2.332
REMARK SMILES O=C(NCCCNC(=O)c1ccc(F)c(NS(=O)(=O)c2cc(Cl)sc2Cl)c1)c1ccc(-c2c3nc(c(-c4c(F)cccc4F)c4ccc([nH]4)c(-c4c(F)cccc4F)c4nc(c(-c5c(F)cccc5F)c5ccc2[nH]5)C=C4)C=C3)cc1
REMARK SMILES IDX 5 1 4 2 3 3 1 4 2 5 28 7 29 8 81 9 30 10 80 11 31 12 32 13
REMARK SMILES IDX 33 14 74 15 34 16 79 17 73 18 75 19 35 20 78 21 72 22 71 23
REMARK SMILES IDX 36 25 62 26 45 27 61 28 46 29 49 30 60 31 76 32 47 33 48 34
REMARK SMILES IDX 59 36 77 37 50 38 37 39 38 40 43 41 39 42 40 43 42 44 44 45
REMARK SMILES IDX 41 46 63 47 64 48 69 49 65 50 66 51 68 52 70 53 67 54 51 55
REMARK SMILES IDX 52 56 57 57 53 58 54 59 56 60 58 61 55 62 6 63 7 64 8 65
REMARK SMILES IDX 9 67 10 68 11 69 27 70 12 71 15 72 13 73 14 74 16 75 17 77
REMARK SMILES IDX 18 78 19 79 20 80 21 81 25 82 22 83 24 84 26 85 23 86
REMARK H PARENT 3 6 75 24 49 35 7 66 16 76
REMARK Flexibility Score: inf
ROOT
ATOM      1  C   UNL A   1      37.379  19.677  24.845  1.00  0.00     0.042 C 
ENDROOT
BRANCH   1   2
ATOM      2  C   UNL A   1      38.584  20.286  25.556  1.00  0.00     0.118 C 
BRANCH   2   3
ATOM      3  N   UNL A   1      39.704  19.361  25.674  1.00  0.00    -0.352 N 
ATOM      4  O   UNL A   1      41.830  18.668  25.904  1.00  0.00    -0.269 OA
ATOM      5  C   UNL A   1      41.007  19.568  26.053  1.00  0.00     0.251 C 
ATOM      6  H   UNL A   1      39.488  18.428  25.443  1.00  0.00     0.163 HD
BRANCH   5   7
ATOM      7  C   UNL A   1      41.437  20.868  26.610  1.00  0.00     0.039 A 
ATOM      8  C   UNL A   1      41.403  21.110  27.984  1.00  0.00     0.014 A 
ATOM      9  C   UNL A   1      41.922  21.853  25.742  1.00  0.00     0.014 A 
ATOM     10  C   UNL A   1      41.689  22.381  28.470  1.00  0.00     0.010 A 
ATOM     11  C   UNL A   1      42.304  23.100  26.243  1.00  0.00     0.010 A 
ATOM     12  C   UNL A   1      42.155  23.388  27.607  1.00  0.00    -0.014 A 
BRANCH  12  13
ATOM     13  C   UNL A   1      42.521  24.713  28.167  1.00  0.00     0.031 A 
ATOM     14  C   UNL A   1      43.950  25.059  28.479  1.00  0.00     0.074 A 
ATOM     15  C   UNL A   1      41.551  25.628  28.359  1.00  0.00     0.049 A 
ATOM     16  N   UNL A   1      44.444  26.179  28.943  1.00  0.00    -0.248 NA
ATOM     17  C   UNL A   1      44.957  24.013  28.245  1.00  0.00     0.031 C 
ATOM     18  C   UNL A   1      40.127  25.407  28.096  1.00  0.00     0.029 A 
ATOM     19  N   UNL A   1      41.612  26.928  28.791  1.00  0.00    -0.354 N 
ATOM     20  C   UNL A   1      45.810  25.971  29.069  1.00  0.00     0.074 A 
ATOM     21  C   UNL A   1      46.066  24.605  28.665  1.00  0.00     0.031 C 
ATOM     22  C   UNL A   1      39.459  26.549  28.314  1.00  0.00     0.029 A 
ATOM     23  C   UNL A   1      40.394  27.560  28.794  1.00  0.00     0.049 A 
ATOM     24  H   UNL A   1      42.449  27.364  29.071  1.00  0.00     0.167 HD
ATOM     25  C   UNL A   1      46.765  26.843  29.475  1.00  0.00     0.037 A 
ATOM     26  C   UNL A   1      40.058  28.813  29.152  1.00  0.00     0.037 A 
ATOM     27  C   UNL A   1      46.505  28.204  29.868  1.00  0.00     0.049 A 
ATOM     28  C   UNL A   1      41.126  29.750  29.632  1.00  0.00     0.074 A 
ATOM     29  C   UNL A   1      47.409  29.170  30.277  1.00  0.00     0.029 A 
ATOM     30  N   UNL A   1      45.249  28.793  29.905  1.00  0.00    -0.354 N 
ATOM     31  N   UNL A   1      42.416  29.541  29.736  1.00  0.00    -0.248 NA
ATOM     32  C   UNL A   1      40.695  31.090  30.049  1.00  0.00     0.031 C 
ATOM     33  C   UNL A   1      46.695  30.327  30.605  1.00  0.00     0.029 A 
ATOM     34  C   UNL A   1      45.352  30.102  30.349  1.00  0.00     0.049 A 
ATOM     35  H   UNL A   1      44.408  28.346  29.654  1.00  0.00     0.167 HD
ATOM     36  C   UNL A   1      42.955  30.726  30.216  1.00  0.00     0.074 A 
ATOM     37  C   UNL A   1      41.852  31.654  30.371  1.00  0.00     0.031 C 
ATOM     38  C   UNL A   1      44.247  31.015  30.502  1.00  0.00     0.037 A 
BRANCH  25  39
ATOM     39  C   UNL A   1      48.183  26.349  29.527  1.00  0.00     0.057 A 
ATOM     40  C   UNL A   1      48.686  25.743  30.685  1.00  0.00     0.134 A 
ATOM     41  C   UNL A   1      49.066  26.517  28.453  1.00  0.00     0.134 A 
ATOM     42  F   UNL A   1      47.898  25.558  31.755  1.00  0.00    -0.206 F 
ATOM     43  C   UNL A   1      50.016  25.327  30.775  1.00  0.00     0.040 A 
ATOM     44  C   UNL A   1      50.391  26.082  28.520  1.00  0.00     0.040 A 
ATOM     45  F   UNL A   1      48.646  27.080  27.309  1.00  0.00    -0.206 F 
ATOM     46  C   UNL A   1      50.872  25.493  29.688  1.00  0.00     0.006 A 
ENDBRANCH  25  39
BRANCH  26  47
ATOM     47  C   UNL A   1      38.641  29.240  29.043  1.00  0.00     0.057 A 
ATOM     48  C   UNL A   1      37.769  29.156  30.134  1.00  0.00     0.134 A 
ATOM     49  C   UNL A   1      38.111  29.667  27.821  1.00  0.00     0.134 A 
ATOM     50  F   UNL A   1      38.216  28.741  31.328  1.00  0.00    -0.206 F 
ATOM     51  C   UNL A   1      36.411  29.451  30.008  1.00  0.00     0.040 A 
ATOM     52  C   UNL A   1      36.761  29.990  27.686  1.00  0.00     0.040 A 
ATOM     53  F   UNL A   1      38.902  29.780  26.744  1.00  0.00    -0.206 F 
ATOM     54  C   UNL A   1      35.904  29.871  28.779  1.00  0.00     0.006 A 
ENDBRANCH  26  47
BRANCH  38  55
ATOM     55  C   UNL A   1      44.553  32.399  30.993  1.00  0.00     0.057 A 
ATOM     56  C   UNL A   1      44.852  33.426  30.087  1.00  0.00     0.134 A 
ATOM     57  C   UNL A   1      44.621  32.699  32.358  1.00  0.00     0.134 A 
ATOM     58  F   UNL A   1      44.813  33.201  28.765  1.00  0.00    -0.206 F 
ATOM     59  C   UNL A   1      45.221  34.698  30.524  1.00  0.00     0.040 A 
ATOM     60  C   UNL A   1      44.966  33.975  32.807  1.00  0.00     0.040 A 
ATOM     61  F   UNL A   1      44.335  31.763  33.276  1.00  0.00    -0.206 F 
ATOM     62  C   UNL A   1      45.277  34.976  31.887  1.00  0.00     0.006 A 
ENDBRANCH  38  55
ENDBRANCH  12  13
ENDBRANCH   5   7
ENDBRANCH   2   3
ENDBRANCH   1   2
BRANCH   1  63
ATOM     63  C   UNL A   1      36.078  20.451  25.028  1.00  0.00     0.118 C 
BRANCH  63  64
ATOM     64  N   UNL A   1      34.921  19.574  25.068  1.00  0.00    -0.352 N 
ATOM     65  C   UNL A   1      33.599  19.860  24.881  1.00  0.00     0.251 C 
ATOM     66  H   UNL A   1      35.121  18.629  25.260  1.00  0.00     0.163 HD
ATOM     67  O   UNL A   1      32.739  19.038  25.180  1.00  0.00    -0.269 OA
BRANCH  65  68
ATOM     68  C   UNL A   1      33.181  21.173  24.364  1.00  0.00     0.042 A 
ATOM     69  C   UNL A   1      33.866  21.824  23.336  1.00  0.00     0.017 A 
ATOM     70  C   UNL A   1      32.017  21.724  24.909  1.00  0.00     0.043 A 
ATOM     71  C   UNL A   1      33.383  23.047  22.868  1.00  0.00     0.042 A 
ATOM     72  C   UNL A   1      31.505  22.921  24.422  1.00  0.00     0.085 A 
ATOM     73  C   UNL A   1      32.213  23.583  23.412  1.00  0.00     0.147 A 
ATOM     74  F   UNL A   1      31.778  24.773  22.971  1.00  0.00    -0.205 F 
BRANCH  72  75
ATOM     75  N   UNL A   1      30.389  23.577  25.056  1.00  0.00    -0.277 N 
ATOM     76  H   UNL A   1      29.490  23.516  24.660  1.00  0.00     0.180 HD
BRANCH  75  77
ATOM     77  S   UNL A   1      30.636  24.453  26.489  1.00  0.00     0.264 S 
ATOM     78  O   UNL A   1      29.355  25.011  26.845  1.00  0.00    -0.201 OA
ATOM     79  O   UNL A   1      31.368  23.604  27.407  1.00  0.00    -0.201 OA
BRANCH  77  80
ATOM     80  C   UNL A   1      31.610  25.846  26.185  1.00  0.00     0.118 A 
ATOM     81  C   UNL A   1      31.018  27.145  25.997  1.00  0.00     0.056 A 
ATOM     82  C   UNL A   1      32.973  25.892  26.013  1.00  0.00     0.115 A 
ATOM     83  C   UNL A   1      31.963  28.070  25.637  1.00  0.00     0.096 A 
ATOM     84  S   UNL A   1      33.534  27.447  25.595  1.00  0.00    -0.110 S 
ATOM     85  Cl  UNL A   1      34.151  24.641  26.094  1.00  0.00    -0.071 Cl
ATOM     86  Cl  UNL A   1      31.684  29.710  25.213  1.00  0.00    -0.072 Cl
ENDBRANCH  77  80
ENDBRANCH  75  77
ENDBRANCH  72  75
ENDBRANCH  65  68
ENDBRANCH  63  64
ENDBRANCH   1  63
TORSDOF 13
ENDMDL
MODEL 3
REMARK VINA RESULT:     -11.7      4.474      9.266
REMARK SMILES O=C(NCCCNC(=O)c1ccc(F)c(NS(=O)(=O)c2cc(Cl)sc2Cl)c1)c1ccc(-c2c3nc(c(-c4c(F)cccc4F)c4ccc([nH]4)c(-c4c(F)cccc4F)c4nc(c(-c5c(F)cccc5F)c5ccc2[nH]5)C=C4)C=C3)cc1
REMARK SMILES IDX 5 1 4 2 3 3 1 4 2 5 28 7 29 8 81 9 30 10 80 11 31 12 32 13
REMARK SMILES IDX 33 14 74 15 34 16 79 17 73 18 75 19 35 20 78 21 72 22 71 23
REMARK SMILES IDX 36 25 62 26 45 27 61 28 46 29 49 30 60 31 76 32 47 33 48 34
REMARK SMILES IDX 59 36 77 37 50 38 37 39 38 40 43 41 39 42 40 43 42 44 44 45
REMARK SMILES IDX 41 46 63 47 64 48 69 49 65 50 66 51 68 52 70 53 67 54 51 55
REMARK SMILES IDX 52 56 57 57 53 58 54 59 56 60 58 61 55 62 6 63 7 64 8 65
REMARK SMILES IDX 9 67 10 68 11 69 27 70 12 71 15 72 13 73 14 74 16 75 17 77
REMARK SMILES IDX 18 78 19 79 20 80 21 81 25 82 22 83 24 84 26 85 23 86
REMARK H PARENT 3 6 75 24 49 35 7 66 16 76
REMARK Flexibility Score: inf
ROOT
ATOM      1  C   UNL A   1      30.828  31.926  26.239  1.00  0.00     0.042 C 
ENDROOT
BRANCH   1   2
ATOM      2  C   UNL A   1      32.201  32.380  26.725  1.00  0.00     0.118 C 
BRANCH   2   3
ATOM      3  N   UNL A   1      32.201  33.741  27.246  1.00  0.00    -0.352 N 
ATOM      4  O   UNL A   1      32.688  35.458  28.612  1.00  0.00    -0.269 OA
ATOM      5  C   UNL A   1      32.987  34.341  28.198  1.00  0.00     0.251 C 
ATOM      6  H   UNL A   1      31.520  34.330  26.847  1.00  0.00     0.163 HD
BRANCH   5   7
ATOM      7  C   UNL A   1      34.172  33.649  28.749  1.00  0.00     0.039 A 
ATOM      8  C   UNL A   1      34.051  32.425  29.408  1.00  0.00     0.014 A 
ATOM      9  C   UNL A   1      35.437  34.218  28.566  1.00  0.00     0.014 A 
ATOM     10  C   UNL A   1      35.160  31.860  30.027  1.00  0.00     0.010 A 
ATOM     11  C   UNL A   1      36.568  33.598  29.104  1.00  0.00     0.010 A 
ATOM     12  C   UNL A   1      36.434  32.432  29.873  1.00  0.00    -0.014 A 
BRANCH  12  13
ATOM     13  C   UNL A   1      37.610  31.766  30.486  1.00  0.00     0.031 A 
ATOM     14  C   UNL A   1      38.002  32.037  31.912  1.00  0.00     0.074 A 
ATOM     15  C   UNL A   1      38.307  30.876  29.754  1.00  0.00     0.049 A 
ATOM     16  N   UNL A   1      38.982  31.518  32.609  1.00  0.00    -0.248 NA
ATOM     17  C   UNL A   1      37.197  33.020  32.652  1.00  0.00     0.031 C 
ATOM     18  C   UNL A   1      38.023  30.532  28.359  1.00  0.00     0.029 A 
ATOM     19  N   UNL A   1      39.375  30.080  30.083  1.00  0.00    -0.354 N 
ATOM     20  C   UNL A   1      38.920  32.118  33.859  1.00  0.00     0.074 A 
ATOM     21  C   UNL A   1      37.827  33.065  33.817  1.00  0.00     0.031 C 
ATOM     22  C   UNL A   1      38.854  29.554  27.971  1.00  0.00     0.029 A 
ATOM     23  C   UNL A   1      39.770  29.249  29.064  1.00  0.00     0.049 A 
ATOM     24  H   UNL A   1      39.814  30.103  30.964  1.00  0.00     0.167 HD
ATOM     25  C   UNL A   1      39.697  31.889  34.946  1.00  0.00     0.037 A 
ATOM     26  C   UNL A   1      40.766  28.346  29.007  1.00  0.00     0.037 A 
ATOM     27  C   UNL A   1      40.778  30.939  34.984  1.00  0.00     0.049 A 
ATOM     28  C   UNL A   1      41.635  28.136  30.211  1.00  0.00     0.074 A 
ATOM     29  C   UNL A   1      41.610  30.624  36.045  1.00  0.00     0.029 A 
ATOM     30  N   UNL A   1      41.180  30.151  33.915  1.00  0.00    -0.354 N 
ATOM     31  N   UNL A   1      41.558  28.704  31.389  1.00  0.00    -0.248 NA
ATOM     32  C   UNL A   1      42.732  27.169  30.076  1.00  0.00     0.031 C 
ATOM     33  C   UNL A   1      42.544  29.680  35.604  1.00  0.00     0.029 A 
ATOM     34  C   UNL A   1      42.260  29.366  34.285  1.00  0.00     0.049 A 
ATOM     35  H   UNL A   1      40.759  30.150  33.025  1.00  0.00     0.167 HD
ATOM     36  C   UNL A   1      42.584  28.154  32.144  1.00  0.00     0.074 A 
ATOM     37  C   UNL A   1      43.263  27.198  31.292  1.00  0.00     0.031 C 
ATOM     38  C   UNL A   1      42.930  28.419  33.427  1.00  0.00     0.037 A 
BRANCH  25  39
ATOM     39  C   UNL A   1      39.415  32.692  36.184  1.00  0.00     0.057 A 
ATOM     40  C   UNL A   1      38.497  32.237  37.139  1.00  0.00     0.134 A 
ATOM     41  C   UNL A   1      40.013  33.939  36.409  1.00  0.00     0.134 A 
ATOM     42  F   UNL A   1      37.881  31.056  36.982  1.00  0.00    -0.206 F 
ATOM     43  C   UNL A   1      38.180  32.994  38.269  1.00  0.00     0.040 A 
ATOM     44  C   UNL A   1      39.724  34.694  37.548  1.00  0.00     0.040 A 
ATOM     45  F   UNL A   1      40.911  34.430  35.541  1.00  0.00    -0.206 F 
ATOM     46  C   UNL A   1      38.797  34.224  38.478  1.00  0.00     0.006 A 
ENDBRANCH  25  39
BRANCH  26  47
ATOM     47  C   UNL A   1      40.963  27.567  27.760  1.00  0.00     0.057 A 
ATOM     48  C   UNL A   1      40.403  26.294  27.601  1.00  0.00     0.134 A 
ATOM     49  C   UNL A   1      41.781  28.049  26.733  1.00  0.00     0.134 A 
ATOM     50  F   UNL A   1      39.621  25.773  28.557  1.00  0.00    -0.206 F 
ATOM     51  C   UNL A   1      40.675  25.512  26.477  1.00  0.00     0.040 A 
ATOM     52  C   UNL A   1      42.041  27.289  25.592  1.00  0.00     0.040 A 
ATOM     53  F   UNL A   1      42.332  29.267  26.825  1.00  0.00    -0.206 F 
ATOM     54  C   UNL A   1      41.497  26.011  25.468  1.00  0.00     0.006 A 
ENDBRANCH  26  47
BRANCH  38  55
ATOM     55  C   UNL A   1      44.082  27.653  34.005  1.00  0.00     0.057 A 
ATOM     56  C   UNL A   1      45.386  28.159  33.925  1.00  0.00     0.134 A 
ATOM     57  C   UNL A   1      43.913  26.386  34.575  1.00  0.00     0.134 A 
ATOM     58  F   UNL A   1      45.617  29.364  33.382  1.00  0.00    -0.206 F 
ATOM     59  C   UNL A   1      46.482  27.427  34.380  1.00  0.00     0.040 A 
ATOM     60  C   UNL A   1      44.999  25.654  35.057  1.00  0.00     0.040 A 
ATOM     61  F   UNL A   1      42.689  25.850  34.692  1.00  0.00    -0.206 F 
ATOM     62  C   UNL A   1      46.290  26.171  34.950  1.00  0.00     0.006 A 
ENDBRANCH  38  55
ENDBRANCH  12  13
ENDBRANCH   5   7
ENDBRANCH   2   3
ENDBRANCH   1   2
BRANCH   1  63
ATOM     63  C   UNL A   1      30.863  30.897  25.114  1.00  0.00     0.118 C 
BRANCH  63  64
ATOM     64  N   UNL A   1      29.909  31.204  24.062  1.00  0.00    -0.352 N 
ATOM     65  C   UNL A   1      29.394  30.401  23.086  1.00  0.00     0.251 C 
ATOM     66  H   UNL A   1      29.585  32.134  24.052  1.00  0.00     0.163 HD
ATOM     67  O   UNL A   1      28.778  30.889  22.143  1.00  0.00    -0.269 OA
BRANCH  65  68
ATOM     68  C   UNL A   1      29.609  28.946  23.120  1.00  0.00     0.042 A 
ATOM     69  C   UNL A   1      28.793  28.087  23.860  1.00  0.00     0.017 A 
ATOM     70  C   UNL A   1      30.639  28.441  22.321  1.00  0.00     0.043 A 
ATOM     71  C   UNL A   1      29.031  26.713  23.807  1.00  0.00     0.042 A 
ATOM     72  C   UNL A   1      30.859  27.072  22.229  1.00  0.00     0.085 A 
ATOM     73  C   UNL A   1      30.056  26.219  22.998  1.00  0.00     0.147 A 
ATOM     74  F   UNL A   1      30.290  24.898  22.980  1.00  0.00    -0.205 F 
BRANCH  72  75
ATOM     75  N   UNL A   1      31.995  26.535  21.525  1.00  0.00    -0.277 N 
ATOM     76  H   UNL A   1      31.868  26.044  20.682  1.00  0.00     0.180 HD
BRANCH  75  77
ATOM     77  S   UNL A   1      33.555  26.759  22.158  1.00  0.00     0.264 S 
ATOM     78  O   UNL A   1      34.213  25.480  22.068  1.00  0.00    -0.201 OA
ATOM     79  O   UNL A   1      34.119  27.940  21.538  1.00  0.00    -0.201 OA
BRANCH  77  80
ATOM     80  C   UNL A   1      33.480  27.052  23.858  1.00  0.00     0.118 A 
ATOM     81  C   UNL A   1      33.818  28.338  24.410  1.00  0.00     0.056 A 
ATOM     82  C   UNL A   1      33.188  26.147  24.851  1.00  0.00     0.115 A 
ATOM     83  C   UNL A   1      33.817  28.302  25.780  1.00  0.00     0.096 A 
ATOM     84  S   UNL A   1      33.352  26.806  26.415  1.00  0.00    -0.110 S 
ATOM     85  Cl  UNL A   1      32.755  24.485  24.753  1.00  0.00    -0.071 Cl
ATOM     86  Cl  UNL A   1      34.264  29.576  26.840  1.00  0.00    -0.072 Cl
ENDBRANCH  77  80
ENDBRANCH  75  77
ENDBRANCH  72  75
ENDBRANCH  65  68
ENDBRANCH  63  64
ENDBRANCH   1  63
TORSDOF 13
ENDMDL
