MODEL 1
REMARK VINA RESULT:     -11.0      0.000      0.000
REMARK SMILES CO[C@@H]1C[C@H](C(=O)NCCCNC(=O)c2ccc(-c3c4nc(c(-c5c(F)cccc5F)c5ccc([nH]5)c(-c5c(F)cccc5F)c5nc(c(-c6c(F)cccc6F)c6ccc3[nH]6)C=C5)C=C4)cc2)N(C(=O)[C@H](CC(C)C)NC(N)=O)C1
REMARK SMILES IDX 9 1 8 2 6 3 7 4 5 6 3 7 4 8 81 9 69 10 2 11 1 12 70 13 71 14
REMARK SMILES IDX 72 15 77 16 78 17 79 19 80 20 73 23 74 24 75 25 76 26 10 27
REMARK SMILES IDX 11 28 12 29 13 30 14 32 15 33 16 34 68 35 17 36 67 37 18 38
REMARK SMILES IDX 19 39 20 40 61 41 21 42 66 43 60 44 62 45 22 46 65 47 59 48
REMARK SMILES IDX 58 49 23 51 49 52 32 53 48 54 33 55 36 56 47 57 63 58 34 59
REMARK SMILES IDX 35 60 46 62 64 63 37 64 24 65 25 66 30 67 26 68 27 69 29 70
REMARK SMILES IDX 31 71 28 72 50 73 51 74 56 75 52 76 53 77 55 78 57 79 54 80
REMARK SMILES IDX 38 81 39 82 44 83 40 84 41 85 43 86 45 87 42 88
REMARK H PARENT 8 5 77 18 79 21 79 22 12 31 62 50 36 61
REMARK Flexibility Score: inf
ROOT
ATOM      1  C   UNL A   1      31.773  27.755  26.609  1.00  0.00     0.117 C 
ENDROOT
BRANCH   1   2
ATOM      2  N   UNL A   1      31.422  26.452  27.132  1.00  0.00    -0.354 N 
ATOM      3  C   UNL A   1      31.665  25.202  26.661  1.00  0.00     0.242 C 
ATOM      4  O   UNL A   1      30.943  24.312  27.126  1.00  0.00    -0.273 OA
ATOM      5  H   UNL A   1      30.919  26.477  27.977  1.00  0.00     0.163 HD
BRANCH   3   6
ATOM      6  C   UNL A   1      32.669  24.857  25.528  1.00  0.00     0.177 C 
ATOM      7  C   UNL A   1      33.858  22.703  25.386  1.00  0.00     0.139 C 
ATOM      8  C   UNL A   1      33.907  24.102  26.014  1.00  0.00     0.069 C 
ATOM      9  C   UNL A   1      32.778  22.776  24.304  1.00  0.00     0.152 C 
ATOM     10  N   UNL A   1      32.150  24.078  24.410  1.00  0.00    -0.326 N 
BRANCH   7  11
ATOM     11  O   UNL A   1      33.571  21.765  26.419  1.00  0.00    -0.380 OA
ATOM     12  C   UNL A   1      33.918  22.207  27.725  1.00  0.00     0.195 C 
ENDBRANCH   7  11
BRANCH  10  13
ATOM     13  C   UNL A   1      31.229  24.464  23.455  1.00  0.00     0.246 C 
ATOM     14  O   UNL A   1      30.362  23.656  23.111  1.00  0.00    -0.272 OA
BRANCH  13  15
ATOM     15  C   UNL A   1      31.252  25.919  22.911  1.00  0.00     0.173 C 
BRANCH  15  16
ATOM     16  N   UNL A   1      31.380  25.961  21.453  1.00  0.00    -0.327 N 
ATOM     17  C   UNL A   1      32.561  25.688  20.830  1.00  0.00     0.312 C 
ATOM     18  H   UNL A   1      30.593  26.191  20.909  1.00  0.00     0.166 HD
ATOM     19  N   UNL A   1      32.454  25.615  19.483  1.00  0.00    -0.352 N 
ATOM     20  O   UNL A   1      33.618  25.466  21.393  1.00  0.00    -0.249 OA
ATOM     21  H   UNL A   1      31.590  25.797  19.048  1.00  0.00     0.161 HD
ATOM     22  H   UNL A   1      33.239  25.379  18.939  1.00  0.00     0.161 HD
ENDBRANCH  15  16
BRANCH  15  23
ATOM     23  C   UNL A   1      30.078  26.804  23.389  1.00  0.00     0.038 C 
BRANCH  23  24
ATOM     24  C   UNL A   1      29.878  28.208  22.761  1.00  0.00    -0.015 C 
ATOM     25  C   UNL A   1      28.472  28.784  22.924  1.00  0.00     0.007 C 
ATOM     26  C   UNL A   1      30.872  29.188  23.406  1.00  0.00     0.007 C 
ENDBRANCH  23  24
ENDBRANCH  15  23
ENDBRANCH  13  15
ENDBRANCH  10  13
ENDBRANCH   3   6
ENDBRANCH   1   2
BRANCH   1  27
ATOM     27  C   UNL A   1      33.134  28.208  27.134  1.00  0.00     0.042 C 
BRANCH  27  28
ATOM     28  C   UNL A   1      33.828  29.213  26.228  1.00  0.00     0.118 C 
BRANCH  28  29
ATOM     29  N   UNL A   1      33.768  30.565  26.777  1.00  0.00    -0.352 N 
ATOM     30  C   UNL A   1      34.480  31.187  27.773  1.00  0.00     0.251 C 
ATOM     31  H   UNL A   1      33.089  31.138  26.354  1.00  0.00     0.163 HD
ATOM     32  O   UNL A   1      34.050  32.243  28.233  1.00  0.00    -0.269 OA
BRANCH  30  33
ATOM     33  C   UNL A   1      35.742  30.625  28.308  1.00  0.00     0.039 A 
ATOM     34  C   UNL A   1      35.687  29.767  29.413  1.00  0.00     0.014 A 
ATOM     35  C   UNL A   1      36.986  30.982  27.788  1.00  0.00     0.014 A 
ATOM     36  C   UNL A   1      36.863  29.234  29.951  1.00  0.00     0.010 A 
ATOM     37  C   UNL A   1      38.141  30.354  28.237  1.00  0.00     0.010 A 
ATOM     38  C   UNL A   1      38.101  29.493  29.342  1.00  0.00    -0.014 A 
BRANCH  38  39
ATOM     39  C   UNL A   1      39.370  28.919  29.859  1.00  0.00     0.031 A 
ATOM     40  C   UNL A   1      40.035  29.530  31.065  1.00  0.00     0.074 A 
ATOM     41  C   UNL A   1      39.963  27.902  29.202  1.00  0.00     0.049 A 
ATOM     42  N   UNL A   1      41.198  29.254  31.600  1.00  0.00    -0.248 NA
ATOM     43  C   UNL A   1      39.316  30.625  31.738  1.00  0.00     0.031 C 
ATOM     44  C   UNL A   1      39.445  27.255  27.995  1.00  0.00     0.029 A 
ATOM     45  N   UNL A   1      41.141  27.244  29.452  1.00  0.00    -0.354 N 
ATOM     46  C   UNL A   1      41.357  30.156  32.645  1.00  0.00     0.074 A 
ATOM     47  C   UNL A   1      40.207  31.031  32.629  1.00  0.00     0.031 C 
ATOM     48  C   UNL A   1      40.286  26.275  27.626  1.00  0.00     0.029 A 
ATOM     49  C   UNL A   1      41.424  26.256  28.539  1.00  0.00     0.049 A 
ATOM     50  H   UNL A   1      41.728  27.459  30.211  1.00  0.00     0.167 HD
ATOM     51  C   UNL A   1      42.357  30.233  33.556  1.00  0.00     0.037 A 
ATOM     52  C   UNL A   1      42.487  25.436  28.441  1.00  0.00     0.037 A 
ATOM     53  C   UNL A   1      43.483  29.338  33.589  1.00  0.00     0.049 A 
ATOM     54  C   UNL A   1      43.586  25.542  29.462  1.00  0.00     0.074 A 
ATOM     55  C   UNL A   1      44.518  29.288  34.504  1.00  0.00     0.029 A 
ATOM     56  N   UNL A   1      43.718  28.334  32.661  1.00  0.00    -0.354 N 
ATOM     57  N   UNL A   1      43.692  26.359  30.483  1.00  0.00    -0.248 NA
ATOM     58  C   UNL A   1      44.713  24.609  29.321  1.00  0.00     0.031 C 
ATOM     59  C   UNL A   1      45.408  28.287  34.102  1.00  0.00     0.029 A 
ATOM     60  C   UNL A   1      44.895  27.673  32.971  1.00  0.00     0.049 A 
ATOM     61  H   UNL A   1      43.135  28.122  31.896  1.00  0.00     0.167 HD
ATOM     62  C   UNL A   1      44.875  26.014  31.125  1.00  0.00     0.074 A 
ATOM     63  C   UNL A   1      45.443  24.907  30.385  1.00  0.00     0.031 C 
ATOM     64  C   UNL A   1      45.439  26.563  32.228  1.00  0.00     0.037 A 
BRANCH  51  65
ATOM     65  C   UNL A   1      42.273  31.318  34.593  1.00  0.00     0.057 A 
ATOM     66  C   UNL A   1      41.636  31.119  35.827  1.00  0.00     0.134 A 
ATOM     67  C   UNL A   1      42.860  32.570  34.368  1.00  0.00     0.134 A 
ATOM     68  F   UNL A   1      41.042  29.948  36.105  1.00  0.00    -0.206 F 
ATOM     69  C   UNL A   1      41.558  32.134  36.783  1.00  0.00     0.040 A 
ATOM     70  C   UNL A   1      42.816  33.582  35.329  1.00  0.00     0.040 A 
ATOM     71  F   UNL A   1      43.492  32.830  33.213  1.00  0.00    -0.206 F 
ATOM     72  C   UNL A   1      42.156  33.368  36.537  1.00  0.00     0.006 A 
ENDBRANCH  51  65
BRANCH  52  73
ATOM     73  C   UNL A   1      42.555  24.428  27.352  1.00  0.00     0.057 A 
ATOM     74  C   UNL A   1      42.096  23.121  27.550  1.00  0.00     0.134 A 
ATOM     75  C   UNL A   1      43.086  24.739  26.095  1.00  0.00     0.134 A 
ATOM     76  F   UNL A   1      41.590  22.755  28.736  1.00  0.00    -0.206 F 
ATOM     77  C   UNL A   1      42.186  22.153  26.547  1.00  0.00     0.040 A 
ATOM     78  C   UNL A   1      43.156  23.790  25.073  1.00  0.00     0.040 A 
ATOM     79  F   UNL A   1      43.534  25.977  25.835  1.00  0.00    -0.206 F 
ATOM     80  C   UNL A   1      42.714  22.489  25.303  1.00  0.00     0.006 A 
ENDBRANCH  52  73
BRANCH  64  81
ATOM     81  C   UNL A   1      46.711  25.945  32.732  1.00  0.00     0.057 A 
ATOM     82  C   UNL A   1      47.971  26.381  32.303  1.00  0.00     0.134 A 
ATOM     83  C   UNL A   1      46.672  24.926  33.692  1.00  0.00     0.134 A 
ATOM     84  F   UNL A   1      48.079  27.345  31.377  1.00  0.00    -0.206 F 
ATOM     85  C   UNL A   1      49.146  25.807  32.792  1.00  0.00     0.040 A 
ATOM     86  C   UNL A   1      47.839  24.366  34.212  1.00  0.00     0.040 A 
ATOM     87  F   UNL A   1      45.498  24.469  34.154  1.00  0.00    -0.206 F 
ATOM     88  C   UNL A   1      49.081  24.802  33.755  1.00  0.00     0.006 A 
ENDBRANCH  64  81
ENDBRANCH  38  39
ENDBRANCH  30  33
ENDBRANCH  28  29
ENDBRANCH  27  28
ENDBRANCH   1  27
TORSDOF 16
ENDMDL
MODEL 2
REMARK VINA RESULT:     -10.9      3.395      8.117
REMARK SMILES CO[C@@H]1C[C@H](C(=O)NCCCNC(=O)c2ccc(-c3c4nc(c(-c5c(F)cccc5F)c5ccc([nH]5)c(-c5c(F)cccc5F)c5nc(c(-c6c(F)cccc6F)c6ccc3[nH]6)C=C5)C=C4)cc2)N(C(=O)[C@H](CC(C)C)NC(N)=O)C1
REMARK SMILES IDX 9 1 8 2 6 3 7 4 5 6 3 7 4 8 81 9 69 10 2 11 1 12 70 13 71 14
REMARK SMILES IDX 72 15 77 16 78 17 79 19 80 20 73 23 74 24 75 25 76 26 10 27
REMARK SMILES IDX 11 28 12 29 13 30 14 32 15 33 16 34 68 35 17 36 67 37 18 38
REMARK SMILES IDX 19 39 20 40 61 41 21 42 66 43 60 44 62 45 22 46 65 47 59 48
REMARK SMILES IDX 58 49 23 51 49 52 32 53 48 54 33 55 36 56 47 57 63 58 34 59
REMARK SMILES IDX 35 60 46 62 64 63 37 64 24 65 25 66 30 67 26 68 27 69 29 70
REMARK SMILES IDX 31 71 28 72 50 73 51 74 56 75 52 76 53 77 55 78 57 79 54 80
REMARK SMILES IDX 38 81 39 82 44 83 40 84 41 85 43 86 45 87 42 88
REMARK H PARENT 8 5 77 18 79 21 79 22 12 31 62 50 36 61
REMARK Flexibility Score: inf
ROOT
ATOM      1  C   UNL A   1      37.552  22.543  25.644  1.00  0.00     0.117 C 
ENDROOT
BRANCH   1   2
ATOM      2  N   UNL A   1      36.424  22.199  26.482  1.00  0.00    -0.354 N 
ATOM      3  C   UNL A   1      35.166  21.793  26.169  1.00  0.00     0.242 C 
ATOM      4  O   UNL A   1      34.329  21.920  27.072  1.00  0.00    -0.273 OA
ATOM      5  H   UNL A   1      36.598  22.272  27.447  1.00  0.00     0.163 HD
BRANCH   3   6
ATOM      6  C   UNL A   1      34.708  21.315  24.765  1.00  0.00     0.177 C 
ATOM      7  C   UNL A   1      32.380  20.696  24.242  1.00  0.00     0.139 C 
ATOM      8  C   UNL A   1      33.703  20.163  24.806  1.00  0.00     0.069 C 
ATOM      9  C   UNL A   1      32.722  22.038  23.591  1.00  0.00     0.152 C 
ATOM     10  N   UNL A   1      34.111  22.322  23.895  1.00  0.00    -0.326 N 
BRANCH   7  11
ATOM     11  O   UNL A   1      31.452  20.801  25.317  1.00  0.00    -0.380 OA
ATOM     12  C   UNL A   1      31.099  22.136  25.658  1.00  0.00     0.195 C 
ENDBRANCH   7  11
BRANCH  10  13
ATOM     13  C   UNL A   1      34.722  23.413  23.307  1.00  0.00     0.246 C 
ATOM     14  O   UNL A   1      35.679  23.219  22.554  1.00  0.00    -0.272 OA
BRANCH  13  15
ATOM     15  C   UNL A   1      34.137  24.834  23.536  1.00  0.00     0.173 C 
BRANCH  15  16
ATOM     16  N   UNL A   1      32.937  25.073  22.732  1.00  0.00    -0.327 N 
ATOM     17  C   UNL A   1      32.928  25.974  21.710  1.00  0.00     0.312 C 
ATOM     18  H   UNL A   1      32.116  24.569  22.933  1.00  0.00     0.166 HD
ATOM     19  N   UNL A   1      31.791  25.945  20.977  1.00  0.00    -0.352 N 
ATOM     20  O   UNL A   1      33.853  26.710  21.413  1.00  0.00    -0.249 OA
ATOM     21  H   UNL A   1      31.056  25.343  21.234  1.00  0.00     0.161 HD
ATOM     22  H   UNL A   1      31.699  26.525  20.188  1.00  0.00     0.161 HD
ENDBRANCH  15  16
BRANCH  15  23
ATOM     23  C   UNL A   1      33.890  25.198  25.018  1.00  0.00     0.038 C 
BRANCH  23  24
ATOM     24  C   UNL A   1      32.926  26.362  25.366  1.00  0.00    -0.015 C 
ATOM     25  C   UNL A   1      31.665  25.940  26.120  1.00  0.00     0.007 C 
ATOM     26  C   UNL A   1      33.676  27.388  26.231  1.00  0.00     0.007 C 
ENDBRANCH  23  24
ENDBRANCH  15  23
ENDBRANCH  13  15
ENDBRANCH  10  13
ENDBRANCH   3   6
ENDBRANCH   1   2
BRANCH   1  27
ATOM     27  C   UNL A   1      38.255  23.798  26.158  1.00  0.00     0.042 C 
BRANCH  27  28
ATOM     28  C   UNL A   1      39.620  23.521  26.767  1.00  0.00     0.118 C 
BRANCH  28  29
ATOM     29  N   UNL A   1      40.691  24.142  25.993  1.00  0.00    -0.352 N 
ATOM     30  C   UNL A   1      41.255  25.393  26.040  1.00  0.00     0.251 C 
ATOM     31  H   UNL A   1      41.083  23.554  25.308  1.00  0.00     0.163 HD
ATOM     32  O   UNL A   1      41.953  25.761  25.097  1.00  0.00    -0.269 OA
BRANCH  30  33
ATOM     33  C   UNL A   1      41.045  26.309  27.186  1.00  0.00     0.039 A 
ATOM     34  C   UNL A   1      40.178  25.920  28.215  1.00  0.00     0.014 A 
ATOM     35  C   UNL A   1      41.629  27.574  27.234  1.00  0.00     0.014 A 
ATOM     36  C   UNL A   1      39.947  26.770  29.301  1.00  0.00     0.010 A 
ATOM     37  C   UNL A   1      41.503  28.363  28.371  1.00  0.00     0.010 A 
ATOM     38  C   UNL A   1      40.639  27.986  29.408  1.00  0.00    -0.014 A 
BRANCH  38  39
ATOM     39  C   UNL A   1      40.451  28.903  30.562  1.00  0.00     0.031 A 
ATOM     40  C   UNL A   1      39.375  29.957  30.517  1.00  0.00     0.074 A 
ATOM     41  C   UNL A   1      41.293  28.840  31.613  1.00  0.00     0.049 A 
ATOM     42  N   UNL A   1      39.125  30.923  31.364  1.00  0.00    -0.248 NA
ATOM     43  C   UNL A   1      38.485  29.949  29.344  1.00  0.00     0.031 C 
ATOM     44  C   UNL A   1      42.404  27.898  31.755  1.00  0.00     0.029 A 
ATOM     45  N   UNL A   1      41.351  29.596  32.757  1.00  0.00    -0.354 N 
ATOM     46  C   UNL A   1      38.075  31.647  30.813  1.00  0.00     0.074 A 
ATOM     47  C   UNL A   1      37.779  31.053  29.529  1.00  0.00     0.031 C 
ATOM     48  C   UNL A   1      43.016  28.112  32.930  1.00  0.00     0.029 A 
ATOM     49  C   UNL A   1      42.373  29.237  33.603  1.00  0.00     0.049 A 
ATOM     50  H   UNL A   1      40.722  30.326  32.954  1.00  0.00     0.167 HD
ATOM     51  C   UNL A   1      37.396  32.696  31.339  1.00  0.00     0.037 A 
ATOM     52  C   UNL A   1      42.758  29.763  34.781  1.00  0.00     0.037 A 
ATOM     53  C   UNL A   1      37.673  33.262  32.632  1.00  0.00     0.049 A 
ATOM     54  C   UNL A   1      41.992  30.928  35.343  1.00  0.00     0.074 A 
ATOM     55  C   UNL A   1      37.007  34.282  33.287  1.00  0.00     0.029 A 
ATOM     56  N   UNL A   1      38.700  32.851  33.469  1.00  0.00    -0.354 N 
ATOM     57  N   UNL A   1      40.960  31.563  34.839  1.00  0.00    -0.248 NA
ATOM     58  C   UNL A   1      42.440  31.449  36.642  1.00  0.00     0.031 C 
ATOM     59  C   UNL A   1      37.664  34.525  34.497  1.00  0.00     0.029 A 
ATOM     60  C   UNL A   1      38.700  33.614  34.625  1.00  0.00     0.049 A 
ATOM     61  H   UNL A   1      39.335  32.124  33.271  1.00  0.00     0.167 HD
ATOM     62  C   UNL A   1      40.615  32.531  35.773  1.00  0.00     0.074 A 
ATOM     63  C   UNL A   1      41.539  32.392  36.879  1.00  0.00     0.031 C 
ATOM     64  C   UNL A   1      39.622  33.452  35.721  1.00  0.00     0.037 A 
BRANCH  51  65
ATOM     65  C   UNL A   1      36.289  33.293  30.516  1.00  0.00     0.057 A 
ATOM     66  C   UNL A   1      36.545  34.137  29.426  1.00  0.00     0.134 A 
ATOM     67  C   UNL A   1      34.949  32.997  30.799  1.00  0.00     0.134 A 
ATOM     68  F   UNL A   1      37.804  34.472  29.106  1.00  0.00    -0.206 F 
ATOM     69  C   UNL A   1      35.510  34.691  28.670  1.00  0.00     0.040 A 
ATOM     70  C   UNL A   1      33.906  33.519  30.030  1.00  0.00     0.040 A 
ATOM     71  F   UNL A   1      34.629  32.191  31.823  1.00  0.00    -0.206 F 
ATOM     72  C   UNL A   1      34.186  34.375  28.967  1.00  0.00     0.006 A 
ENDBRANCH  51  65
BRANCH  52  73
ATOM     73  C   UNL A   1      43.907  29.180  35.520  1.00  0.00     0.057 A 
ATOM     74  C   UNL A   1      45.212  29.637  35.300  1.00  0.00     0.134 A 
ATOM     75  C   UNL A   1      43.735  28.150  36.453  1.00  0.00     0.134 A 
ATOM     76  F   UNL A   1      45.445  30.609  34.408  1.00  0.00    -0.206 F 
ATOM     77  C   UNL A   1      46.306  29.074  35.961  1.00  0.00     0.040 A 
ATOM     78  C   UNL A   1      44.815  27.598  37.142  1.00  0.00     0.040 A 
ATOM     79  F   UNL A   1      42.509  27.674  36.718  1.00  0.00    -0.206 F 
ATOM     80  C   UNL A   1      46.107  28.054  36.889  1.00  0.00     0.006 A 
ENDBRANCH  52  73
BRANCH  64  81
ATOM     81  C   UNL A   1      39.450  34.348  36.913  1.00  0.00     0.057 A 
ATOM     82  C   UNL A   1      38.788  33.925  38.073  1.00  0.00     0.134 A 
ATOM     83  C   UNL A   1      39.991  35.641  36.912  1.00  0.00     0.134 A 
ATOM     84  F   UNL A   1      38.237  32.704  38.135  1.00  0.00    -0.206 F 
ATOM     85  C   UNL A   1      38.649  34.765  39.180  1.00  0.00     0.040 A 
ATOM     86  C   UNL A   1      39.887  36.478  38.023  1.00  0.00     0.040 A 
ATOM     87  F   UNL A   1      40.646  36.105  35.837  1.00  0.00    -0.206 F 
ATOM     88  C   UNL A   1      39.207  36.043  39.159  1.00  0.00     0.006 A 
ENDBRANCH  64  81
ENDBRANCH  38  39
ENDBRANCH  30  33
ENDBRANCH  28  29
ENDBRANCH  27  28
ENDBRANCH   1  27
TORSDOF 16
ENDMDL
MODEL 3
REMARK VINA RESULT:     -10.9      2.409      3.678
REMARK SMILES CO[C@@H]1C[C@H](C(=O)NCCCNC(=O)c2ccc(-c3c4nc(c(-c5c(F)cccc5F)c5ccc([nH]5)c(-c5c(F)cccc5F)c5nc(c(-c6c(F)cccc6F)c6ccc3[nH]6)C=C5)C=C4)cc2)N(C(=O)[C@H](CC(C)C)NC(N)=O)C1
REMARK SMILES IDX 9 1 8 2 6 3 7 4 5 6 3 7 4 8 81 9 69 10 2 11 1 12 70 13 71 14
REMARK SMILES IDX 72 15 77 16 78 17 79 19 80 20 73 23 74 24 75 25 76 26 10 27
REMARK SMILES IDX 11 28 12 29 13 30 14 32 15 33 16 34 68 35 17 36 67 37 18 38
REMARK SMILES IDX 19 39 20 40 61 41 21 42 66 43 60 44 62 45 22 46 65 47 59 48
REMARK SMILES IDX 58 49 23 51 49 52 32 53 48 54 33 55 36 56 47 57 63 58 34 59
REMARK SMILES IDX 35 60 46 62 64 63 37 64 24 65 25 66 30 67 26 68 27 69 29 70
REMARK SMILES IDX 31 71 28 72 50 73 51 74 56 75 52 76 53 77 55 78 57 79 54 80
REMARK SMILES IDX 38 81 39 82 44 83 40 84 41 85 43 86 45 87 42 88
REMARK H PARENT 8 5 77 18 79 21 79 22 12 31 62 50 36 61
REMARK Flexibility Score: inf
ROOT
ATOM      1  C   UNL A   1      33.701  30.062  27.009  1.00  0.00     0.117 C 
ENDROOT
BRANCH   1   2
ATOM      2  N   UNL A   1      32.774  29.228  27.744  1.00  0.00    -0.354 N 
ATOM      3  C   UNL A   1      32.078  28.121  27.376  1.00  0.00     0.242 C 
ATOM      4  O   UNL A   1      31.109  27.844  28.092  1.00  0.00    -0.273 OA
ATOM      5  H   UNL A   1      32.621  29.513  28.673  1.00  0.00     0.163 HD
BRANCH   3   6
ATOM      6  C   UNL A   1      32.341  27.291  26.091  1.00  0.00     0.177 C 
ATOM      7  C   UNL A   1      31.298  25.099  25.663  1.00  0.00     0.139 C 
ATOM      8  C   UNL A   1      32.483  25.790  26.349  1.00  0.00     0.069 C 
ATOM      9  C   UNL A   1      30.671  26.162  24.757  1.00  0.00     0.152 C 
ATOM     10  N   UNL A   1      31.356  27.411  25.022  1.00  0.00    -0.326 N 
BRANCH   7  11
ATOM     11  O   UNL A   1      30.418  24.620  26.676  1.00  0.00    -0.380 OA
ATOM     12  C   UNL A   1      30.323  23.203  26.748  1.00  0.00     0.195 C 
ENDBRANCH   7  11
BRANCH  10  13
ATOM     13  C   UNL A   1      31.082  28.513  24.235  1.00  0.00     0.246 C 
ATOM     14  O   UNL A   1      30.648  29.533  24.777  1.00  0.00    -0.272 OA
BRANCH  13  15
ATOM     15  C   UNL A   1      31.408  28.470  22.716  1.00  0.00     0.173 C 
BRANCH  15  16
ATOM     16  N   UNL A   1      31.004  29.699  22.030  1.00  0.00    -0.327 N 
ATOM     17  C   UNL A   1      29.699  29.958  21.737  1.00  0.00     0.312 C 
ATOM     18  H   UNL A   1      31.692  30.354  21.775  1.00  0.00     0.166 HD
ATOM     19  N   UNL A   1      29.495  31.205  21.252  1.00  0.00    -0.352 N 
ATOM     20  O   UNL A   1      28.769  29.196  21.932  1.00  0.00    -0.249 OA
ATOM     21  H   UNL A   1      30.260  31.806  21.103  1.00  0.00     0.161 HD
ATOM     22  H   UNL A   1      28.582  31.511  21.050  1.00  0.00     0.161 HD
ENDBRANCH  15  16
BRANCH  15  23
ATOM     23  C   UNL A   1      32.873  28.106  22.383  1.00  0.00     0.038 C 
BRANCH  23  24
ATOM     24  C   UNL A   1      33.202  26.690  21.843  1.00  0.00    -0.015 C 
ATOM     25  C   UNL A   1      33.820  25.744  22.872  1.00  0.00     0.007 C 
ATOM     26  C   UNL A   1      31.908  26.044  21.320  1.00  0.00     0.007 C 
ENDBRANCH  23  24
ENDBRANCH  15  23
ENDBRANCH  13  15
ENDBRANCH  10  13
ENDBRANCH   3   6
ENDBRANCH   1   2
BRANCH   1  27
ATOM     27  C   UNL A   1      32.971  31.207  26.308  1.00  0.00     0.042 C 
BRANCH  27  28
ATOM     28  C   UNL A   1      32.035  31.978  27.224  1.00  0.00     0.118 C 
BRANCH  28  29
ATOM     29  N   UNL A   1      32.415  33.384  27.324  1.00  0.00    -0.352 N 
ATOM     30  C   UNL A   1      33.402  34.023  28.033  1.00  0.00     0.251 C 
ATOM     31  H   UNL A   1      31.858  33.988  26.781  1.00  0.00     0.163 HD
ATOM     32  O   UNL A   1      33.338  35.244  28.162  1.00  0.00    -0.269 OA
BRANCH  30  33
ATOM     33  C   UNL A   1      34.533  33.289  28.646  1.00  0.00     0.039 A 
ATOM     34  C   UNL A   1      35.818  33.457  28.115  1.00  0.00     0.014 A 
ATOM     35  C   UNL A   1      34.344  32.382  29.688  1.00  0.00     0.014 A 
ATOM     36  C   UNL A   1      36.902  32.764  28.661  1.00  0.00     0.010 A 
ATOM     37  C   UNL A   1      35.436  31.794  30.314  1.00  0.00     0.010 A 
ATOM     38  C   UNL A   1      36.728  31.954  29.794  1.00  0.00    -0.014 A 
BRANCH  38  39
ATOM     39  C   UNL A   1      37.858  31.229  30.428  1.00  0.00     0.031 A 
ATOM     40  C   UNL A   1      38.247  31.538  31.850  1.00  0.00     0.074 A 
ATOM     41  C   UNL A   1      38.583  30.352  29.704  1.00  0.00     0.049 A 
ATOM     42  N   UNL A   1      39.269  31.104  32.544  1.00  0.00    -0.248 NA
ATOM     43  C   UNL A   1      37.396  32.493  32.580  1.00  0.00     0.031 C 
ATOM     44  C   UNL A   1      38.339  30.001  28.304  1.00  0.00     0.029 A 
ATOM     45  N   UNL A   1      39.682  29.605  30.046  1.00  0.00    -0.354 N 
ATOM     46  C   UNL A   1      39.196  31.753  33.771  1.00  0.00     0.074 A 
ATOM     47  C   UNL A   1      38.073  32.659  33.705  1.00  0.00     0.031 C 
ATOM     48  C   UNL A   1      39.243  29.088  27.915  1.00  0.00     0.029 A 
ATOM     49  C   UNL A   1      40.159  28.825  29.020  1.00  0.00     0.049 A 
ATOM     50  H   UNL A   1      40.092  29.627  30.941  1.00  0.00     0.167 HD
ATOM     51  C   UNL A   1      39.977  31.590  34.867  1.00  0.00     0.037 A 
ATOM     52  C   UNL A   1      41.222  28.000  28.971  1.00  0.00     0.037 A 
ATOM     53  C   UNL A   1      41.073  30.661  34.939  1.00  0.00     0.049 A 
ATOM     54  C   UNL A   1      42.075  27.837  30.199  1.00  0.00     0.074 A 
ATOM     55  C   UNL A   1      41.888  30.371  36.018  1.00  0.00     0.029 A 
ATOM     56  N   UNL A   1      41.506  29.870  33.885  1.00  0.00    -0.354 N 
ATOM     57  N   UNL A   1      41.956  28.410  31.372  1.00  0.00    -0.248 NA
ATOM     58  C   UNL A   1      43.210  26.908  30.097  1.00  0.00     0.031 C 
ATOM     59  C   UNL A   1      42.847  29.443  35.603  1.00  0.00     0.029 A 
ATOM     60  C   UNL A   1      42.592  29.108  34.283  1.00  0.00     0.049 A 
ATOM     61  H   UNL A   1      41.102  29.852  32.987  1.00  0.00     0.167 HD
ATOM     62  C   UNL A   1      42.975  27.886  32.157  1.00  0.00     0.074 A 
ATOM     63  C   UNL A   1      43.694  26.940  31.330  1.00  0.00     0.031 C 
ATOM     64  C   UNL A   1      43.287  28.161  33.447  1.00  0.00     0.037 A 
BRANCH  51  65
ATOM     65  C   UNL A   1      39.667  32.430  36.074  1.00  0.00     0.057 A 
ATOM     66  C   UNL A   1      38.690  32.057  37.008  1.00  0.00     0.134 A 
ATOM     67  C   UNL A   1      40.375  33.613  36.322  1.00  0.00     0.134 A 
ATOM     68  F   UNL A   1      37.967  30.942  36.827  1.00  0.00    -0.206 F 
ATOM     69  C   UNL A   1      38.405  32.845  38.125  1.00  0.00     0.040 A 
ATOM     70  C   UNL A   1      40.121  34.394  37.453  1.00  0.00     0.040 A 
ATOM     71  F   UNL A   1      41.329  34.029  35.475  1.00  0.00    -0.206 F 
ATOM     72  C   UNL A   1      39.128  34.014  38.353  1.00  0.00     0.006 A 
ENDBRANCH  51  65
BRANCH  52  73
ATOM     73  C   UNL A   1      41.526  27.247  27.727  1.00  0.00     0.057 A 
ATOM     74  C   UNL A   1      42.290  27.823  26.705  1.00  0.00     0.134 A 
ATOM     75  C   UNL A   1      41.058  25.944  27.523  1.00  0.00     0.134 A 
ATOM     76  F   UNL A   1      42.755  29.073  26.832  1.00  0.00    -0.206 F 
ATOM     77  C   UNL A   1      42.554  27.140  25.515  1.00  0.00     0.040 A 
ATOM     78  C   UNL A   1      41.338  25.239  26.352  1.00  0.00     0.040 A 
ATOM     79  F   UNL A   1      40.329  25.330  28.468  1.00  0.00    -0.206 F 
ATOM     80  C   UNL A   1      42.081  25.842  25.339  1.00  0.00     0.006 A 
ENDBRANCH  52  73
BRANCH  64  81
ATOM     81  C   UNL A   1      44.424  27.395  34.060  1.00  0.00     0.057 A 
ATOM     82  C   UNL A   1      44.242  26.135  34.644  1.00  0.00     0.134 A 
ATOM     83  C   UNL A   1      45.726  27.912  34.027  1.00  0.00     0.134 A 
ATOM     84  F   UNL A   1      43.020  25.589  34.719  1.00  0.00    -0.206 F 
ATOM     85  C   UNL A   1      45.312  25.428  35.197  1.00  0.00     0.040 A 
ATOM     86  C   UNL A   1      46.808  27.200  34.546  1.00  0.00     0.040 A 
ATOM     87  F   UNL A   1      45.971  29.108  33.472  1.00  0.00    -0.206 F 
ATOM     88  C   UNL A   1      46.600  25.958  35.141  1.00  0.00     0.006 A 
ENDBRANCH  64  81
ENDBRANCH  38  39
ENDBRANCH  30  33
ENDBRANCH  28  29
ENDBRANCH  27  28
ENDBRANCH   1  27
TORSDOF 16
ENDMDL
