MODEL 1
REMARK VINA RESULT:     -11.0      0.000      0.000
REMARK SMILES Cc1nc(C(F)(F)F)c(C(=O)NCCCNC(=O)c2ccc(-c3c4nc(c(-c5c(F)cccc5F)c5ccc([nH]5)c(-c5c(F)cccc5F)c5nc(c(-c6c(F)cccc6F)c6ccc3[nH]6)C=C5)C=C4)cc2)s1
REMARK SMILES IDX 14 1 13 2 12 3 10 4 11 5 9 7 1 8 2 9 3 10 73 11 4 12 5 13
REMARK SMILES IDX 6 14 7 15 8 16 15 17 16 18 17 19 18 21 19 22 20 23 72 24
REMARK SMILES IDX 21 25 71 26 22 27 23 28 24 29 65 30 25 31 70 32 64 33 66 34
REMARK SMILES IDX 26 35 69 36 63 37 62 38 27 40 53 41 36 42 52 43 37 44 40 45
REMARK SMILES IDX 51 46 67 47 38 48 39 49 50 51 68 52 41 53 28 54 29 55 34 56
REMARK SMILES IDX 30 57 31 58 33 59 35 60 32 61 54 62 55 63 60 64 56 65 57 66
REMARK SMILES IDX 59 67 61 68 58 69 42 70 43 71 48 72 44 73 45 74 47 75 49 76
REMARK SMILES IDX 46 77
REMARK H PARENT 12 6 16 20 66 39 40 50
REMARK Flexibility Score: inf
ROOT
ATOM      1  C   UNL A   1      37.739  19.823  25.001  1.00  0.00     0.042 C 
ENDROOT
BRANCH   1   2
ATOM      2  C   UNL A   1      36.722  20.942  24.793  1.00  0.00     0.118 C 
BRANCH   2   3
ATOM      3  N   UNL A   1      35.986  21.209  26.001  1.00  0.00    -0.351 N 
ATOM      4  C   UNL A   1      34.683  21.454  26.324  1.00  0.00     0.263 C 
ATOM      5  O   UNL A   1      34.547  21.567  27.551  1.00  0.00    -0.268 OA
ATOM      6  H   UNL A   1      36.570  21.214  26.794  1.00  0.00     0.163 HD
BRANCH   4   7
ATOM      7  C   UNL A   1      33.544  21.564  25.410  1.00  0.00     0.124 A 
ATOM      8  C   UNL A   1      30.891  23.749  23.500  1.00  0.00     0.079 C 
ATOM      9  C   UNL A   1      31.784  22.744  24.133  1.00  0.00     0.091 A 
ATOM     10  N   UNL A   1      31.781  21.472  23.843  1.00  0.00    -0.236 NA
ATOM     11  S   UNL A   1      32.916  23.206  25.305  1.00  0.00    -0.113 S 
ATOM     12  C   UNL A   1      32.790  20.771  24.536  1.00  0.00     0.168 A 
BRANCH  12  13
ATOM     13  C   UNL A   1      32.890  19.322  24.168  1.00  0.00     0.435 C 
ATOM     14  F   UNL A   1      32.154  18.532  24.984  1.00  0.00    -0.164 F 
ATOM     15  F   UNL A   1      32.496  19.082  22.890  1.00  0.00    -0.164 F 
ATOM     16  F   UNL A   1      34.163  18.845  24.251  1.00  0.00    -0.164 F 
ENDBRANCH  12  13
ENDBRANCH   4   7
ENDBRANCH   2   3
ENDBRANCH   1   2
BRANCH   1  17
ATOM     17  C   UNL A   1      38.947  20.261  25.820  1.00  0.00     0.118 C 
BRANCH  17  18
ATOM     18  N   UNL A   1      39.954  19.208  25.894  1.00  0.00    -0.352 N 
ATOM     19  C   UNL A   1      41.321  19.294  26.005  1.00  0.00     0.251 C 
ATOM     20  H   UNL A   1      39.599  18.291  25.858  1.00  0.00     0.163 HD
ATOM     21  O   UNL A   1      42.013  18.307  25.783  1.00  0.00    -0.269 OA
BRANCH  19  22
ATOM     22  C   UNL A   1      41.958  20.573  26.382  1.00  0.00     0.039 A 
ATOM     23  C   UNL A   1      42.355  21.459  25.376  1.00  0.00     0.014 A 
ATOM     24  C   UNL A   1      42.181  20.890  27.723  1.00  0.00     0.014 A 
ATOM     25  C   UNL A   1      42.902  22.697  25.721  1.00  0.00     0.010 A 
ATOM     26  C   UNL A   1      42.638  22.156  28.067  1.00  0.00     0.010 A 
ATOM     27  C   UNL A   1      43.003  23.073  27.070  1.00  0.00    -0.014 A 
BRANCH  27  28
ATOM     28  C   UNL A   1      43.475  24.420  27.473  1.00  0.00     0.031 A 
ATOM     29  C   UNL A   1      42.485  25.464  27.909  1.00  0.00     0.074 A 
ATOM     30  C   UNL A   1      44.781  24.730  27.351  1.00  0.00     0.049 A 
ATOM     31  N   UNL A   1      42.679  26.731  28.169  1.00  0.00    -0.248 NA
ATOM     32  C   UNL A   1      41.084  25.032  28.037  1.00  0.00     0.031 C 
ATOM     33  C   UNL A   1      45.830  23.815  26.899  1.00  0.00     0.029 A 
ATOM     34  N   UNL A   1      45.446  25.909  27.579  1.00  0.00    -0.354 N 
ATOM     35  C   UNL A   1      41.427  27.249  28.472  1.00  0.00     0.074 A 
ATOM     36  C   UNL A   1      40.472  26.175  28.310  1.00  0.00     0.031 C 
ATOM     37  C   UNL A   1      47.007  24.460  26.898  1.00  0.00     0.029 A 
ATOM     38  C   UNL A   1      46.790  25.845  27.301  1.00  0.00     0.049 A 
ATOM     39  H   UNL A   1      45.001  26.722  27.910  1.00  0.00     0.167 HD
ATOM     40  C   UNL A   1      41.105  28.503  28.871  1.00  0.00     0.037 A 
ATOM     41  C   UNL A   1      47.736  26.802  27.344  1.00  0.00     0.037 A 
ATOM     42  C   UNL A   1      42.066  29.561  29.050  1.00  0.00     0.049 A 
ATOM     43  C   UNL A   1      47.348  28.193  27.761  1.00  0.00     0.074 A 
ATOM     44  C   UNL A   1      41.853  30.848  29.509  1.00  0.00     0.029 A 
ATOM     45  N   UNL A   1      43.420  29.453  28.769  1.00  0.00    -0.354 N 
ATOM     46  N   UNL A   1      46.171  28.654  28.111  1.00  0.00    -0.248 NA
ATOM     47  C   UNL A   1      48.419  29.200  27.789  1.00  0.00     0.031 C 
ATOM     48  C   UNL A   1      43.068  31.536  29.455  1.00  0.00     0.029 A 
ATOM     49  C   UNL A   1      44.049  30.661  29.017  1.00  0.00     0.049 A 
ATOM     50  H   UNL A   1      43.866  28.639  28.443  1.00  0.00     0.167 HD
ATOM     51  C   UNL A   1      46.364  29.993  28.426  1.00  0.00     0.074 A 
ATOM     52  C   UNL A   1      47.774  30.267  28.239  1.00  0.00     0.031 C 
ATOM     53  C   UNL A   1      45.457  30.914  28.831  1.00  0.00     0.037 A 
BRANCH  40  54
ATOM     54  C   UNL A   1      39.657  28.798  29.139  1.00  0.00     0.057 A 
ATOM     55  C   UNL A   1      39.098  28.661  30.417  1.00  0.00     0.134 A 
ATOM     56  C   UNL A   1      38.820  29.258  28.116  1.00  0.00     0.134 A 
ATOM     57  F   UNL A   1      39.842  28.214  31.441  1.00  0.00    -0.206 F 
ATOM     58  C   UNL A   1      37.753  28.942  30.661  1.00  0.00     0.040 A 
ATOM     59  C   UNL A   1      37.481  29.573  28.353  1.00  0.00     0.040 A 
ATOM     60  F   UNL A   1      39.290  29.419  26.869  1.00  0.00    -0.206 F 
ATOM     61  C   UNL A   1      36.941  29.408  29.627  1.00  0.00     0.006 A 
ENDBRANCH  40  54
BRANCH  41  62
ATOM     62  C   UNL A   1      49.141  26.477  26.989  1.00  0.00     0.057 A 
ATOM     63  C   UNL A   1      49.605  26.624  25.676  1.00  0.00     0.134 A 
ATOM     64  C   UNL A   1      50.051  26.009  27.944  1.00  0.00     0.134 A 
ATOM     65  F   UNL A   1      48.777  27.052  24.711  1.00  0.00    -0.206 F 
ATOM     66  C   UNL A   1      50.915  26.297  25.322  1.00  0.00     0.040 A 
ATOM     67  C   UNL A   1      51.371  25.705  27.610  1.00  0.00     0.040 A 
ATOM     68  F   UNL A   1      49.673  25.854  29.221  1.00  0.00    -0.206 F 
ATOM     69  C   UNL A   1      51.804  25.841  26.292  1.00  0.00     0.006 A 
ENDBRANCH  41  62
BRANCH  53  70
ATOM     70  C   UNL A   1      45.961  32.295  29.131  1.00  0.00     0.057 A 
ATOM     71  C   UNL A   1      45.961  33.308  28.164  1.00  0.00     0.134 A 
ATOM     72  C   UNL A   1      46.397  32.629  30.420  1.00  0.00     0.134 A 
ATOM     73  F   UNL A   1      45.568  33.049  26.907  1.00  0.00    -0.206 F 
ATOM     74  C   UNL A   1      46.393  34.601  28.464  1.00  0.00     0.040 A 
ATOM     75  C   UNL A   1      46.804  33.924  30.739  1.00  0.00     0.040 A 
ATOM     76  F   UNL A   1      46.414  31.707  31.394  1.00  0.00    -0.206 F 
ATOM     77  C   UNL A   1      46.807  34.914  29.758  1.00  0.00     0.006 A 
ENDBRANCH  53  70
ENDBRANCH  27  28
ENDBRANCH  19  22
ENDBRANCH  17  18
ENDBRANCH   1  17
TORSDOF 11
ENDMDL
MODEL 2
REMARK VINA RESULT:     -11.0      1.395      1.885
REMARK SMILES Cc1nc(C(F)(F)F)c(C(=O)NCCCNC(=O)c2ccc(-c3c4nc(c(-c5c(F)cccc5F)c5ccc([nH]5)c(-c5c(F)cccc5F)c5nc(c(-c6c(F)cccc6F)c6ccc3[nH]6)C=C5)C=C4)cc2)s1
REMARK SMILES IDX 14 1 13 2 12 3 10 4 11 5 9 7 1 8 2 9 3 10 73 11 4 12 5 13
REMARK SMILES IDX 6 14 7 15 8 16 15 17 16 18 17 19 18 21 19 22 20 23 72 24
REMARK SMILES IDX 21 25 71 26 22 27 23 28 24 29 65 30 25 31 70 32 64 33 66 34
REMARK SMILES IDX 26 35 69 36 63 37 62 38 27 40 53 41 36 42 52 43 37 44 40 45
REMARK SMILES IDX 51 46 67 47 38 48 39 49 50 51 68 52 41 53 28 54 29 55 34 56
REMARK SMILES IDX 30 57 31 58 33 59 35 60 32 61 54 62 55 63 60 64 56 65 57 66
REMARK SMILES IDX 59 67 61 68 58 69 42 70 43 71 48 72 44 73 45 74 47 75 49 76
REMARK SMILES IDX 46 77
REMARK H PARENT 12 6 16 20 66 39 40 50
REMARK Flexibility Score: inf
ROOT
ATOM      1  C   UNL A   1      37.827  19.768  25.001  1.00  0.00     0.042 C 
ENDROOT
BRANCH   1   2
ATOM      2  C   UNL A   1      36.688  20.784  25.001  1.00  0.00     0.118 C 
BRANCH   2   3
ATOM      3  N   UNL A   1      35.418  20.143  25.221  1.00  0.00    -0.351 N 
ATOM      4  C   UNL A   1      34.105  20.501  25.122  1.00  0.00     0.263 C 
ATOM      5  O   UNL A   1      33.364  19.540  25.375  1.00  0.00    -0.268 OA
ATOM      6  H   UNL A   1      35.523  19.209  25.516  1.00  0.00     0.163 HD
BRANCH   4   7
ATOM      7  C   UNL A   1      33.566  21.813  24.756  1.00  0.00     0.124 A 
ATOM      8  C   UNL A   1      30.747  24.018  23.126  1.00  0.00     0.079 C 
ATOM      9  C   UNL A   1      31.924  23.381  23.771  1.00  0.00     0.091 A 
ATOM     10  N   UNL A   1      32.883  24.039  24.363  1.00  0.00    -0.236 NA
ATOM     11  S   UNL A   1      32.096  21.696  23.792  1.00  0.00    -0.113 S 
ATOM     12  C   UNL A   1      33.825  23.174  24.959  1.00  0.00     0.168 A 
BRANCH  12  13
ATOM     13  C   UNL A   1      34.897  23.879  25.733  1.00  0.00     0.435 C 
ATOM     14  F   UNL A   1      36.048  23.996  25.028  1.00  0.00    -0.164 F 
ATOM     15  F   UNL A   1      34.520  25.124  26.126  1.00  0.00    -0.164 F 
ATOM     16  F   UNL A   1      35.236  23.223  26.878  1.00  0.00    -0.164 F 
ENDBRANCH  12  13
ENDBRANCH   4   7
ENDBRANCH   2   3
ENDBRANCH   1   2
BRANCH   1  17
ATOM     17  C   UNL A   1      39.060  20.257  25.750  1.00  0.00     0.118 C 
BRANCH  17  18
ATOM     18  N   UNL A   1      40.048  19.194  25.908  1.00  0.00    -0.352 N 
ATOM     19  C   UNL A   1      41.410  19.265  26.064  1.00  0.00     0.251 C 
ATOM     20  H   UNL A   1      39.679  18.281  25.901  1.00  0.00     0.163 HD
ATOM     21  O   UNL A   1      42.094  18.259  25.912  1.00  0.00    -0.269 OA
BRANCH  19  22
ATOM     22  C   UNL A   1      42.054  20.550  26.406  1.00  0.00     0.039 A 
ATOM     23  C   UNL A   1      42.486  21.391  25.376  1.00  0.00     0.014 A 
ATOM     24  C   UNL A   1      42.250  20.917  27.738  1.00  0.00     0.014 A 
ATOM     25  C   UNL A   1      43.040  22.635  25.685  1.00  0.00     0.010 A 
ATOM     26  C   UNL A   1      42.716  22.190  28.043  1.00  0.00     0.010 A 
ATOM     27  C   UNL A   1      43.115  23.063  27.021  1.00  0.00    -0.014 A 
BRANCH  27  28
ATOM     28  C   UNL A   1      43.594  24.420  27.382  1.00  0.00     0.031 A 
ATOM     29  C   UNL A   1      42.613  25.470  27.823  1.00  0.00     0.074 A 
ATOM     30  C   UNL A   1      44.895  24.730  27.217  1.00  0.00     0.049 A 
ATOM     31  N   UNL A   1      42.811  26.743  28.050  1.00  0.00    -0.248 NA
ATOM     32  C   UNL A   1      41.217  25.038  27.999  1.00  0.00     0.031 C 
ATOM     33  C   UNL A   1      45.934  23.808  26.755  1.00  0.00     0.029 A 
ATOM     34  N   UNL A   1      45.562  25.915  27.401  1.00  0.00    -0.354 N 
ATOM     35  C   UNL A   1      41.566  27.264  28.377  1.00  0.00     0.074 A 
ATOM     36  C   UNL A   1      40.611  26.185  28.264  1.00  0.00     0.031 C 
ATOM     37  C   UNL A   1      47.108  24.455  26.708  1.00  0.00     0.029 A 
ATOM     38  C   UNL A   1      46.898  25.848  27.087  1.00  0.00     0.049 A 
ATOM     39  H   UNL A   1      45.125  26.734  27.727  1.00  0.00     0.167 HD
ATOM     40  C   UNL A   1      41.252  28.526  28.758  1.00  0.00     0.037 A 
ATOM     41  C   UNL A   1      47.843  26.807  27.084  1.00  0.00     0.037 A 
ATOM     42  C   UNL A   1      42.214  29.590  28.887  1.00  0.00     0.049 A 
ATOM     43  C   UNL A   1      47.463  28.207  27.482  1.00  0.00     0.074 A 
ATOM     44  C   UNL A   1      42.011  30.886  29.325  1.00  0.00     0.029 A 
ATOM     45  N   UNL A   1      43.561  29.479  28.572  1.00  0.00    -0.354 N 
ATOM     46  N   UNL A   1      46.295  28.672  27.855  1.00  0.00    -0.248 NA
ATOM     47  C   UNL A   1      48.531  29.216  27.458  1.00  0.00     0.031 C 
ATOM     48  C   UNL A   1      43.222  31.575  29.223  1.00  0.00     0.029 A 
ATOM     49  C   UNL A   1      44.193  30.693  28.776  1.00  0.00     0.049 A 
ATOM     50  H   UNL A   1      44.000  28.659  28.250  1.00  0.00     0.167 HD
ATOM     51  C   UNL A   1      46.493  30.018  28.135  1.00  0.00     0.074 A 
ATOM     52  C   UNL A   1      47.896  30.291  27.903  1.00  0.00     0.031 C 
ATOM     53  C   UNL A   1      45.594  30.945  28.546  1.00  0.00     0.037 A 
BRANCH  40  54
ATOM     54  C   UNL A   1      39.812  28.824  29.060  1.00  0.00     0.057 A 
ATOM     55  C   UNL A   1      38.911  29.213  28.059  1.00  0.00     0.134 A 
ATOM     56  C   UNL A   1      39.310  28.686  30.360  1.00  0.00     0.134 A 
ATOM     57  F   UNL A   1      39.327  29.376  26.794  1.00  0.00    -0.206 F 
ATOM     58  C   UNL A   1      37.571  29.483  28.346  1.00  0.00     0.040 A 
ATOM     59  C   UNL A   1      37.966  28.922  30.654  1.00  0.00     0.040 A 
ATOM     60  F   UNL A   1      40.115  28.310  31.366  1.00  0.00    -0.206 F 
ATOM     61  C   UNL A   1      37.094  29.329  29.647  1.00  0.00     0.006 A 
ENDBRANCH  40  54
BRANCH  41  62
ATOM     62  C   UNL A   1      49.238  26.478  26.697  1.00  0.00     0.057 A 
ATOM     63  C   UNL A   1      49.684  26.661  25.382  1.00  0.00     0.134 A 
ATOM     64  C   UNL A   1      50.158  25.970  27.622  1.00  0.00     0.134 A 
ATOM     65  F   UNL A   1      48.846  27.128  24.444  1.00  0.00    -0.206 F 
ATOM     66  C   UNL A   1      50.984  26.331  24.997  1.00  0.00     0.040 A 
ATOM     67  C   UNL A   1      51.469  25.662  27.259  1.00  0.00     0.040 A 
ATOM     68  F   UNL A   1      49.797  25.779  28.900  1.00  0.00    -0.206 F 
ATOM     69  C   UNL A   1      51.883  25.835  25.939  1.00  0.00     0.006 A 
ENDBRANCH  41  62
BRANCH  53  70
ATOM     70  C   UNL A   1      46.102  32.334  28.803  1.00  0.00     0.057 A 
ATOM     71  C   UNL A   1      46.090  33.320  27.810  1.00  0.00     0.134 A 
ATOM     72  C   UNL A   1      46.556  32.702  30.076  1.00  0.00     0.134 A 
ATOM     73  F   UNL A   1      45.680  33.028  26.565  1.00  0.00    -0.206 F 
ATOM     74  C   UNL A   1      46.526  34.620  28.069  1.00  0.00     0.040 A 
ATOM     75  C   UNL A   1      46.967  34.004  30.355  1.00  0.00     0.040 A 
ATOM     76  F   UNL A   1      46.585  31.805  31.074  1.00  0.00    -0.206 F 
ATOM     77  C   UNL A   1      46.957  34.967  29.348  1.00  0.00     0.006 A 
ENDBRANCH  53  70
ENDBRANCH  27  28
ENDBRANCH  19  22
ENDBRANCH  17  18
ENDBRANCH   1  17
TORSDOF 11
ENDMDL
MODEL 3
REMARK VINA RESULT:     -11.0      1.927      6.818
REMARK SMILES Cc1nc(C(F)(F)F)c(C(=O)NCCCNC(=O)c2ccc(-c3c4nc(c(-c5c(F)cccc5F)c5ccc([nH]5)c(-c5c(F)cccc5F)c5nc(c(-c6c(F)cccc6F)c6ccc3[nH]6)C=C5)C=C4)cc2)s1
REMARK SMILES IDX 14 1 13 2 12 3 10 4 11 5 9 7 1 8 2 9 3 10 73 11 4 12 5 13
REMARK SMILES IDX 6 14 7 15 8 16 15 17 16 18 17 19 18 21 19 22 20 23 72 24
REMARK SMILES IDX 21 25 71 26 22 27 23 28 24 29 65 30 25 31 70 32 64 33 66 34
REMARK SMILES IDX 26 35 69 36 63 37 62 38 27 40 53 41 36 42 52 43 37 44 40 45
REMARK SMILES IDX 51 46 67 47 38 48 39 49 50 51 68 52 41 53 28 54 29 55 34 56
REMARK SMILES IDX 30 57 31 58 33 59 35 60 32 61 54 62 55 63 60 64 56 65 57 66
REMARK SMILES IDX 59 67 61 68 58 69 42 70 43 71 48 72 44 73 45 74 47 75 49 76
REMARK SMILES IDX 46 77
REMARK H PARENT 12 6 16 20 66 39 40 50
REMARK Flexibility Score: inf
ROOT
ATOM      1  C   UNL A   1      37.838  19.569  24.926  1.00  0.00     0.042 C 
ENDROOT
BRANCH   1   2
ATOM      2  C   UNL A   1      36.562  20.403  24.992  1.00  0.00     0.118 C 
BRANCH   2   3
ATOM      3  N   UNL A   1      35.391  19.574  24.882  1.00  0.00    -0.351 N 
ATOM      4  C   UNL A   1      34.042  19.777  24.841  1.00  0.00     0.263 C 
ATOM      5  O   UNL A   1      33.439  18.707  24.675  1.00  0.00    -0.268 OA
ATOM      6  H   UNL A   1      35.621  18.619  24.818  1.00  0.00     0.163 HD
BRANCH   4   7
ATOM      7  C   UNL A   1      33.331  21.053  24.951  1.00  0.00     0.124 A 
ATOM      8  C   UNL A   1      30.765  23.672  23.528  1.00  0.00     0.079 C 
ATOM      9  C   UNL A   1      31.772  22.835  24.231  1.00  0.00     0.091 A 
ATOM     10  N   UNL A   1      32.253  23.102  25.414  1.00  0.00    -0.236 NA
ATOM     11  S   UNL A   1      32.373  21.420  23.519  1.00  0.00    -0.113 S 
ATOM     12  C   UNL A   1      33.127  22.092  25.867  1.00  0.00     0.168 A 
BRANCH  12  13
ATOM     13  C   UNL A   1      33.634  22.304  27.261  1.00  0.00     0.435 C 
ATOM     14  F   UNL A   1      34.182  23.531  27.429  1.00  0.00    -0.164 F 
ATOM     15  F   UNL A   1      32.661  22.151  28.197  1.00  0.00    -0.164 F 
ATOM     16  F   UNL A   1      34.611  21.419  27.605  1.00  0.00    -0.164 F 
ENDBRANCH  12  13
ENDBRANCH   4   7
ENDBRANCH   2   3
ENDBRANCH   1   2
BRANCH   1  17
ATOM     17  C   UNL A   1      38.991  20.181  25.712  1.00  0.00     0.118 C 
BRANCH  17  18
ATOM     18  N   UNL A   1      40.095  19.239  25.865  1.00  0.00    -0.352 N 
ATOM     19  C   UNL A   1      41.427  19.466  26.112  1.00  0.00     0.251 C 
ATOM     20  H   UNL A   1      39.847  18.291  25.777  1.00  0.00     0.163 HD
ATOM     21  O   UNL A   1      42.240  18.564  25.941  1.00  0.00    -0.269 OA
BRANCH  19  22
ATOM     22  C   UNL A   1      41.883  20.793  26.574  1.00  0.00     0.039 A 
ATOM     23  C   UNL A   1      42.361  21.714  25.637  1.00  0.00     0.014 A 
ATOM     24  C   UNL A   1      41.857  21.123  27.930  1.00  0.00     0.014 A 
ATOM     25  C   UNL A   1      42.737  22.993  26.054  1.00  0.00     0.010 A 
ATOM     26  C   UNL A   1      42.143  22.422  28.331  1.00  0.00     0.010 A 
ATOM     27  C   UNL A   1      42.585  23.371  27.397  1.00  0.00    -0.014 A 
BRANCH  27  28
ATOM     28  C   UNL A   1      42.869  24.752  27.858  1.00  0.00     0.031 A 
ATOM     29  C   UNL A   1      44.266  25.140  28.254  1.00  0.00     0.074 A 
ATOM     30  C   UNL A   1      41.852  25.623  28.011  1.00  0.00     0.049 A 
ATOM     31  N   UNL A   1      44.692  26.248  28.805  1.00  0.00    -0.248 NA
ATOM     32  C   UNL A   1      45.319  24.137  28.031  1.00  0.00     0.031 C 
ATOM     33  C   UNL A   1      40.447  25.348  27.700  1.00  0.00     0.029 A 
ATOM     34  N   UNL A   1      41.839  26.910  28.486  1.00  0.00    -0.354 N 
ATOM     35  C   UNL A   1      46.053  26.066  29.011  1.00  0.00     0.074 A 
ATOM     36  C   UNL A   1      46.373  24.724  28.577  1.00  0.00     0.031 C 
ATOM     37  C   UNL A   1      39.714  26.437  27.976  1.00  0.00     0.029 A 
ATOM     38  C   UNL A   1      40.585  27.468  28.529  1.00  0.00     0.049 A 
ATOM     39  H   UNL A   1      42.652  27.387  28.768  1.00  0.00     0.167 HD
ATOM     40  C   UNL A   1      46.959  26.948  29.497  1.00  0.00     0.037 A 
ATOM     41  C   UNL A   1      40.179  28.669  28.985  1.00  0.00     0.037 A 
ATOM     42  C   UNL A   1      46.635  28.290  29.907  1.00  0.00     0.049 A 
ATOM     43  C   UNL A   1      41.200  29.619  29.547  1.00  0.00     0.074 A 
ATOM     44  C   UNL A   1      47.488  29.282  30.355  1.00  0.00     0.029 A 
ATOM     45  N   UNL A   1      45.355  28.822  29.924  1.00  0.00    -0.354 N 
ATOM     46  N   UNL A   1      42.496  29.460  29.673  1.00  0.00    -0.248 NA
ATOM     47  C   UNL A   1      40.704  30.914  30.033  1.00  0.00     0.031 C 
ATOM     48  C   UNL A   1      46.718  30.397  30.694  1.00  0.00     0.029 A 
ATOM     49  C   UNL A   1      45.391  30.120  30.404  1.00  0.00     0.049 A 
ATOM     50  H   UNL A   1      44.541  28.348  29.637  1.00  0.00     0.167 HD
ATOM     51  C   UNL A   1      42.972  30.642  30.226  1.00  0.00     0.074 A 
ATOM     52  C   UNL A   1      41.828  31.514  30.398  1.00  0.00     0.031 C 
ATOM     53  C   UNL A   1      44.242  30.976  30.563  1.00  0.00     0.037 A 
BRANCH  40  54
ATOM     54  C   UNL A   1      48.384  26.489  29.613  1.00  0.00     0.057 A 
ATOM     55  C   UNL A   1      49.310  26.677  28.578  1.00  0.00     0.134 A 
ATOM     56  C   UNL A   1      48.847  25.881  30.787  1.00  0.00     0.134 A 
ATOM     57  F   UNL A   1      48.931  27.243  27.421  1.00  0.00    -0.206 F 
ATOM     58  C   UNL A   1      50.634  26.252  28.694  1.00  0.00     0.040 A 
ATOM     59  C   UNL A   1      50.176  25.480  30.929  1.00  0.00     0.040 A 
ATOM     60  F   UNL A   1      48.016  25.675  31.821  1.00  0.00    -0.206 F 
ATOM     61  C   UNL A   1      51.073  25.659  29.877  1.00  0.00     0.006 A 
ENDBRANCH  40  54
BRANCH  41  62
ATOM     62  C   UNL A   1      38.744  29.044  28.923  1.00  0.00     0.057 A 
ATOM     63  C   UNL A   1      38.182  29.556  27.747  1.00  0.00     0.134 A 
ATOM     64  C   UNL A   1      37.900  28.906  30.032  1.00  0.00     0.134 A 
ATOM     65  F   UNL A   1      38.943  29.728  26.656  1.00  0.00    -0.206 F 
ATOM     66  C   UNL A   1      36.842  29.938  27.682  1.00  0.00     0.040 A 
ATOM     67  C   UNL A   1      36.551  29.257  29.973  1.00  0.00     0.040 A 
ATOM     68  F   UNL A   1      38.373  28.414  31.186  1.00  0.00    -0.206 F 
ATOM     69  C   UNL A   1      36.020  29.784  28.796  1.00  0.00     0.006 A 
ENDBRANCH  41  62
BRANCH  53  70
ATOM     70  C   UNL A   1      44.470  32.350  31.121  1.00  0.00     0.057 A 
ATOM     71  C   UNL A   1      44.483  32.595  32.499  1.00  0.00     0.134 A 
ATOM     72  C   UNL A   1      44.736  33.430  30.269  1.00  0.00     0.134 A 
ATOM     73  F   UNL A   1      44.222  31.606  33.369  1.00  0.00    -0.206 F 
ATOM     74  C   UNL A   1      44.737  33.869  33.011  1.00  0.00     0.040 A 
ATOM     75  C   UNL A   1      45.019  34.701  30.768  1.00  0.00     0.040 A 
ATOM     76  F   UNL A   1      44.746  33.260  28.938  1.00  0.00    -0.206 F 
ATOM     77  C   UNL A   1      45.016  34.924  32.144  1.00  0.00     0.006 A 
ENDBRANCH  53  70
ENDBRANCH  27  28
ENDBRANCH  19  22
ENDBRANCH  17  18
ENDBRANCH   1  17
TORSDOF 11
ENDMDL
