MODEL 1
REMARK VINA RESULT:      -9.8      0.000      0.000
REMARK SMILES Nc1cc(C(=O)NCCCNC(=O)c2ccc(-c3c4nc(c(-c5c(F)cccc5F)c5ccc([nH]5)c(-c5c(F)cccc5F)c5nc(c(-c6c(F)cccc6F)c6ccc3[nH]6)C=C5)C=C4)cc2)nc2ccc(F)cc12
REMARK SMILES IDX 9 1 8 2 7 3 5 4 6 5 4 7 2 8 3 9 75 10 69 11 74 12 68 13
REMARK SMILES IDX 70 14 72 15 71 16 73 17 1 18 10 21 11 22 12 23 13 25 14 26
REMARK SMILES IDX 15 27 67 28 16 29 66 30 17 31 18 32 19 33 60 34 20 35 65 36
REMARK SMILES IDX 59 37 61 38 21 39 64 40 58 41 57 42 22 44 48 45 31 46 47 47
REMARK SMILES IDX 32 48 35 49 46 50 62 51 33 52 34 53 45 55 63 56 36 57 23 58
REMARK SMILES IDX 24 59 29 60 25 61 26 62 28 63 30 64 27 65 49 66 50 67 55 68
REMARK SMILES IDX 51 69 52 70 54 71 56 72 53 73 37 74 38 75 43 76 39 77 40 78
REMARK SMILES IDX 42 79 44 80 41 81
REMARK H PARENT 7 6 1 19 1 20 11 24 61 43 35 54
REMARK Flexibility Score: inf
ROOT
ATOM      1  C   UNL A   1      33.677  34.845  32.371  1.00  0.00     0.042 C 
ENDROOT
BRANCH   1   2
ATOM      2  C   UNL A   1      35.153  34.533  32.612  1.00  0.00     0.118 C 
BRANCH   2   3
ATOM      3  N   UNL A   1      35.443  34.459  34.030  1.00  0.00    -0.351 N 
ATOM      4  C   UNL A   1      36.205  33.605  34.796  1.00  0.00     0.269 C 
ATOM      5  O   UNL A   1      36.246  33.867  36.001  1.00  0.00    -0.268 OA
ATOM      6  H   UNL A   1      35.004  35.168  34.555  1.00  0.00     0.163 HD
BRANCH   4   7
ATOM      7  C   UNL A   1      36.978  32.426  34.256  1.00  0.00     0.130 A 
ATOM      8  C   UNL A   1      37.297  30.474  32.886  1.00  0.00     0.043 A 
ATOM      9  C   UNL A   1      36.480  31.508  33.350  1.00  0.00     0.060 A 
ATOM     10  C   UNL A   1      38.601  30.347  33.410  1.00  0.00     0.026 A 
ATOM     11  C   UNL A   1      39.005  31.293  34.378  1.00  0.00     0.073 A 
ATOM     12  C   UNL A   1      39.509  29.334  33.028  1.00  0.00     0.051 A 
ATOM     13  N   UNL A   1      38.228  32.308  34.770  1.00  0.00    -0.242 NA
ATOM     14  C   UNL A   1      40.261  31.171  34.961  1.00  0.00     0.032 A 
ATOM     15  C   UNL A   1      40.758  29.246  33.626  1.00  0.00     0.124 A 
ATOM     16  C   UNL A   1      41.141  30.149  34.601  1.00  0.00     0.041 A 
ATOM     17  F   UNL A   1      41.597  28.269  33.259  1.00  0.00    -0.207 F 
BRANCH   8  18
ATOM     18  N   UNL A   1      36.764  29.586  31.956  1.00  0.00    -0.398 N 
ATOM     19  H   UNL A   1      37.262  29.378  31.133  1.00  0.00     0.156 HD
ATOM     20  H   UNL A   1      35.890  29.166  32.122  1.00  0.00     0.156 HD
ENDBRANCH   8  18
ENDBRANCH   4   7
ENDBRANCH   2   3
ENDBRANCH   1   2
BRANCH   1  21
ATOM     21  C   UNL A   1      33.463  35.884  31.276  1.00  0.00     0.118 C 
BRANCH  21  22
ATOM     22  N   UNL A   1      32.744  35.334  30.132  1.00  0.00    -0.352 N 
ATOM     23  C   UNL A   1      33.177  34.511  29.120  1.00  0.00     0.251 C 
ATOM     24  H   UNL A   1      31.795  35.594  30.076  1.00  0.00     0.163 HD
ATOM     25  O   UNL A   1      32.477  34.345  28.129  1.00  0.00    -0.269 OA
BRANCH  23  26
ATOM     26  C   UNL A   1      34.496  33.848  29.214  1.00  0.00     0.039 A 
ATOM     27  C   UNL A   1      34.611  32.562  29.740  1.00  0.00     0.014 A 
ATOM     28  C   UNL A   1      35.633  34.523  28.758  1.00  0.00     0.014 A 
ATOM     29  C   UNL A   1      35.870  32.027  29.983  1.00  0.00     0.010 A 
ATOM     30  C   UNL A   1      36.893  33.940  28.913  1.00  0.00     0.010 A 
ATOM     31  C   UNL A   1      37.026  32.711  29.576  1.00  0.00    -0.014 A 
BRANCH  31  32
ATOM     32  C   UNL A   1      38.360  32.130  29.881  1.00  0.00     0.031 A 
ATOM     33  C   UNL A   1      39.308  32.838  30.810  1.00  0.00     0.074 A 
ATOM     34  C   UNL A   1      38.691  30.931  29.365  1.00  0.00     0.049 A 
ATOM     35  N   UNL A   1      40.503  32.477  31.207  1.00  0.00    -0.248 NA
ATOM     36  C   UNL A   1      38.861  34.126  31.364  1.00  0.00     0.031 C 
ATOM     37  C   UNL A   1      37.850  30.137  28.466  1.00  0.00     0.029 A 
ATOM     38  N   UNL A   1      39.809  30.157  29.543  1.00  0.00    -0.354 N 
ATOM     39  C   UNL A   1      40.953  33.495  32.039  1.00  0.00     0.074 A 
ATOM     40  C   UNL A   1      39.922  34.509  32.058  1.00  0.00     0.031 C 
ATOM     41  C   UNL A   1      38.457  28.968  28.214  1.00  0.00     0.029 A 
ATOM     42  C   UNL A   1      39.757  28.958  28.875  1.00  0.00     0.049 A 
ATOM     43  H   UNL A   1      40.575  30.434  30.095  1.00  0.00     0.167 HD
ATOM     44  C   UNL A   1      42.115  33.573  32.735  1.00  0.00     0.037 A 
ATOM     45  C   UNL A   1      40.664  27.969  28.787  1.00  0.00     0.037 A 
ATOM     46  C   UNL A   1      43.136  32.558  32.718  1.00  0.00     0.049 A 
ATOM     47  C   UNL A   1      41.973  28.116  29.508  1.00  0.00     0.074 A 
ATOM     48  C   UNL A   1      44.340  32.531  33.402  1.00  0.00     0.029 A 
ATOM     49  N   UNL A   1      43.078  31.389  31.971  1.00  0.00    -0.354 N 
ATOM     50  N   UNL A   1      42.378  29.075  30.304  1.00  0.00    -0.248 NA
ATOM     51  C   UNL A   1      42.957  27.044  29.306  1.00  0.00     0.031 C 
ATOM     52  C   UNL A   1      45.032  31.374  33.027  1.00  0.00     0.029 A 
ATOM     53  C   UNL A   1      44.237  30.651  32.152  1.00  0.00     0.049 A 
ATOM     54  H   UNL A   1      42.323  31.124  31.397  1.00  0.00     0.167 HD
ATOM     55  C   UNL A   1      43.655  28.716  30.713  1.00  0.00     0.074 A 
ATOM     56  C   UNL A   1      43.945  27.437  30.096  1.00  0.00     0.031 C 
ATOM     57  C   UNL A   1      44.513  29.384  31.524  1.00  0.00     0.037 A 
BRANCH  44  58
ATOM     58  C   UNL A   1      42.349  34.816  33.545  1.00  0.00     0.057 A 
ATOM     59  C   UNL A   1      42.980  35.930  32.977  1.00  0.00     0.134 A 
ATOM     60  C   UNL A   1      41.957  34.916  34.888  1.00  0.00     0.134 A 
ATOM     61  F   UNL A   1      43.388  35.904  31.699  1.00  0.00    -0.206 F 
ATOM     62  C   UNL A   1      43.205  37.097  33.709  1.00  0.00     0.040 A 
ATOM     63  C   UNL A   1      42.151  36.088  35.622  1.00  0.00     0.040 A 
ATOM     64  F   UNL A   1      41.335  33.892  35.492  1.00  0.00    -0.206 F 
ATOM     65  C   UNL A   1      42.780  37.183  35.033  1.00  0.00     0.006 A 
ENDBRANCH  44  58
BRANCH  45  66
ATOM     66  C   UNL A   1      40.376  26.762  27.972  1.00  0.00     0.057 A 
ATOM     67  C   UNL A   1      39.552  25.736  28.452  1.00  0.00     0.134 A 
ATOM     68  C   UNL A   1      40.904  26.615  26.685  1.00  0.00     0.134 A 
ATOM     69  F   UNL A   1      39.019  25.814  29.680  1.00  0.00    -0.206 F 
ATOM     70  C   UNL A   1      39.271  24.605  27.687  1.00  0.00     0.040 A 
ATOM     71  C   UNL A   1      40.606  25.502  25.896  1.00  0.00     0.040 A 
ATOM     72  F   UNL A   1      41.684  27.571  26.162  1.00  0.00    -0.206 F 
ATOM     73  C   UNL A   1      39.791  24.491  26.400  1.00  0.00     0.006 A 
ENDBRANCH  45  66
BRANCH  57  74
ATOM     74  C   UNL A   1      45.833  28.726  31.802  1.00  0.00     0.057 A 
ATOM     75  C   UNL A   1      46.944  28.983  30.989  1.00  0.00     0.134 A 
ATOM     76  C   UNL A   1      46.006  27.835  32.870  1.00  0.00     0.134 A 
ATOM     77  F   UNL A   1      46.846  29.821  29.946  1.00  0.00    -0.206 F 
ATOM     78  C   UNL A   1      48.179  28.379  31.228  1.00  0.00     0.040 A 
ATOM     79  C   UNL A   1      47.243  27.248  33.137  1.00  0.00     0.040 A 
ATOM     80  F   UNL A   1      44.986  27.558  33.697  1.00  0.00    -0.206 F 
ATOM     81  C   UNL A   1      48.334  27.516  32.311  1.00  0.00     0.006 A 
ENDBRANCH  57  74
ENDBRANCH  31  32
ENDBRANCH  23  26
ENDBRANCH  21  22
ENDBRANCH   1  21
TORSDOF 11
ENDMDL
MODEL 2
REMARK VINA RESULT:      -9.5      5.391     10.823
REMARK SMILES Nc1cc(C(=O)NCCCNC(=O)c2ccc(-c3c4nc(c(-c5c(F)cccc5F)c5ccc([nH]5)c(-c5c(F)cccc5F)c5nc(c(-c6c(F)cccc6F)c6ccc3[nH]6)C=C5)C=C4)cc2)nc2ccc(F)cc12
REMARK SMILES IDX 9 1 8 2 7 3 5 4 6 5 4 7 2 8 3 9 75 10 69 11 74 12 68 13
REMARK SMILES IDX 70 14 72 15 71 16 73 17 1 18 10 21 11 22 12 23 13 25 14 26
REMARK SMILES IDX 15 27 67 28 16 29 66 30 17 31 18 32 19 33 60 34 20 35 65 36
REMARK SMILES IDX 59 37 61 38 21 39 64 40 58 41 57 42 22 44 48 45 31 46 47 47
REMARK SMILES IDX 32 48 35 49 46 50 62 51 33 52 34 53 45 55 63 56 36 57 23 58
REMARK SMILES IDX 24 59 29 60 25 61 26 62 28 63 30 64 27 65 49 66 50 67 55 68
REMARK SMILES IDX 51 69 52 70 54 71 56 72 53 73 37 74 38 75 43 76 39 77 40 78
REMARK SMILES IDX 42 79 44 80 41 81
REMARK H PARENT 7 6 1 19 1 20 11 24 61 43 35 54
REMARK Flexibility Score: inf
ROOT
ATOM      1  C   UNL A   1      38.097  19.689  24.992  1.00  0.00     0.042 C 
ENDROOT
BRANCH   1   2
ATOM      2  C   UNL A   1      37.239  20.894  24.613  1.00  0.00     0.118 C 
BRANCH   2   3
ATOM      3  N   UNL A   1      37.813  22.123  25.123  1.00  0.00    -0.351 N 
ATOM      4  C   UNL A   1      37.276  23.235  25.733  1.00  0.00     0.269 C 
ATOM      5  O   UNL A   1      38.090  24.101  26.067  1.00  0.00    -0.268 OA
ATOM      6  H   UNL A   1      38.790  22.172  25.011  1.00  0.00     0.163 HD
BRANCH   4   7
ATOM      7  C   UNL A   1      35.808  23.432  26.020  1.00  0.00     0.130 A 
ATOM      8  C   UNL A   1      33.683  22.859  26.991  1.00  0.00     0.043 A 
ATOM      9  C   UNL A   1      35.026  22.559  26.753  1.00  0.00     0.060 A 
ATOM     10  C   UNL A   1      33.131  24.022  26.414  1.00  0.00     0.026 A 
ATOM     11  C   UNL A   1      33.987  24.824  25.627  1.00  0.00     0.073 A 
ATOM     12  C   UNL A   1      31.783  24.418  26.573  1.00  0.00     0.051 A 
ATOM     13  N   UNL A   1      35.284  24.549  25.456  1.00  0.00    -0.242 NA
ATOM     14  C   UNL A   1      33.470  25.949  24.995  1.00  0.00     0.032 A 
ATOM     15  C   UNL A   1      31.302  25.551  25.931  1.00  0.00     0.124 A 
ATOM     16  C   UNL A   1      32.130  26.316  25.131  1.00  0.00     0.041 A 
ATOM     17  F   UNL A   1      30.018  25.899  26.085  1.00  0.00    -0.207 F 
BRANCH   8  18
ATOM     18  N   UNL A   1      32.938  21.965  27.755  1.00  0.00    -0.398 N 
ATOM     19  H   UNL A   1      33.347  21.126  28.068  1.00  0.00     0.156 HD
ATOM     20  H   UNL A   1      32.003  22.172  27.981  1.00  0.00     0.156 HD
ENDBRANCH   8  18
ENDBRANCH   4   7
ENDBRANCH   2   3
ENDBRANCH   1   2
BRANCH   1  21
ATOM     21  C   UNL A   1      39.219  20.042  25.963  1.00  0.00     0.118 C 
BRANCH  21  22
ATOM     22  N   UNL A   1      40.283  19.044  25.956  1.00  0.00    -0.352 N 
ATOM     23  C   UNL A   1      41.645  19.194  26.068  1.00  0.00     0.251 C 
ATOM     24  H   UNL A   1      39.976  18.114  25.854  1.00  0.00     0.163 HD
ATOM     25  O   UNL A   1      42.383  18.252  25.812  1.00  0.00    -0.269 OA
BRANCH  23  26
ATOM     26  C   UNL A   1      42.218  20.496  26.474  1.00  0.00     0.039 A 
ATOM     27  C   UNL A   1      42.228  20.884  27.813  1.00  0.00     0.014 A 
ATOM     28  C   UNL A   1      42.763  21.336  25.497  1.00  0.00     0.014 A 
ATOM     29  C   UNL A   1      42.607  22.177  28.153  1.00  0.00     0.010 A 
ATOM     30  C   UNL A   1      43.237  22.600  25.856  1.00  0.00     0.010 A 
ATOM     31  C   UNL A   1      43.112  23.052  27.179  1.00  0.00    -0.014 A 
BRANCH  31  32
ATOM     32  C   UNL A   1      43.477  24.439  27.567  1.00  0.00     0.031 A 
ATOM     33  C   UNL A   1      44.907  24.903  27.492  1.00  0.00     0.074 A 
ATOM     34  C   UNL A   1      42.508  25.300  27.929  1.00  0.00     0.049 A 
ATOM     35  N   UNL A   1      45.412  26.079  27.771  1.00  0.00    -0.248 NA
ATOM     36  C   UNL A   1      45.905  23.915  27.052  1.00  0.00     0.031 C 
ATOM     37  C   UNL A   1      41.083  24.976  28.022  1.00  0.00     0.029 A 
ATOM     38  N   UNL A   1      42.568  26.629  28.259  1.00  0.00    -0.354 N 
ATOM     39  C   UNL A   1      46.781  25.967  27.557  1.00  0.00     0.074 A 
ATOM     40  C   UNL A   1      47.034  24.598  27.165  1.00  0.00     0.031 C 
ATOM     41  C   UNL A   1      40.398  26.086  28.333  1.00  0.00     0.029 A 
ATOM     42  C   UNL A   1      41.340  27.183  28.529  1.00  0.00     0.049 A 
ATOM     43  H   UNL A   1      43.410  27.138  28.300  1.00  0.00     0.167 HD
ATOM     44  C   UNL A   1      47.738  26.922  27.664  1.00  0.00     0.037 A 
ATOM     45  C   UNL A   1      41.011  28.429  28.912  1.00  0.00     0.037 A 
ATOM     46  C   UNL A   1      47.481  28.286  28.049  1.00  0.00     0.049 A 
ATOM     47  C   UNL A   1      42.100  29.447  29.096  1.00  0.00     0.074 A 
ATOM     48  C   UNL A   1      48.376  29.335  28.169  1.00  0.00     0.029 A 
ATOM     49  N   UNL A   1      46.231  28.789  28.385  1.00  0.00    -0.354 N 
ATOM     50  N   UNL A   1      43.387  29.332  28.873  1.00  0.00    -0.248 NA
ATOM     51  C   UNL A   1      41.690  30.765  29.597  1.00  0.00     0.031 C 
ATOM     52  C   UNL A   1      47.678  30.457  28.629  1.00  0.00     0.029 A 
ATOM     53  C   UNL A   1      46.338  30.124  28.743  1.00  0.00     0.049 A 
ATOM     54  H   UNL A   1      45.392  28.274  28.371  1.00  0.00     0.167 HD
ATOM     55  C   UNL A   1      43.938  30.566  29.189  1.00  0.00     0.074 A 
ATOM     56  C   UNL A   1      42.840  31.421  29.594  1.00  0.00     0.031 C 
ATOM     57  C   UNL A   1      45.236  30.958  29.151  1.00  0.00     0.037 A 
BRANCH  44  58
ATOM     58  C   UNL A   1      49.157  26.508  27.391  1.00  0.00     0.057 A 
ATOM     59  C   UNL A   1      49.987  26.074  28.432  1.00  0.00     0.134 A 
ATOM     60  C   UNL A   1      49.708  26.539  26.102  1.00  0.00     0.134 A 
ATOM     61  F   UNL A   1      49.529  26.024  29.693  1.00  0.00    -0.206 F 
ATOM     62  C   UNL A   1      51.306  25.680  28.203  1.00  0.00     0.040 A 
ATOM     63  C   UNL A   1      51.017  26.122  25.855  1.00  0.00     0.040 A 
ATOM     64  F   UNL A   1      48.965  26.931  25.055  1.00  0.00    -0.206 F 
ATOM     65  C   UNL A   1      51.821  25.693  26.908  1.00  0.00     0.006 A 
ENDBRANCH  44  58
BRANCH  45  66
ATOM     66  C   UNL A   1      39.591  28.782  29.166  1.00  0.00     0.057 A 
ATOM     67  C   UNL A   1      38.765  29.265  28.144  1.00  0.00     0.134 A 
ATOM     68  C   UNL A   1      39.022  28.625  30.435  1.00  0.00     0.134 A 
ATOM     69  F   UNL A   1      39.250  29.443  26.907  1.00  0.00    -0.206 F 
ATOM     70  C   UNL A   1      37.428  29.588  28.375  1.00  0.00     0.040 A 
ATOM     71  C   UNL A   1      37.677  28.916  30.673  1.00  0.00     0.040 A 
ATOM     72  F   UNL A   1      39.756  28.149  31.450  1.00  0.00    -0.206 F 
ATOM     73  C   UNL A   1      36.878  29.404  29.642  1.00  0.00     0.006 A 
ENDBRANCH  45  66
BRANCH  57  74
ATOM     74  C   UNL A   1      45.526  32.380  29.537  1.00  0.00     0.057 A 
ATOM     75  C   UNL A   1      45.849  32.708  30.859  1.00  0.00     0.134 A 
ATOM     76  C   UNL A   1      45.481  33.424  28.603  1.00  0.00     0.134 A 
ATOM     77  F   UNL A   1      45.903  31.758  31.804  1.00  0.00    -0.206 F 
ATOM     78  C   UNL A   1      46.118  34.023  31.240  1.00  0.00     0.040 A 
ATOM     79  C   UNL A   1      45.778  34.739  28.966  1.00  0.00     0.040 A 
ATOM     80  F   UNL A   1      45.194  33.175  27.317  1.00  0.00    -0.206 F 
ATOM     81  C   UNL A   1      46.092  35.042  30.289  1.00  0.00     0.006 A 
ENDBRANCH  57  74
ENDBRANCH  31  32
ENDBRANCH  23  26
ENDBRANCH  21  22
ENDBRANCH   1  21
TORSDOF 11
ENDMDL
MODEL 3
REMARK VINA RESULT:      -9.5      0.697      2.060
REMARK SMILES Nc1cc(C(=O)NCCCNC(=O)c2ccc(-c3c4nc(c(-c5c(F)cccc5F)c5ccc([nH]5)c(-c5c(F)cccc5F)c5nc(c(-c6c(F)cccc6F)c6ccc3[nH]6)C=C5)C=C4)cc2)nc2ccc(F)cc12
REMARK SMILES IDX 9 1 8 2 7 3 5 4 6 5 4 7 2 8 3 9 75 10 69 11 74 12 68 13
REMARK SMILES IDX 70 14 72 15 71 16 73 17 1 18 10 21 11 22 12 23 13 25 14 26
REMARK SMILES IDX 15 27 67 28 16 29 66 30 17 31 18 32 19 33 60 34 20 35 65 36
REMARK SMILES IDX 59 37 61 38 21 39 64 40 58 41 57 42 22 44 48 45 31 46 47 47
REMARK SMILES IDX 32 48 35 49 46 50 62 51 33 52 34 53 45 55 63 56 36 57 23 58
REMARK SMILES IDX 24 59 29 60 25 61 26 62 28 63 30 64 27 65 49 66 50 67 55 68
REMARK SMILES IDX 51 69 52 70 54 71 56 72 53 73 37 74 38 75 43 76 39 77 40 78
REMARK SMILES IDX 42 79 44 80 41 81
REMARK H PARENT 7 6 1 19 1 20 11 24 61 43 35 54
REMARK Flexibility Score: inf
ROOT
ATOM      1  C   UNL A   1      33.640  34.957  32.438  1.00  0.00     0.042 C 
ENDROOT
BRANCH   1   2
ATOM      2  C   UNL A   1      35.084  34.617  32.804  1.00  0.00     0.118 C 
BRANCH   2   3
ATOM      3  N   UNL A   1      35.256  34.559  34.241  1.00  0.00    -0.351 N 
ATOM      4  C   UNL A   1      36.059  33.804  35.067  1.00  0.00     0.269 C 
ATOM      5  O   UNL A   1      35.957  34.047  36.272  1.00  0.00    -0.268 OA
ATOM      6  H   UNL A   1      34.678  35.190  34.729  1.00  0.00     0.163 HD
BRANCH   4   7
ATOM      7  C   UNL A   1      37.033  32.754  34.592  1.00  0.00     0.130 A 
ATOM      8  C   UNL A   1      39.182  31.681  34.451  1.00  0.00     0.043 A 
ATOM      9  C   UNL A   1      38.377  32.724  34.915  1.00  0.00     0.060 A 
ATOM     10  C   UNL A   1      38.617  30.712  33.595  1.00  0.00     0.026 A 
ATOM     11  C   UNL A   1      37.251  30.856  33.267  1.00  0.00     0.073 A 
ATOM     12  C   UNL A   1      39.337  29.623  33.053  1.00  0.00     0.051 A 
ATOM     13  N   UNL A   1      36.483  31.830  33.765  1.00  0.00    -0.242 NA
ATOM     14  C   UNL A   1      36.669  29.954  32.383  1.00  0.00     0.032 A 
ATOM     15  C   UNL A   1      38.722  28.738  32.178  1.00  0.00     0.124 A 
ATOM     16  C   UNL A   1      37.394  28.899  31.827  1.00  0.00     0.041 A 
ATOM     17  F   UNL A   1      39.427  27.722  31.665  1.00  0.00    -0.207 F 
BRANCH   8  18
ATOM     18  N   UNL A   1      40.524  31.676  34.820  1.00  0.00    -0.398 N 
ATOM     19  H   UNL A   1      41.224  31.593  34.132  1.00  0.00     0.156 HD
ATOM     20  H   UNL A   1      40.774  31.757  35.768  1.00  0.00     0.156 HD
ENDBRANCH   8  18
ENDBRANCH   4   7
ENDBRANCH   2   3
ENDBRANCH   1   2
BRANCH   1  21
ATOM     21  C   UNL A   1      33.538  35.912  31.254  1.00  0.00     0.118 C 
BRANCH  21  22
ATOM     22  N   UNL A   1      32.786  35.332  30.146  1.00  0.00    -0.352 N 
ATOM     23  C   UNL A   1      33.192  34.485  29.143  1.00  0.00     0.251 C 
ATOM     24  H   UNL A   1      31.836  35.590  30.112  1.00  0.00     0.163 HD
ATOM     25  O   UNL A   1      32.462  34.293  28.178  1.00  0.00    -0.269 OA
BRANCH  23  26
ATOM     26  C   UNL A   1      34.513  33.826  29.215  1.00  0.00     0.039 A 
ATOM     27  C   UNL A   1      34.668  32.608  29.875  1.00  0.00     0.014 A 
ATOM     28  C   UNL A   1      35.613  34.434  28.602  1.00  0.00     0.014 A 
ATOM     29  C   UNL A   1      35.942  32.094  30.084  1.00  0.00     0.010 A 
ATOM     30  C   UNL A   1      36.882  33.862  28.729  1.00  0.00     0.010 A 
ATOM     31  C   UNL A   1      37.064  32.716  29.518  1.00  0.00    -0.014 A 
BRANCH  31  32
ATOM     32  C   UNL A   1      38.417  32.163  29.788  1.00  0.00     0.031 A 
ATOM     33  C   UNL A   1      39.378  32.897  30.683  1.00  0.00     0.074 A 
ATOM     34  C   UNL A   1      38.755  30.966  29.272  1.00  0.00     0.049 A 
ATOM     35  N   UNL A   1      40.591  32.561  31.048  1.00  0.00    -0.248 NA
ATOM     36  C   UNL A   1      38.923  34.180  31.239  1.00  0.00     0.031 C 
ATOM     37  C   UNL A   1      37.904  30.149  28.405  1.00  0.00     0.029 A 
ATOM     38  N   UNL A   1      39.892  30.215  29.423  1.00  0.00    -0.354 N 
ATOM     39  C   UNL A   1      41.046  33.594  31.857  1.00  0.00     0.074 A 
ATOM     40  C   UNL A   1      39.996  34.589  31.899  1.00  0.00     0.031 C 
ATOM     41  C   UNL A   1      38.525  28.990  28.144  1.00  0.00     0.029 A 
ATOM     42  C   UNL A   1      39.844  29.009  28.766  1.00  0.00     0.049 A 
ATOM     43  H   UNL A   1      40.669  30.511  29.950  1.00  0.00     0.167 HD
ATOM     44  C   UNL A   1      42.226  33.700  32.518  1.00  0.00     0.037 A 
ATOM     45  C   UNL A   1      40.767  28.037  28.660  1.00  0.00     0.037 A 
ATOM     46  C   UNL A   1      43.265  32.705  32.480  1.00  0.00     0.049 A 
ATOM     47  C   UNL A   1      42.093  28.214  29.341  1.00  0.00     0.074 A 
ATOM     48  C   UNL A   1      44.489  32.706  33.129  1.00  0.00     0.029 A 
ATOM     49  N   UNL A   1      43.207  31.529  31.745  1.00  0.00    -0.354 N 
ATOM     50  N   UNL A   1      42.503  29.188  30.117  1.00  0.00    -0.248 NA
ATOM     51  C   UNL A   1      43.091  27.159  29.119  1.00  0.00     0.031 C 
ATOM     52  C   UNL A   1      45.191  31.559  32.742  1.00  0.00     0.029 A 
ATOM     53  C   UNL A   1      44.384  30.814  31.897  1.00  0.00     0.049 A 
ATOM     54  H   UNL A   1      42.441  31.245  31.195  1.00  0.00     0.167 HD
ATOM     55  C   UNL A   1      43.798  28.856  30.492  1.00  0.00     0.074 A 
ATOM     56  C   UNL A   1      44.094  27.578  29.877  1.00  0.00     0.031 C 
ATOM     57  C   UNL A   1      44.666  29.547  31.272  1.00  0.00     0.037 A 
BRANCH  44  58
ATOM     58  C   UNL A   1      42.460  34.955  33.312  1.00  0.00     0.057 A 
ATOM     59  C   UNL A   1      42.090  35.025  34.661  1.00  0.00     0.134 A 
ATOM     60  C   UNL A   1      43.047  36.096  32.747  1.00  0.00     0.134 A 
ATOM     61  F   UNL A   1      41.518  33.973  35.267  1.00  0.00    -0.206 F 
ATOM     62  C   UNL A   1      42.302  36.177  35.420  1.00  0.00     0.040 A 
ATOM     63  C   UNL A   1      43.289  37.245  33.503  1.00  0.00     0.040 A 
ATOM     64  F   UNL A   1      43.438  36.094  31.463  1.00  0.00    -0.206 F 
ATOM     65  C   UNL A   1      42.913  37.289  34.843  1.00  0.00     0.006 A 
ENDBRANCH  44  58
BRANCH  45  66
ATOM     66  C   UNL A   1      40.478  26.817  27.864  1.00  0.00     0.057 A 
ATOM     67  C   UNL A   1      41.009  26.642  26.579  1.00  0.00     0.134 A 
ATOM     68  C   UNL A   1      39.680  25.790  28.377  1.00  0.00     0.134 A 
ATOM     69  F   UNL A   1      41.778  27.592  26.028  1.00  0.00    -0.206 F 
ATOM     70  C   UNL A   1      40.750  25.493  25.831  1.00  0.00     0.040 A 
ATOM     71  C   UNL A   1      39.437  24.621  27.651  1.00  0.00     0.040 A 
ATOM     72  F   UNL A   1      39.159  25.890  29.608  1.00  0.00    -0.206 F 
ATOM     73  C   UNL A   1      39.969  24.475  26.372  1.00  0.00     0.006 A 
ENDBRANCH  45  66
BRANCH  57  74
ATOM     74  C   UNL A   1      46.007  28.916  31.516  1.00  0.00     0.057 A 
ATOM     75  C   UNL A   1      46.197  28.039  32.591  1.00  0.00     0.134 A 
ATOM     76  C   UNL A   1      47.110  29.178  30.693  1.00  0.00     0.134 A 
ATOM     77  F   UNL A   1      45.184  27.750  33.423  1.00  0.00    -0.206 F 
ATOM     78  C   UNL A   1      47.435  27.446  32.839  1.00  0.00     0.040 A 
ATOM     79  C   UNL A   1      48.345  28.567  30.912  1.00  0.00     0.040 A 
ATOM     80  F   UNL A   1      46.990  29.996  29.635  1.00  0.00    -0.206 F 
ATOM     81  C   UNL A   1      48.511  27.702  31.992  1.00  0.00     0.006 A 
ENDBRANCH  57  74
ENDBRANCH  31  32
ENDBRANCH  23  26
ENDBRANCH  21  22
ENDBRANCH   1  21
TORSDOF 11
ENDMDL
