MODEL 1
REMARK VINA RESULT:     -11.7      0.000      0.000
REMARK SMILES C[C@H](/N=C(\Cc1ccccc1)C(=O)OC(C)(C)C)C(=O)NCCCNC(=O)c1ccc(-c2c3nc(c(-c4c(F)cccc4F)c4ccc([nH]4)c(-c4c(F)cccc4F)c4nc(c(-c5c(F)cccc5F)c5ccc2[nH]5)C=C4)C=C3)cc1
REMARK SMILES IDX 22 1 21 2 19 3 20 4 2 6 1 7 3 8 4 9 5 10 6 11 7 12 11 13
REMARK SMILES IDX 8 14 10 15 9 16 12 17 13 18 14 19 15 20 16 21 17 22 18 23
REMARK SMILES IDX 23 24 24 25 25 26 26 27 27 29 28 30 29 31 81 32 30 33 80 34
REMARK SMILES IDX 31 35 32 36 33 37 74 38 34 39 79 40 73 41 75 42 35 43 78 44
REMARK SMILES IDX 72 45 71 46 36 48 62 49 45 50 61 51 46 52 49 53 60 54 76 55
REMARK SMILES IDX 47 56 48 57 59 59 77 60 50 61 37 62 38 63 43 64 39 65 40 66
REMARK SMILES IDX 42 67 44 68 41 69 63 70 64 71 69 72 65 73 66 74 68 75 70 76
REMARK SMILES IDX 67 77 51 78 52 79 57 80 53 81 54 82 56 83 58 84 55 85
REMARK H PARENT 21 5 25 28 75 47 49 58
REMARK Flexibility Score: inf
ROOT
ATOM      1  C   UNL A   1      31.573  30.708  26.193  1.00  0.00     0.117 C 
ENDROOT
BRANCH   1   2
ATOM      2  N   UNL A   1      32.932  30.261  26.383  1.00  0.00    -0.354 N 
ATOM      3  C   UNL A   1      33.501  29.036  26.205  1.00  0.00     0.244 C 
ATOM      4  O   UNL A   1      34.714  28.962  26.440  1.00  0.00    -0.273 OA
ATOM      5  H   UNL A   1      33.554  30.960  26.693  1.00  0.00     0.163 HD
BRANCH   3   6
ATOM      6  C   UNL A   1      32.723  27.806  25.698  1.00  0.00     0.191 C 
ATOM      7  C   UNL A   1      33.531  26.529  25.613  1.00  0.00     0.044 C 
BRANCH   6   8
ATOM      8  N   UNL A   1      31.840  28.135  24.584  1.00  0.00    -0.269 NA
ATOM      9  C   UNL A   1      30.676  27.776  24.194  1.00  0.00     0.125 C 
BRANCH   9  10
ATOM     10  C   UNL A   1      29.799  26.674  24.738  1.00  0.00     0.099 C 
BRANCH  10  11
ATOM     11  C   UNL A   1      30.262  25.238  24.656  1.00  0.00    -0.042 A 
ATOM     12  C   UNL A   1      30.507  24.530  25.844  1.00  0.00     0.004 A 
ATOM     13  C   UNL A   1      30.640  24.642  23.445  1.00  0.00     0.004 A 
ATOM     14  C   UNL A   1      31.128  23.279  25.822  1.00  0.00     0.000 A 
ATOM     15  C   UNL A   1      31.253  23.387  23.422  1.00  0.00     0.000 A 
ATOM     16  C   UNL A   1      31.506  22.709  24.609  1.00  0.00     0.000 A 
ENDBRANCH  10  11
ENDBRANCH   9  10
BRANCH   9  17
ATOM     17  C   UNL A   1      30.167  28.510  22.938  1.00  0.00     0.353 C 
ATOM     18  O   UNL A   1      30.288  28.047  21.821  1.00  0.00    -0.245 OA
BRANCH  17  19
ATOM     19  O   UNL A   1      29.556  29.659  23.289  1.00  0.00    -0.455 OA
BRANCH  19  20
ATOM     20  C   UNL A   1      28.222  29.981  22.806  1.00  0.00     0.104 C 
ATOM     21  C   UNL A   1      28.175  30.399  21.329  1.00  0.00     0.056 C 
ATOM     22  C   UNL A   1      27.290  28.800  23.078  1.00  0.00     0.056 C 
ATOM     23  C   UNL A   1      27.784  31.182  23.657  1.00  0.00     0.056 C 
ENDBRANCH  19  20
ENDBRANCH  17  19
ENDBRANCH   9  17
ENDBRANCH   6   8
ENDBRANCH   3   6
ENDBRANCH   1   2
BRANCH   1  24
ATOM     24  C   UNL A   1      31.383  32.169  26.582  1.00  0.00     0.042 C 
BRANCH  24  25
ATOM     25  C   UNL A   1      32.611  32.771  27.251  1.00  0.00     0.118 C 
BRANCH  25  26
ATOM     26  N   UNL A   1      32.391  34.168  27.618  1.00  0.00    -0.352 N 
ATOM     27  C   UNL A   1      32.988  34.934  28.589  1.00  0.00     0.251 C 
ATOM     28  H   UNL A   1      31.707  34.633  27.086  1.00  0.00     0.163 HD
ATOM     29  O   UNL A   1      32.505  36.025  28.882  1.00  0.00    -0.269 OA
BRANCH  27  30
ATOM     30  C   UNL A   1      34.196  34.455  29.297  1.00  0.00     0.039 A 
ATOM     31  C   UNL A   1      34.054  33.835  30.544  1.00  0.00     0.014 A 
ATOM     32  C   UNL A   1      35.469  34.647  28.756  1.00  0.00     0.014 A 
ATOM     33  C   UNL A   1      35.181  33.347  31.213  1.00  0.00     0.010 A 
ATOM     34  C   UNL A   1      36.580  34.094  29.385  1.00  0.00     0.010 A 
ATOM     35  C   UNL A   1      36.448  33.441  30.620  1.00  0.00    -0.014 A 
BRANCH  35  36
ATOM     36  C   UNL A   1      37.667  32.890  31.262  1.00  0.00     0.031 A 
ATOM     37  C   UNL A   1      38.364  31.713  30.640  1.00  0.00     0.074 A 
ATOM     38  C   UNL A   1      38.075  33.365  32.454  1.00  0.00     0.049 A 
ATOM     39  N   UNL A   1      39.290  30.936  31.143  1.00  0.00    -0.248 NA
ATOM     40  C   UNL A   1      37.933  31.336  29.284  1.00  0.00     0.031 C 
ATOM     41  C   UNL A   1      37.468  34.483  33.178  1.00  0.00     0.029 A 
ATOM     42  N   UNL A   1      39.085  32.944  33.281  1.00  0.00    -0.354 N 
ATOM     43  C   UNL A   1      39.511  29.949  30.191  1.00  0.00     0.074 A 
ATOM     44  C   UNL A   1      38.614  30.216  29.086  1.00  0.00     0.031 C 
ATOM     45  C   UNL A   1      38.122  34.664  34.336  1.00  0.00     0.029 A 
ATOM     46  C   UNL A   1      39.164  33.647  34.457  1.00  0.00     0.049 A 
ATOM     47  H   UNL A   1      39.696  32.205  33.053  1.00  0.00     0.167 HD
ATOM     48  C   UNL A   1      40.385  28.917  30.232  1.00  0.00     0.037 A 
ATOM     49  C   UNL A   1      39.969  33.478  35.522  1.00  0.00     0.037 A 
ATOM     50  C   UNL A   1      41.318  28.689  31.302  1.00  0.00     0.049 A 
ATOM     51  C   UNL A   1      40.972  32.360  35.520  1.00  0.00     0.074 A 
ATOM     52  C   UNL A   1      42.283  27.702  31.412  1.00  0.00     0.029 A 
ATOM     53  N   UNL A   1      41.413  29.473  32.441  1.00  0.00    -0.354 N 
ATOM     54  N   UNL A   1      41.179  31.441  34.609  1.00  0.00    -0.248 NA
ATOM     55  C   UNL A   1      41.850  32.252  36.693  1.00  0.00     0.031 C 
ATOM     56  C   UNL A   1      42.955  27.883  32.626  1.00  0.00     0.029 A 
ATOM     57  C   UNL A   1      42.424  28.996  33.258  1.00  0.00     0.049 A 
ATOM     58  H   UNL A   1      40.846  30.253  32.640  1.00  0.00     0.167 HD
ATOM     59  C   UNL A   1      42.225  30.662  35.085  1.00  0.00     0.074 A 
ATOM     60  C   UNL A   1      42.614  31.219  36.364  1.00  0.00     0.031 C 
ATOM     61  C   UNL A   1      42.810  29.582  34.514  1.00  0.00     0.037 A 
BRANCH  48  62
ATOM     62  C   UNL A   1      40.369  27.954  29.084  1.00  0.00     0.057 A 
ATOM     63  C   UNL A   1      39.563  26.809  29.091  1.00  0.00     0.134 A 
ATOM     64  C   UNL A   1      41.154  28.188  27.948  1.00  0.00     0.134 A 
ATOM     65  F   UNL A   1      38.801  26.522  30.157  1.00  0.00    -0.206 F 
ATOM     66  C   UNL A   1      39.556  25.917  28.018  1.00  0.00     0.040 A 
ATOM     67  C   UNL A   1      41.138  27.314  26.859  1.00  0.00     0.040 A 
ATOM     68  F   UNL A   1      41.946  29.268  27.876  1.00  0.00    -0.206 F 
ATOM     69  C   UNL A   1      40.341  26.172  26.895  1.00  0.00     0.006 A 
ENDBRANCH  48  62
BRANCH  49  70
ATOM     70  C   UNL A   1      39.872  34.404  36.675  1.00  0.00     0.057 A 
ATOM     71  C   UNL A   1      40.540  35.634  36.661  1.00  0.00     0.134 A 
ATOM     72  C   UNL A   1      39.108  34.094  37.805  1.00  0.00     0.134 A 
ATOM     73  F   UNL A   1      41.299  35.977  35.610  1.00  0.00    -0.206 F 
ATOM     74  C   UNL A   1      40.464  36.518  37.737  1.00  0.00     0.040 A 
ATOM     75  C   UNL A   1      39.010  34.977  38.882  1.00  0.00     0.040 A 
ATOM     76  F   UNL A   1      38.436  32.936  37.871  1.00  0.00    -0.206 F 
ATOM     77  C   UNL A   1      39.693  36.191  38.851  1.00  0.00     0.006 A 
ENDBRANCH  49  70
BRANCH  61  78
ATOM     78  C   UNL A   1      43.962  28.962  35.242  1.00  0.00     0.057 A 
ATOM     79  C   UNL A   1      43.773  27.955  36.195  1.00  0.00     0.134 A 
ATOM     80  C   UNL A   1      45.277  29.341  34.944  1.00  0.00     0.134 A 
ATOM     81  F   UNL A   1      42.536  27.560  36.530  1.00  0.00    -0.206 F 
ATOM     82  C   UNL A   1      44.856  27.351  36.835  1.00  0.00     0.040 A 
ATOM     83  C   UNL A   1      46.367  28.734  35.566  1.00  0.00     0.040 A 
ATOM     84  F   UNL A   1      45.519  30.298  34.035  1.00  0.00    -0.206 F 
ATOM     85  C   UNL A   1      46.158  27.735  36.515  1.00  0.00     0.006 A 
ENDBRANCH  61  78
ENDBRANCH  35  36
ENDBRANCH  27  30
ENDBRANCH  25  26
ENDBRANCH  24  25
ENDBRANCH   1  24
TORSDOF 16
ENDMDL
MODEL 2
REMARK VINA RESULT:     -11.5      2.698      7.317
REMARK SMILES C[C@H](/N=C(\Cc1ccccc1)C(=O)OC(C)(C)C)C(=O)NCCCNC(=O)c1ccc(-c2c3nc(c(-c4c(F)cccc4F)c4ccc([nH]4)c(-c4c(F)cccc4F)c4nc(c(-c5c(F)cccc5F)c5ccc2[nH]5)C=C4)C=C3)cc1
REMARK SMILES IDX 22 1 21 2 19 3 20 4 2 6 1 7 3 8 4 9 5 10 6 11 7 12 11 13
REMARK SMILES IDX 8 14 10 15 9 16 12 17 13 18 14 19 15 20 16 21 17 22 18 23
REMARK SMILES IDX 23 24 24 25 25 26 26 27 27 29 28 30 29 31 81 32 30 33 80 34
REMARK SMILES IDX 31 35 32 36 33 37 74 38 34 39 79 40 73 41 75 42 35 43 78 44
REMARK SMILES IDX 72 45 71 46 36 48 62 49 45 50 61 51 46 52 49 53 60 54 76 55
REMARK SMILES IDX 47 56 48 57 59 59 77 60 50 61 37 62 38 63 43 64 39 65 40 66
REMARK SMILES IDX 42 67 44 68 41 69 63 70 64 71 69 72 65 73 66 74 68 75 70 76
REMARK SMILES IDX 67 77 51 78 52 79 57 80 53 81 54 82 56 83 58 84 55 85
REMARK H PARENT 21 5 25 28 75 47 49 58
REMARK Flexibility Score: inf
ROOT
ATOM      1  C   UNL A   1      34.859  23.608  24.226  1.00  0.00     0.117 C 
ENDROOT
BRANCH   1   2
ATOM      2  N   UNL A   1      34.367  23.984  22.922  1.00  0.00    -0.354 N 
ATOM      3  C   UNL A   1      33.289  24.734  22.558  1.00  0.00     0.244 C 
ATOM      4  O   UNL A   1      33.127  24.898  21.342  1.00  0.00    -0.273 OA
ATOM      5  H   UNL A   1      34.899  23.640  22.168  1.00  0.00     0.163 HD
BRANCH   3   6
ATOM      6  C   UNL A   1      32.335  25.394  23.573  1.00  0.00     0.191 C 
ATOM      7  C   UNL A   1      31.415  24.438  24.300  1.00  0.00     0.044 C 
BRANCH   6   8
ATOM      8  N   UNL A   1      31.769  26.640  23.067  1.00  0.00    -0.269 NA
ATOM      9  C   UNL A   1      31.363  27.741  23.576  1.00  0.00     0.125 C 
BRANCH   9  10
ATOM     10  C   UNL A   1      31.186  28.096  25.033  1.00  0.00     0.099 C 
BRANCH  10  11
ATOM     11  C   UNL A   1      32.231  28.932  25.734  1.00  0.00    -0.042 A 
ATOM     12  C   UNL A   1      33.480  28.360  26.026  1.00  0.00     0.004 A 
ATOM     13  C   UNL A   1      31.942  30.192  26.276  1.00  0.00     0.004 A 
ATOM     14  C   UNL A   1      34.398  29.017  26.848  1.00  0.00     0.000 A 
ATOM     15  C   UNL A   1      32.863  30.853  27.092  1.00  0.00     0.000 A 
ATOM     16  C   UNL A   1      34.087  30.263  27.385  1.00  0.00     0.000 A 
ENDBRANCH  10  11
ENDBRANCH   9  10
BRANCH   9  17
ATOM     17  C   UNL A   1      30.901  28.791  22.546  1.00  0.00     0.353 C 
ATOM     18  O   UNL A   1      31.660  29.613  22.071  1.00  0.00    -0.245 OA
BRANCH  17  19
ATOM     19  O   UNL A   1      29.600  28.607  22.249  1.00  0.00    -0.455 OA
BRANCH  19  20
ATOM     20  C   UNL A   1      28.609  29.633  22.536  1.00  0.00     0.104 C 
ATOM     21  C   UNL A   1      29.070  30.677  23.565  1.00  0.00     0.056 C 
ATOM     22  C   UNL A   1      28.179  30.297  21.228  1.00  0.00     0.056 C 
ATOM     23  C   UNL A   1      27.421  28.865  23.133  1.00  0.00     0.056 C 
ENDBRANCH  19  20
ENDBRANCH  17  19
ENDBRANCH   9  17
ENDBRANCH   6   8
ENDBRANCH   3   6
ENDBRANCH   1   2
BRANCH   1  24
ATOM     24  C   UNL A   1      36.310  23.145  24.185  1.00  0.00     0.042 C 
BRANCH  24  25
ATOM     25  C   UNL A   1      37.121  23.622  25.382  1.00  0.00     0.118 C 
BRANCH  25  26
ATOM     26  N   UNL A   1      38.302  22.789  25.596  1.00  0.00    -0.352 N 
ATOM     27  C   UNL A   1      39.518  23.101  26.155  1.00  0.00     0.251 C 
ATOM     28  H   UNL A   1      38.212  21.858  25.293  1.00  0.00     0.163 HD
ATOM     29  O   UNL A   1      40.455  22.314  26.043  1.00  0.00    -0.269 OA
BRANCH  27  30
ATOM     30  C   UNL A   1      39.716  24.378  26.875  1.00  0.00     0.039 A 
ATOM     31  C   UNL A   1      39.194  24.520  28.166  1.00  0.00     0.014 A 
ATOM     32  C   UNL A   1      40.377  25.449  26.271  1.00  0.00     0.014 A 
ATOM     33  C   UNL A   1      39.397  25.708  28.876  1.00  0.00     0.010 A 
ATOM     34  C   UNL A   1      40.646  26.601  27.004  1.00  0.00     0.010 A 
ATOM     35  C   UNL A   1      40.157  26.743  28.312  1.00  0.00    -0.014 A 
BRANCH  35  36
ATOM     36  C   UNL A   1      40.450  28.001  29.042  1.00  0.00     0.031 A 
ATOM     37  C   UNL A   1      41.723  28.120  29.832  1.00  0.00     0.074 A 
ATOM     38  C   UNL A   1      39.527  28.980  29.096  1.00  0.00     0.049 A 
ATOM     39  N   UNL A   1      42.068  29.018  30.718  1.00  0.00    -0.248 NA
ATOM     40  C   UNL A   1      42.726  27.064  29.623  1.00  0.00     0.031 C 
ATOM     41  C   UNL A   1      38.239  28.975  28.399  1.00  0.00     0.029 A 
ATOM     42  N   UNL A   1      39.523  30.162  29.792  1.00  0.00    -0.354 N 
ATOM     43  C   UNL A   1      43.300  28.606  31.212  1.00  0.00     0.074 A 
ATOM     44  C   UNL A   1      43.636  27.370  30.536  1.00  0.00     0.031 C 
ATOM     45  C   UNL A   1      37.574  30.103  28.698  1.00  0.00     0.029 A 
ATOM     46  C   UNL A   1      38.367  30.887  29.641  1.00  0.00     0.049 A 
ATOM     47  H   UNL A   1      40.279  30.462  30.349  1.00  0.00     0.167 HD
ATOM     48  C   UNL A   1      44.081  29.205  32.140  1.00  0.00     0.037 A 
ATOM     49  C   UNL A   1      37.982  32.042  30.214  1.00  0.00     0.037 A 
ATOM     50  C   UNL A   1      43.775  30.464  32.765  1.00  0.00     0.049 A 
ATOM     51  C   UNL A   1      38.892  32.719  31.198  1.00  0.00     0.074 A 
ATOM     52  C   UNL A   1      44.529  31.182  33.677  1.00  0.00     0.029 A 
ATOM     53  N   UNL A   1      42.626  31.200  32.525  1.00  0.00    -0.354 N 
ATOM     54  N   UNL A   1      40.059  32.325  31.647  1.00  0.00    -0.248 NA
ATOM     55  C   UNL A   1      38.432  33.998  31.758  1.00  0.00     0.031 C 
ATOM     56  C   UNL A   1      43.828  32.350  33.998  1.00  0.00     0.029 A 
ATOM     57  C   UNL A   1      42.651  32.369  33.267  1.00  0.00     0.049 A 
ATOM     58  H   UNL A   1      41.899  30.934  31.916  1.00  0.00     0.167 HD
ATOM     59  C   UNL A   1      40.484  33.316  32.520  1.00  0.00     0.074 A 
ATOM     60  C   UNL A   1      39.453  34.333  32.536  1.00  0.00     0.031 C 
ATOM     61  C   UNL A   1      41.626  33.378  33.246  1.00  0.00     0.037 A 
BRANCH  48  62
ATOM     62  C   UNL A   1      45.343  28.502  32.537  1.00  0.00     0.057 A 
ATOM     63  C   UNL A   1      46.560  28.743  31.887  1.00  0.00     0.134 A 
ATOM     64  C   UNL A   1      45.344  27.585  33.596  1.00  0.00     0.134 A 
ATOM     65  F   UNL A   1      46.620  29.599  30.856  1.00  0.00    -0.206 F 
ATOM     66  C   UNL A   1      47.730  28.082  32.262  1.00  0.00     0.040 A 
ATOM     67  C   UNL A   1      46.513  26.933  33.994  1.00  0.00     0.040 A 
ATOM     68  F   UNL A   1      44.213  27.311  34.262  1.00  0.00    -0.206 F 
ATOM     69  C   UNL A   1      47.709  27.178  33.323  1.00  0.00     0.006 A 
ENDBRANCH  48  62
BRANCH  49  70
ATOM     70  C   UNL A   1      36.675  32.642  29.855  1.00  0.00     0.057 A 
ATOM     71  C   UNL A   1      35.536  32.386  30.626  1.00  0.00     0.134 A 
ATOM     72  C   UNL A   1      36.532  33.486  28.749  1.00  0.00     0.134 A 
ATOM     73  F   UNL A   1      35.610  31.571  31.689  1.00  0.00    -0.206 F 
ATOM     74  C   UNL A   1      34.295  32.937  30.303  1.00  0.00     0.040 A 
ATOM     75  C   UNL A   1      35.301  34.058  28.423  1.00  0.00     0.040 A 
ATOM     76  F   UNL A   1      37.590  33.778  27.979  1.00  0.00    -0.206 F 
ATOM     77  C   UNL A   1      34.178  33.780  29.199  1.00  0.00     0.006 A 
ENDBRANCH  49  70
BRANCH  61  78
ATOM     78  C   UNL A   1      41.845  34.604  34.078  1.00  0.00     0.057 A 
ATOM     79  C   UNL A   1      41.455  34.660  35.420  1.00  0.00     0.134 A 
ATOM     80  C   UNL A   1      42.501  35.717  33.540  1.00  0.00     0.134 A 
ATOM     81  F   UNL A   1      40.811  33.628  35.985  1.00  0.00    -0.206 F 
ATOM     82  C   UNL A   1      41.704  35.790  36.200  1.00  0.00     0.040 A 
ATOM     83  C   UNL A   1      42.769  36.846  34.314  1.00  0.00     0.040 A 
ATOM     84  F   UNL A   1      42.903  35.719  32.260  1.00  0.00    -0.206 F 
ATOM     85  C   UNL A   1      42.369  36.884  35.649  1.00  0.00     0.006 A 
ENDBRANCH  61  78
ENDBRANCH  35  36
ENDBRANCH  27  30
ENDBRANCH  25  26
ENDBRANCH  24  25
ENDBRANCH   1  24
TORSDOF 16
ENDMDL
MODEL 3
REMARK VINA RESULT:     -11.5      4.229      8.418
REMARK SMILES C[C@H](/N=C(\Cc1ccccc1)C(=O)OC(C)(C)C)C(=O)NCCCNC(=O)c1ccc(-c2c3nc(c(-c4c(F)cccc4F)c4ccc([nH]4)c(-c4c(F)cccc4F)c4nc(c(-c5c(F)cccc5F)c5ccc2[nH]5)C=C4)C=C3)cc1
REMARK SMILES IDX 22 1 21 2 19 3 20 4 2 6 1 7 3 8 4 9 5 10 6 11 7 12 11 13
REMARK SMILES IDX 8 14 10 15 9 16 12 17 13 18 14 19 15 20 16 21 17 22 18 23
REMARK SMILES IDX 23 24 24 25 25 26 26 27 27 29 28 30 29 31 81 32 30 33 80 34
REMARK SMILES IDX 31 35 32 36 33 37 74 38 34 39 79 40 73 41 75 42 35 43 78 44
REMARK SMILES IDX 72 45 71 46 36 48 62 49 45 50 61 51 46 52 49 53 60 54 76 55
REMARK SMILES IDX 47 56 48 57 59 59 77 60 50 61 37 62 38 63 43 64 39 65 40 66
REMARK SMILES IDX 42 67 44 68 41 69 63 70 64 71 69 72 65 73 66 74 68 75 70 76
REMARK SMILES IDX 67 77 51 78 52 79 57 80 53 81 54 82 56 83 58 84 55 85
REMARK H PARENT 21 5 25 28 75 47 49 58
REMARK Flexibility Score: inf
ROOT
ATOM      1  C   UNL A   1      32.282  26.400  26.323  1.00  0.00     0.117 C 
ENDROOT
BRANCH   1   2
ATOM      2  N   UNL A   1      31.141  25.615  26.729  1.00  0.00    -0.354 N 
ATOM      3  C   UNL A   1      30.942  24.267  26.731  1.00  0.00     0.244 C 
ATOM      4  O   UNL A   1      29.846  23.881  27.158  1.00  0.00    -0.273 OA
ATOM      5  H   UNL A   1      30.377  26.142  27.061  1.00  0.00     0.163 HD
BRANCH   3   6
ATOM      6  C   UNL A   1      32.011  23.252  26.282  1.00  0.00     0.191 C 
ATOM      7  C   UNL A   1      33.065  22.934  27.321  1.00  0.00     0.044 C 
BRANCH   6   8
ATOM      8  N   UNL A   1      32.448  23.483  24.910  1.00  0.00    -0.269 NA
ATOM      9  C   UNL A   1      33.290  22.949  24.108  1.00  0.00     0.125 C 
BRANCH   9  10
ATOM     10  C   UNL A   1      34.318  21.882  24.397  1.00  0.00     0.099 C 
BRANCH  10  11
ATOM     11  C   UNL A   1      35.722  22.279  24.786  1.00  0.00    -0.042 A 
ATOM     12  C   UNL A   1      36.725  21.296  24.821  1.00  0.00     0.004 A 
ATOM     13  C   UNL A   1      36.027  23.546  25.300  1.00  0.00     0.004 A 
ATOM     14  C   UNL A   1      37.981  21.567  25.368  1.00  0.00     0.000 A 
ATOM     15  C   UNL A   1      37.286  23.821  25.840  1.00  0.00     0.000 A 
ATOM     16  C   UNL A   1      38.259  22.830  25.883  1.00  0.00     0.000 A 
ENDBRANCH  10  11
ENDBRANCH   9  10
BRANCH   9  17
ATOM     17  C   UNL A   1      33.309  23.566  22.695  1.00  0.00     0.353 C 
ATOM     18  O   UNL A   1      34.172  23.301  21.882  1.00  0.00    -0.245 OA
BRANCH  17  19
ATOM     19  O   UNL A   1      32.234  24.361  22.523  1.00  0.00    -0.455 OA
BRANCH  19  20
ATOM     20  C   UNL A   1      32.383  25.758  22.147  1.00  0.00     0.104 C 
ATOM     21  C   UNL A   1      31.151  26.623  22.453  1.00  0.00     0.056 C 
ATOM     22  C   UNL A   1      33.638  26.327  22.811  1.00  0.00     0.056 C 
ATOM     23  C   UNL A   1      32.580  25.728  20.624  1.00  0.00     0.056 C 
ENDBRANCH  19  20
ENDBRANCH  17  19
ENDBRANCH   9  17
ENDBRANCH   6   8
ENDBRANCH   3   6
ENDBRANCH   1   2
BRANCH   1  24
ATOM     24  C   UNL A   1      32.289  27.785  26.961  1.00  0.00     0.042 C 
BRANCH  24  25
ATOM     25  C   UNL A   1      33.688  28.364  27.113  1.00  0.00     0.118 C 
BRANCH  25  26
ATOM     26  N   UNL A   1      33.647  29.774  27.489  1.00  0.00    -0.352 N 
ATOM     27  C   UNL A   1      34.578  30.546  28.141  1.00  0.00     0.251 C 
ATOM     28  H   UNL A   1      32.823  30.247  27.234  1.00  0.00     0.163 HD
ATOM     29  O   UNL A   1      34.259  31.657  28.555  1.00  0.00    -0.269 OA
BRANCH  27  30
ATOM     30  C   UNL A   1      35.954  30.047  28.364  1.00  0.00     0.039 A 
ATOM     31  C   UNL A   1      36.892  30.153  27.330  1.00  0.00     0.014 A 
ATOM     32  C   UNL A   1      36.312  29.442  29.570  1.00  0.00     0.014 A 
ATOM     33  C   UNL A   1      38.205  29.716  27.532  1.00  0.00     0.010 A 
ATOM     34  C   UNL A   1      37.636  29.078  29.796  1.00  0.00     0.010 A 
ATOM     35  C   UNL A   1      38.595  29.210  28.780  1.00  0.00    -0.014 A 
BRANCH  35  36
ATOM     36  C   UNL A   1      39.987  28.785  29.064  1.00  0.00     0.031 A 
ATOM     37  C   UNL A   1      40.957  29.771  29.652  1.00  0.00     0.074 A 
ATOM     38  C   UNL A   1      40.411  27.564  28.686  1.00  0.00     0.049 A 
ATOM     39  N   UNL A   1      42.259  29.689  29.763  1.00  0.00    -0.248 NA
ATOM     40  C   UNL A   1      40.389  31.034  30.148  1.00  0.00     0.031 C 
ATOM     41  C   UNL A   1      39.577  26.525  28.077  1.00  0.00     0.029 A 
ATOM     42  N   UNL A   1      41.660  27.000  28.735  1.00  0.00    -0.354 N 
ATOM     43  C   UNL A   1      42.669  30.908  30.287  1.00  0.00     0.074 A 
ATOM     44  C   UNL A   1      41.481  31.717  30.460  1.00  0.00     0.031 C 
ATOM     45  C   UNL A   1      40.337  25.449  27.817  1.00  0.00     0.029 A 
ATOM     46  C   UNL A   1      41.717  25.739  28.197  1.00  0.00     0.049 A 
ATOM     47  H   UNL A   1      42.444  27.459  29.119  1.00  0.00     0.167 HD
ATOM     48  C   UNL A   1      43.922  31.315  30.599  1.00  0.00     0.037 A 
ATOM     49  C   UNL A   1      42.767  24.917  28.012  1.00  0.00     0.037 A 
ATOM     50  C   UNL A   1      45.093  30.488  30.484  1.00  0.00     0.049 A 
ATOM     51  C   UNL A   1      44.140  25.368  28.420  1.00  0.00     0.074 A 
ATOM     52  C   UNL A   1      46.400  30.789  30.826  1.00  0.00     0.029 A 
ATOM     53  N   UNL A   1      45.092  29.188  30.004  1.00  0.00    -0.354 N 
ATOM     54  N   UNL A   1      44.513  26.518  28.925  1.00  0.00    -0.248 NA
ATOM     55  C   UNL A   1      45.238  24.409  28.230  1.00  0.00     0.031 C 
ATOM     56  C   UNL A   1      47.193  29.671  30.542  1.00  0.00     0.029 A 
ATOM     57  C   UNL A   1      46.375  28.669  30.045  1.00  0.00     0.049 A 
ATOM     58  H   UNL A   1      44.297  28.704  29.681  1.00  0.00     0.167 HD
ATOM     59  C   UNL A   1      45.881  26.415  29.138  1.00  0.00     0.074 A 
ATOM     60  C   UNL A   1      46.273  25.087  28.710  1.00  0.00     0.031 C 
ATOM     61  C   UNL A   1      46.736  27.337  29.639  1.00  0.00     0.037 A 
BRANCH  48  62
ATOM     62  C   UNL A   1      44.087  32.719  31.093  1.00  0.00     0.057 A 
ATOM     63  C   UNL A   1      44.014  33.037  32.455  1.00  0.00     0.134 A 
ATOM     64  C   UNL A   1      44.343  33.764  30.196  1.00  0.00     0.134 A 
ATOM     65  F   UNL A   1      43.756  32.083  33.362  1.00  0.00    -0.206 F 
ATOM     66  C   UNL A   1      44.168  34.349  32.906  1.00  0.00     0.040 A 
ATOM     67  C   UNL A   1      44.520  35.077  30.638  1.00  0.00     0.040 A 
ATOM     68  F   UNL A   1      44.428  33.526  28.879  1.00  0.00    -0.206 F 
ATOM     69  C   UNL A   1      44.427  35.372  31.996  1.00  0.00     0.006 A 
ENDBRANCH  48  62
BRANCH  49  70
ATOM     70  C   UNL A   1      42.555  23.572  27.426  1.00  0.00     0.057 A 
ATOM     71  C   UNL A   1      42.250  22.477  28.242  1.00  0.00     0.134 A 
ATOM     72  C   UNL A   1      42.642  23.349  26.047  1.00  0.00     0.134 A 
ATOM     73  F   UNL A   1      42.170  22.629  29.572  1.00  0.00    -0.206 F 
ATOM     74  C   UNL A   1      42.052  21.202  27.710  1.00  0.00     0.040 A 
ATOM     75  C   UNL A   1      42.429  22.082  25.499  1.00  0.00     0.040 A 
ATOM     76  F   UNL A   1      42.919  24.361  25.213  1.00  0.00    -0.206 F 
ATOM     77  C   UNL A   1      42.137  21.004  26.333  1.00  0.00     0.006 A 
ENDBRANCH  49  70
BRANCH  61  78
ATOM     78  C   UNL A   1      48.168  26.929  29.801  1.00  0.00     0.057 A 
ATOM     79  C   UNL A   1      48.609  26.231  30.931  1.00  0.00     0.134 A 
ATOM     80  C   UNL A   1      49.098  27.191  28.789  1.00  0.00     0.134 A 
ATOM     81  F   UNL A   1      47.765  25.963  31.938  1.00  0.00    -0.206 F 
ATOM     82  C   UNL A   1      49.936  25.815  31.052  1.00  0.00     0.040 A 
ATOM     83  C   UNL A   1      50.423  26.766  28.892  1.00  0.00     0.040 A 
ATOM     84  F   UNL A   1      48.731  27.851  27.680  1.00  0.00    -0.206 F 
ATOM     85  C   UNL A   1      50.845  26.076  30.027  1.00  0.00     0.006 A 
ENDBRANCH  61  78
ENDBRANCH  35  36
ENDBRANCH  27  30
ENDBRANCH  25  26
ENDBRANCH  24  25
ENDBRANCH   1  24
TORSDOF 16
ENDMDL
