MODEL 1
REMARK VINA RESULT:     -11.4      0.000      0.000
REMARK SMILES CN(C(=O)N[C@](C)(C(=O)NCCCNC(=O)c1ccc(-c2c3nc(c(-c4c(F)cccc4F)c4ccc([nH]4)c(-c4c(F)cccc4F)c4nc(c(-c5c(F)cccc5F)c5ccc2[nH]5)C=C4)C=C3)cc1)C(F)(F)F)[C@@H]1CCC[N@@H+](C)C1
REMARK SMILES IDX 11 1 10 2 8 3 9 4 6 6 7 7 5 8 3 9 4 10 2 12 1 13 75 14 80 15
REMARK SMILES IDX 79 16 78 17 81 18 77 20 76 21 71 22 72 23 73 24 74 25 12 26
REMARK SMILES IDX 13 27 14 28 15 29 16 31 17 32 18 33 70 34 19 35 69 36 20 37
REMARK SMILES IDX 21 38 22 39 63 40 23 41 68 42 62 43 64 44 24 45 67 46 61 47
REMARK SMILES IDX 60 48 25 50 51 51 34 52 50 53 35 54 38 55 49 56 65 57 36 58
REMARK SMILES IDX 37 59 48 61 66 62 39 63 26 64 27 65 32 66 28 67 29 68 31 69
REMARK SMILES IDX 33 70 30 71 52 72 53 73 58 74 54 75 55 76 57 77 59 78 56 79
REMARK SMILES IDX 40 80 41 81 46 82 42 83 43 84 45 85 47 86 44 87
REMARK H PARENT 10 5 5 11 79 19 14 30 64 49 38 60
REMARK Flexibility Score: inf
ROOT
ATOM      1  C   UNL A   1      36.270  20.732  24.806  1.00  0.00     0.117 C 
ENDROOT
BRANCH   1   2
ATOM      2  N   UNL A   1      35.495  20.965  26.017  1.00  0.00    -0.354 N 
ATOM      3  C   UNL A   1      34.644  21.945  26.441  1.00  0.00     0.255 C 
ATOM      4  O   UNL A   1      34.169  21.734  27.560  1.00  0.00    -0.272 OA
ATOM      5  H   UNL A   1      35.613  20.251  26.684  1.00  0.00     0.163 HD
BRANCH   3   6
ATOM      6  C   UNL A   1      34.218  23.159  25.555  1.00  0.00     0.213 C 
ATOM      7  C   UNL A   1      33.815  22.707  24.147  1.00  0.00     0.056 C 
BRANCH   6   8
ATOM      8  N   UNL A   1      33.046  23.692  26.318  1.00  0.00    -0.316 N 
ATOM      9  C   UNL A   1      31.999  24.513  26.292  1.00  0.00     0.318 C 
ATOM     10  O   UNL A   1      31.340  24.394  27.326  1.00  0.00    -0.249 OA
ATOM     11  H   UNL A   1      33.051  23.254  27.201  1.00  0.00     0.166 HD
BRANCH   9  12
ATOM     12  N   UNL A   1      31.700  25.396  25.306  1.00  0.00    -0.319 N 
ATOM     13  C   UNL A   1      30.595  25.279  24.383  1.00  0.00     0.149 C 
BRANCH  12  14
ATOM     14  C   UNL A   1      32.534  26.617  25.093  1.00  0.00     0.141 C 
ATOM     15  C   UNL A   1      30.462  29.383  23.475  1.00  0.00     0.332 C 
ATOM     16  N   UNL A   1      30.996  28.539  24.537  1.00  0.00    -0.336 N 
ATOM     17  C   UNL A   1      31.543  29.340  25.636  1.00  0.00     0.262 C 
ATOM     18  C   UNL A   1      31.980  27.587  24.022  1.00  0.00     0.287 C 
ATOM     19  H   UNL A   1      30.218  27.998  24.914  1.00  0.00     0.347 HD
ATOM     20  C   UNL A   1      32.074  28.498  26.801  1.00  0.00     0.064 C 
ATOM     21  C   UNL A   1      32.983  27.353  26.366  1.00  0.00     0.037 C 
ENDBRANCH  12  14
ENDBRANCH   9  12
ENDBRANCH   6   8
BRANCH   6  22
ATOM     22  C   UNL A   1      35.499  24.028  25.471  1.00  0.00     0.420 C 
ATOM     23  F   UNL A   1      36.106  23.936  24.261  1.00  0.00    -0.168 F 
ATOM     24  F   UNL A   1      35.219  25.350  25.591  1.00  0.00    -0.168 F 
ATOM     25  F   UNL A   1      36.405  23.728  26.426  1.00  0.00    -0.168 F 
ENDBRANCH   6  22
ENDBRANCH   3   6
ENDBRANCH   1   2
BRANCH   1  26
ATOM     26  C   UNL A   1      37.407  19.735  25.025  1.00  0.00     0.042 C 
BRANCH  26  27
ATOM     27  C   UNL A   1      38.697  20.335  25.578  1.00  0.00     0.118 C 
BRANCH  27  28
ATOM     28  N   UNL A   1      39.789  19.380  25.655  1.00  0.00    -0.352 N 
ATOM     29  C   UNL A   1      41.099  19.560  26.032  1.00  0.00     0.251 C 
ATOM     30  H   UNL A   1      39.555  18.460  25.396  1.00  0.00     0.163 HD
ATOM     31  O   UNL A   1      41.906  18.651  25.876  1.00  0.00    -0.269 OA
BRANCH  29  32
ATOM     32  C   UNL A   1      41.551  20.853  26.596  1.00  0.00     0.039 A 
ATOM     33  C   UNL A   1      42.145  21.784  25.739  1.00  0.00     0.014 A 
ATOM     34  C   UNL A   1      41.415  21.146  27.954  1.00  0.00     0.014 A 
ATOM     35  C   UNL A   1      42.534  23.033  26.230  1.00  0.00     0.010 A 
ATOM     36  C   UNL A   1      41.724  22.421  28.425  1.00  0.00     0.010 A 
ATOM     37  C   UNL A   1      42.288  23.379  27.569  1.00  0.00    -0.014 A 
BRANCH  37  38
ATOM     38  C   UNL A   1      42.597  24.739  28.079  1.00  0.00     0.031 A 
ATOM     39  C   UNL A   1      43.988  25.090  28.531  1.00  0.00     0.074 A 
ATOM     40  C   UNL A   1      41.605  25.644  28.203  1.00  0.00     0.049 A 
ATOM     41  N   UNL A   1      44.432  26.205  29.054  1.00  0.00    -0.248 NA
ATOM     42  C   UNL A   1      45.010  24.039  28.404  1.00  0.00     0.031 C 
ATOM     43  C   UNL A   1      40.202  25.409  27.856  1.00  0.00     0.029 A 
ATOM     44  N   UNL A   1      41.621  26.935  28.668  1.00  0.00    -0.354 N 
ATOM     45  C   UNL A   1      45.774  25.984  29.336  1.00  0.00     0.074 A 
ATOM     46  C   UNL A   1      46.058  24.613  28.975  1.00  0.00     0.031 C 
ATOM     47  C   UNL A   1      39.498  26.524  28.102  1.00  0.00     0.029 A 
ATOM     48  C   UNL A   1      40.387  27.537  28.663  1.00  0.00     0.049 A 
ATOM     49  H   UNL A   1      42.440  27.388  28.975  1.00  0.00     0.167 HD
ATOM     50  C   UNL A   1      46.689  26.849  29.834  1.00  0.00     0.037 A 
ATOM     51  C   UNL A   1      40.006  28.761  29.077  1.00  0.00     0.037 A 
ATOM     52  C   UNL A   1      46.405  28.219  30.176  1.00  0.00     0.049 A 
ATOM     53  C   UNL A   1      41.038  29.705  29.624  1.00  0.00     0.074 A 
ATOM     54  C   UNL A   1      47.282  29.200  30.609  1.00  0.00     0.029 A 
ATOM     55  N   UNL A   1      45.145  28.799  30.140  1.00  0.00    -0.354 N 
ATOM     56  N   UNL A   1      42.324  29.513  29.801  1.00  0.00    -0.248 NA
ATOM     57  C   UNL A   1      40.571  31.040  30.023  1.00  0.00     0.031 C 
ATOM     58  C   UNL A   1      46.542  30.352  30.896  1.00  0.00     0.029 A 
ATOM     59  C   UNL A   1      45.214  30.112  30.579  1.00  0.00     0.049 A 
ATOM     60  H   UNL A   1      44.322  28.345  29.845  1.00  0.00     0.167 HD
ATOM     61  C   UNL A   1      42.822  30.706  30.310  1.00  0.00     0.074 A 
ATOM     62  C   UNL A   1      41.703  31.621  30.397  1.00  0.00     0.031 C 
ATOM     63  C   UNL A   1      44.092  31.013  30.672  1.00  0.00     0.037 A 
BRANCH  50  64
ATOM     64  C   UNL A   1      48.084  26.333  30.054  1.00  0.00     0.057 A 
ATOM     65  C   UNL A   1      49.051  26.338  29.039  1.00  0.00     0.134 A 
ATOM     66  C   UNL A   1      48.471  25.839  31.307  1.00  0.00     0.134 A 
ATOM     67  F   UNL A   1      48.747  26.789  27.812  1.00  0.00    -0.206 F 
ATOM     68  C   UNL A   1      50.337  25.837  29.250  1.00  0.00     0.040 A 
ATOM     69  C   UNL A   1      49.765  25.366  31.540  1.00  0.00     0.040 A 
ATOM     70  F   UNL A   1      47.602  25.812  32.328  1.00  0.00    -0.206 F 
ATOM     71  C   UNL A   1      50.699  25.354  30.506  1.00  0.00     0.006 A 
ENDBRANCH  50  64
BRANCH  51  72
ATOM     72  C   UNL A   1      38.580  29.159  28.977  1.00  0.00     0.057 A 
ATOM     73  C   UNL A   1      38.029  29.591  27.765  1.00  0.00     0.134 A 
ATOM     74  C   UNL A   1      37.726  29.097  30.086  1.00  0.00     0.134 A 
ATOM     75  F   UNL A   1      38.800  29.689  26.672  1.00  0.00    -0.206 F 
ATOM     76  C   UNL A   1      36.686  29.957  27.660  1.00  0.00     0.040 A 
ATOM     77  C   UNL A   1      36.375  29.434  29.991  1.00  0.00     0.040 A 
ATOM     78  F   UNL A   1      38.189  28.681  31.274  1.00  0.00    -0.206 F 
ATOM     79  C   UNL A   1      35.853  29.872  28.775  1.00  0.00     0.006 A 
ENDBRANCH  51  72
BRANCH  63  80
ATOM     80  C   UNL A   1      44.347  32.405  31.176  1.00  0.00     0.057 A 
ATOM     81  C   UNL A   1      44.304  32.718  32.541  1.00  0.00     0.134 A 
ATOM     82  C   UNL A   1      44.677  33.436  30.287  1.00  0.00     0.134 A 
ATOM     83  F   UNL A   1      43.981  31.781  33.445  1.00  0.00    -0.206 F 
ATOM     84  C   UNL A   1      44.559  34.012  33.001  1.00  0.00     0.040 A 
ATOM     85  C   UNL A   1      44.964  34.726  30.737  1.00  0.00     0.040 A 
ATOM     86  F   UNL A   1      44.745  33.203  28.968  1.00  0.00    -0.206 F 
ATOM     87  C   UNL A   1      44.898  35.018  32.098  1.00  0.00     0.006 A 
ENDBRANCH  63  80
ENDBRANCH  37  38
ENDBRANCH  29  32
ENDBRANCH  27  28
ENDBRANCH  26  27
ENDBRANCH   1  26
TORSDOF 14
ENDMDL
MODEL 2
REMARK VINA RESULT:     -11.3      0.883      6.384
REMARK SMILES CN(C(=O)N[C@](C)(C(=O)NCCCNC(=O)c1ccc(-c2c3nc(c(-c4c(F)cccc4F)c4ccc([nH]4)c(-c4c(F)cccc4F)c4nc(c(-c5c(F)cccc5F)c5ccc2[nH]5)C=C4)C=C3)cc1)C(F)(F)F)[C@@H]1CCC[N@@H+](C)C1
REMARK SMILES IDX 11 1 10 2 8 3 9 4 6 6 7 7 5 8 3 9 4 10 2 12 1 13 75 14 80 15
REMARK SMILES IDX 79 16 78 17 81 18 77 20 76 21 71 22 72 23 73 24 74 25 12 26
REMARK SMILES IDX 13 27 14 28 15 29 16 31 17 32 18 33 70 34 19 35 69 36 20 37
REMARK SMILES IDX 21 38 22 39 63 40 23 41 68 42 62 43 64 44 24 45 67 46 61 47
REMARK SMILES IDX 60 48 25 50 51 51 34 52 50 53 35 54 38 55 49 56 65 57 36 58
REMARK SMILES IDX 37 59 48 61 66 62 39 63 26 64 27 65 32 66 28 67 29 68 31 69
REMARK SMILES IDX 33 70 30 71 52 72 53 73 58 74 54 75 55 76 57 77 59 78 56 79
REMARK SMILES IDX 40 80 41 81 46 82 42 83 43 84 45 85 47 86 44 87
REMARK H PARENT 10 5 5 11 79 19 14 30 64 49 38 60
REMARK Flexibility Score: inf
ROOT
ATOM      1  C   UNL A   1      36.309  21.051  24.787  1.00  0.00     0.117 C 
ENDROOT
BRANCH   1   2
ATOM      2  N   UNL A   1      35.733  21.519  26.040  1.00  0.00    -0.354 N 
ATOM      3  C   UNL A   1      34.717  22.367  26.376  1.00  0.00     0.255 C 
ATOM      4  O   UNL A   1      34.540  22.467  27.593  1.00  0.00    -0.272 OA
ATOM      5  H   UNL A   1      36.181  21.134  26.829  1.00  0.00     0.163 HD
BRANCH   3   6
ATOM      6  C   UNL A   1      33.791  23.059  25.326  1.00  0.00     0.213 C 
ATOM      7  C   UNL A   1      33.453  22.110  24.169  1.00  0.00     0.056 C 
BRANCH   6   8
ATOM      8  N   UNL A   1      32.582  23.372  26.151  1.00  0.00    -0.316 N 
ATOM      9  C   UNL A   1      31.394  23.970  26.176  1.00  0.00     0.318 C 
ATOM     10  O   UNL A   1      30.832  23.754  27.251  1.00  0.00    -0.249 OA
ATOM     11  H   UNL A   1      32.725  22.971  27.039  1.00  0.00     0.166 HD
BRANCH   9  12
ATOM     12  N   UNL A   1      30.868  24.747  25.194  1.00  0.00    -0.319 N 
ATOM     13  C   UNL A   1      30.653  24.338  23.826  1.00  0.00     0.149 C 
BRANCH  12  14
ATOM     14  C   UNL A   1      30.451  26.154  25.474  1.00  0.00     0.141 C 
ATOM     15  C   UNL A   1      33.427  28.210  26.691  1.00  0.00     0.332 C 
ATOM     16  N   UNL A   1      32.532  27.557  25.744  1.00  0.00    -0.336 N 
ATOM     17  C   UNL A   1      32.082  28.484  24.701  1.00  0.00     0.262 C 
ATOM     18  C   UNL A   1      31.402  26.922  26.423  1.00  0.00     0.287 C 
ATOM     19  H   UNL A   1      33.063  26.818  25.284  1.00  0.00     0.347 HD
ATOM     20  C   UNL A   1      31.176  27.832  23.651  1.00  0.00     0.064 C 
ATOM     21  C   UNL A   1      30.052  26.992  24.249  1.00  0.00     0.037 C 
ENDBRANCH  12  14
ENDBRANCH   9  12
ENDBRANCH   6   8
BRANCH   6  22
ATOM     22  C   UNL A   1      34.645  24.238  24.792  1.00  0.00     0.420 C 
ATOM     23  F   UNL A   1      35.473  23.861  23.785  1.00  0.00    -0.168 F 
ATOM     24  F   UNL A   1      33.874  25.204  24.231  1.00  0.00    -0.168 F 
ATOM     25  F   UNL A   1      35.385  24.831  25.752  1.00  0.00    -0.168 F 
ENDBRANCH   6  22
ENDBRANCH   3   6
ENDBRANCH   1   2
BRANCH   1  26
ATOM     26  C   UNL A   1      37.380  19.982  25.001  1.00  0.00     0.042 C 
BRANCH  26  27
ATOM     27  C   UNL A   1      38.649  20.468  25.694  1.00  0.00     0.118 C 
BRANCH  27  28
ATOM     28  N   UNL A   1      39.688  19.455  25.767  1.00  0.00    -0.352 N 
ATOM     29  C   UNL A   1      41.016  19.570  26.105  1.00  0.00     0.251 C 
ATOM     30  H   UNL A   1      39.396  18.543  25.539  1.00  0.00     0.163 HD
ATOM     31  O   UNL A   1      41.767  18.613  25.951  1.00  0.00    -0.269 OA
BRANCH  29  32
ATOM     32  C   UNL A   1      41.556  20.849  26.621  1.00  0.00     0.039 A 
ATOM     33  C   UNL A   1      42.068  21.775  25.708  1.00  0.00     0.014 A 
ATOM     34  C   UNL A   1      41.579  21.135  27.987  1.00  0.00     0.014 A 
ATOM     35  C   UNL A   1      42.536  23.012  26.159  1.00  0.00     0.010 A 
ATOM     36  C   UNL A   1      41.966  22.399  28.427  1.00  0.00     0.010 A 
ATOM     37  C   UNL A   1      42.449  23.353  27.519  1.00  0.00    -0.014 A 
BRANCH  37  38
ATOM     38  C   UNL A   1      42.842  24.703  27.998  1.00  0.00     0.031 A 
ATOM     39  C   UNL A   1      41.801  25.758  28.253  1.00  0.00     0.074 A 
ATOM     40  C   UNL A   1      44.148  25.003  28.139  1.00  0.00     0.049 A 
ATOM     41  N   UNL A   1      41.959  27.004  28.620  1.00  0.00    -0.248 NA
ATOM     42  C   UNL A   1      40.398  25.369  28.039  1.00  0.00     0.031 C 
ATOM     43  C   UNL A   1      45.259  24.088  27.868  1.00  0.00     0.029 A 
ATOM     44  N   UNL A   1      44.764  26.166  28.530  1.00  0.00    -0.354 N 
ATOM     45  C   UNL A   1      40.683  27.552  28.663  1.00  0.00     0.074 A 
ATOM     46  C   UNL A   1      39.768  26.517  28.232  1.00  0.00     0.031 C 
ATOM     47  C   UNL A   1      46.417  24.718  28.118  1.00  0.00     0.029 A 
ATOM     48  C   UNL A   1      46.136  26.091  28.525  1.00  0.00     0.049 A 
ATOM     49  H   UNL A   1      44.270  26.978  28.789  1.00  0.00     0.167 HD
ATOM     50  C   UNL A   1      40.306  28.797  29.041  1.00  0.00     0.037 A 
ATOM     51  C   UNL A   1      47.066  27.025  28.803  1.00  0.00     0.037 A 
ATOM     52  C   UNL A   1      41.220  29.818  29.485  1.00  0.00     0.049 A 
ATOM     53  C   UNL A   1      46.626  28.398  29.223  1.00  0.00     0.074 A 
ATOM     54  C   UNL A   1      40.931  31.083  29.969  1.00  0.00     0.029 A 
ATOM     55  N   UNL A   1      42.602  29.698  29.485  1.00  0.00    -0.354 N 
ATOM     56  N   UNL A   1      45.411  28.875  29.346  1.00  0.00    -0.248 NA
ATOM     57  C   UNL A   1      47.685  29.363  29.551  1.00  0.00     0.031 C 
ATOM     58  C   UNL A   1      42.139  31.750  30.199  1.00  0.00     0.029 A 
ATOM     59  C   UNL A   1      43.181  30.879  29.923  1.00  0.00     0.049 A 
ATOM     60  H   UNL A   1      43.099  28.892  29.214  1.00  0.00     0.167 HD
ATOM     61  C   UNL A   1      45.557  30.185  29.784  1.00  0.00     0.074 A 
ATOM     62  C   UNL A   1      46.980  30.421  29.923  1.00  0.00     0.031 C 
ATOM     63  C   UNL A   1      44.599  31.107  30.048  1.00  0.00     0.037 A 
BRANCH  50  64
ATOM     64  C   UNL A   1      38.841  29.128  28.975  1.00  0.00     0.057 A 
ATOM     65  C   UNL A   1      38.005  29.037  30.096  1.00  0.00     0.134 A 
ATOM     66  C   UNL A   1      38.263  29.564  27.776  1.00  0.00     0.134 A 
ATOM     67  F   UNL A   1      38.489  28.618  31.275  1.00  0.00    -0.206 F 
ATOM     68  C   UNL A   1      36.641  29.328  30.017  1.00  0.00     0.040 A 
ATOM     69  C   UNL A   1      36.907  29.891  27.693  1.00  0.00     0.040 A 
ATOM     70  F   UNL A   1      39.005  29.686  26.665  1.00  0.00    -0.206 F 
ATOM     71  C   UNL A   1      36.090  29.763  28.814  1.00  0.00     0.006 A 
ENDBRANCH  50  64
BRANCH  51  72
ATOM     72  C   UNL A   1      48.506  26.679  28.700  1.00  0.00     0.057 A 
ATOM     73  C   UNL A   1      49.183  26.059  29.756  1.00  0.00     0.134 A 
ATOM     74  C   UNL A   1      49.236  26.940  27.533  1.00  0.00     0.134 A 
ATOM     75  F   UNL A   1      48.543  25.799  30.906  1.00  0.00    -0.206 F 
ATOM     76  C   UNL A   1      50.534  25.722  29.663  1.00  0.00     0.040 A 
ATOM     77  C   UNL A   1      50.580  26.585  27.415  1.00  0.00     0.040 A 
ATOM     78  F   UNL A   1      48.644  27.523  26.480  1.00  0.00    -0.206 F 
ATOM     79  C   UNL A   1      51.235  25.978  28.486  1.00  0.00     0.006 A 
ENDBRANCH  51  72
BRANCH  63  80
ATOM     80  C   UNL A   1      45.054  32.454  30.535  1.00  0.00     0.057 A 
ATOM     81  C   UNL A   1      45.290  33.519  29.657  1.00  0.00     0.134 A 
ATOM     82  C   UNL A   1      45.222  32.697  31.905  1.00  0.00     0.134 A 
ATOM     83  F   UNL A   1      45.161  33.351  28.332  1.00  0.00    -0.206 F 
ATOM     84  C   UNL A   1      45.697  34.772  30.121  1.00  0.00     0.040 A 
ATOM     85  C   UNL A   1      45.599  33.953  32.384  1.00  0.00     0.040 A 
ATOM     86  F   UNL A   1      45.004  31.724  32.801  1.00  0.00    -0.206 F 
ATOM     87  C   UNL A   1      45.845  34.993  31.489  1.00  0.00     0.006 A 
ENDBRANCH  63  80
ENDBRANCH  37  38
ENDBRANCH  29  32
ENDBRANCH  27  28
ENDBRANCH  26  27
ENDBRANCH   1  26
TORSDOF 14
ENDMDL
MODEL 3
REMARK VINA RESULT:     -11.2      1.406      6.369
REMARK SMILES CN(C(=O)N[C@](C)(C(=O)NCCCNC(=O)c1ccc(-c2c3nc(c(-c4c(F)cccc4F)c4ccc([nH]4)c(-c4c(F)cccc4F)c4nc(c(-c5c(F)cccc5F)c5ccc2[nH]5)C=C4)C=C3)cc1)C(F)(F)F)[C@@H]1CCC[N@@H+](C)C1
REMARK SMILES IDX 11 1 10 2 8 3 9 4 6 6 7 7 5 8 3 9 4 10 2 12 1 13 75 14 80 15
REMARK SMILES IDX 79 16 78 17 81 18 77 20 76 21 71 22 72 23 73 24 74 25 12 26
REMARK SMILES IDX 13 27 14 28 15 29 16 31 17 32 18 33 70 34 19 35 69 36 20 37
REMARK SMILES IDX 21 38 22 39 63 40 23 41 68 42 62 43 64 44 24 45 67 46 61 47
REMARK SMILES IDX 60 48 25 50 51 51 34 52 50 53 35 54 38 55 49 56 65 57 36 58
REMARK SMILES IDX 37 59 48 61 66 62 39 63 26 64 27 65 32 66 28 67 29 68 31 69
REMARK SMILES IDX 33 70 30 71 52 72 53 73 58 74 54 75 55 76 57 77 59 78 56 79
REMARK SMILES IDX 40 80 41 81 46 82 42 83 43 84 45 85 47 86 44 87
REMARK H PARENT 10 5 5 11 79 19 14 30 64 49 38 60
REMARK Flexibility Score: inf
ROOT
ATOM      1  C   UNL A   1      36.474  20.921  24.889  1.00  0.00     0.117 C 
ENDROOT
BRANCH   1   2
ATOM      2  N   UNL A   1      35.715  21.072  26.123  1.00  0.00    -0.354 N 
ATOM      3  C   UNL A   1      34.652  21.837  26.511  1.00  0.00     0.255 C 
ATOM      4  O   UNL A   1      34.295  21.631  27.674  1.00  0.00    -0.272 OA
ATOM      5  H   UNL A   1      36.044  20.488  26.843  1.00  0.00     0.163 HD
BRANCH   3   6
ATOM      6  C   UNL A   1      33.886  22.799  25.548  1.00  0.00     0.213 C 
ATOM      7  C   UNL A   1      33.596  22.124  24.202  1.00  0.00     0.056 C 
BRANCH   6   8
ATOM      8  N   UNL A   1      32.627  23.055  26.317  1.00  0.00    -0.316 N 
ATOM      9  C   UNL A   1      31.415  23.602  26.289  1.00  0.00     0.318 C 
ATOM     10  O   UNL A   1      30.813  23.355  27.336  1.00  0.00    -0.249 OA
ATOM     11  H   UNL A   1      32.745  22.653  27.209  1.00  0.00     0.166 HD
BRANCH   9  12
ATOM     12  N   UNL A   1      30.904  24.364  25.289  1.00  0.00    -0.319 N 
ATOM     13  C   UNL A   1      30.893  24.011  23.889  1.00  0.00     0.149 C 
BRANCH  12  14
ATOM     14  C   UNL A   1      30.283  25.692  25.580  1.00  0.00     0.141 C 
ATOM     15  C   UNL A   1      32.961  28.402  25.780  1.00  0.00     0.332 C 
ATOM     16  N   UNL A   1      32.013  27.483  25.166  1.00  0.00    -0.336 N 
ATOM     17  C   UNL A   1      31.121  28.174  24.230  1.00  0.00     0.262 C 
ATOM     18  C   UNL A   1      31.260  26.734  26.173  1.00  0.00     0.287 C 
ATOM     19  H   UNL A   1      32.552  26.806  24.626  1.00  0.00     0.347 HD
ATOM     20  C   UNL A   1      30.135  27.241  23.520  1.00  0.00     0.064 C 
ATOM     21  C   UNL A   1      29.410  26.284  24.462  1.00  0.00     0.037 C 
ENDBRANCH  12  14
ENDBRANCH   9  12
ENDBRANCH   6   8
BRANCH   6  22
ATOM     22  C   UNL A   1      34.871  23.976  25.332  1.00  0.00     0.420 C 
ATOM     23  F   UNL A   1      34.279  25.184  25.513  1.00  0.00    -0.168 F 
ATOM     24  F   UNL A   1      35.873  23.968  26.247  1.00  0.00    -0.168 F 
ATOM     25  F   UNL A   1      35.450  23.964  24.113  1.00  0.00    -0.168 F 
ENDBRANCH   6  22
ENDBRANCH   3   6
ENDBRANCH   1   2
BRANCH   1  26
ATOM     26  C   UNL A   1      37.561  19.852  25.002  1.00  0.00     0.042 C 
BRANCH  26  27
ATOM     27  C   UNL A   1      38.826  20.290  25.733  1.00  0.00     0.118 C 
BRANCH  27  28
ATOM     28  N   UNL A   1      39.847  19.257  25.785  1.00  0.00    -0.352 N 
ATOM     29  C   UNL A   1      41.195  19.356  26.037  1.00  0.00     0.251 C 
ATOM     30  H   UNL A   1      39.524  18.344  25.612  1.00  0.00     0.163 HD
ATOM     31  O   UNL A   1      41.915  18.376  25.878  1.00  0.00    -0.269 OA
BRANCH  29  32
ATOM     32  C   UNL A   1      41.791  20.641  26.468  1.00  0.00     0.039 A 
ATOM     33  C   UNL A   1      42.219  21.541  25.488  1.00  0.00     0.014 A 
ATOM     34  C   UNL A   1      41.948  20.959  27.819  1.00  0.00     0.014 A 
ATOM     35  C   UNL A   1      42.736  22.783  25.861  1.00  0.00     0.010 A 
ATOM     36  C   UNL A   1      42.384  22.229  28.189  1.00  0.00     0.010 A 
ATOM     37  C   UNL A   1      42.784  23.157  27.215  1.00  0.00    -0.014 A 
BRANCH  37  38
ATOM     38  C   UNL A   1      43.231  24.514  27.622  1.00  0.00     0.031 A 
ATOM     39  C   UNL A   1      42.229  25.560  28.026  1.00  0.00     0.074 A 
ATOM     40  C   UNL A   1      44.540  24.828  27.560  1.00  0.00     0.049 A 
ATOM     41  N   UNL A   1      42.427  26.811  28.358  1.00  0.00    -0.248 NA
ATOM     42  C   UNL A   1      40.814  25.156  28.030  1.00  0.00     0.031 C 
ATOM     43  C   UNL A   1      45.606  23.922  27.128  1.00  0.00     0.029 A 
ATOM     44  N   UNL A   1      45.195  26.000  27.846  1.00  0.00    -0.354 N 
ATOM     45  C   UNL A   1      41.167  27.347  28.591  1.00  0.00     0.074 A 
ATOM     46  C   UNL A   1      40.208  26.300  28.311  1.00  0.00     0.031 C 
ATOM     47  C   UNL A   1      46.781  24.565  27.195  1.00  0.00     0.029 A 
ATOM     48  C   UNL A   1      46.551  25.938  27.633  1.00  0.00     0.049 A 
ATOM     49  H   UNL A   1      44.738  26.808  28.173  1.00  0.00     0.167 HD
ATOM     50  C   UNL A   1      40.839  28.590  29.015  1.00  0.00     0.037 A 
ATOM     51  C   UNL A   1      47.503  26.883  27.760  1.00  0.00     0.037 A 
ATOM     52  C   UNL A   1      41.799  29.623  29.309  1.00  0.00     0.049 A 
ATOM     53  C   UNL A   1      47.117  28.255  28.235  1.00  0.00     0.074 A 
ATOM     54  C   UNL A   1      41.572  30.888  29.825  1.00  0.00     0.029 A 
ATOM     55  N   UNL A   1      43.166  29.517  29.099  1.00  0.00    -0.354 N 
ATOM     56  N   UNL A   1      45.929  28.721  28.539  1.00  0.00    -0.248 NA
ATOM     57  C   UNL A   1      48.203  29.232  28.392  1.00  0.00     0.031 C 
ATOM     58  C   UNL A   1      42.794  31.569  29.865  1.00  0.00     0.029 A 
ATOM     59  C   UNL A   1      43.792  30.707  29.437  1.00  0.00     0.049 A 
ATOM     60  H   UNL A   1      43.625  28.714  28.760  1.00  0.00     0.167 HD
ATOM     61  C   UNL A   1      46.126  30.036  28.942  1.00  0.00     0.074 A 
ATOM     62  C   UNL A   1      47.551  30.287  28.861  1.00  0.00     0.031 C 
ATOM     63  C   UNL A   1      45.210  30.950  29.344  1.00  0.00     0.037 A 
BRANCH  50  64
ATOM     64  C   UNL A   1      39.377  28.907  29.172  1.00  0.00     0.057 A 
ATOM     65  C   UNL A   1      38.708  28.757  30.394  1.00  0.00     0.134 A 
ATOM     66  C   UNL A   1      38.632  29.387  28.086  1.00  0.00     0.134 A 
ATOM     67  F   UNL A   1      39.357  28.294  31.473  1.00  0.00    -0.206 F 
ATOM     68  C   UNL A   1      37.346  29.035  30.522  1.00  0.00     0.040 A 
ATOM     69  C   UNL A   1      37.277  29.700  28.210  1.00  0.00     0.040 A 
ATOM     70  F   UNL A   1      39.209  29.564  26.888  1.00  0.00    -0.206 F 
ATOM     71  C   UNL A   1      36.627  29.514  29.428  1.00  0.00     0.006 A 
ENDBRANCH  50  64
BRANCH  51  72
ATOM     72  C   UNL A   1      48.913  26.551  27.441  1.00  0.00     0.057 A 
ATOM     73  C   UNL A   1      49.449  26.796  26.171  1.00  0.00     0.134 A 
ATOM     74  C   UNL A   1      49.768  25.998  28.404  1.00  0.00     0.134 A 
ATOM     75  F   UNL A   1      48.676  27.306  25.201  1.00  0.00    -0.206 F 
ATOM     76  C   UNL A   1      50.778  26.495  25.866  1.00  0.00     0.040 A 
ATOM     77  C   UNL A   1      51.105  25.717  28.122  1.00  0.00     0.040 A 
ATOM     78  F   UNL A   1      49.320  25.748  29.643  1.00  0.00    -0.206 F 
ATOM     79  C   UNL A   1      51.612  25.961  26.847  1.00  0.00     0.006 A 
ENDBRANCH  51  72
BRANCH  63  80
ATOM     80  C   UNL A   1      45.719  32.304  29.748  1.00  0.00     0.057 A 
ATOM     81  C   UNL A   1      45.791  33.371  28.843  1.00  0.00     0.134 A 
ATOM     82  C   UNL A   1      46.107  32.554  31.071  1.00  0.00     0.134 A 
ATOM     83  F   UNL A   1      45.446  33.197  27.558  1.00  0.00    -0.206 F 
ATOM     84  C   UNL A   1      46.250  34.630  29.233  1.00  0.00     0.040 A 
ATOM     85  C   UNL A   1      46.540  33.817  31.481  1.00  0.00     0.040 A 
ATOM     86  F   UNL A   1      46.056  31.580  31.992  1.00  0.00    -0.206 F 
ATOM     87  C   UNL A   1      46.619  34.857  30.558  1.00  0.00     0.006 A 
ENDBRANCH  63  80
ENDBRANCH  37  38
ENDBRANCH  29  32
ENDBRANCH  27  28
ENDBRANCH  26  27
ENDBRANCH   1  26
TORSDOF 14
ENDMDL
