MODEL 1
REMARK VINA RESULT:     -11.5      0.000      0.000
REMARK SMILES O=C(NCCCNC(=O)[C@@H]1CC[C@@H](CNC(=O)c2cccc(O)c2)O1)c1ccc(-c2c3nc(c(-c4c(F)cccc4F)c4ccc([nH]4)c(-c4c(F)cccc4F)c4nc(c(-c5c(F)cccc5F)c5ccc2[nH]5)C=C4)C=C3)cc1
REMARK SMILES IDX 6 1 5 2 4 3 3 4 1 5 2 6 26 8 27 9 79 10 28 11 78 12 29 13
REMARK SMILES IDX 30 14 31 15 72 16 32 17 77 18 71 19 73 20 33 21 76 22 70 23
REMARK SMILES IDX 69 24 34 26 60 27 43 28 59 29 44 30 47 31 58 32 74 33 45 34
REMARK SMILES IDX 46 35 57 37 75 38 48 39 35 40 36 41 41 42 37 43 38 44 40 45
REMARK SMILES IDX 42 46 39 47 61 48 62 49 67 50 63 51 64 52 66 53 68 54 65 55
REMARK SMILES IDX 49 56 50 57 55 58 51 59 52 60 54 61 56 62 53 63 7 64 8 65
REMARK SMILES IDX 9 67 10 68 11 69 25 70 12 71 13 72 14 73 15 74 16 75 17 77
REMARK SMILES IDX 18 78 19 79 24 80 20 81 22 82 21 83 23 84
REMARK H PARENT 3 7 73 25 47 36 7 66 15 76 23 85
REMARK Flexibility Score: inf
ROOT
ATOM      1  C   UNL A   1      33.003  27.531  24.998  1.00  0.00     0.117 C 
ENDROOT
BRANCH   1   2
ATOM      2  C   UNL A   1      33.980  28.459  25.723  1.00  0.00     0.042 C 
BRANCH   2   3
ATOM      3  C   UNL A   1      33.687  28.607  27.214  1.00  0.00     0.118 C 
BRANCH   3   4
ATOM      4  N   UNL A   1      33.734  29.999  27.628  1.00  0.00    -0.352 N 
ATOM      5  O   UNL A   1      34.431  31.766  28.823  1.00  0.00    -0.269 OA
ATOM      6  C   UNL A   1      34.703  30.678  28.320  1.00  0.00     0.251 C 
ATOM      7  H   UNL A   1      32.951  30.538  27.372  1.00  0.00     0.163 HD
BRANCH   6   8
ATOM      8  C   UNL A   1      36.071  30.129  28.470  1.00  0.00     0.039 A 
ATOM      9  C   UNL A   1      37.014  30.222  27.440  1.00  0.00     0.014 A 
ATOM     10  C   UNL A   1      36.448  29.606  29.711  1.00  0.00     0.014 A 
ATOM     11  C   UNL A   1      38.305  29.727  27.626  1.00  0.00     0.010 A 
ATOM     12  C   UNL A   1      37.757  29.164  29.916  1.00  0.00     0.010 A 
ATOM     13  C   UNL A   1      38.694  29.215  28.872  1.00  0.00    -0.014 A 
BRANCH  13  14
ATOM     14  C   UNL A   1      40.099  28.804  29.114  1.00  0.00     0.031 A 
ATOM     15  C   UNL A   1      41.087  29.765  29.706  1.00  0.00     0.074 A 
ATOM     16  C   UNL A   1      40.493  27.571  28.746  1.00  0.00     0.049 A 
ATOM     17  N   UNL A   1      42.373  29.614  29.897  1.00  0.00    -0.248 NA
ATOM     18  C   UNL A   1      40.563  31.072  30.128  1.00  0.00     0.031 C 
ATOM     19  C   UNL A   1      39.628  26.555  28.144  1.00  0.00     0.029 A 
ATOM     20  N   UNL A   1      41.725  26.969  28.804  1.00  0.00    -0.354 N 
ATOM     21  C   UNL A   1      42.819  30.812  30.438  1.00  0.00     0.074 A 
ATOM     22  C   UNL A   1      41.668  31.686  30.530  1.00  0.00     0.031 C 
ATOM     23  C   UNL A   1      40.353  25.455  27.892  1.00  0.00     0.029 A 
ATOM     24  C   UNL A   1      41.741  25.706  28.265  1.00  0.00     0.049 A 
ATOM     25  H   UNL A   1      42.518  27.400  29.196  1.00  0.00     0.167 HD
ATOM     26  C   UNL A   1      44.073  31.149  30.824  1.00  0.00     0.037 A 
ATOM     27  C   UNL A   1      42.764  24.854  28.063  1.00  0.00     0.037 A 
ATOM     28  C   UNL A   1      45.211  30.271  30.740  1.00  0.00     0.049 A 
ATOM     29  C   UNL A   1      44.148  25.254  28.481  1.00  0.00     0.074 A 
ATOM     30  C   UNL A   1      46.512  30.502  31.153  1.00  0.00     0.029 A 
ATOM     31  N   UNL A   1      45.184  28.993  30.200  1.00  0.00    -0.354 N 
ATOM     32  N   UNL A   1      44.549  26.375  29.031  1.00  0.00    -0.248 NA
ATOM     33  C   UNL A   1      45.219  24.277  28.252  1.00  0.00     0.031 C 
ATOM     34  C   UNL A   1      47.281  29.379  30.826  1.00  0.00     0.029 A 
ATOM     35  C   UNL A   1      46.450  28.432  30.247  1.00  0.00     0.049 A 
ATOM     36  H   UNL A   1      44.384  28.550  29.837  1.00  0.00     0.167 HD
ATOM     37  C   UNL A   1      45.914  26.233  29.229  1.00  0.00     0.074 A 
ATOM     38  C   UNL A   1      46.273  24.914  28.747  1.00  0.00     0.031 C 
ATOM     39  C   UNL A   1      46.790  27.117  29.767  1.00  0.00     0.037 A 
BRANCH  26  40
ATOM     40  C   UNL A   1      44.282  32.538  31.349  1.00  0.00     0.057 A 
ATOM     41  C   UNL A   1      44.170  32.841  32.712  1.00  0.00     0.134 A 
ATOM     42  C   UNL A   1      44.614  33.585  30.479  1.00  0.00     0.134 A 
ATOM     43  F   UNL A   1      43.842  31.886  33.595  1.00  0.00    -0.206 F 
ATOM     44  C   UNL A   1      44.356  34.140  33.187  1.00  0.00     0.040 A 
ATOM     45  C   UNL A   1      44.824  34.884  30.946  1.00  0.00     0.040 A 
ATOM     46  F   UNL A   1      44.741  33.362  29.162  1.00  0.00    -0.206 F 
ATOM     47  C   UNL A   1      44.687  35.166  32.303  1.00  0.00     0.006 A 
ENDBRANCH  26  40
BRANCH  27  48
ATOM     48  C   UNL A   1      42.497  23.545  27.423  1.00  0.00     0.057 A 
ATOM     49  C   UNL A   1      42.620  23.377  26.041  1.00  0.00     0.134 A 
ATOM     50  C   UNL A   1      42.170  22.417  28.188  1.00  0.00     0.134 A 
ATOM     51  F   UNL A   1      42.917  24.423  25.257  1.00  0.00    -0.206 F 
ATOM     52  C   UNL A   1      42.430  22.132  25.439  1.00  0.00     0.040 A 
ATOM     53  C   UNL A   1      41.997  21.163  27.602  1.00  0.00     0.040 A 
ATOM     54  F   UNL A   1      42.048  22.516  29.520  1.00  0.00    -0.206 F 
ATOM     55  C   UNL A   1      42.127  21.019  26.222  1.00  0.00     0.006 A 
ENDBRANCH  27  48
BRANCH  39  56
ATOM     56  C   UNL A   1      48.217  26.679  29.890  1.00  0.00     0.057 A 
ATOM     57  C   UNL A   1      48.671  25.952  30.997  1.00  0.00     0.134 A 
ATOM     58  C   UNL A   1      49.131  26.938  28.862  1.00  0.00     0.134 A 
ATOM     59  F   UNL A   1      47.845  25.683  32.019  1.00  0.00    -0.206 F 
ATOM     60  C   UNL A   1      49.989  25.501  31.079  1.00  0.00     0.040 A 
ATOM     61  C   UNL A   1      50.446  26.478  28.923  1.00  0.00     0.040 A 
ATOM     62  F   UNL A   1      48.755  27.627  27.774  1.00  0.00    -0.206 F 
ATOM     63  C   UNL A   1      50.879  25.757  30.036  1.00  0.00     0.006 A 
ENDBRANCH  39  56
ENDBRANCH  13  14
ENDBRANCH   6   8
ENDBRANCH   3   4
ENDBRANCH   2   3
ENDBRANCH   1   2
BRANCH   1  64
ATOM     64  N   UNL A   1      31.881  27.181  25.850  1.00  0.00    -0.354 N 
ATOM     65  C   UNL A   1      31.223  25.993  26.011  1.00  0.00     0.249 C 
ATOM     66  H   UNL A   1      31.539  27.919  26.403  1.00  0.00     0.163 HD
ATOM     67  O   UNL A   1      30.204  26.022  26.706  1.00  0.00    -0.272 OA
BRANCH  65  68
ATOM     68  C   UNL A   1      31.771  24.680  25.395  1.00  0.00     0.207 C 
ATOM     69  C   UNL A   1      30.732  23.577  25.211  1.00  0.00     0.045 C 
ATOM     70  O   UNL A   1      32.805  24.103  26.232  1.00  0.00    -0.363 OA
ATOM     71  C   UNL A   1      31.428  22.329  25.691  1.00  0.00     0.037 C 
ATOM     72  C   UNL A   1      32.270  22.901  26.809  1.00  0.00     0.138 C 
BRANCH  72  73
ATOM     73  C   UNL A   1      33.355  21.977  27.372  1.00  0.00     0.148 C 
BRANCH  73  74
ATOM     74  N   UNL A   1      33.435  20.687  26.697  1.00  0.00    -0.349 N 
ATOM     75  C   UNL A   1      33.989  20.368  25.487  1.00  0.00     0.251 C 
ATOM     76  H   UNL A   1      33.030  19.934  27.185  1.00  0.00     0.163 HD
ATOM     77  O   UNL A   1      33.664  19.317  24.938  1.00  0.00    -0.269 OA
BRANCH  75  78
ATOM     78  C   UNL A   1      34.985  21.250  24.850  1.00  0.00     0.043 A 
ATOM     79  C   UNL A   1      34.594  22.229  23.928  1.00  0.00     0.014 A 
ATOM     80  C   UNL A   1      36.313  21.181  25.279  1.00  0.00     0.060 A 
ATOM     81  C   UNL A   1      35.543  23.102  23.396  1.00  0.00     0.005 A 
ATOM     82  C   UNL A   1      37.245  22.065  24.752  1.00  0.00     0.116 A 
ATOM     83  C   UNL A   1      36.874  23.019  23.807  1.00  0.00     0.046 A 
BRANCH  82  84
ATOM     84  O   UNL A   1      38.530  21.977  25.201  1.00  0.00    -0.508 OA
ATOM     85  H   UNL A   1      38.699  21.780  26.102  1.00  0.00     0.293 HD
ENDBRANCH  82  84
ENDBRANCH  75  78
ENDBRANCH  73  74
ENDBRANCH  72  73
ENDBRANCH  65  68
ENDBRANCH   1  64
TORSDOF 14
ENDMDL
MODEL 2
REMARK VINA RESULT:     -11.5      4.643      9.190
REMARK SMILES O=C(NCCCNC(=O)[C@@H]1CC[C@@H](CNC(=O)c2cccc(O)c2)O1)c1ccc(-c2c3nc(c(-c4c(F)cccc4F)c4ccc([nH]4)c(-c4c(F)cccc4F)c4nc(c(-c5c(F)cccc5F)c5ccc2[nH]5)C=C4)C=C3)cc1
REMARK SMILES IDX 6 1 5 2 4 3 3 4 1 5 2 6 26 8 27 9 79 10 28 11 78 12 29 13
REMARK SMILES IDX 30 14 31 15 72 16 32 17 77 18 71 19 73 20 33 21 76 22 70 23
REMARK SMILES IDX 69 24 34 26 60 27 43 28 59 29 44 30 47 31 58 32 74 33 45 34
REMARK SMILES IDX 46 35 57 37 75 38 48 39 35 40 36 41 41 42 37 43 38 44 40 45
REMARK SMILES IDX 42 46 39 47 61 48 62 49 67 50 63 51 64 52 66 53 68 54 65 55
REMARK SMILES IDX 49 56 50 57 55 58 51 59 52 60 54 61 56 62 53 63 7 64 8 65
REMARK SMILES IDX 9 67 10 68 11 69 25 70 12 71 13 72 14 73 15 74 16 75 17 77
REMARK SMILES IDX 18 78 19 79 24 80 20 81 22 82 21 83 23 84
REMARK H PARENT 3 7 73 25 47 36 7 66 15 76 23 85
REMARK Flexibility Score: inf
ROOT
ATOM      1  C   UNL A   1      31.489  30.762  26.376  1.00  0.00     0.117 C 
ENDROOT
BRANCH   1   2
ATOM      2  C   UNL A   1      31.398  32.266  26.642  1.00  0.00     0.042 C 
BRANCH   2   3
ATOM      3  C   UNL A   1      32.664  32.854  27.258  1.00  0.00     0.118 C 
BRANCH   3   4
ATOM      4  N   UNL A   1      32.479  34.248  27.623  1.00  0.00    -0.352 N 
ATOM      5  O   UNL A   1      32.530  36.047  28.963  1.00  0.00    -0.269 OA
ATOM      6  C   UNL A   1      33.031  34.969  28.651  1.00  0.00     0.251 C 
ATOM      7  H   UNL A   1      31.864  34.754  27.043  1.00  0.00     0.163 HD
BRANCH   6   8
ATOM      8  C   UNL A   1      34.218  34.477  29.386  1.00  0.00     0.039 A 
ATOM      9  C   UNL A   1      34.097  33.798  30.603  1.00  0.00     0.014 A 
ATOM     10  C   UNL A   1      35.476  34.604  28.784  1.00  0.00     0.014 A 
ATOM     11  C   UNL A   1      35.234  33.316  31.252  1.00  0.00     0.010 A 
ATOM     12  C   UNL A   1      36.605  34.069  29.406  1.00  0.00     0.010 A 
ATOM     13  C   UNL A   1      36.494  33.426  30.649  1.00  0.00    -0.014 A 
BRANCH  13  14
ATOM     14  C   UNL A   1      37.688  32.804  31.273  1.00  0.00     0.031 A 
ATOM     15  C   UNL A   1      38.339  31.604  30.652  1.00  0.00     0.074 A 
ATOM     16  C   UNL A   1      38.150  33.297  32.437  1.00  0.00     0.049 A 
ATOM     17  N   UNL A   1      39.326  30.872  31.106  1.00  0.00    -0.248 NA
ATOM     18  C   UNL A   1      37.806  31.161  29.356  1.00  0.00     0.031 C 
ATOM     19  C   UNL A   1      37.588  34.449  33.145  1.00  0.00     0.029 A 
ATOM     20  N   UNL A   1      39.183  32.883  33.239  1.00  0.00    -0.354 N 
ATOM     21  C   UNL A   1      39.516  29.869  30.166  1.00  0.00     0.074 A 
ATOM     22  C   UNL A   1      38.532  30.075  29.124  1.00  0.00     0.031 C 
ATOM     23  C   UNL A   1      38.284  34.651  34.275  1.00  0.00     0.029 A 
ATOM     24  C   UNL A   1      39.305  33.615  34.394  1.00  0.00     0.049 A 
ATOM     25  H   UNL A   1      39.779  32.134  33.008  1.00  0.00     0.167 HD
ATOM     26  C   UNL A   1      40.430  28.868  30.174  1.00  0.00     0.037 A 
ATOM     27  C   UNL A   1      40.125  33.453  35.450  1.00  0.00     0.037 A 
ATOM     28  C   UNL A   1      41.412  28.674  31.208  1.00  0.00     0.049 A 
ATOM     29  C   UNL A   1      41.117  32.329  35.445  1.00  0.00     0.074 A 
ATOM     30  C   UNL A   1      42.413  27.721  31.280  1.00  0.00     0.029 A 
ATOM     31  N   UNL A   1      41.512  29.446  32.356  1.00  0.00    -0.354 N 
ATOM     32  N   UNL A   1      41.315  31.411  34.530  1.00  0.00    -0.248 NA
ATOM     33  C   UNL A   1      41.997  32.214  36.616  1.00  0.00     0.031 C 
ATOM     34  C   UNL A   1      43.093  27.891  32.491  1.00  0.00     0.029 A 
ATOM     35  C   UNL A   1      42.543  28.977  33.154  1.00  0.00     0.049 A 
ATOM     36  H   UNL A   1      40.936  30.214  32.573  1.00  0.00     0.167 HD
ATOM     37  C   UNL A   1      42.351  30.620  35.004  1.00  0.00     0.074 A 
ATOM     38  C   UNL A   1      42.746  31.170  36.286  1.00  0.00     0.031 C 
ATOM     39  C   UNL A   1      42.925  29.538  34.425  1.00  0.00     0.037 A 
BRANCH  26  40
ATOM     40  C   UNL A   1      40.388  27.891  29.037  1.00  0.00     0.057 A 
ATOM     41  C   UNL A   1      41.144  28.076  27.872  1.00  0.00     0.134 A 
ATOM     42  C   UNL A   1      39.593  26.740  29.115  1.00  0.00     0.134 A 
ATOM     43  F   UNL A   1      41.917  29.163  27.729  1.00  0.00    -0.206 F 
ATOM     44  C   UNL A   1      41.090  27.165  26.816  1.00  0.00     0.040 A 
ATOM     45  C   UNL A   1      39.548  25.811  28.074  1.00  0.00     0.040 A 
ATOM     46  F   UNL A   1      38.848  26.500  30.205  1.00  0.00    -0.206 F 
ATOM     47  C   UNL A   1      40.292  26.027  26.916  1.00  0.00     0.006 A 
ENDBRANCH  26  40
BRANCH  27  48
ATOM     48  C   UNL A   1      40.020  34.388  36.595  1.00  0.00     0.057 A 
ATOM     49  C   UNL A   1      40.687  35.617  36.588  1.00  0.00     0.134 A 
ATOM     50  C   UNL A   1      39.205  34.098  37.696  1.00  0.00     0.134 A 
ATOM     51  F   UNL A   1      41.492  35.943  35.567  1.00  0.00    -0.206 F 
ATOM     52  C   UNL A   1      40.544  36.528  37.636  1.00  0.00     0.040 A 
ATOM     53  C   UNL A   1      39.037  35.007  38.741  1.00  0.00     0.040 A 
ATOM     54  F   UNL A   1      38.534  32.937  37.753  1.00  0.00    -0.206 F 
ATOM     55  C   UNL A   1      39.710  36.227  38.712  1.00  0.00     0.006 A 
ENDBRANCH  27  48
BRANCH  39  56
ATOM     56  C   UNL A   1      44.062  28.891  35.156  1.00  0.00     0.057 A 
ATOM     57  C   UNL A   1      45.393  29.249  34.912  1.00  0.00     0.134 A 
ATOM     58  C   UNL A   1      43.815  27.942  36.156  1.00  0.00     0.134 A 
ATOM     59  F   UNL A   1      45.693  30.142  33.958  1.00  0.00    -0.206 F 
ATOM     60  C   UNL A   1      46.442  28.680  35.636  1.00  0.00     0.040 A 
ATOM     61  C   UNL A   1      44.853  27.380  36.899  1.00  0.00     0.040 A 
ATOM     62  F   UNL A   1      42.560  27.562  36.439  1.00  0.00    -0.206 F 
ATOM     63  C   UNL A   1      46.173  27.749  36.638  1.00  0.00     0.006 A 
ENDBRANCH  39  56
ENDBRANCH  13  14
ENDBRANCH   6   8
ENDBRANCH   3   4
ENDBRANCH   2   3
ENDBRANCH   1   2
BRANCH   1  64
ATOM     64  N   UNL A   1      32.765  30.228  26.816  1.00  0.00    -0.354 N 
ATOM     65  C   UNL A   1      33.301  28.978  26.680  1.00  0.00     0.249 C 
ATOM     66  H   UNL A   1      33.339  30.873  27.289  1.00  0.00     0.163 HD
ATOM     67  O   UNL A   1      34.356  28.766  27.283  1.00  0.00    -0.272 OA
BRANCH  65  68
ATOM     68  C   UNL A   1      32.637  27.913  25.769  1.00  0.00     0.207 C 
ATOM     69  C   UNL A   1      33.614  27.078  24.944  1.00  0.00     0.045 C 
ATOM     70  O   UNL A   1      31.747  28.532  24.807  1.00  0.00    -0.363 OA
ATOM     71  C   UNL A   1      32.986  27.021  23.574  1.00  0.00     0.037 C 
ATOM     72  C   UNL A   1      32.350  28.392  23.511  1.00  0.00     0.138 C 
BRANCH  72  73
ATOM     73  C   UNL A   1      31.359  28.618  22.365  1.00  0.00     0.148 C 
BRANCH  73  74
ATOM     74  N   UNL A   1      30.061  27.989  22.579  1.00  0.00    -0.349 N 
ATOM     75  C   UNL A   1      28.854  28.558  22.881  1.00  0.00     0.251 C 
ATOM     76  H   UNL A   1      30.052  27.008  22.494  1.00  0.00     0.163 HD
ATOM     77  O   UNL A   1      27.962  27.857  23.354  1.00  0.00    -0.269 OA
BRANCH  75  78
ATOM     78  C   UNL A   1      28.601  29.989  22.622  1.00  0.00     0.043 A 
ATOM     79  C   UNL A   1      28.951  30.963  23.566  1.00  0.00     0.014 A 
ATOM     80  C   UNL A   1      28.126  30.369  21.365  1.00  0.00     0.060 A 
ATOM     81  C   UNL A   1      28.774  32.314  23.269  1.00  0.00     0.005 A 
ATOM     82  C   UNL A   1      27.967  31.718  21.077  1.00  0.00     0.116 A 
ATOM     83  C   UNL A   1      28.278  32.694  22.021  1.00  0.00     0.046 A 
BRANCH  82  84
ATOM     84  O   UNL A   1      27.512  32.054  19.836  1.00  0.00    -0.508 OA
ATOM     85  H   UNL A   1      27.670  31.484  19.108  1.00  0.00     0.293 HD
ENDBRANCH  82  84
ENDBRANCH  75  78
ENDBRANCH  73  74
ENDBRANCH  72  73
ENDBRANCH  65  68
ENDBRANCH   1  64
TORSDOF 14
ENDMDL
MODEL 3
REMARK VINA RESULT:     -11.4      3.854      6.968
REMARK SMILES O=C(NCCCNC(=O)[C@@H]1CC[C@@H](CNC(=O)c2cccc(O)c2)O1)c1ccc(-c2c3nc(c(-c4c(F)cccc4F)c4ccc([nH]4)c(-c4c(F)cccc4F)c4nc(c(-c5c(F)cccc5F)c5ccc2[nH]5)C=C4)C=C3)cc1
REMARK SMILES IDX 6 1 5 2 4 3 3 4 1 5 2 6 26 8 27 9 79 10 28 11 78 12 29 13
REMARK SMILES IDX 30 14 31 15 72 16 32 17 77 18 71 19 73 20 33 21 76 22 70 23
REMARK SMILES IDX 69 24 34 26 60 27 43 28 59 29 44 30 47 31 58 32 74 33 45 34
REMARK SMILES IDX 46 35 57 37 75 38 48 39 35 40 36 41 41 42 37 43 38 44 40 45
REMARK SMILES IDX 42 46 39 47 61 48 62 49 67 50 63 51 64 52 66 53 68 54 65 55
REMARK SMILES IDX 49 56 50 57 55 58 51 59 52 60 54 61 56 62 53 63 7 64 8 65
REMARK SMILES IDX 9 67 10 68 11 69 25 70 12 71 13 72 14 73 15 74 16 75 17 77
REMARK SMILES IDX 18 78 19 79 24 80 20 81 22 82 21 83 23 84
REMARK H PARENT 3 7 73 25 47 36 7 66 15 76 23 85
REMARK Flexibility Score: inf
ROOT
ATOM      1  C   UNL A   1      33.549  34.203  28.537  1.00  0.00     0.117 C 
ENDROOT
BRANCH   1   2
ATOM      2  C   UNL A   1      34.897  33.480  28.486  1.00  0.00     0.042 C 
BRANCH   2   3
ATOM      3  C   UNL A   1      34.991  32.298  29.448  1.00  0.00     0.118 C 
BRANCH   3   4
ATOM      4  N   UNL A   1      34.403  31.100  28.875  1.00  0.00    -0.352 N 
ATOM      5  O   UNL A   1      34.339  29.237  27.626  1.00  0.00    -0.269 OA
ATOM      6  C   UNL A   1      35.009  30.008  28.309  1.00  0.00     0.251 C 
ATOM      7  H   UNL A   1      33.420  31.065  28.897  1.00  0.00     0.163 HD
BRANCH   6   8
ATOM      8  C   UNL A   1      36.452  29.737  28.510  1.00  0.00     0.039 A 
ATOM      9  C   UNL A   1      36.923  29.100  29.664  1.00  0.00     0.014 A 
ATOM     10  C   UNL A   1      37.337  30.030  27.468  1.00  0.00     0.014 A 
ATOM     11  C   UNL A   1      38.284  28.828  29.806  1.00  0.00     0.010 A 
ATOM     12  C   UNL A   1      38.689  29.703  27.586  1.00  0.00     0.010 A 
ATOM     13  C   UNL A   1      39.175  29.105  28.760  1.00  0.00    -0.014 A 
BRANCH  13  14
ATOM     14  C   UNL A   1      40.600  28.702  28.854  1.00  0.00     0.031 A 
ATOM     15  C   UNL A   1      41.652  29.692  29.256  1.00  0.00     0.074 A 
ATOM     16  C   UNL A   1      40.947  27.445  28.521  1.00  0.00     0.049 A 
ATOM     17  N   UNL A   1      42.952  29.545  29.298  1.00  0.00    -0.248 NA
ATOM     18  C   UNL A   1      41.183  31.027  29.654  1.00  0.00     0.031 C 
ATOM     19  C   UNL A   1      40.015  26.398  28.097  1.00  0.00     0.029 A 
ATOM     20  N   UNL A   1      42.177  26.839  28.466  1.00  0.00    -0.354 N 
ATOM     21  C   UNL A   1      43.459  30.772  29.701  1.00  0.00     0.074 A 
ATOM     22  C   UNL A   1      42.328  31.659  29.876  1.00  0.00     0.031 C 
ATOM     23  C   UNL A   1      40.706  25.279  27.829  1.00  0.00     0.029 A 
ATOM     24  C   UNL A   1      42.129  25.544  28.013  1.00  0.00     0.049 A 
ATOM     25  H   UNL A   1      43.012  27.289  28.729  1.00  0.00     0.167 HD
ATOM     26  C   UNL A   1      44.752  31.125  29.907  1.00  0.00     0.037 A 
ATOM     27  C   UNL A   1      43.120  24.675  27.742  1.00  0.00     0.037 A 
ATOM     28  C   UNL A   1      45.871  30.235  29.742  1.00  0.00     0.049 A 
ATOM     29  C   UNL A   1      44.544  25.091  27.960  1.00  0.00     0.074 A 
ATOM     30  C   UNL A   1      47.213  30.484  29.975  1.00  0.00     0.029 A 
ATOM     31  N   UNL A   1      45.780  28.926  29.293  1.00  0.00    -0.354 N 
ATOM     32  N   UNL A   1      45.008  26.242  28.383  1.00  0.00    -0.248 NA
ATOM     33  C   UNL A   1      45.581  24.093  27.665  1.00  0.00     0.031 C 
ATOM     34  C   UNL A   1      47.937  29.337  29.630  1.00  0.00     0.029 A 
ATOM     35  C   UNL A   1      47.042  28.361  29.220  1.00  0.00     0.049 A 
ATOM     36  H   UNL A   1      44.941  28.466  29.060  1.00  0.00     0.167 HD
ATOM     37  C   UNL A   1      46.388  26.104  28.420  1.00  0.00     0.074 A 
ATOM     38  C   UNL A   1      46.686  24.754  27.984  1.00  0.00     0.031 C 
ATOM     39  C   UNL A   1      47.322  27.015  28.788  1.00  0.00     0.037 A 
BRANCH  26  40
ATOM     40  C   UNL A   1      45.021  32.544  30.311  1.00  0.00     0.057 A 
ATOM     41  C   UNL A   1      45.090  32.932  31.655  1.00  0.00     0.134 A 
ATOM     42  C   UNL A   1      45.230  33.532  29.340  1.00  0.00     0.134 A 
ATOM     43  F   UNL A   1      44.887  32.036  32.633  1.00  0.00    -0.206 F 
ATOM     44  C   UNL A   1      45.332  34.258  32.019  1.00  0.00     0.040 A 
ATOM     45  C   UNL A   1      45.494  34.857  29.693  1.00  0.00     0.040 A 
ATOM     46  F   UNL A   1      45.183  33.226  28.035  1.00  0.00    -0.206 F 
ATOM     47  C   UNL A   1      45.537  35.224  31.036  1.00  0.00     0.006 A 
ENDBRANCH  26  40
BRANCH  27  48
ATOM     48  C   UNL A   1      42.778  23.328  27.226  1.00  0.00     0.057 A 
ATOM     49  C   UNL A   1      42.859  23.034  25.861  1.00  0.00     0.134 A 
ATOM     50  C   UNL A   1      42.419  22.289  28.094  1.00  0.00     0.134 A 
ATOM     51  F   UNL A   1      43.184  23.993  24.983  1.00  0.00    -0.206 F 
ATOM     52  C   UNL A   1      42.597  21.752  25.376  1.00  0.00     0.040 A 
ATOM     53  C   UNL A   1      42.175  20.998  27.625  1.00  0.00     0.040 A 
ATOM     54  F   UNL A   1      42.334  22.509  29.414  1.00  0.00    -0.206 F 
ATOM     55  C   UNL A   1      42.264  20.727  26.261  1.00  0.00     0.006 A 
ENDBRANCH  27  48
BRANCH  39  56
ATOM     56  C   UNL A   1      48.754  26.576  28.764  1.00  0.00     0.057 A 
ATOM     57  C   UNL A   1      49.345  25.932  29.857  1.00  0.00     0.134 A 
ATOM     58  C   UNL A   1      49.531  26.749  27.611  1.00  0.00     0.134 A 
ATOM     59  F   UNL A   1      48.656  25.749  30.992  1.00  0.00    -0.206 F 
ATOM     60  C   UNL A   1      50.664  25.477  29.805  1.00  0.00     0.040 A 
ATOM     61  C   UNL A   1      50.844  26.284  27.541  1.00  0.00     0.040 A 
ATOM     62  F   UNL A   1      49.018  27.355  26.530  1.00  0.00    -0.206 F 
ATOM     63  C   UNL A   1      51.415  25.646  28.642  1.00  0.00     0.006 A 
ENDBRANCH  39  56
ENDBRANCH  13  14
ENDBRANCH   6   8
ENDBRANCH   3   4
ENDBRANCH   2   3
ENDBRANCH   1   2
BRANCH   1  64
ATOM     64  N   UNL A   1      33.719  35.638  28.402  1.00  0.00    -0.354 N 
ATOM     65  C   UNL A   1      33.278  36.664  29.190  1.00  0.00     0.249 C 
ATOM     66  H   UNL A   1      34.237  35.918  27.613  1.00  0.00     0.163 HD
ATOM     67  O   UNL A   1      33.450  37.804  28.751  1.00  0.00    -0.272 OA
BRANCH  65  68
ATOM     68  C   UNL A   1      32.649  36.396  30.581  1.00  0.00     0.207 C 
ATOM     69  C   UNL A   1      33.165  37.297  31.702  1.00  0.00     0.045 C 
ATOM     70  O   UNL A   1      32.914  35.040  31.021  1.00  0.00    -0.363 OA
ATOM     71  C   UNL A   1      33.387  36.358  32.860  1.00  0.00     0.037 C 
ATOM     72  C   UNL A   1      33.837  35.117  32.120  1.00  0.00     0.138 C 
BRANCH  72  73
ATOM     73  C   UNL A   1      33.889  33.827  32.945  1.00  0.00     0.148 C 
BRANCH  73  74
ATOM     74  N   UNL A   1      34.703  33.934  34.151  1.00  0.00    -0.349 N 
ATOM     75  C   UNL A   1      35.987  33.520  34.376  1.00  0.00     0.251 C 
ATOM     76  H   UNL A   1      34.262  34.369  34.916  1.00  0.00     0.163 HD
ATOM     77  O   UNL A   1      36.380  33.388  35.533  1.00  0.00    -0.269 OA
BRANCH  75  78
ATOM     78  C   UNL A   1      36.910  33.257  33.255  1.00  0.00     0.043 A 
ATOM     79  C   UNL A   1      37.249  31.947  32.895  1.00  0.00     0.014 A 
ATOM     80  C   UNL A   1      37.339  34.333  32.474  1.00  0.00     0.060 A 
ATOM     81  C   UNL A   1      38.062  31.720  31.784  1.00  0.00     0.005 A 
ATOM     82  C   UNL A   1      38.137  34.092  31.363  1.00  0.00     0.116 A 
ATOM     83  C   UNL A   1      38.510  32.796  31.016  1.00  0.00     0.046 A 
BRANCH  82  84
ATOM     84  O   UNL A   1      38.529  35.165  30.617  1.00  0.00    -0.508 OA
ATOM     85  H   UNL A   1      39.429  35.427  30.610  1.00  0.00     0.293 HD
ENDBRANCH  82  84
ENDBRANCH  75  78
ENDBRANCH  73  74
ENDBRANCH  72  73
ENDBRANCH  65  68
ENDBRANCH   1  64
TORSDOF 14
ENDMDL
