MODEL 1
REMARK VINA RESULT:     -12.2      0.000      0.000
REMARK SMILES O=C(NCCCNC(=O)c1ccccc1Nc1cccc(C(F)(F)F)c1)c1ccc(-c2c3nc(c(-c4c(F)cccc4F)c4ccc([nH]4)c(-c4c(F)cccc4F)c4nc(c(-c5c(F)cccc5F)c5ccc2[nH]5)C=C4)C=C3)cc1
REMARK SMILES IDX 5 1 4 2 3 3 1 4 2 5 27 7 28 8 80 9 29 10 79 11 30 12 31 13
REMARK SMILES IDX 32 14 73 15 33 16 78 17 72 18 74 19 34 20 77 21 71 22 70 23
REMARK SMILES IDX 35 25 61 26 44 27 60 28 45 29 48 30 59 31 75 32 46 33 47 34
REMARK SMILES IDX 58 36 76 37 49 38 36 39 37 40 42 41 38 42 39 43 41 44 43 45
REMARK SMILES IDX 40 46 62 47 63 48 68 49 64 50 65 51 67 52 69 53 66 54 50 55
REMARK SMILES IDX 51 56 56 57 52 58 53 59 55 60 57 61 54 62 6 63 7 64 8 65
REMARK SMILES IDX 9 67 10 68 11 69 15 70 12 71 14 72 13 73 16 74 17 76 18 77
REMARK SMILES IDX 26 78 19 79 21 80 20 81 22 82 23 83 24 84 25 85
REMARK H PARENT 3 6 74 24 48 35 7 66 16 75
REMARK Flexibility Score: inf
ROOT
ATOM      1  C   UNL A   1      37.609  20.064  24.868  1.00  0.00     0.042 C 
ENDROOT
BRANCH   1   2
ATOM      2  C   UNL A   1      38.768  20.419  25.787  1.00  0.00     0.118 C 
BRANCH   2   3
ATOM      3  N   UNL A   1      39.868  19.462  25.740  1.00  0.00    -0.352 N 
ATOM      4  O   UNL A   1      41.981  18.685  25.799  1.00  0.00    -0.269 OA
ATOM      5  C   UNL A   1      41.203  19.606  26.039  1.00  0.00     0.251 C 
ATOM      6  H   UNL A   1      39.612  18.560  25.441  1.00  0.00     0.163 HD
BRANCH   5   7
ATOM      7  C   UNL A   1      41.719  20.871  26.609  1.00  0.00     0.039 A 
ATOM      8  C   UNL A   1      41.789  21.063  27.987  1.00  0.00     0.014 A 
ATOM      9  C   UNL A   1      42.146  21.887  25.747  1.00  0.00     0.014 A 
ATOM     10  C   UNL A   1      42.062  22.326  28.494  1.00  0.00     0.010 A 
ATOM     11  C   UNL A   1      42.544  23.124  26.267  1.00  0.00     0.010 A 
ATOM     12  C   UNL A   1      42.449  23.374  27.643  1.00  0.00    -0.014 A 
BRANCH  12  13
ATOM     13  C   UNL A   1      42.765  24.703  28.235  1.00  0.00     0.031 A 
ATOM     14  C   UNL A   1      44.185  25.111  28.527  1.00  0.00     0.074 A 
ATOM     15  C   UNL A   1      41.758  25.574  28.447  1.00  0.00     0.049 A 
ATOM     16  N   UNL A   1      44.635  26.257  28.977  1.00  0.00    -0.248 NA
ATOM     17  C   UNL A   1      45.235  24.108  28.297  1.00  0.00     0.031 C 
ATOM     18  C   UNL A   1      40.338  25.293  28.219  1.00  0.00     0.029 A 
ATOM     19  N   UNL A   1      41.773  26.881  28.863  1.00  0.00    -0.354 N 
ATOM     20  C   UNL A   1      46.008  26.102  29.115  1.00  0.00     0.074 A 
ATOM     21  C   UNL A   1      46.319  24.744  28.719  1.00  0.00     0.031 C 
ATOM     22  C   UNL A   1      39.630  26.413  28.419  1.00  0.00     0.029 A 
ATOM     23  C   UNL A   1      40.533  27.471  28.856  1.00  0.00     0.049 A 
ATOM     24  H   UNL A   1      42.593  27.351  29.139  1.00  0.00     0.167 HD
ATOM     25  C   UNL A   1      46.928  27.008  29.527  1.00  0.00     0.037 A 
ATOM     26  C   UNL A   1      40.158  28.724  29.169  1.00  0.00     0.037 A 
ATOM     27  C   UNL A   1      46.624  28.370  29.883  1.00  0.00     0.049 A 
ATOM     28  C   UNL A   1      41.198  29.709  29.611  1.00  0.00     0.074 A 
ATOM     29  C   UNL A   1      47.495  29.376  30.266  1.00  0.00     0.029 A 
ATOM     30  N   UNL A   1      45.351  28.918  29.897  1.00  0.00    -0.354 N 
ATOM     31  N   UNL A   1      42.496  29.553  29.707  1.00  0.00    -0.248 NA
ATOM     32  C   UNL A   1      40.721  31.045  29.995  1.00  0.00     0.031 C 
ATOM     33  C   UNL A   1      46.744  30.523  30.549  1.00  0.00     0.029 A 
ATOM     34  C   UNL A   1      45.410  30.243  30.302  1.00  0.00     0.049 A 
ATOM     35  H   UNL A   1      44.526  28.438  29.655  1.00  0.00     0.167 HD
ATOM     36  C   UNL A   1      42.992  30.771  30.149  1.00  0.00     0.074 A 
ATOM     37  C   UNL A   1      41.858  31.662  30.281  1.00  0.00     0.031 C 
ATOM     38  C   UNL A   1      44.273  31.117  30.425  1.00  0.00     0.037 A 
BRANCH  25  39
ATOM     39  C   UNL A   1      48.354  26.552  29.634  1.00  0.00     0.057 A 
ATOM     40  C   UNL A   1      49.283  26.759  28.606  1.00  0.00     0.134 A 
ATOM     41  C   UNL A   1      48.816  25.934  30.805  1.00  0.00     0.134 A 
ATOM     42  F   UNL A   1      48.904  27.334  27.454  1.00  0.00    -0.206 F 
ATOM     43  C   UNL A   1      50.612  26.349  28.730  1.00  0.00     0.040 A 
ATOM     44  C   UNL A   1      50.148  25.541  30.949  1.00  0.00     0.040 A 
ATOM     45  F   UNL A   1      47.981  25.713  31.832  1.00  0.00    -0.206 F 
ATOM     46  C   UNL A   1      51.049  25.744  29.906  1.00  0.00     0.006 A 
ENDBRANCH  25  39
BRANCH  26  47
ATOM     47  C   UNL A   1      38.731  29.116  29.062  1.00  0.00     0.057 A 
ATOM     48  C   UNL A   1      37.885  29.072  30.176  1.00  0.00     0.134 A 
ATOM     49  C   UNL A   1      38.184  29.556  27.850  1.00  0.00     0.134 A 
ATOM     50  F   UNL A   1      38.348  28.643  31.359  1.00  0.00    -0.206 F 
ATOM     51  C   UNL A   1      36.543  29.443  30.087  1.00  0.00     0.040 A 
ATOM     52  C   UNL A   1      36.851  29.954  27.754  1.00  0.00     0.040 A 
ATOM     53  F   UNL A   1      38.946  29.627  26.750  1.00  0.00    -0.206 F 
ATOM     54  C   UNL A   1      36.025  29.893  28.873  1.00  0.00     0.006 A 
ENDBRANCH  26  47
BRANCH  38  55
ATOM     55  C   UNL A   1      44.510  32.530  30.869  1.00  0.00     0.057 A 
ATOM     56  C   UNL A   1      44.751  33.560  29.952  1.00  0.00     0.134 A 
ATOM     57  C   UNL A   1      44.486  32.862  32.229  1.00  0.00     0.134 A 
ATOM     58  F   UNL A   1      44.801  33.302  28.636  1.00  0.00    -0.206 F 
ATOM     59  C   UNL A   1      44.985  34.869  30.374  1.00  0.00     0.040 A 
ATOM     60  C   UNL A   1      44.696  34.172  32.662  1.00  0.00     0.040 A 
ATOM     61  F   UNL A   1      44.256  31.922  33.157  1.00  0.00    -0.206 F 
ATOM     62  C   UNL A   1      44.953  35.179  31.733  1.00  0.00     0.006 A 
ENDBRANCH  38  55
ENDBRANCH  12  13
ENDBRANCH   5   7
ENDBRANCH   2   3
ENDBRANCH   1   2
BRANCH   1  63
ATOM     63  C   UNL A   1      36.460  21.059  24.890  1.00  0.00     0.118 C 
BRANCH  63  64
ATOM     64  N   UNL A   1      35.729  21.049  26.149  1.00  0.00    -0.352 N 
ATOM     65  C   UNL A   1      34.692  21.842  26.569  1.00  0.00     0.253 C 
ATOM     66  H   UNL A   1      36.022  20.368  26.797  1.00  0.00     0.163 HD
ATOM     67  O   UNL A   1      34.296  21.748  27.728  1.00  0.00    -0.269 OA
BRANCH  65  68
ATOM     68  C   UNL A   1      34.058  22.819  25.658  1.00  0.00     0.063 A 
ATOM     69  C   UNL A   1      34.674  24.079  25.577  1.00  0.00     0.016 A 
ATOM     70  C   UNL A   1      32.869  22.547  24.949  1.00  0.00     0.051 A 
ATOM     71  C   UNL A   1      34.145  25.065  24.751  1.00  0.00     0.001 A 
ATOM     72  C   UNL A   1      32.371  23.554  24.106  1.00  0.00     0.027 A 
ATOM     73  C   UNL A   1      32.998  24.800  24.008  1.00  0.00     0.002 A 
BRANCH  70  74
ATOM     74  N   UNL A   1      32.214  21.301  25.042  1.00  0.00    -0.355 N 
ATOM     75  H   UNL A   1      31.507  21.264  25.726  1.00  0.00     0.167 HD
BRANCH  74  76
ATOM     76  C   UNL A   1      32.395  20.104  24.326  1.00  0.00     0.039 A 
ATOM     77  C   UNL A   1      32.127  20.086  22.953  1.00  0.00     0.026 A 
ATOM     78  C   UNL A   1      32.874  18.931  24.925  1.00  0.00     0.039 A 
ATOM     79  C   UNL A   1      32.331  18.930  22.196  1.00  0.00     0.003 A 
ATOM     80  C   UNL A   1      33.073  17.755  24.181  1.00  0.00     0.058 A 
ATOM     81  C   UNL A   1      32.805  17.771  22.807  1.00  0.00     0.013 A 
BRANCH  80  82
ATOM     82  C   UNL A   1      33.588  16.500  24.840  1.00  0.00     0.416 C 
ATOM     83  F   UNL A   1      32.831  15.406  24.551  1.00  0.00    -0.166 F 
ATOM     84  F   UNL A   1      34.855  16.192  24.448  1.00  0.00    -0.166 F 
ATOM     85  F   UNL A   1      33.626  16.575  26.200  1.00  0.00    -0.166 F 
ENDBRANCH  80  82
ENDBRANCH  74  76
ENDBRANCH  70  74
ENDBRANCH  65  68
ENDBRANCH  63  64
ENDBRANCH   1  63
TORSDOF 13
ENDMDL
MODEL 2
REMARK VINA RESULT:     -12.1      5.454     10.184
REMARK SMILES O=C(NCCCNC(=O)c1ccccc1Nc1cccc(C(F)(F)F)c1)c1ccc(-c2c3nc(c(-c4c(F)cccc4F)c4ccc([nH]4)c(-c4c(F)cccc4F)c4nc(c(-c5c(F)cccc5F)c5ccc2[nH]5)C=C4)C=C3)cc1
REMARK SMILES IDX 5 1 4 2 3 3 1 4 2 5 27 7 28 8 80 9 29 10 79 11 30 12 31 13
REMARK SMILES IDX 32 14 73 15 33 16 78 17 72 18 74 19 34 20 77 21 71 22 70 23
REMARK SMILES IDX 35 25 61 26 44 27 60 28 45 29 48 30 59 31 75 32 46 33 47 34
REMARK SMILES IDX 58 36 76 37 49 38 36 39 37 40 42 41 38 42 39 43 41 44 43 45
REMARK SMILES IDX 40 46 62 47 63 48 68 49 64 50 65 51 67 52 69 53 66 54 50 55
REMARK SMILES IDX 51 56 56 57 52 58 53 59 55 60 57 61 54 62 6 63 7 64 8 65
REMARK SMILES IDX 9 67 10 68 11 69 15 70 12 71 14 72 13 73 16 74 17 76 18 77
REMARK SMILES IDX 26 78 19 79 21 80 20 81 22 82 23 83 24 84 25 85
REMARK H PARENT 3 6 74 24 48 35 7 66 16 75
REMARK Flexibility Score: inf
ROOT
ATOM      1  C   UNL A   1      31.521  31.521  26.519  1.00  0.00     0.042 C 
ENDROOT
BRANCH   1   2
ATOM      2  C   UNL A   1      32.766  32.309  26.897  1.00  0.00     0.118 C 
BRANCH   2   3
ATOM      3  N   UNL A   1      32.483  33.653  27.388  1.00  0.00    -0.352 N 
ATOM      4  O   UNL A   1      32.578  35.466  28.719  1.00  0.00    -0.269 OA
ATOM      5  C   UNL A   1      33.071  34.391  28.389  1.00  0.00     0.251 C 
ATOM      6  H   UNL A   1      31.744  34.110  26.925  1.00  0.00     0.163 HD
BRANCH   5   7
ATOM      7  C   UNL A   1      34.268  33.886  29.099  1.00  0.00     0.039 A 
ATOM      8  C   UNL A   1      35.543  34.345  28.777  1.00  0.00     0.014 A 
ATOM      9  C   UNL A   1      34.111  32.933  30.112  1.00  0.00     0.014 A 
ATOM     10  C   UNL A   1      36.659  33.700  29.294  1.00  0.00     0.010 A 
ATOM     11  C   UNL A   1      35.238  32.372  30.725  1.00  0.00     0.010 A 
ATOM     12  C   UNL A   1      36.524  32.708  30.279  1.00  0.00    -0.014 A 
BRANCH  12  13
ATOM     13  C   UNL A   1      37.750  32.069  30.828  1.00  0.00     0.031 A 
ATOM     14  C   UNL A   1      38.241  32.382  32.218  1.00  0.00     0.074 A 
ATOM     15  C   UNL A   1      38.389  31.143  30.084  1.00  0.00     0.049 A 
ATOM     16  N   UNL A   1      39.250  31.861  32.871  1.00  0.00    -0.248 NA
ATOM     17  C   UNL A   1      37.517  33.418  32.969  1.00  0.00     0.031 C 
ATOM     18  C   UNL A   1      38.021  30.761  28.718  1.00  0.00     0.029 A 
ATOM     19  N   UNL A   1      39.451  30.328  30.381  1.00  0.00    -0.354 N 
ATOM     20  C   UNL A   1      39.303  32.525  34.089  1.00  0.00     0.074 A 
ATOM     21  C   UNL A   1      38.235  33.503  34.081  1.00  0.00     0.031 C 
ATOM     22  C   UNL A   1      38.789  29.736  28.326  1.00  0.00     0.029 A 
ATOM     23  C   UNL A   1      39.747  29.432  29.382  1.00  0.00     0.049 A 
ATOM     24  H   UNL A   1      39.952  30.379  31.227  1.00  0.00     0.167 HD
ATOM     25  C   UNL A   1      40.157  32.334  35.123  1.00  0.00     0.037 A 
ATOM     26  C   UNL A   1      40.688  28.473  29.318  1.00  0.00     0.037 A 
ATOM     27  C   UNL A   1      41.195  31.336  35.148  1.00  0.00     0.049 A 
ATOM     28  C   UNL A   1      41.613  28.277  30.481  1.00  0.00     0.074 A 
ATOM     29  C   UNL A   1      42.079  31.035  36.170  1.00  0.00     0.029 A 
ATOM     30  N   UNL A   1      41.486  30.473  34.103  1.00  0.00    -0.354 N 
ATOM     31  N   UNL A   1      41.629  28.895  31.637  1.00  0.00    -0.248 NA
ATOM     32  C   UNL A   1      42.656  27.254  30.329  1.00  0.00     0.031 C 
ATOM     33  C   UNL A   1      42.931  30.015  35.729  1.00  0.00     0.029 A 
ATOM     34  C   UNL A   1      42.549  29.653  34.448  1.00  0.00     0.049 A 
ATOM     35  H   UNL A   1      41.008  30.446  33.242  1.00  0.00     0.167 HD
ATOM     36  C   UNL A   1      42.671  28.328  32.355  1.00  0.00     0.074 A 
ATOM     37  C   UNL A   1      43.251  27.302  31.512  1.00  0.00     0.031 C 
ATOM     38  C   UNL A   1      43.112  28.635  33.599  1.00  0.00     0.037 A 
BRANCH  25  39
ATOM     39  C   UNL A   1      40.021  33.239  36.314  1.00  0.00     0.057 A 
ATOM     40  C   UNL A   1      40.752  34.428  36.436  1.00  0.00     0.134 A 
ATOM     41  C   UNL A   1      39.110  32.936  37.335  1.00  0.00     0.134 A 
ATOM     42  F   UNL A   1      41.650  34.772  35.499  1.00  0.00    -0.206 F 
ATOM     43  C   UNL A   1      40.598  35.270  37.539  1.00  0.00     0.040 A 
ATOM     44  C   UNL A   1      38.931  33.782  38.432  1.00  0.00     0.040 A 
ATOM     45  F   UNL A   1      38.371  31.817  37.278  1.00  0.00    -0.206 F 
ATOM     46  C   UNL A   1      39.681  34.951  38.537  1.00  0.00     0.006 A 
ENDBRANCH  25  39
BRANCH  26  47
ATOM     47  C   UNL A   1      40.790  27.620  28.108  1.00  0.00     0.057 A 
ATOM     48  C   UNL A   1      41.553  28.019  27.005  1.00  0.00     0.134 A 
ATOM     49  C   UNL A   1      40.141  26.382  28.033  1.00  0.00     0.134 A 
ATOM     50  F   UNL A   1      42.183  29.203  27.012  1.00  0.00    -0.206 F 
ATOM     51  C   UNL A   1      41.658  27.222  25.865  1.00  0.00     0.040 A 
ATOM     52  C   UNL A   1      40.260  25.563  26.910  1.00  0.00     0.040 A 
ATOM     53  F   UNL A   1      39.402  25.940  29.061  1.00  0.00    -0.206 F 
ATOM     54  C   UNL A   1      41.016  25.985  25.819  1.00  0.00     0.006 A 
ENDBRANCH  26  47
BRANCH  38  55
ATOM     55  C   UNL A   1      44.259  27.827  34.128  1.00  0.00     0.057 A 
ATOM     56  C   UNL A   1      45.585  28.256  34.000  1.00  0.00     0.134 A 
ATOM     57  C   UNL A   1      44.030  26.610  34.783  1.00  0.00     0.134 A 
ATOM     58  F   UNL A   1      45.870  29.406  33.368  1.00  0.00    -0.206 F 
ATOM     59  C   UNL A   1      46.648  27.491  34.482  1.00  0.00     0.040 A 
ATOM     60  C   UNL A   1      45.083  25.847  35.290  1.00  0.00     0.040 A 
ATOM     61  F   UNL A   1      42.782  26.146  34.943  1.00  0.00    -0.206 F 
ATOM     62  C   UNL A   1      46.397  26.285  35.133  1.00  0.00     0.006 A 
ENDBRANCH  38  55
ENDBRANCH  12  13
ENDBRANCH   5   7
ENDBRANCH   2   3
ENDBRANCH   1   2
BRANCH   1  63
ATOM     63  C   UNL A   1      31.787  30.085  26.097  1.00  0.00     0.118 C 
BRANCH  63  64
ATOM     64  N   UNL A   1      32.621  29.993  24.908  1.00  0.00    -0.352 N 
ATOM     65  C   UNL A   1      33.110  28.886  24.262  1.00  0.00     0.253 C 
ATOM     66  H   UNL A   1      32.872  30.855  24.505  1.00  0.00     0.163 HD
ATOM     67  O   UNL A   1      33.905  29.033  23.337  1.00  0.00    -0.269 OA
BRANCH  65  68
ATOM     68  C   UNL A   1      32.713  27.522  24.671  1.00  0.00     0.063 A 
ATOM     69  C   UNL A   1      33.501  26.921  25.666  1.00  0.00     0.016 A 
ATOM     70  C   UNL A   1      31.645  26.822  24.070  1.00  0.00     0.051 A 
ATOM     71  C   UNL A   1      33.207  25.636  26.111  1.00  0.00     0.001 A 
ATOM     72  C   UNL A   1      31.359  25.535  24.556  1.00  0.00     0.027 A 
ATOM     73  C   UNL A   1      32.131  24.946  25.563  1.00  0.00     0.002 A 
BRANCH  70  74
ATOM     74  N   UNL A   1      30.862  27.392  23.046  1.00  0.00    -0.355 N 
ATOM     75  H   UNL A   1      31.196  27.222  22.136  1.00  0.00     0.167 HD
BRANCH  74  76
ATOM     76  C   UNL A   1      29.686  28.161  23.099  1.00  0.00     0.039 A 
ATOM     77  C   UNL A   1      28.456  27.513  23.263  1.00  0.00     0.026 A 
ATOM     78  C   UNL A   1      29.695  29.561  23.036  1.00  0.00     0.039 A 
ATOM     79  C   UNL A   1      27.268  28.240  23.360  1.00  0.00     0.003 A 
ATOM     80  C   UNL A   1      28.507  30.308  23.120  1.00  0.00     0.058 A 
ATOM     81  C   UNL A   1      27.293  29.631  23.292  1.00  0.00     0.013 A 
BRANCH  80  82
ATOM     82  C   UNL A   1      28.532  31.814  23.049  1.00  0.00     0.416 C 
ATOM     83  F   UNL A   1      28.906  32.276  21.824  1.00  0.00    -0.166 F 
ATOM     84  F   UNL A   1      27.313  32.365  23.301  1.00  0.00    -0.166 F 
ATOM     85  F   UNL A   1      29.391  32.387  23.938  1.00  0.00    -0.166 F 
ENDBRANCH  80  82
ENDBRANCH  74  76
ENDBRANCH  70  74
ENDBRANCH  65  68
ENDBRANCH  63  64
ENDBRANCH   1  63
TORSDOF 13
ENDMDL
MODEL 3
REMARK VINA RESULT:     -12.1      4.858      9.208
REMARK SMILES O=C(NCCCNC(=O)c1ccccc1Nc1cccc(C(F)(F)F)c1)c1ccc(-c2c3nc(c(-c4c(F)cccc4F)c4ccc([nH]4)c(-c4c(F)cccc4F)c4nc(c(-c5c(F)cccc5F)c5ccc2[nH]5)C=C4)C=C3)cc1
REMARK SMILES IDX 5 1 4 2 3 3 1 4 2 5 27 7 28 8 80 9 29 10 79 11 30 12 31 13
REMARK SMILES IDX 32 14 73 15 33 16 78 17 72 18 74 19 34 20 77 21 71 22 70 23
REMARK SMILES IDX 35 25 61 26 44 27 60 28 45 29 48 30 59 31 75 32 46 33 47 34
REMARK SMILES IDX 58 36 76 37 49 38 36 39 37 40 42 41 38 42 39 43 41 44 43 45
REMARK SMILES IDX 40 46 62 47 63 48 68 49 64 50 65 51 67 52 69 53 66 54 50 55
REMARK SMILES IDX 51 56 56 57 52 58 53 59 55 60 57 61 54 62 6 63 7 64 8 65
REMARK SMILES IDX 9 67 10 68 11 69 15 70 12 71 14 72 13 73 16 74 17 76 18 77
REMARK SMILES IDX 26 78 19 79 21 80 20 81 22 82 23 83 24 84 25 85
REMARK H PARENT 3 6 74 24 48 35 7 66 16 75
REMARK Flexibility Score: inf
ROOT
ATOM      1  C   UNL A   1      31.850  28.032  26.454  1.00  0.00     0.042 C 
ENDROOT
BRANCH   1   2
ATOM      2  C   UNL A   1      32.784  29.065  25.842  1.00  0.00     0.118 C 
BRANCH   2   3
ATOM      3  N   UNL A   1      32.467  30.438  26.220  1.00  0.00    -0.352 N 
ATOM      4  O   UNL A   1      32.600  32.398  27.319  1.00  0.00    -0.269 OA
ATOM      5  C   UNL A   1      33.126  31.323  27.041  1.00  0.00     0.251 C 
ATOM      6  H   UNL A   1      31.640  30.791  25.820  1.00  0.00     0.163 HD
BRANCH   5   7
ATOM      7  C   UNL A   1      34.441  30.979  27.626  1.00  0.00     0.039 A 
ATOM      8  C   UNL A   1      34.744  29.670  27.995  1.00  0.00     0.014 A 
ATOM      9  C   UNL A   1      35.395  31.987  27.807  1.00  0.00     0.014 A 
ATOM     10  C   UNL A   1      35.887  29.411  28.741  1.00  0.00     0.010 A 
ATOM     11  C   UNL A   1      36.605  31.698  28.448  1.00  0.00     0.010 A 
ATOM     12  C   UNL A   1      36.836  30.419  28.974  1.00  0.00    -0.014 A 
BRANCH  12  13
ATOM     13  C   UNL A   1      38.062  30.087  29.750  1.00  0.00     0.031 A 
ATOM     14  C   UNL A   1      38.229  30.534  31.178  1.00  0.00     0.074 A 
ATOM     15  C   UNL A   1      39.004  29.313  29.174  1.00  0.00     0.049 A 
ATOM     16  N   UNL A   1      39.204  30.270  32.015  1.00  0.00    -0.248 NA
ATOM     17  C   UNL A   1      37.180  31.395  31.742  1.00  0.00     0.031 C 
ATOM     18  C   UNL A   1      38.966  28.827  27.792  1.00  0.00     0.029 A 
ATOM     19  N   UNL A   1      40.154  28.766  29.685  1.00  0.00    -0.354 N 
ATOM     20  C   UNL A   1      38.902  30.956  33.184  1.00  0.00     0.074 A 
ATOM     21  C   UNL A   1      37.663  31.666  32.946  1.00  0.00     0.031 C 
ATOM     22  C   UNL A   1      39.996  27.994  27.590  1.00  0.00     0.029 A 
ATOM     23  C   UNL A   1      40.805  27.939  28.802  1.00  0.00     0.049 A 
ATOM     24  H   UNL A   1      40.481  28.948  30.595  1.00  0.00     0.167 HD
ATOM     25  C   UNL A   1      39.591  30.988  34.351  1.00  0.00     0.037 A 
ATOM     26  C   UNL A   1      41.930  27.217  28.946  1.00  0.00     0.037 A 
ATOM     27  C   UNL A   1      40.803  30.251  34.600  1.00  0.00     0.049 A 
ATOM     28  C   UNL A   1      42.665  27.262  30.252  1.00  0.00     0.074 A 
ATOM     29  C   UNL A   1      41.546  30.181  35.766  1.00  0.00     0.029 A 
ATOM     30  N   UNL A   1      41.448  29.453  33.668  1.00  0.00    -0.354 N 
ATOM     31  N   UNL A   1      42.349  27.893  31.356  1.00  0.00    -0.248 NA
ATOM     32  C   UNL A   1      43.918  26.499  30.330  1.00  0.00     0.031 C 
ATOM     33  C   UNL A   1      42.662  29.372  35.529  1.00  0.00     0.029 A 
ATOM     34  C   UNL A   1      42.592  28.904  34.227  1.00  0.00     0.049 A 
ATOM     35  H   UNL A   1      41.141  29.299  32.746  1.00  0.00     0.167 HD
ATOM     36  C   UNL A   1      43.354  27.594  32.264  1.00  0.00     0.074 A 
ATOM     37  C   UNL A   1      44.279  26.707  31.588  1.00  0.00     0.031 C 
ATOM     38  C   UNL A   1      43.500  28.020  33.542  1.00  0.00     0.037 A 
BRANCH  25  39
ATOM     39  C   UNL A   1      39.059  31.864  35.448  1.00  0.00     0.057 A 
ATOM     40  C   UNL A   1      38.246  31.365  36.474  1.00  0.00     0.134 A 
ATOM     41  C   UNL A   1      39.405  33.222  35.502  1.00  0.00     0.134 A 
ATOM     42  F   UNL A   1      37.869  30.078  36.476  1.00  0.00    -0.206 F 
ATOM     43  C   UNL A   1      37.778  32.189  37.500  1.00  0.00     0.040 A 
ATOM     44  C   UNL A   1      38.962  34.049  36.535  1.00  0.00     0.040 A 
ATOM     45  F   UNL A   1      40.188  33.763  34.556  1.00  0.00    -0.206 F 
ATOM     46  C   UNL A   1      38.141  33.533  37.536  1.00  0.00     0.006 A 
ENDBRANCH  25  39
BRANCH  26  47
ATOM     47  C   UNL A   1      42.419  26.381  27.822  1.00  0.00     0.057 A 
ATOM     48  C   UNL A   1      42.054  25.035  27.710  1.00  0.00     0.134 A 
ATOM     49  C   UNL A   1      43.250  26.912  26.828  1.00  0.00     0.134 A 
ATOM     50  F   UNL A   1      41.274  24.467  28.641  1.00  0.00    -0.206 F 
ATOM     51  C   UNL A   1      42.505  24.242  26.655  1.00  0.00     0.040 A 
ATOM     52  C   UNL A   1      43.688  26.137  25.753  1.00  0.00     0.040 A 
ATOM     53  F   UNL A   1      43.629  28.197  26.876  1.00  0.00    -0.206 F 
ATOM     54  C   UNL A   1      43.319  24.797  25.668  1.00  0.00     0.006 A 
ENDBRANCH  26  47
BRANCH  38  55
ATOM     55  C   UNL A   1      44.690  27.505  34.295  1.00  0.00     0.057 A 
ATOM     56  C   UNL A   1      45.905  28.201  34.320  1.00  0.00     0.134 A 
ATOM     57  C   UNL A   1      44.614  26.304  35.011  1.00  0.00     0.134 A 
ATOM     58  F   UNL A   1      46.045  29.350  33.640  1.00  0.00    -0.206 F 
ATOM     59  C   UNL A   1      47.012  27.708  35.011  1.00  0.00     0.040 A 
ATOM     60  C   UNL A   1      45.707  25.812  35.725  1.00  0.00     0.040 A 
ATOM     61  F   UNL A   1      43.477  25.593  35.031  1.00  0.00    -0.206 F 
ATOM     62  C   UNL A   1      46.913  26.512  35.720  1.00  0.00     0.006 A 
ENDBRANCH  38  55
ENDBRANCH  12  13
ENDBRANCH   5   7
ENDBRANCH   2   3
ENDBRANCH   1   2
BRANCH   1  63
ATOM     63  C   UNL A   1      32.296  26.590  26.268  1.00  0.00     0.118 C 
BRANCH  63  64
ATOM     64  N   UNL A   1      31.432  25.640  26.954  1.00  0.00    -0.352 N 
ATOM     65  C   UNL A   1      30.974  24.415  26.542  1.00  0.00     0.253 C 
ATOM     66  H   UNL A   1      31.132  25.918  27.849  1.00  0.00     0.163 HD
ATOM     67  O   UNL A   1      30.146  23.822  27.230  1.00  0.00    -0.269 OA
BRANCH  65  68
ATOM     68  C   UNL A   1      31.443  23.806  25.279  1.00  0.00     0.063 A 
ATOM     69  C   UNL A   1      32.488  22.875  25.394  1.00  0.00     0.016 A 
ATOM     70  C   UNL A   1      30.928  24.166  24.016  1.00  0.00     0.051 A 
ATOM     71  C   UNL A   1      33.000  22.254  24.258  1.00  0.00     0.001 A 
ATOM     72  C   UNL A   1      31.449  23.506  22.891  1.00  0.00     0.027 A 
ATOM     73  C   UNL A   1      32.474  22.563  23.008  1.00  0.00     0.002 A 
BRANCH  70  74
ATOM     74  N   UNL A   1      29.902  25.124  23.874  1.00  0.00    -0.355 N 
ATOM     75  H   UNL A   1      29.003  24.792  24.096  1.00  0.00     0.167 HD
BRANCH  74  76
ATOM     76  C   UNL A   1      29.942  26.470  23.470  1.00  0.00     0.039 A 
ATOM     77  C   UNL A   1      31.143  26.999  22.985  1.00  0.00     0.026 A 
ATOM     78  C   UNL A   1      28.813  27.301  23.495  1.00  0.00     0.039 A 
ATOM     79  C   UNL A   1      31.219  28.319  22.536  1.00  0.00     0.003 A 
ATOM     80  C   UNL A   1      28.874  28.636  23.058  1.00  0.00     0.058 A 
ATOM     81  C   UNL A   1      30.089  29.133  22.570  1.00  0.00     0.013 A 
BRANCH  80  82
ATOM     82  C   UNL A   1      27.651  29.517  23.092  1.00  0.00     0.416 C 
ATOM     83  F   UNL A   1      27.818  30.618  23.877  1.00  0.00    -0.166 F 
ATOM     84  F   UNL A   1      27.316  29.985  21.859  1.00  0.00    -0.166 F 
ATOM     85  F   UNL A   1      26.539  28.889  23.567  1.00  0.00    -0.166 F 
ENDBRANCH  80  82
ENDBRANCH  74  76
ENDBRANCH  70  74
ENDBRANCH  65  68
ENDBRANCH  63  64
ENDBRANCH   1  63
TORSDOF 13
ENDMDL
