MODEL 1
REMARK VINA RESULT:     -11.6      0.000      0.000
REMARK SMILES C[C@H](NC(=O)[C@]1(C)Sc2ccccc2NC1=O)C(=O)NCCCNC(=O)c1ccc(-c2c3nc(c(-c4c(F)cccc4F)c4ccc([nH]4)c(-c4c(F)cccc4F)c4nc(c(-c5c(F)cccc5F)c5ccc2[nH]5)C=C4)C=C3)cc1
REMARK SMILES IDX 22 1 21 2 20 3 18 4 19 5 2 7 1 8 3 9 4 10 5 12 6 13 8 14
REMARK SMILES IDX 16 15 7 16 9 17 15 18 17 19 10 20 14 21 11 23 13 24 12 25
REMARK SMILES IDX 23 26 24 27 25 28 26 30 27 31 28 32 80 33 29 34 79 35 30 36
REMARK SMILES IDX 31 37 32 38 73 39 33 40 78 41 72 42 74 43 34 44 77 45 71 46
REMARK SMILES IDX 70 47 35 49 61 50 44 51 60 52 45 53 48 54 59 55 75 56 46 57
REMARK SMILES IDX 47 58 58 60 76 61 49 62 36 63 37 64 42 65 38 66 39 67 41 68
REMARK SMILES IDX 43 69 40 70 62 71 63 72 68 73 64 74 65 75 67 76 69 77 66 78
REMARK SMILES IDX 50 79 51 80 56 81 52 82 53 83 55 84 57 85 54 86
REMARK H PARENT 20 6 3 11 15 22 24 29 74 48 48 59
REMARK Flexibility Score: inf
ROOT
ATOM      1  C   UNL A   1      32.068  28.028  27.533  1.00  0.00     0.042 C 
ENDROOT
BRANCH   1   2
ATOM      2  C   UNL A   1      31.643  26.989  26.505  1.00  0.00     0.117 C 
BRANCH   2   3
ATOM      3  N   UNL A   1      31.147  27.501  25.241  1.00  0.00    -0.354 N 
ATOM      4  C   UNL A   1      31.606  27.385  23.967  1.00  0.00     0.242 C 
ATOM      5  O   UNL A   1      30.801  27.642  23.063  1.00  0.00    -0.273 OA
ATOM      6  H   UNL A   1      30.322  28.033  25.323  1.00  0.00     0.163 HD
BRANCH   4   7
ATOM      7  C   UNL A   1      33.002  26.839  23.605  1.00  0.00     0.168 C 
ATOM      8  C   UNL A   1      33.767  27.943  22.866  1.00  0.00     0.041 C 
BRANCH   7   9
ATOM      9  N   UNL A   1      33.077  25.600  22.835  1.00  0.00    -0.343 N 
ATOM     10  C   UNL A   1      33.589  24.371  23.109  1.00  0.00     0.246 C 
ATOM     11  H   UNL A   1      32.677  25.668  21.938  1.00  0.00     0.164 HD
ATOM     12  O   UNL A   1      33.884  23.724  22.090  1.00  0.00    -0.273 OA
BRANCH  10  13
ATOM     13  C   UNL A   1      33.777  23.727  24.509  1.00  0.00     0.175 C 
ATOM     14  S   UNL A   1      35.183  24.554  25.340  1.00  0.00    -0.097 SA
ATOM     15  C   UNL A   1      33.938  22.223  24.239  1.00  0.00     0.250 C 
ATOM     16  C   UNL A   1      32.628  23.847  25.507  1.00  0.00     0.045 C 
ATOM     17  C   UNL A   1      36.425  23.294  25.421  1.00  0.00     0.032 A 
ATOM     18  N   UNL A   1      35.144  21.607  24.212  1.00  0.00    -0.323 N 
ATOM     19  O   UNL A   1      32.957  21.522  23.957  1.00  0.00    -0.273 OA
ATOM     20  C   UNL A   1      37.577  23.571  26.169  1.00  0.00     0.017 A 
ATOM     21  C   UNL A   1      36.329  22.064  24.776  1.00  0.00     0.054 A 
ATOM     22  H   UNL A   1      35.185  20.742  23.744  1.00  0.00     0.170 HD
ATOM     23  C   UNL A   1      38.635  22.661  26.218  1.00  0.00     0.001 A 
ATOM     24  C   UNL A   1      37.413  21.177  24.774  1.00  0.00     0.027 A 
ATOM     25  C   UNL A   1      38.566  21.478  25.493  1.00  0.00     0.002 A 
ENDBRANCH  10  13
ENDBRANCH   7   9
ENDBRANCH   4   7
ENDBRANCH   2   3
ENDBRANCH   1   2
BRANCH   1  26
ATOM     26  C   UNL A   1      33.388  28.754  27.303  1.00  0.00     0.118 C 
BRANCH  26  27
ATOM     27  N   UNL A   1      33.414  30.152  27.680  1.00  0.00    -0.352 N 
ATOM     28  C   UNL A   1      34.474  30.898  28.149  1.00  0.00     0.251 C 
ATOM     29  H   UNL A   1      32.561  30.634  27.589  1.00  0.00     0.163 HD
ATOM     30  O   UNL A   1      34.306  32.087  28.409  1.00  0.00    -0.269 OA
BRANCH  28  31
ATOM     31  C   UNL A   1      35.799  30.276  28.408  1.00  0.00     0.039 A 
ATOM     32  C   UNL A   1      36.131  29.683  29.630  1.00  0.00     0.014 A 
ATOM     33  C   UNL A   1      36.741  30.288  27.374  1.00  0.00     0.014 A 
ATOM     34  C   UNL A   1      37.438  29.240  29.863  1.00  0.00     0.010 A 
ATOM     35  C   UNL A   1      38.030  29.786  27.588  1.00  0.00     0.010 A 
ATOM     36  C   UNL A   1      38.407  29.298  28.849  1.00  0.00    -0.014 A 
BRANCH  36  37
ATOM     37  C   UNL A   1      39.814  28.875  29.106  1.00  0.00     0.031 A 
ATOM     38  C   UNL A   1      40.777  29.801  29.807  1.00  0.00     0.074 A 
ATOM     39  C   UNL A   1      40.243  27.661  28.707  1.00  0.00     0.049 A 
ATOM     40  N   UNL A   1      42.052  29.636  30.064  1.00  0.00    -0.248 NA
ATOM     41  C   UNL A   1      40.235  31.085  30.276  1.00  0.00     0.031 C 
ATOM     42  C   UNL A   1      39.426  26.658  28.026  1.00  0.00     0.029 A 
ATOM     43  N   UNL A   1      41.478  27.069  28.815  1.00  0.00    -0.354 N 
ATOM     44  C   UNL A   1      42.467  30.796  30.707  1.00  0.00     0.074 A 
ATOM     45  C   UNL A   1      41.316  31.673  30.769  1.00  0.00     0.031 C 
ATOM     46  C   UNL A   1      40.175  25.568  27.792  1.00  0.00     0.029 A 
ATOM     47  C   UNL A   1      41.537  25.814  28.259  1.00  0.00     0.049 A 
ATOM     48  H   UNL A   1      42.247  27.503  29.249  1.00  0.00     0.167 HD
ATOM     49  C   UNL A   1      43.687  31.102  31.215  1.00  0.00     0.037 A 
ATOM     50  C   UNL A   1      42.572  24.965  28.118  1.00  0.00     0.037 A 
ATOM     51  C   UNL A   1      44.836  30.235  31.164  1.00  0.00     0.049 A 
ATOM     52  C   UNL A   1      43.934  25.361  28.620  1.00  0.00     0.074 A 
ATOM     53  C   UNL A   1      46.103  30.448  31.682  1.00  0.00     0.029 A 
ATOM     54  N   UNL A   1      44.864  28.992  30.551  1.00  0.00    -0.354 N 
ATOM     55  N   UNL A   1      44.301  26.446  29.258  1.00  0.00    -0.248 NA
ATOM     56  C   UNL A   1      45.029  24.410  28.375  1.00  0.00     0.031 C 
ATOM     57  C   UNL A   1      46.910  29.357  31.340  1.00  0.00     0.029 A 
ATOM     58  C   UNL A   1      46.132  28.440  30.652  1.00  0.00     0.049 A 
ATOM     59  H   UNL A   1      44.095  28.564  30.109  1.00  0.00     0.167 HD
ATOM     60  C   UNL A   1      45.661  26.299  29.506  1.00  0.00     0.074 A 
ATOM     61  C   UNL A   1      46.047  25.009  28.974  1.00  0.00     0.031 C 
ATOM     62  C   UNL A   1      46.513  27.158  30.116  1.00  0.00     0.037 A 
BRANCH  49  63
ATOM     63  C   UNL A   1      43.845  32.449  31.863  1.00  0.00     0.057 A 
ATOM     64  C   UNL A   1      43.568  32.626  33.225  1.00  0.00     0.134 A 
ATOM     65  C   UNL A   1      44.245  33.578  31.136  1.00  0.00     0.134 A 
ATOM     66  F   UNL A   1      43.168  31.591  33.980  1.00  0.00    -0.206 F 
ATOM     67  C   UNL A   1      43.686  33.874  33.840  1.00  0.00     0.040 A 
ATOM     68  C   UNL A   1      44.394  34.826  31.745  1.00  0.00     0.040 A 
ATOM     69  F   UNL A   1      44.533  33.477  29.830  1.00  0.00    -0.206 F 
ATOM     70  C   UNL A   1      44.109  34.977  33.101  1.00  0.00     0.006 A 
ENDBRANCH  49  63
BRANCH  50  71
ATOM     71  C   UNL A   1      42.378  23.651  27.453  1.00  0.00     0.057 A 
ATOM     72  C   UNL A   1      42.511  23.507  26.067  1.00  0.00     0.134 A 
ATOM     73  C   UNL A   1      42.098  22.501  28.198  1.00  0.00     0.134 A 
ATOM     74  F   UNL A   1      42.780  24.571  25.297  1.00  0.00    -0.206 F 
ATOM     75  C   UNL A   1      42.367  22.266  25.445  1.00  0.00     0.040 A 
ATOM     76  C   UNL A   1      41.980  21.249  27.593  1.00  0.00     0.040 A 
ATOM     77  F   UNL A   1      41.985  22.571  29.533  1.00  0.00    -0.206 F 
ATOM     78  C   UNL A   1      42.111  21.131  26.211  1.00  0.00     0.006 A 
ENDBRANCH  50  71
BRANCH  62  79
ATOM     79  C   UNL A   1      47.941  26.716  30.261  1.00  0.00     0.057 A 
ATOM     80  C   UNL A   1      48.351  25.968  31.373  1.00  0.00     0.134 A 
ATOM     81  C   UNL A   1      48.915  27.032  29.304  1.00  0.00     0.134 A 
ATOM     82  F   UNL A   1      47.473  25.635  32.331  1.00  0.00    -0.206 F 
ATOM     83  C   UNL A   1      49.673  25.547  31.524  1.00  0.00     0.040 A 
ATOM     84  C   UNL A   1      50.234  26.593  29.431  1.00  0.00     0.040 A 
ATOM     85  F   UNL A   1      48.587  27.732  28.207  1.00  0.00    -0.206 F 
ATOM     86  C   UNL A   1      50.617  25.853  30.546  1.00  0.00     0.006 A 
ENDBRANCH  62  79
ENDBRANCH  36  37
ENDBRANCH  28  31
ENDBRANCH  26  27
ENDBRANCH   1  26
TORSDOF 12
ENDMDL
MODEL 2
REMARK VINA RESULT:     -11.4      2.626      8.122
REMARK SMILES C[C@H](NC(=O)[C@]1(C)Sc2ccccc2NC1=O)C(=O)NCCCNC(=O)c1ccc(-c2c3nc(c(-c4c(F)cccc4F)c4ccc([nH]4)c(-c4c(F)cccc4F)c4nc(c(-c5c(F)cccc5F)c5ccc2[nH]5)C=C4)C=C3)cc1
REMARK SMILES IDX 22 1 21 2 20 3 18 4 19 5 2 7 1 8 3 9 4 10 5 12 6 13 8 14
REMARK SMILES IDX 16 15 7 16 9 17 15 18 17 19 10 20 14 21 11 23 13 24 12 25
REMARK SMILES IDX 23 26 24 27 25 28 26 30 27 31 28 32 80 33 29 34 79 35 30 36
REMARK SMILES IDX 31 37 32 38 73 39 33 40 78 41 72 42 74 43 34 44 77 45 71 46
REMARK SMILES IDX 70 47 35 49 61 50 44 51 60 52 45 53 48 54 59 55 75 56 46 57
REMARK SMILES IDX 47 58 58 60 76 61 49 62 36 63 37 64 42 65 38 66 39 67 41 68
REMARK SMILES IDX 43 69 40 70 62 71 63 72 68 73 64 74 65 75 67 76 69 77 66 78
REMARK SMILES IDX 50 79 51 80 56 81 52 82 53 83 55 84 57 85 54 86
REMARK H PARENT 20 6 3 11 15 22 24 29 74 48 48 59
REMARK Flexibility Score: inf
ROOT
ATOM      1  C   UNL A   1      35.899  22.822  25.459  1.00  0.00     0.042 C 
ENDROOT
BRANCH   1   2
ATOM      2  C   UNL A   1      35.005  22.415  24.295  1.00  0.00     0.117 C 
BRANCH   2   3
ATOM      3  N   UNL A   1      33.853  21.596  24.625  1.00  0.00    -0.354 N 
ATOM      4  C   UNL A   1      32.758  21.832  25.397  1.00  0.00     0.242 C 
ATOM      5  O   UNL A   1      31.789  21.082  25.226  1.00  0.00    -0.273 OA
ATOM      6  H   UNL A   1      33.868  20.702  24.214  1.00  0.00     0.163 HD
BRANCH   4   7
ATOM      7  C   UNL A   1      32.627  23.035  26.353  1.00  0.00     0.168 C 
ATOM      8  C   UNL A   1      32.819  22.525  27.786  1.00  0.00     0.041 C 
BRANCH   7   9
ATOM      9  N   UNL A   1      31.407  23.837  26.285  1.00  0.00    -0.343 N 
ATOM     10  C   UNL A   1      31.178  25.147  26.004  1.00  0.00     0.246 C 
ATOM     11  H   UNL A   1      30.589  23.327  26.482  1.00  0.00     0.164 HD
ATOM     12  O   UNL A   1      30.110  25.570  26.478  1.00  0.00    -0.273 OA
BRANCH  10  13
ATOM     13  C   UNL A   1      32.064  26.089  25.145  1.00  0.00     0.175 C 
ATOM     14  S   UNL A   1      33.551  26.529  26.120  1.00  0.00    -0.097 SA
ATOM     15  C   UNL A   1      31.143  27.253  24.750  1.00  0.00     0.250 C 
ATOM     16  C   UNL A   1      32.623  25.541  23.834  1.00  0.00     0.045 C 
ATOM     17  C   UNL A   1      33.341  28.255  26.450  1.00  0.00     0.032 A 
ATOM     18  N   UNL A   1      31.154  28.448  25.389  1.00  0.00    -0.323 N 
ATOM     19  O   UNL A   1      30.290  27.113  23.864  1.00  0.00    -0.273 OA
ATOM     20  C   UNL A   1      34.416  28.934  27.040  1.00  0.00     0.017 A 
ATOM     21  C   UNL A   1      32.175  28.966  26.176  1.00  0.00     0.054 A 
ATOM     22  H   UNL A   1      30.352  29.009  25.283  1.00  0.00     0.170 HD
ATOM     23  C   UNL A   1      34.303  30.278  27.403  1.00  0.00     0.001 A 
ATOM     24  C   UNL A   1      32.039  30.295  26.595  1.00  0.00     0.027 A 
ATOM     25  C   UNL A   1      33.101  30.949  27.210  1.00  0.00     0.002 A 
ENDBRANCH  10  13
ENDBRANCH   7   9
ENDBRANCH   4   7
ENDBRANCH   2   3
ENDBRANCH   1   2
BRANCH   1  26
ATOM     26  C   UNL A   1      37.251  23.442  25.130  1.00  0.00     0.118 C 
BRANCH  26  27
ATOM     27  N   UNL A   1      38.407  22.607  25.384  1.00  0.00    -0.352 N 
ATOM     28  C   UNL A   1      39.519  22.885  26.150  1.00  0.00     0.251 C 
ATOM     29  H   UNL A   1      38.397  21.723  24.952  1.00  0.00     0.163 HD
ATOM     30  O   UNL A   1      40.404  22.040  26.257  1.00  0.00    -0.269 OA
BRANCH  28  31
ATOM     31  C   UNL A   1      39.698  24.214  26.793  1.00  0.00     0.039 A 
ATOM     32  C   UNL A   1      40.358  25.276  26.167  1.00  0.00     0.014 A 
ATOM     33  C   UNL A   1      39.175  24.394  28.078  1.00  0.00     0.014 A 
ATOM     34  C   UNL A   1      40.619  26.455  26.874  1.00  0.00     0.010 A 
ATOM     35  C   UNL A   1      39.382  25.598  28.762  1.00  0.00     0.010 A 
ATOM     36  C   UNL A   1      40.146  26.625  28.185  1.00  0.00    -0.014 A 
BRANCH  36  37
ATOM     37  C   UNL A   1      40.464  27.858  28.962  1.00  0.00     0.031 A 
ATOM     38  C   UNL A   1      41.798  28.007  29.650  1.00  0.00     0.074 A 
ATOM     39  C   UNL A   1      39.558  28.850  29.064  1.00  0.00     0.049 A 
ATOM     40  N   UNL A   1      42.233  28.975  30.420  1.00  0.00    -0.248 NA
ATOM     41  C   UNL A   1      42.769  26.921  29.448  1.00  0.00     0.031 C 
ATOM     42  C   UNL A   1      38.231  28.851  28.450  1.00  0.00     0.029 A 
ATOM     43  N   UNL A   1      39.617  30.051  29.730  1.00  0.00    -0.354 N 
ATOM     44  C   UNL A   1      43.517  28.609  30.807  1.00  0.00     0.074 A 
ATOM     45  C   UNL A   1      43.778  27.312  30.215  1.00  0.00     0.031 C 
ATOM     46  C   UNL A   1      37.609  30.001  28.750  1.00  0.00     0.029 A 
ATOM     47  C   UNL A   1      38.469  30.797  29.622  1.00  0.00     0.049 A 
ATOM     48  H   UNL A   1      40.407  30.346  30.238  1.00  0.00     0.167 HD
ATOM     49  C   UNL A   1      44.407  29.291  31.570  1.00  0.00     0.037 A 
ATOM     50  C   UNL A   1      38.135  31.977  30.178  1.00  0.00     0.037 A 
ATOM     51  C   UNL A   1      44.161  30.583  32.158  1.00  0.00     0.049 A 
ATOM     52  C   UNL A   1      39.110  32.677  31.085  1.00  0.00     0.074 A 
ATOM     53  C   UNL A   1      45.016  31.365  32.917  1.00  0.00     0.029 A 
ATOM     54  N   UNL A   1      42.968  31.283  32.061  1.00  0.00    -0.354 N 
ATOM     55  N   UNL A   1      40.332  32.334  31.411  1.00  0.00    -0.248 NA
ATOM     56  C   UNL A   1      38.652  33.929  31.705  1.00  0.00     0.031 C 
ATOM     57  C   UNL A   1      44.325  32.513  33.321  1.00  0.00     0.029 A 
ATOM     58  C   UNL A   1      43.054  32.471  32.770  1.00  0.00     0.049 A 
ATOM     59  H   UNL A   1      42.175  30.980  31.560  1.00  0.00     0.167 HD
ATOM     60  C   UNL A   1      40.794  33.336  32.257  1.00  0.00     0.074 A 
ATOM     61  C   UNL A   1      39.730  34.311  32.371  1.00  0.00     0.031 C 
ATOM     62  C   UNL A   1      41.991  33.436  32.886  1.00  0.00     0.037 A 
BRANCH  49  63
ATOM     63  C   UNL A   1      45.737  28.640  31.828  1.00  0.00     0.057 A 
ATOM     64  C   UNL A   1      45.931  27.828  32.953  1.00  0.00     0.134 A 
ATOM     65  C   UNL A   1      46.835  28.837  30.980  1.00  0.00     0.134 A 
ATOM     66  F   UNL A   1      44.927  27.605  33.815  1.00  0.00    -0.206 F 
ATOM     67  C   UNL A   1      47.165  27.233  33.223  1.00  0.00     0.040 A 
ATOM     68  C   UNL A   1      48.066  28.225  31.223  1.00  0.00     0.040 A 
ATOM     69  F   UNL A   1      46.716  29.597  29.881  1.00  0.00    -0.206 F 
ATOM     70  C   UNL A   1      48.235  27.424  32.351  1.00  0.00     0.006 A 
ENDBRANCH  49  63
BRANCH  50  71
ATOM     71  C   UNL A   1      36.802  32.578  29.915  1.00  0.00     0.057 A 
ATOM     72  C   UNL A   1      35.681  32.234  30.681  1.00  0.00     0.134 A 
ATOM     73  C   UNL A   1      36.631  33.543  28.917  1.00  0.00     0.134 A 
ATOM     74  F   UNL A   1      35.780  31.316  31.653  1.00  0.00    -0.206 F 
ATOM     75  C   UNL A   1      34.437  32.826  30.460  1.00  0.00     0.040 A 
ATOM     76  C   UNL A   1      35.400  34.165  28.705  1.00  0.00     0.040 A 
ATOM     77  F   UNL A   1      37.674  33.933  28.168  1.00  0.00    -0.206 F 
ATOM     78  C   UNL A   1      34.297  33.802  29.476  1.00  0.00     0.006 A 
ENDBRANCH  50  71
BRANCH  62  79
ATOM     79  C   UNL A   1      42.218  34.656  33.733  1.00  0.00     0.057 A 
ATOM     80  C   UNL A   1      42.757  35.824  33.178  1.00  0.00     0.134 A 
ATOM     81  C   UNL A   1      41.906  34.677  35.099  1.00  0.00     0.134 A 
ATOM     82  F   UNL A   1      43.084  35.872  31.877  1.00  0.00    -0.206 F 
ATOM     83  C   UNL A   1      42.974  36.967  33.949  1.00  0.00     0.040 A 
ATOM     84  C   UNL A   1      42.093  35.823  35.874  1.00  0.00     0.040 A 
ATOM     85  F   UNL A   1      41.372  33.597  35.691  1.00  0.00    -0.206 F 
ATOM     86  C   UNL A   1      42.633  36.971  35.299  1.00  0.00     0.006 A 
ENDBRANCH  62  79
ENDBRANCH  36  37
ENDBRANCH  28  31
ENDBRANCH  26  27
ENDBRANCH   1  26
TORSDOF 12
ENDMDL
MODEL 3
REMARK VINA RESULT:     -11.3      2.055      7.793
REMARK SMILES C[C@H](NC(=O)[C@]1(C)Sc2ccccc2NC1=O)C(=O)NCCCNC(=O)c1ccc(-c2c3nc(c(-c4c(F)cccc4F)c4ccc([nH]4)c(-c4c(F)cccc4F)c4nc(c(-c5c(F)cccc5F)c5ccc2[nH]5)C=C4)C=C3)cc1
REMARK SMILES IDX 22 1 21 2 20 3 18 4 19 5 2 7 1 8 3 9 4 10 5 12 6 13 8 14
REMARK SMILES IDX 16 15 7 16 9 17 15 18 17 19 10 20 14 21 11 23 13 24 12 25
REMARK SMILES IDX 23 26 24 27 25 28 26 30 27 31 28 32 80 33 29 34 79 35 30 36
REMARK SMILES IDX 31 37 32 38 73 39 33 40 78 41 72 42 74 43 34 44 77 45 71 46
REMARK SMILES IDX 70 47 35 49 61 50 44 51 60 52 45 53 48 54 59 55 75 56 46 57
REMARK SMILES IDX 47 58 58 60 76 61 49 62 36 63 37 64 42 65 38 66 39 67 41 68
REMARK SMILES IDX 43 69 40 70 62 71 63 72 68 73 64 74 65 75 67 76 69 77 66 78
REMARK SMILES IDX 50 79 51 80 56 81 52 82 53 83 55 84 57 85 54 86
REMARK H PARENT 20 6 3 11 15 22 24 29 74 48 48 59
REMARK Flexibility Score: inf
ROOT
ATOM      1  C   UNL A   1      37.767  19.775  24.905  1.00  0.00     0.042 C 
ENDROOT
BRANCH   1   2
ATOM      2  C   UNL A   1      36.537  20.666  25.015  1.00  0.00     0.117 C 
BRANCH   2   3
ATOM      3  N   UNL A   1      35.255  19.988  25.071  1.00  0.00    -0.354 N 
ATOM      4  C   UNL A   1      33.993  20.441  25.297  1.00  0.00     0.242 C 
ATOM      5  O   UNL A   1      33.068  19.694  24.955  1.00  0.00    -0.273 OA
ATOM      6  H   UNL A   1      35.311  19.017  24.917  1.00  0.00     0.163 HD
BRANCH   4   7
ATOM      7  C   UNL A   1      33.672  21.854  25.823  1.00  0.00     0.168 C 
ATOM      8  C   UNL A   1      33.816  21.836  27.350  1.00  0.00     0.041 C 
BRANCH   7   9
ATOM      9  N   UNL A   1      32.383  22.444  25.466  1.00  0.00    -0.343 N 
ATOM     10  C   UNL A   1      32.015  23.695  25.081  1.00  0.00     0.246 C 
ATOM     11  H   UNL A   1      31.633  21.810  25.514  1.00  0.00     0.164 HD
ATOM     12  O   UNL A   1      30.818  23.943  25.304  1.00  0.00    -0.273 OA
BRANCH  10  13
ATOM     13  C   UNL A   1      32.903  24.758  24.380  1.00  0.00     0.175 C 
ATOM     14  S   UNL A   1      33.835  25.669  25.666  1.00  0.00    -0.097 SA
ATOM     15  C   UNL A   1      31.932  25.590  23.528  1.00  0.00     0.250 C 
ATOM     16  C   UNL A   1      33.978  24.263  23.416  1.00  0.00     0.045 C 
ATOM     17  C   UNL A   1      33.144  27.298  25.611  1.00  0.00     0.032 A 
ATOM     18  N   UNL A   1      31.458  26.797  23.922  1.00  0.00    -0.323 N 
ATOM     19  O   UNL A   1      31.482  25.144  22.464  1.00  0.00    -0.273 OA
ATOM     20  C   UNL A   1      33.776  28.293  26.370  1.00  0.00     0.017 A 
ATOM     21  C   UNL A   1      32.011  27.641  24.877  1.00  0.00     0.054 A 
ATOM     22  H   UNL A   1      30.634  27.109  23.482  1.00  0.00     0.170 HD
ATOM     23  C   UNL A   1      33.248  29.583  26.442  1.00  0.00     0.001 A 
ATOM     24  C   UNL A   1      31.446  28.916  24.996  1.00  0.00     0.027 A 
ATOM     25  C   UNL A   1      32.063  29.886  25.780  1.00  0.00     0.002 A 
ENDBRANCH  10  13
ENDBRANCH   7   9
ENDBRANCH   4   7
ENDBRANCH   2   3
ENDBRANCH   1   2
BRANCH   1  26
ATOM     26  C   UNL A   1      38.984  20.141  25.746  1.00  0.00     0.118 C 
BRANCH  26  27
ATOM     27  N   UNL A   1      40.097  19.217  25.682  1.00  0.00    -0.352 N 
ATOM     28  C   UNL A   1      41.397  19.404  26.101  1.00  0.00     0.251 C 
ATOM     29  H   UNL A   1      39.899  18.338  25.286  1.00  0.00     0.163 HD
ATOM     30  O   UNL A   1      42.210  18.491  25.972  1.00  0.00    -0.269 OA
BRANCH  28  31
ATOM     31  C   UNL A   1      41.850  20.712  26.645  1.00  0.00     0.039 A 
ATOM     32  C   UNL A   1      41.858  21.001  28.013  1.00  0.00     0.014 A 
ATOM     33  C   UNL A   1      42.289  21.681  25.737  1.00  0.00     0.014 A 
ATOM     34  C   UNL A   1      42.161  22.294  28.455  1.00  0.00     0.010 A 
ATOM     35  C   UNL A   1      42.653  22.956  26.186  1.00  0.00     0.010 A 
ATOM     36  C   UNL A   1      42.549  23.290  27.546  1.00  0.00    -0.014 A 
BRANCH  36  37
ATOM     37  C   UNL A   1      42.825  24.683  28.005  1.00  0.00     0.031 A 
ATOM     38  C   UNL A   1      44.233  25.121  28.321  1.00  0.00     0.074 A 
ATOM     39  C   UNL A   1      41.815  25.564  28.148  1.00  0.00     0.049 A 
ATOM     40  N   UNL A   1      44.663  26.267  28.790  1.00  0.00    -0.248 NA
ATOM     41  C   UNL A   1      45.299  24.136  28.083  1.00  0.00     0.031 C 
ATOM     42  C   UNL A   1      40.406  25.288  27.874  1.00  0.00     0.029 A 
ATOM     43  N   UNL A   1      41.823  26.873  28.566  1.00  0.00    -0.354 N 
ATOM     44  C   UNL A   1      46.040  26.137  28.918  1.00  0.00     0.074 A 
ATOM     45  C   UNL A   1      46.372  24.787  28.512  1.00  0.00     0.031 C 
ATOM     46  C   UNL A   1      39.687  26.395  28.113  1.00  0.00     0.029 A 
ATOM     47  C   UNL A   1      40.575  27.444  28.607  1.00  0.00     0.049 A 
ATOM     48  H   UNL A   1      42.645  27.354  28.814  1.00  0.00     0.167 HD
ATOM     49  C   UNL A   1      46.952  27.058  29.321  1.00  0.00     0.037 A 
ATOM     50  C   UNL A   1      40.183  28.666  29.017  1.00  0.00     0.037 A 
ATOM     51  C   UNL A   1      46.634  28.405  29.721  1.00  0.00     0.049 A 
ATOM     52  C   UNL A   1      41.205  29.642  29.534  1.00  0.00     0.074 A 
ATOM     53  C   UNL A   1      47.495  29.417  30.111  1.00  0.00     0.029 A 
ATOM     54  N   UNL A   1      45.352  28.928  29.791  1.00  0.00    -0.354 N 
ATOM     55  N   UNL A   1      42.506  29.516  29.615  1.00  0.00    -0.248 NA
ATOM     56  C   UNL A   1      40.695  30.932  30.023  1.00  0.00     0.031 C 
ATOM     57  C   UNL A   1      46.732  30.535  30.465  1.00  0.00     0.029 A 
ATOM     58  C   UNL A   1      45.397  30.237  30.247  1.00  0.00     0.049 A 
ATOM     59  H   UNL A   1      44.529  28.442  29.552  1.00  0.00     0.167 HD
ATOM     60  C   UNL A   1      42.971  30.714  30.144  1.00  0.00     0.074 A 
ATOM     61  C   UNL A   1      41.815  31.563  30.339  1.00  0.00     0.031 C 
ATOM     62  C   UNL A   1      44.243  31.076  30.445  1.00  0.00     0.037 A 
BRANCH  49  63
ATOM     63  C   UNL A   1      48.392  26.629  29.363  1.00  0.00     0.057 A 
ATOM     64  C   UNL A   1      49.226  26.809  28.252  1.00  0.00     0.134 A 
ATOM     65  C   UNL A   1      48.948  26.012  30.492  1.00  0.00     0.134 A 
ATOM     66  F   UNL A   1      48.756  27.382  27.132  1.00  0.00    -0.206 F 
ATOM     67  C   UNL A   1      50.559  26.396  28.263  1.00  0.00     0.040 A 
ATOM     68  C   UNL A   1      50.288  25.620  30.525  1.00  0.00     0.040 A 
ATOM     69  F   UNL A   1      48.207  25.816  31.593  1.00  0.00    -0.206 F 
ATOM     70  C   UNL A   1      51.096  25.807  29.406  1.00  0.00     0.006 A 
ENDBRANCH  49  63
BRANCH  50  71
ATOM     71  C   UNL A   1      38.746  29.043  28.979  1.00  0.00     0.057 A 
ATOM     72  C   UNL A   1      37.930  28.927  30.110  1.00  0.00     0.134 A 
ATOM     73  C   UNL A   1      38.171  29.571  27.818  1.00  0.00     0.134 A 
ATOM     74  F   UNL A   1      38.422  28.430  31.254  1.00  0.00    -0.206 F 
ATOM     75  C   UNL A   1      36.590  29.318  30.086  1.00  0.00     0.040 A 
ATOM     76  C   UNL A   1      36.841  29.992  27.788  1.00  0.00     0.040 A 
ATOM     77  F   UNL A   1      38.910  29.731  26.710  1.00  0.00    -0.206 F 
ATOM     78  C   UNL A   1      36.046  29.861  28.925  1.00  0.00     0.006 A 
ENDBRANCH  50  71
BRANCH  62  79
ATOM     79  C   UNL A   1      44.447  32.460  30.993  1.00  0.00     0.057 A 
ATOM     80  C   UNL A   1      44.439  32.692  32.375  1.00  0.00     0.134 A 
ATOM     81  C   UNL A   1      44.648  33.566  30.155  1.00  0.00     0.134 A 
ATOM     82  F   UNL A   1      44.245  31.680  33.234  1.00  0.00    -0.206 F 
ATOM     83  C   UNL A   1      44.627  33.971  32.902  1.00  0.00     0.040 A 
ATOM     84  C   UNL A   1      44.865  34.844  30.673  1.00  0.00     0.040 A 
ATOM     85  F   UNL A   1      44.683  33.411  28.822  1.00  0.00    -0.206 F 
ATOM     86  C   UNL A   1      44.850  35.050  32.050  1.00  0.00     0.006 A 
ENDBRANCH  62  79
ENDBRANCH  36  37
ENDBRANCH  28  31
ENDBRANCH  26  27
ENDBRANCH   1  26
TORSDOF 12
ENDMDL
