MODEL 1
REMARK VINA RESULT:     -12.6      0.000      0.000
REMARK SMILES O=C(NCCCNC(=O)c1cc(NC(=S)NC(=O)c2ccccc2F)ccc1Cl)c1ccc(-c2c3nc(c(-c4c(F)cccc4F)c4ccc([nH]4)c(-c4c(F)cccc4F)c4nc(c(-c5c(F)cccc5F)c5ccc2[nH]5)C=C4)C=C3)cc1
REMARK SMILES IDX 6 1 5 2 4 3 3 4 1 5 2 6 30 8 31 9 83 10 32 11 82 12 33 13
REMARK SMILES IDX 34 14 35 15 76 16 36 17 81 18 75 19 77 20 37 21 80 22 74 23
REMARK SMILES IDX 73 24 38 26 64 27 47 28 63 29 48 30 51 31 62 32 78 33 49 34
REMARK SMILES IDX 50 35 61 37 79 38 52 39 39 40 40 41 45 42 41 43 42 44 44 45
REMARK SMILES IDX 46 46 43 47 65 48 66 49 71 50 67 51 68 52 70 53 72 54 69 55
REMARK SMILES IDX 53 56 54 57 59 58 55 59 56 60 58 61 60 62 57 63 7 64 8 65
REMARK SMILES IDX 9 67 10 68 11 69 28 70 12 71 27 72 29 73 26 74 13 75 14 77
REMARK SMILES IDX 15 78 16 79 17 80 18 82 19 83 20 84 24 85 21 86 23 87 25 88
REMARK SMILES IDX 22 89
REMARK H PARENT 3 7 77 25 51 36 7 66 13 76 16 81
REMARK Flexibility Score: inf
ROOT
ATOM      1  C   UNL A   1      36.770  20.949  24.805  1.00  0.00     0.118 C 
ENDROOT
BRANCH   1   2
ATOM      2  C   UNL A   1      37.776  19.825  24.981  1.00  0.00     0.042 C 
BRANCH   2   3
ATOM      3  C   UNL A   1      39.015  20.198  25.780  1.00  0.00     0.118 C 
BRANCH   3   4
ATOM      4  N   UNL A   1      40.058  19.176  25.782  1.00  0.00    -0.352 N 
ATOM      5  O   UNL A   1      42.117  18.259  25.837  1.00  0.00    -0.269 OA
ATOM      6  C   UNL A   1      41.415  19.253  25.999  1.00  0.00     0.251 C 
ATOM      7  H   UNL A   1      39.731  18.267  25.594  1.00  0.00     0.163 HD
BRANCH   6   8
ATOM      8  C   UNL A   1      42.042  20.537  26.374  1.00  0.00     0.039 A 
ATOM      9  C   UNL A   1      42.263  20.855  27.709  1.00  0.00     0.014 A 
ATOM     10  C   UNL A   1      42.401  21.448  25.376  1.00  0.00     0.014 A 
ATOM     11  C   UNL A   1      42.586  22.157  28.059  1.00  0.00     0.010 A 
ATOM     12  C   UNL A   1      42.874  22.716  25.728  1.00  0.00     0.010 A 
ATOM     13  C   UNL A   1      42.910  23.104  27.075  1.00  0.00    -0.014 A 
BRANCH  13  14
ATOM     14  C   UNL A   1      43.310  24.471  27.503  1.00  0.00     0.031 A 
ATOM     15  C   UNL A   1      44.741  24.930  27.416  1.00  0.00     0.074 A 
ATOM     16  C   UNL A   1      42.350  25.328  27.905  1.00  0.00     0.049 A 
ATOM     17  N   UNL A   1      45.245  26.105  27.703  1.00  0.00    -0.248 NA
ATOM     18  C   UNL A   1      45.739  23.950  26.960  1.00  0.00     0.031 C 
ATOM     19  C   UNL A   1      40.928  24.996  28.031  1.00  0.00     0.029 A 
ATOM     20  N   UNL A   1      42.410  26.655  28.244  1.00  0.00    -0.354 N 
ATOM     21  C   UNL A   1      46.612  26.001  27.481  1.00  0.00     0.074 A 
ATOM     22  C   UNL A   1      46.868  24.637  27.070  1.00  0.00     0.031 C 
ATOM     23  C   UNL A   1      40.243  26.104  28.341  1.00  0.00     0.029 A 
ATOM     24  C   UNL A   1      41.182  27.203  28.523  1.00  0.00     0.049 A 
ATOM     25  H   UNL A   1      43.251  27.165  28.282  1.00  0.00     0.167 HD
ATOM     26  C   UNL A   1      47.564  26.959  27.595  1.00  0.00     0.037 A 
ATOM     27  C   UNL A   1      40.842  28.448  28.902  1.00  0.00     0.037 A 
ATOM     28  C   UNL A   1      47.297  28.319  27.991  1.00  0.00     0.049 A 
ATOM     29  C   UNL A   1      41.917  29.481  29.053  1.00  0.00     0.074 A 
ATOM     30  C   UNL A   1      48.192  29.367  28.125  1.00  0.00     0.029 A 
ATOM     31  N   UNL A   1      46.044  28.821  28.314  1.00  0.00    -0.354 N 
ATOM     32  N   UNL A   1      43.205  29.367  28.835  1.00  0.00    -0.248 NA
ATOM     33  C   UNL A   1      41.497  30.813  29.505  1.00  0.00     0.031 C 
ATOM     34  C   UNL A   1      47.491  30.486  28.580  1.00  0.00     0.029 A 
ATOM     35  C   UNL A   1      46.147  30.158  28.666  1.00  0.00     0.049 A 
ATOM     36  H   UNL A   1      45.207  28.305  28.297  1.00  0.00     0.167 HD
ATOM     37  C   UNL A   1      43.748  30.614  29.104  1.00  0.00     0.074 A 
ATOM     38  C   UNL A   1      42.647  31.475  29.483  1.00  0.00     0.031 C 
ATOM     39  C   UNL A   1      45.043  31.007  29.038  1.00  0.00     0.037 A 
BRANCH  26  40
ATOM     40  C   UNL A   1      48.988  26.574  27.304  1.00  0.00     0.057 A 
ATOM     41  C   UNL A   1      49.853  26.200  28.340  1.00  0.00     0.134 A 
ATOM     42  C   UNL A   1      49.524  26.638  26.010  1.00  0.00     0.134 A 
ATOM     43  F   UNL A   1      49.411  26.125  29.604  1.00  0.00    -0.206 F 
ATOM     44  C   UNL A   1      51.200  25.915  28.104  1.00  0.00     0.040 A 
ATOM     45  C   UNL A   1      50.863  26.328  25.758  1.00  0.00     0.040 A 
ATOM     46  F   UNL A   1      48.750  26.979  24.969  1.00  0.00    -0.206 F 
ATOM     47  C   UNL A   1      51.707  25.975  26.808  1.00  0.00     0.006 A 
ENDBRANCH  26  40
BRANCH  27  48
ATOM     48  C   UNL A   1      39.414  28.767  29.155  1.00  0.00     0.057 A 
ATOM     49  C   UNL A   1      38.599  29.303  28.148  1.00  0.00     0.134 A 
ATOM     50  C   UNL A   1      38.847  28.602  30.423  1.00  0.00     0.134 A 
ATOM     51  F   UNL A   1      39.088  29.498  26.914  1.00  0.00    -0.206 F 
ATOM     52  C   UNL A   1      37.284  29.690  28.400  1.00  0.00     0.040 A 
ATOM     53  C   UNL A   1      37.522  28.958  30.681  1.00  0.00     0.040 A 
ATOM     54  F   UNL A   1      39.572  28.083  31.424  1.00  0.00    -0.206 F 
ATOM     55  C   UNL A   1      36.741  29.515  29.670  1.00  0.00     0.006 A 
ENDBRANCH  27  48
BRANCH  39  56
ATOM     56  C   UNL A   1      45.346  32.444  29.353  1.00  0.00     0.057 A 
ATOM     57  C   UNL A   1      45.371  33.403  28.333  1.00  0.00     0.134 A 
ATOM     58  C   UNL A   1      45.670  32.868  30.647  1.00  0.00     0.134 A 
ATOM     59  F   UNL A   1      45.080  33.062  27.068  1.00  0.00    -0.206 F 
ATOM     60  C   UNL A   1      45.721  34.730  28.586  1.00  0.00     0.040 A 
ATOM     61  C   UNL A   1      45.993  34.199  30.919  1.00  0.00     0.040 A 
ATOM     62  F   UNL A   1      45.653  32.002  31.673  1.00  0.00    -0.206 F 
ATOM     63  C   UNL A   1      46.028  35.131  29.884  1.00  0.00     0.006 A 
ENDBRANCH  39  56
ENDBRANCH  13  14
ENDBRANCH   6   8
ENDBRANCH   3   4
ENDBRANCH   2   3
ENDBRANCH   1   2
BRANCH   1  64
ATOM     64  N   UNL A   1      36.111  21.364  26.035  1.00  0.00    -0.352 N 
ATOM     65  C   UNL A   1      34.899  21.961  26.290  1.00  0.00     0.252 C 
ATOM     66  H   UNL A   1      36.639  21.181  26.846  1.00  0.00     0.163 HD
ATOM     67  O   UNL A   1      34.481  21.848  27.440  1.00  0.00    -0.269 OA
BRANCH  65  68
ATOM     68  C   UNL A   1      34.143  22.703  25.166  1.00  0.00     0.060 A 
ATOM     69  C   UNL A   1      34.023  24.596  24.463  1.00  0.00     0.041 A 
ATOM     70  C   UNL A   1      33.030  21.522  24.337  1.00  0.00     0.053 A 
ATOM     71  C   UNL A   1      33.104  25.024  23.091  1.00  0.00     0.041 A 
ATOM     72  C   UNL A   1      32.032  22.108  22.978  1.00  0.00     0.023 A 
ATOM     73  Cl  UNL A   1      32.653  19.960  24.963  1.00  0.00    -0.083 Cl
ATOM     74  C   UNL A   1      32.084  23.798  22.379  1.00  0.00     0.028 A 
BRANCH  71  75
ATOM     75  N   UNL A   1      33.658  26.156  22.473  1.00  0.00    -0.332 N 
ATOM     76  H   UNL A   1      34.451  25.979  21.919  1.00  0.00     0.169 HD
BRANCH  75  77
ATOM     77  C   UNL A   1      33.265  27.478  22.522  1.00  0.00     0.177 C 
ATOM     78  S   UNL A   1      34.450  28.574  23.001  1.00  0.00    -0.040 S 
BRANCH  77  79
ATOM     79  N   UNL A   1      31.976  28.048  22.237  1.00  0.00    -0.299 N 
ATOM     80  C   UNL A   1      30.549  28.423  22.538  1.00  0.00     0.260 C 
ATOM     81  H   UNL A   1      32.094  28.388  21.321  1.00  0.00     0.172 HD
ATOM     82  O   UNL A   1      29.843  28.853  21.628  1.00  0.00    -0.269 OA
BRANCH  80  83
ATOM     83  C   UNL A   1      29.916  28.200  23.915  1.00  0.00     0.075 A 
ATOM     84  C   UNL A   1      29.433  26.472  24.110  1.00  0.00     0.017 A 
ATOM     85  C   UNL A   1      31.011  29.010  24.993  1.00  0.00     0.135 A 
ATOM     86  C   UNL A   1      30.227  25.366  25.271  1.00  0.00     0.001 A 
ATOM     87  C   UNL A   1      31.901  28.042  26.179  1.00  0.00     0.040 A 
ATOM     88  F   UNL A   1      31.469  30.236  24.703  1.00  0.00    -0.206 F 
ATOM     89  C   UNL A   1      31.546  26.047  26.312  1.00  0.00     0.003 A 
ENDBRANCH  80  83
ENDBRANCH  77  79
ENDBRANCH  75  77
ENDBRANCH  71  75
ENDBRANCH  65  68
ENDBRANCH   1  64
TORSDOF 14
ENDMDL
MODEL 2
REMARK VINA RESULT:     -12.3      1.139      6.276
REMARK SMILES O=C(NCCCNC(=O)c1cc(NC(=S)NC(=O)c2ccccc2F)ccc1Cl)c1ccc(-c2c3nc(c(-c4c(F)cccc4F)c4ccc([nH]4)c(-c4c(F)cccc4F)c4nc(c(-c5c(F)cccc5F)c5ccc2[nH]5)C=C4)C=C3)cc1
REMARK SMILES IDX 6 1 5 2 4 3 3 4 1 5 2 6 30 8 31 9 83 10 32 11 82 12 33 13
REMARK SMILES IDX 34 14 35 15 76 16 36 17 81 18 75 19 77 20 37 21 80 22 74 23
REMARK SMILES IDX 73 24 38 26 64 27 47 28 63 29 48 30 51 31 62 32 78 33 49 34
REMARK SMILES IDX 50 35 61 37 79 38 52 39 39 40 40 41 45 42 41 43 42 44 44 45
REMARK SMILES IDX 46 46 43 47 65 48 66 49 71 50 67 51 68 52 70 53 72 54 69 55
REMARK SMILES IDX 53 56 54 57 59 58 55 59 56 60 58 61 60 62 57 63 7 64 8 65
REMARK SMILES IDX 9 67 10 68 11 69 28 70 12 71 27 72 29 73 26 74 13 75 14 77
REMARK SMILES IDX 15 78 16 79 17 80 18 82 19 83 20 84 24 85 21 86 23 87 25 88
REMARK SMILES IDX 22 89
REMARK H PARENT 3 7 77 25 51 36 7 66 13 76 16 81
REMARK Flexibility Score: inf
ROOT
ATOM      1  C   UNL A   1      36.769  20.795  24.882  1.00  0.00     0.118 C 
ENDROOT
BRANCH   1   2
ATOM      2  C   UNL A   1      37.872  19.758  24.999  1.00  0.00     0.042 C 
BRANCH   2   3
ATOM      3  C   UNL A   1      39.095  20.215  25.781  1.00  0.00     0.118 C 
BRANCH   3   4
ATOM      4  N   UNL A   1      40.153  19.213  25.879  1.00  0.00    -0.352 N 
ATOM      5  O   UNL A   1      42.220  18.337  26.085  1.00  0.00    -0.269 OA
ATOM      6  C   UNL A   1      41.493  19.322  26.171  1.00  0.00     0.251 C 
ATOM      7  H   UNL A   1      39.852  18.292  25.706  1.00  0.00     0.163 HD
BRANCH   6   8
ATOM      8  C   UNL A   1      42.076  20.630  26.535  1.00  0.00     0.039 A 
ATOM      9  C   UNL A   1      42.081  21.062  27.856  1.00  0.00     0.014 A 
ATOM     10  C   UNL A   1      42.613  21.449  25.536  1.00  0.00     0.014 A 
ATOM     11  C   UNL A   1      42.368  22.387  28.143  1.00  0.00     0.010 A 
ATOM     12  C   UNL A   1      43.048  22.740  25.854  1.00  0.00     0.010 A 
ATOM     13  C   UNL A   1      42.869  23.243  27.150  1.00  0.00    -0.014 A 
BRANCH  13  14
ATOM     14  C   UNL A   1      43.222  24.639  27.521  1.00  0.00     0.031 A 
ATOM     15  C   UNL A   1      42.164  25.637  27.907  1.00  0.00     0.074 A 
ATOM     16  C   UNL A   1      44.525  24.982  27.577  1.00  0.00     0.049 A 
ATOM     17  N   UNL A   1      42.310  26.878  28.302  1.00  0.00    -0.248 NA
ATOM     18  C   UNL A   1      40.762  25.198  27.833  1.00  0.00     0.031 C 
ATOM     19  C   UNL A   1      45.641  24.100  27.225  1.00  0.00     0.029 A 
ATOM     20  N   UNL A   1      45.135  26.140  27.985  1.00  0.00    -0.354 N 
ATOM     21  C   UNL A   1      41.026  27.369  28.505  1.00  0.00     0.074 A 
ATOM     22  C   UNL A   1      40.109  26.306  28.155  1.00  0.00     0.031 C 
ATOM     23  C   UNL A   1      46.795  24.717  27.505  1.00  0.00     0.029 A 
ATOM     24  C   UNL A   1      46.508  26.067  27.971  1.00  0.00     0.049 A 
ATOM     25  H   UNL A   1      44.639  26.944  28.261  1.00  0.00     0.167 HD
ATOM     26  C   UNL A   1      40.650  28.590  28.956  1.00  0.00     0.037 A 
ATOM     27  C   UNL A   1      47.438  26.987  28.282  1.00  0.00     0.037 A 
ATOM     28  C   UNL A   1      41.572  29.638  29.317  1.00  0.00     0.049 A 
ATOM     29  C   UNL A   1      46.995  28.340  28.748  1.00  0.00     0.074 A 
ATOM     30  C   UNL A   1      41.288  30.906  29.795  1.00  0.00     0.029 A 
ATOM     31  N   UNL A   1      42.954  29.541  29.240  1.00  0.00    -0.354 N 
ATOM     32  N   UNL A   1      45.778  28.788  28.938  1.00  0.00    -0.248 NA
ATOM     33  C   UNL A   1      48.050  29.319  29.038  1.00  0.00     0.031 C 
ATOM     34  C   UNL A   1      42.494  31.593  29.957  1.00  0.00     0.029 A 
ATOM     35  C   UNL A   1      43.535  30.733  29.644  1.00  0.00     0.049 A 
ATOM     36  H   UNL A   1      43.448  28.744  28.943  1.00  0.00     0.167 HD
ATOM     37  C   UNL A   1      45.918  30.092  29.389  1.00  0.00     0.074 A 
ATOM     38  C   UNL A   1      47.340  30.358  29.460  1.00  0.00     0.031 C 
ATOM     39  C   UNL A   1      44.952  30.985  29.715  1.00  0.00     0.037 A 
BRANCH  26  40
ATOM     40  C   UNL A   1      39.178  28.873  29.075  1.00  0.00     0.057 A 
ATOM     41  C   UNL A   1      38.461  29.396  27.991  1.00  0.00     0.134 A 
ATOM     42  C   UNL A   1      38.483  28.693  30.279  1.00  0.00     0.134 A 
ATOM     43  F   UNL A   1      39.063  29.602  26.811  1.00  0.00    -0.206 F 
ATOM     44  C   UNL A   1      37.112  29.741  28.102  1.00  0.00     0.040 A 
ATOM     45  C   UNL A   1      37.126  29.006  30.394  1.00  0.00     0.040 A 
ATOM     46  F   UNL A   1      39.104  28.186  31.354  1.00  0.00    -0.206 F 
ATOM     47  C   UNL A   1      36.440  29.542  29.306  1.00  0.00     0.006 A 
ENDBRANCH  26  40
BRANCH  27  48
ATOM     48  C   UNL A   1      48.876  26.636  28.162  1.00  0.00     0.057 A 
ATOM     49  C   UNL A   1      49.555  26.758  26.943  1.00  0.00     0.134 A 
ATOM     50  C   UNL A   1      49.587  26.113  29.247  1.00  0.00     0.134 A 
ATOM     51  F   UNL A   1      48.924  27.240  25.861  1.00  0.00    -0.206 F 
ATOM     52  C   UNL A   1      50.879  26.345  26.797  1.00  0.00     0.040 A 
ATOM     53  C   UNL A   1      50.922  25.724  29.123  1.00  0.00     0.040 A 
ATOM     54  F   UNL A   1      48.997  25.983  30.443  1.00  0.00    -0.206 F 
ATOM     55  C   UNL A   1      51.568  25.829  27.892  1.00  0.00     0.006 A 
ENDBRANCH  27  48
BRANCH  39  56
ATOM     56  C   UNL A   1      45.396  32.330  30.213  1.00  0.00     0.057 A 
ATOM     57  C   UNL A   1      45.614  33.383  29.314  1.00  0.00     0.134 A 
ATOM     58  C   UNL A   1      45.666  32.570  31.566  1.00  0.00     0.134 A 
ATOM     59  F   UNL A   1      45.384  33.218  28.003  1.00  0.00    -0.206 F 
ATOM     60  C   UNL A   1      46.096  34.620  29.741  1.00  0.00     0.040 A 
ATOM     61  C   UNL A   1      46.121  33.813  32.009  1.00  0.00     0.040 A 
ATOM     62  F   UNL A   1      45.467  31.608  32.481  1.00  0.00    -0.206 F 
ATOM     63  C   UNL A   1      46.347  34.839  31.094  1.00  0.00     0.006 A 
ENDBRANCH  39  56
ENDBRANCH  13  14
ENDBRANCH   6   8
ENDBRANCH   3   4
ENDBRANCH   2   3
ENDBRANCH   1   2
BRANCH   1  64
ATOM     64  N   UNL A   1      36.054  21.056  26.122  1.00  0.00    -0.352 N 
ATOM     65  C   UNL A   1      34.832  21.625  26.396  1.00  0.00     0.252 C 
ATOM     66  H   UNL A   1      36.543  20.767  26.927  1.00  0.00     0.163 HD
ATOM     67  O   UNL A   1      34.361  21.369  27.502  1.00  0.00    -0.269 OA
BRANCH  65  68
ATOM     68  C   UNL A   1      34.131  22.509  25.342  1.00  0.00     0.060 A 
ATOM     69  C   UNL A   1      34.127  24.463  24.816  1.00  0.00     0.041 A 
ATOM     70  C   UNL A   1      32.960  21.477  24.402  1.00  0.00     0.053 A 
ATOM     71  C   UNL A   1      33.247  25.068  23.486  1.00  0.00     0.041 A 
ATOM     72  C   UNL A   1      32.010  22.242  23.099  1.00  0.00     0.023 A 
ATOM     73  Cl  UNL A   1      32.488  19.888  24.880  1.00  0.00    -0.083 Cl
ATOM     74  C   UNL A   1      32.165  23.974  22.659  1.00  0.00     0.028 A 
BRANCH  71  75
ATOM     75  N   UNL A   1      33.871  26.218  22.978  1.00  0.00    -0.332 N 
ATOM     76  H   UNL A   1      34.404  26.075  22.163  1.00  0.00     0.169 HD
BRANCH  75  77
ATOM     77  C   UNL A   1      33.854  27.518  23.442  1.00  0.00     0.177 C 
ATOM     78  S   UNL A   1      33.917  28.714  22.259  1.00  0.00    -0.040 S 
BRANCH  77  79
ATOM     79  N   UNL A   1      33.809  27.992  24.798  1.00  0.00    -0.299 N 
ATOM     80  C   UNL A   1      33.145  28.527  26.039  1.00  0.00     0.260 C 
ATOM     81  H   UNL A   1      34.753  27.934  25.073  1.00  0.00     0.172 HD
ATOM     82  O   UNL A   1      33.850  28.918  26.968  1.00  0.00    -0.269 OA
BRANCH  80  83
ATOM     83  C   UNL A   1      31.627  28.691  26.151  1.00  0.00     0.075 A 
ATOM     84  C   UNL A   1      31.049  29.962  25.008  1.00  0.00     0.017 A 
ATOM     85  C   UNL A   1      31.046  27.054  26.126  1.00  0.00     0.135 A 
ATOM     86  C   UNL A   1      30.021  29.599  23.588  1.00  0.00     0.001 A 
ATOM     87  C   UNL A   1      30.044  26.533  24.762  1.00  0.00     0.040 A 
ATOM     88  F   UNL A   1      31.634  26.112  26.878  1.00  0.00    -0.206 F 
ATOM     89  C   UNL A   1      29.523  27.875  23.332  1.00  0.00     0.003 A 
ENDBRANCH  80  83
ENDBRANCH  77  79
ENDBRANCH  75  77
ENDBRANCH  71  75
ENDBRANCH  65  68
ENDBRANCH   1  64
TORSDOF 14
ENDMDL
MODEL 3
REMARK VINA RESULT:     -12.2      4.988      8.692
REMARK SMILES O=C(NCCCNC(=O)c1cc(NC(=S)NC(=O)c2ccccc2F)ccc1Cl)c1ccc(-c2c3nc(c(-c4c(F)cccc4F)c4ccc([nH]4)c(-c4c(F)cccc4F)c4nc(c(-c5c(F)cccc5F)c5ccc2[nH]5)C=C4)C=C3)cc1
REMARK SMILES IDX 6 1 5 2 4 3 3 4 1 5 2 6 30 8 31 9 83 10 32 11 82 12 33 13
REMARK SMILES IDX 34 14 35 15 76 16 36 17 81 18 75 19 77 20 37 21 80 22 74 23
REMARK SMILES IDX 73 24 38 26 64 27 47 28 63 29 48 30 51 31 62 32 78 33 49 34
REMARK SMILES IDX 50 35 61 37 79 38 52 39 39 40 40 41 45 42 41 43 42 44 44 45
REMARK SMILES IDX 46 46 43 47 65 48 66 49 71 50 67 51 68 52 70 53 72 54 69 55
REMARK SMILES IDX 53 56 54 57 59 58 55 59 56 60 58 61 60 62 57 63 7 64 8 65
REMARK SMILES IDX 9 67 10 68 11 69 28 70 12 71 27 72 29 73 26 74 13 75 14 77
REMARK SMILES IDX 15 78 16 79 17 80 18 82 19 83 20 84 24 85 21 86 23 87 25 88
REMARK SMILES IDX 22 89
REMARK H PARENT 3 7 77 25 51 36 7 66 13 76 16 81
REMARK Flexibility Score: inf
ROOT
ATOM      1  C   UNL A   1      36.179  22.978  25.666  1.00  0.00     0.118 C 
ENDROOT
BRANCH   1   2
ATOM      2  C   UNL A   1      37.679  22.749  25.645  1.00  0.00     0.042 C 
BRANCH   2   3
ATOM      3  C   UNL A   1      38.484  23.720  26.496  1.00  0.00     0.118 C 
BRANCH   3   4
ATOM      4  N   UNL A   1      39.909  23.758  26.177  1.00  0.00    -0.352 N 
ATOM      5  O   UNL A   1      42.023  24.530  26.040  1.00  0.00    -0.269 OA
ATOM      6  C   UNL A   1      40.902  24.644  26.527  1.00  0.00     0.251 C 
ATOM      7  H   UNL A   1      40.215  23.015  25.609  1.00  0.00     0.163 HD
BRANCH   6   8
ATOM      8  C   UNL A   1      40.615  25.767  27.444  1.00  0.00     0.039 A 
ATOM      9  C   UNL A   1      41.256  26.990  27.290  1.00  0.00     0.014 A 
ATOM     10  C   UNL A   1      39.701  25.589  28.488  1.00  0.00     0.014 A 
ATOM     11  C   UNL A   1      41.193  27.930  28.307  1.00  0.00     0.010 A 
ATOM     12  C   UNL A   1      39.522  26.603  29.436  1.00  0.00     0.010 A 
ATOM     13  C   UNL A   1      40.315  27.758  29.388  1.00  0.00    -0.014 A 
BRANCH  13  14
ATOM     14  C   UNL A   1      40.238  28.823  30.424  1.00  0.00     0.031 A 
ATOM     15  C   UNL A   1      39.196  29.907  30.354  1.00  0.00     0.074 A 
ATOM     16  C   UNL A   1      41.078  28.761  31.476  1.00  0.00     0.049 A 
ATOM     17  N   UNL A   1      38.965  30.879  31.202  1.00  0.00    -0.248 NA
ATOM     18  C   UNL A   1      38.304  29.913  29.185  1.00  0.00     0.031 C 
ATOM     19  C   UNL A   1      42.131  27.757  31.652  1.00  0.00     0.029 A 
ATOM     20  N   UNL A   1      41.159  29.526  32.611  1.00  0.00    -0.354 N 
ATOM     21  C   UNL A   1      37.919  31.618  30.662  1.00  0.00     0.074 A 
ATOM     22  C   UNL A   1      37.583  31.005  29.395  1.00  0.00     0.031 C 
ATOM     23  C   UNL A   1      42.697  27.918  32.855  1.00  0.00     0.029 A 
ATOM     24  C   UNL A   1      42.113  29.088  33.498  1.00  0.00     0.049 A 
ATOM     25  H   UNL A   1      40.589  30.313  32.774  1.00  0.00     0.167 HD
ATOM     26  C   UNL A   1      37.290  32.698  31.184  1.00  0.00     0.037 A 
ATOM     27  C   UNL A   1      42.492  29.578  34.692  1.00  0.00     0.037 A 
ATOM     28  C   UNL A   1      37.623  33.292  32.454  1.00  0.00     0.049 A 
ATOM     29  C   UNL A   1      41.801  30.793  35.231  1.00  0.00     0.074 A 
ATOM     30  C   UNL A   1      37.035  34.382  33.075  1.00  0.00     0.029 A 
ATOM     31  N   UNL A   1      38.630  32.848  33.300  1.00  0.00    -0.354 N 
ATOM     32  N   UNL A   1      40.812  31.478  34.710  1.00  0.00    -0.248 NA
ATOM     33  C   UNL A   1      42.279  31.309  36.520  1.00  0.00     0.031 C 
ATOM     34  C   UNL A   1      37.720  34.629  34.267  1.00  0.00     0.029 A 
ATOM     35  C   UNL A   1      38.692  33.653  34.426  1.00  0.00     0.049 A 
ATOM     36  H   UNL A   1      39.213  32.075  33.125  1.00  0.00     0.167 HD
ATOM     37  C   UNL A   1      40.534  32.493  35.614  1.00  0.00     0.074 A 
ATOM     38  C   UNL A   1      41.449  32.323  36.725  1.00  0.00     0.031 C 
ATOM     39  C   UNL A   1      39.603  33.473  35.528  1.00  0.00     0.037 A 
BRANCH  26  40
ATOM     40  C   UNL A   1      36.184  33.324  30.380  1.00  0.00     0.057 A 
ATOM     41  C   UNL A   1      34.842  33.043  30.672  1.00  0.00     0.134 A 
ATOM     42  C   UNL A   1      36.443  34.150  29.278  1.00  0.00     0.134 A 
ATOM     43  F   UNL A   1      34.521  32.255  31.708  1.00  0.00    -0.206 F 
ATOM     44  C   UNL A   1      33.801  33.549  29.891  1.00  0.00     0.040 A 
ATOM     45  C   UNL A   1      35.408  34.685  28.506  1.00  0.00     0.040 A 
ATOM     46  F   UNL A   1      37.703  34.468  28.947  1.00  0.00    -0.206 F 
ATOM     47  C   UNL A   1      34.083  34.377  28.807  1.00  0.00     0.006 A 
ENDBRANCH  26  40
BRANCH  27  48
ATOM     48  C   UNL A   1      43.578  28.899  35.444  1.00  0.00     0.057 A 
ATOM     49  C   UNL A   1      43.296  27.915  36.400  1.00  0.00     0.134 A 
ATOM     50  C   UNL A   1      44.917  29.263  35.269  1.00  0.00     0.134 A 
ATOM     51  F   UNL A   1      42.029  27.532  36.624  1.00  0.00    -0.206 F 
ATOM     52  C   UNL A   1      44.300  27.338  37.176  1.00  0.00     0.040 A 
ATOM     53  C   UNL A   1      45.937  28.672  36.018  1.00  0.00     0.040 A 
ATOM     54  F   UNL A   1      45.253  30.190  34.360  1.00  0.00    -0.206 F 
ATOM     55  C   UNL A   1      45.627  27.715  36.983  1.00  0.00     0.006 A 
ENDBRANCH  27  48
BRANCH  39  56
ATOM     56  C   UNL A   1      39.498  34.428  36.682  1.00  0.00     0.057 A 
ATOM     57  C   UNL A   1      40.154  35.665  36.641  1.00  0.00     0.134 A 
ATOM     58  C   UNL A   1      38.803  34.104  37.853  1.00  0.00     0.134 A 
ATOM     59  F   UNL A   1      40.846  36.034  35.552  1.00  0.00    -0.206 F 
ATOM     60  C   UNL A   1      40.133  36.540  37.728  1.00  0.00     0.040 A 
ATOM     61  C   UNL A   1      38.750  34.983  38.936  1.00  0.00     0.040 A 
ATOM     62  F   UNL A   1      38.143  32.939  37.953  1.00  0.00    -0.206 F 
ATOM     63  C   UNL A   1      39.425  36.200  38.878  1.00  0.00     0.006 A 
ENDBRANCH  39  56
ENDBRANCH  13  14
ENDBRANCH   6   8
ENDBRANCH   3   4
ENDBRANCH   2   3
ENDBRANCH   1   2
BRANCH   1  64
ATOM     64  N   UNL A   1      35.500  22.414  26.823  1.00  0.00    -0.352 N 
ATOM     65  C   UNL A   1      34.206  22.000  27.037  1.00  0.00     0.252 C 
ATOM     66  H   UNL A   1      36.083  22.308  27.609  1.00  0.00     0.163 HD
ATOM     67  O   UNL A   1      34.041  21.241  27.990  1.00  0.00    -0.269 OA
BRANCH  65  68
ATOM     68  C   UNL A   1      33.070  22.473  26.104  1.00  0.00     0.060 A 
ATOM     69  C   UNL A   1      31.420  23.635  26.253  1.00  0.00     0.041 A 
ATOM     70  C   UNL A   1      33.292  21.690  24.474  1.00  0.00     0.053 A 
ATOM     71  C   UNL A   1      30.420  24.007  24.923  1.00  0.00     0.041 A 
ATOM     72  C   UNL A   1      32.119  22.069  23.183  1.00  0.00     0.023 A 
ATOM     73  Cl  UNL A   1      34.376  20.382  24.180  1.00  0.00    -0.083 Cl
ATOM     74  C   UNL A   1      30.743  23.197  23.409  1.00  0.00     0.028 A 
BRANCH  71  75
ATOM     75  N   UNL A   1      29.785  25.241  25.127  1.00  0.00    -0.332 N 
ATOM     76  H   UNL A   1      28.831  25.183  25.362  1.00  0.00     0.169 HD
BRANCH  75  77
ATOM     77  C   UNL A   1      30.288  26.524  25.050  1.00  0.00     0.177 C 
ATOM     78  S   UNL A   1      29.841  27.402  23.685  1.00  0.00    -0.040 S 
BRANCH  77  79
ATOM     79  N   UNL A   1      31.158  27.210  25.967  1.00  0.00    -0.299 N 
ATOM     80  C   UNL A   1      32.477  27.735  26.469  1.00  0.00     0.260 C 
ATOM     81  H   UNL A   1      30.533  27.504  26.669  1.00  0.00     0.172 HD
ATOM     82  O   UNL A   1      32.537  28.201  27.605  1.00  0.00    -0.269 OA
BRANCH  80  83
ATOM     83  C   UNL A   1      33.767  27.625  25.652  1.00  0.00     0.075 A 
ATOM     84  C   UNL A   1      34.123  25.897  25.274  1.00  0.00     0.017 A 
ATOM     85  C   UNL A   1      33.572  28.845  24.431  1.00  0.00     0.135 A 
ATOM     86  C   UNL A   1      34.056  25.230  23.614  1.00  0.00     0.001 A 
ATOM     87  C   UNL A   1      33.453  28.337  22.739  1.00  0.00     0.040 A 
ATOM     88  F   UNL A   1      33.138  30.071  24.758  1.00  0.00    -0.206 F 
ATOM     89  C   UNL A   1      33.646  26.372  22.267  1.00  0.00     0.003 A 
ENDBRANCH  80  83
ENDBRANCH  77  79
ENDBRANCH  75  77
ENDBRANCH  71  75
ENDBRANCH  65  68
ENDBRANCH   1  64
TORSDOF 14
ENDMDL
