MODEL 1
REMARK VINA RESULT:     -11.3      0.000      0.000
REMARK SMILES CC(C)[C@H]([NH2+]Cc1ccc(O)cn1)C(=O)NCCCNC(=O)c1ccc(-c2c3nc(c(-c4c(F)cccc4F)c4ccc([nH]4)c(-c4c(F)cccc4F)c4nc(c(-c5c(F)cccc5F)c5ccc2[nH]5)C=C4)C=C3)cc1
REMARK SMILES IDX 17 1 16 2 14 3 15 4 4 6 2 7 1 8 3 9 5 10 6 13 7 14 8 15
REMARK SMILES IDX 13 16 9 17 12 18 10 19 11 20 18 22 19 23 20 24 21 25 22 27
REMARK SMILES IDX 23 28 24 29 76 30 25 31 75 32 26 33 27 34 28 35 69 36 29 37
REMARK SMILES IDX 74 38 68 39 70 40 30 41 73 42 67 43 66 44 31 46 57 47 40 48
REMARK SMILES IDX 56 49 41 50 44 51 55 52 71 53 42 54 43 55 54 57 72 58 45 59
REMARK SMILES IDX 32 60 33 61 38 62 34 63 35 64 37 65 39 66 36 67 58 68 59 69
REMARK SMILES IDX 64 70 60 71 61 72 63 73 65 74 62 75 46 76 47 77 52 78 48 79
REMARK SMILES IDX 49 80 51 81 53 82 50 83
REMARK H PARENT 16 5 5 11 5 12 11 21 20 26 70 45 44 56
REMARK Flexibility Score: inf
ROOT
ATOM      1  C   UNL A   1      36.555  20.965  24.906  1.00  0.00     0.118 C 
ENDROOT
BRANCH   1   2
ATOM      2  N   UNL A   1      35.832  21.121  26.149  1.00  0.00    -0.351 N 
ATOM      3  C   UNL A   1      34.546  21.473  26.420  1.00  0.00     0.278 C 
ATOM      4  O   UNL A   1      34.213  21.453  27.611  1.00  0.00    -0.268 OA
ATOM      5  H   UNL A   1      36.373  20.938  26.952  1.00  0.00     0.163 HD
BRANCH   3   6
ATOM      6  C   UNL A   1      33.507  21.832  25.324  1.00  0.00     0.275 C 
BRANCH   6   7
ATOM      7  C   UNL A   1      33.024  23.313  25.361  1.00  0.00     0.051 C 
ATOM      8  C   UNL A   1      31.929  23.659  26.369  1.00  0.00     0.014 C 
ATOM      9  C   UNL A   1      34.200  24.280  25.559  1.00  0.00     0.014 C 
ENDBRANCH   6   7
BRANCH   6  10
ATOM     10  N   UNL A   1      32.464  20.793  25.275  1.00  0.00    -0.331 N 
ATOM     11  H   UNL A   1      31.555  21.254  25.281  1.00  0.00     0.347 HD
ATOM     12  H   UNL A   1      32.615  20.195  26.088  1.00  0.00     0.347 HD
BRANCH  10  13
ATOM     13  C   UNL A   1      32.528  19.920  24.100  1.00  0.00     0.318 C 
BRANCH  13  14
ATOM     14  C   UNL A   1      32.961  18.517  24.502  1.00  0.00     0.095 A 
ATOM     15  C   UNL A   1      34.075  17.932  23.891  1.00  0.00     0.033 A 
ATOM     16  N   UNL A   1      32.194  17.849  25.398  1.00  0.00    -0.251 NA
ATOM     17  C   UNL A   1      34.392  16.605  24.176  1.00  0.00     0.050 A 
ATOM     18  C   UNL A   1      32.528  16.563  25.662  1.00  0.00     0.157 A 
ATOM     19  C   UNL A   1      33.596  15.908  25.072  1.00  0.00     0.133 A 
BRANCH  19  20
ATOM     20  O   UNL A   1      33.836  14.603  25.376  1.00  0.00    -0.506 OA
ATOM     21  H   UNL A   1      33.927  14.339  26.270  1.00  0.00     0.293 HD
ENDBRANCH  19  20
ENDBRANCH  13  14
ENDBRANCH  10  13
ENDBRANCH   6  10
ENDBRANCH   3   6
ENDBRANCH   1   2
BRANCH   1  22
ATOM     22  C   UNL A   1      37.626  19.890  24.972  1.00  0.00     0.042 C 
BRANCH  22  23
ATOM     23  C   UNL A   1      38.857  20.321  25.754  1.00  0.00     0.118 C 
BRANCH  23  24
ATOM     24  N   UNL A   1      39.864  19.267  25.839  1.00  0.00    -0.352 N 
ATOM     25  C   UNL A   1      41.225  19.339  26.007  1.00  0.00     0.251 C 
ATOM     26  H   UNL A   1      39.508  18.352  25.764  1.00  0.00     0.163 HD
ATOM     27  O   UNL A   1      41.915  18.338  25.828  1.00  0.00    -0.269 OA
BRANCH  25  28
ATOM     28  C   UNL A   1      41.864  20.616  26.380  1.00  0.00     0.039 A 
ATOM     29  C   UNL A   1      42.256  21.506  25.375  1.00  0.00     0.014 A 
ATOM     30  C   UNL A   1      42.090  20.934  27.720  1.00  0.00     0.014 A 
ATOM     31  C   UNL A   1      42.794  22.747  25.722  1.00  0.00     0.010 A 
ATOM     32  C   UNL A   1      42.522  22.208  28.064  1.00  0.00     0.010 A 
ATOM     33  C   UNL A   1      42.886  23.126  27.070  1.00  0.00    -0.014 A 
BRANCH  33  34
ATOM     34  C   UNL A   1      43.384  24.463  27.480  1.00  0.00     0.031 A 
ATOM     35  C   UNL A   1      42.404  25.522  27.909  1.00  0.00     0.074 A 
ATOM     36  C   UNL A   1      44.697  24.750  27.385  1.00  0.00     0.049 A 
ATOM     37  N   UNL A   1      42.613  26.789  28.162  1.00  0.00    -0.248 NA
ATOM     38  C   UNL A   1      40.997  25.109  28.035  1.00  0.00     0.031 C 
ATOM     39  C   UNL A   1      45.742  23.823  26.943  1.00  0.00     0.029 A 
ATOM     40  N   UNL A   1      45.377  25.914  27.643  1.00  0.00    -0.354 N 
ATOM     41  C   UNL A   1      41.365  27.324  28.455  1.00  0.00     0.074 A 
ATOM     42  C   UNL A   1      40.397  26.263  28.288  1.00  0.00     0.031 C 
ATOM     43  C   UNL A   1      46.931  24.446  26.987  1.00  0.00     0.029 A 
ATOM     44  C   UNL A   1      46.729  25.826  27.413  1.00  0.00     0.049 A 
ATOM     45  H   UNL A   1      44.937  26.735  27.961  1.00  0.00     0.167 HD
ATOM     46  C   UNL A   1      41.053  28.578  28.858  1.00  0.00     0.037 A 
ATOM     47  C   UNL A   1      47.693  26.759  27.526  1.00  0.00     0.037 A 
ATOM     48  C   UNL A   1      42.022  29.622  29.059  1.00  0.00     0.049 A 
ATOM     49  C   UNL A   1      47.319  28.148  27.967  1.00  0.00     0.074 A 
ATOM     50  C   UNL A   1      41.815  30.918  29.497  1.00  0.00     0.029 A 
ATOM     51  N   UNL A   1      43.385  29.481  28.848  1.00  0.00    -0.354 N 
ATOM     52  N   UNL A   1      46.139  28.627  28.278  1.00  0.00    -0.248 NA
ATOM     53  C   UNL A   1      48.412  29.124  28.076  1.00  0.00     0.031 C 
ATOM     54  C   UNL A   1      43.052  31.570  29.528  1.00  0.00     0.029 A 
ATOM     55  C   UNL A   1      44.031  30.668  29.145  1.00  0.00     0.049 A 
ATOM     56  H   UNL A   1      43.826  28.660  28.533  1.00  0.00     0.167 HD
ATOM     57  C   UNL A   1      46.353  29.947  28.655  1.00  0.00     0.074 A 
ATOM     58  C   UNL A   1      47.776  30.189  28.542  1.00  0.00     0.031 C 
ATOM     59  C   UNL A   1      45.453  30.876  29.055  1.00  0.00     0.037 A 
BRANCH  46  60
ATOM     60  C   UNL A   1      39.609  28.879  29.132  1.00  0.00     0.057 A 
ATOM     61  C   UNL A   1      38.748  29.319  28.119  1.00  0.00     0.134 A 
ATOM     62  C   UNL A   1      39.065  28.694  30.408  1.00  0.00     0.134 A 
ATOM     63  F   UNL A   1      39.211  29.530  26.877  1.00  0.00    -0.206 F 
ATOM     64  C   UNL A   1      37.402  29.588  28.370  1.00  0.00     0.040 A 
ATOM     65  C   UNL A   1      37.714  28.935  30.666  1.00  0.00     0.040 A 
ATOM     66  F   UNL A   1      39.834  28.271  31.423  1.00  0.00    -0.206 F 
ATOM     67  C   UNL A   1      36.880  29.388  29.646  1.00  0.00     0.006 A 
ENDBRANCH  46  60
BRANCH  47  68
ATOM     68  C   UNL A   1      49.111  26.417  27.243  1.00  0.00     0.057 A 
ATOM     69  C   UNL A   1      49.619  26.490  25.941  1.00  0.00     0.134 A 
ATOM     70  C   UNL A   1      49.978  25.975  28.249  1.00  0.00     0.134 A 
ATOM     71  F   UNL A   1      48.831  26.891  24.931  1.00  0.00    -0.206 F 
ATOM     72  C   UNL A   1      50.927  26.106  25.642  1.00  0.00     0.040 A 
ATOM     73  C   UNL A   1      51.295  25.611  27.969  1.00  0.00     0.040 A 
ATOM     74  F   UNL A   1      49.556  25.894  29.519  1.00  0.00    -0.206 F 
ATOM     75  C   UNL A   1      51.770  25.665  26.660  1.00  0.00     0.006 A 
ENDBRANCH  47  68
BRANCH  59  76
ATOM     76  C   UNL A   1      45.987  32.218  29.459  1.00  0.00     0.057 A 
ATOM     77  C   UNL A   1      46.471  32.464  30.749  1.00  0.00     0.134 A 
ATOM     78  C   UNL A   1      46.056  33.262  28.528  1.00  0.00     0.134 A 
ATOM     79  F   UNL A   1      46.418  31.508  31.689  1.00  0.00    -0.206 F 
ATOM     80  C   UNL A   1      46.987  33.711  31.106  1.00  0.00     0.040 A 
ATOM     81  C   UNL A   1      46.593  34.504  28.866  1.00  0.00     0.040 A 
ATOM     82  F   UNL A   1      45.617  33.087  27.273  1.00  0.00    -0.206 F 
ATOM     83  C   UNL A   1      47.056  34.732  30.161  1.00  0.00     0.006 A 
ENDBRANCH  59  76
ENDBRANCH  33  34
ENDBRANCH  25  28
ENDBRANCH  23  24
ENDBRANCH  22  23
ENDBRANCH   1  22
TORSDOF 15
ENDMDL
MODEL 2
REMARK VINA RESULT:     -11.1      1.500      6.559
REMARK SMILES CC(C)[C@H]([NH2+]Cc1ccc(O)cn1)C(=O)NCCCNC(=O)c1ccc(-c2c3nc(c(-c4c(F)cccc4F)c4ccc([nH]4)c(-c4c(F)cccc4F)c4nc(c(-c5c(F)cccc5F)c5ccc2[nH]5)C=C4)C=C3)cc1
REMARK SMILES IDX 17 1 16 2 14 3 15 4 4 6 2 7 1 8 3 9 5 10 6 13 7 14 8 15
REMARK SMILES IDX 13 16 9 17 12 18 10 19 11 20 18 22 19 23 20 24 21 25 22 27
REMARK SMILES IDX 23 28 24 29 76 30 25 31 75 32 26 33 27 34 28 35 69 36 29 37
REMARK SMILES IDX 74 38 68 39 70 40 30 41 73 42 67 43 66 44 31 46 57 47 40 48
REMARK SMILES IDX 56 49 41 50 44 51 55 52 71 53 42 54 43 55 54 57 72 58 45 59
REMARK SMILES IDX 32 60 33 61 38 62 34 63 35 64 37 65 39 66 36 67 58 68 59 69
REMARK SMILES IDX 64 70 60 71 61 72 63 73 65 74 62 75 46 76 47 77 52 78 48 79
REMARK SMILES IDX 49 80 51 81 53 82 50 83
REMARK H PARENT 16 5 5 11 5 12 11 21 20 26 70 45 44 56
REMARK Flexibility Score: inf
ROOT
ATOM      1  C   UNL A   1      36.443  20.643  24.790  1.00  0.00     0.118 C 
ENDROOT
BRANCH   1   2
ATOM      2  N   UNL A   1      35.739  20.955  26.015  1.00  0.00    -0.351 N 
ATOM      3  C   UNL A   1      34.488  21.435  26.253  1.00  0.00     0.278 C 
ATOM      4  O   UNL A   1      34.158  21.534  27.442  1.00  0.00    -0.268 OA
ATOM      5  H   UNL A   1      36.265  20.789  26.832  1.00  0.00     0.163 HD
BRANCH   3   6
ATOM      6  C   UNL A   1      33.480  21.795  25.129  1.00  0.00     0.275 C 
BRANCH   6   7
ATOM      7  C   UNL A   1      33.021  23.283  25.135  1.00  0.00     0.051 C 
ATOM      8  C   UNL A   1      34.116  24.346  25.056  1.00  0.00     0.014 C 
ATOM      9  C   UNL A   1      31.990  23.555  24.031  1.00  0.00     0.014 C 
ENDBRANCH   6   7
BRANCH   6  10
ATOM     10  N   UNL A   1      32.422  20.771  25.072  1.00  0.00    -0.331 N 
ATOM     11  H   UNL A   1      31.520  21.247  25.050  1.00  0.00     0.347 HD
ATOM     12  H   UNL A   1      32.544  20.183  25.896  1.00  0.00     0.347 HD
BRANCH  10  13
ATOM     13  C   UNL A   1      32.498  19.881  23.911  1.00  0.00     0.318 C 
BRANCH  13  14
ATOM     14  C   UNL A   1      32.894  18.476  24.342  1.00  0.00     0.095 A 
ATOM     15  C   UNL A   1      33.899  17.793  23.648  1.00  0.00     0.033 A 
ATOM     16  N   UNL A   1      32.196  17.902  25.352  1.00  0.00    -0.251 NA
ATOM     17  C   UNL A   1      34.171  16.465  23.972  1.00  0.00     0.050 A 
ATOM     18  C   UNL A   1      32.485  16.613  25.652  1.00  0.00     0.157 A 
ATOM     19  C   UNL A   1      33.443  15.865  24.987  1.00  0.00     0.133 A 
BRANCH  19  20
ATOM     20  O   UNL A   1      33.642  14.564  25.337  1.00  0.00    -0.506 OA
ATOM     21  H   UNL A   1      34.430  14.126  25.084  1.00  0.00     0.293 HD
ENDBRANCH  19  20
ENDBRANCH  13  14
ENDBRANCH  10  13
ENDBRANCH   6  10
ENDBRANCH   3   6
ENDBRANCH   1   2
BRANCH   1  22
ATOM     22  C   UNL A   1      37.580  19.657  24.993  1.00  0.00     0.042 C 
BRANCH  22  23
ATOM     23  C   UNL A   1      38.877  20.321  25.427  1.00  0.00     0.118 C 
BRANCH  23  24
ATOM     24  N   UNL A   1      39.941  19.356  25.688  1.00  0.00    -0.352 N 
ATOM     25  C   UNL A   1      41.236  19.541  26.107  1.00  0.00     0.251 C 
ATOM     26  H   UNL A   1      39.689  18.416  25.539  1.00  0.00     0.163 HD
ATOM     27  O   UNL A   1      42.034  18.609  26.049  1.00  0.00    -0.269 OA
BRANCH  25  28
ATOM     28  C   UNL A   1      41.678  20.859  26.605  1.00  0.00     0.039 A 
ATOM     29  C   UNL A   1      42.214  21.787  25.706  1.00  0.00     0.014 A 
ATOM     30  C   UNL A   1      41.578  21.178  27.959  1.00  0.00     0.014 A 
ATOM     31  C   UNL A   1      42.566  23.061  26.156  1.00  0.00     0.010 A 
ATOM     32  C   UNL A   1      41.825  22.476  28.384  1.00  0.00     0.010 A 
ATOM     33  C   UNL A   1      42.329  23.431  27.489  1.00  0.00    -0.014 A 
BRANCH  33  34
ATOM     34  C   UNL A   1      42.621  24.797  27.991  1.00  0.00     0.031 A 
ATOM     35  C   UNL A   1      44.022  25.151  28.413  1.00  0.00     0.074 A 
ATOM     36  C   UNL A   1      41.619  25.683  28.148  1.00  0.00     0.049 A 
ATOM     37  N   UNL A   1      44.458  26.230  29.012  1.00  0.00    -0.248 NA
ATOM     38  C   UNL A   1      45.064  24.143  28.158  1.00  0.00     0.031 C 
ATOM     39  C   UNL A   1      40.212  25.447  27.816  1.00  0.00     0.029 A 
ATOM     40  N   UNL A   1      41.629  26.964  28.643  1.00  0.00    -0.354 N 
ATOM     41  C   UNL A   1      45.815  26.019  29.223  1.00  0.00     0.074 A 
ATOM     42  C   UNL A   1      46.118  24.689  28.746  1.00  0.00     0.031 C 
ATOM     43  C   UNL A   1      39.501  26.554  28.090  1.00  0.00     0.029 A 
ATOM     44  C   UNL A   1      40.391  27.559  28.660  1.00  0.00     0.049 A 
ATOM     45  H   UNL A   1      42.447  27.413  28.956  1.00  0.00     0.167 HD
ATOM     46  C   UNL A   1      46.734  26.869  29.739  1.00  0.00     0.037 A 
ATOM     47  C   UNL A   1      40.018  28.777  29.097  1.00  0.00     0.037 A 
ATOM     48  C   UNL A   1      46.437  28.205  30.178  1.00  0.00     0.049 A 
ATOM     49  C   UNL A   1      41.057  29.698  29.674  1.00  0.00     0.074 A 
ATOM     50  C   UNL A   1      47.302  29.159  30.686  1.00  0.00     0.029 A 
ATOM     51  N   UNL A   1      45.177  28.781  30.147  1.00  0.00    -0.354 N 
ATOM     52  N   UNL A   1      42.343  29.499  29.831  1.00  0.00    -0.248 NA
ATOM     53  C   UNL A   1      40.593  31.015  30.132  1.00  0.00     0.031 C 
ATOM     54  C   UNL A   1      46.559  30.305  30.985  1.00  0.00     0.029 A 
ATOM     55  C   UNL A   1      45.240  30.077  30.629  1.00  0.00     0.049 A 
ATOM     56  H   UNL A   1      44.359  28.335  29.831  1.00  0.00     0.167 HD
ATOM     57  C   UNL A   1      42.847  30.676  30.369  1.00  0.00     0.074 A 
ATOM     58  C   UNL A   1      41.729  31.587  30.502  1.00  0.00     0.031 C 
ATOM     59  C   UNL A   1      44.120  30.976  30.723  1.00  0.00     0.037 A 
BRANCH  46  60
ATOM     60  C   UNL A   1      48.151  26.384  29.829  1.00  0.00     0.057 A 
ATOM     61  C   UNL A   1      49.058  26.576  28.779  1.00  0.00     0.134 A 
ATOM     62  C   UNL A   1      48.624  25.752  30.985  1.00  0.00     0.134 A 
ATOM     63  F   UNL A   1      48.664  27.161  27.638  1.00  0.00    -0.206 F 
ATOM     64  C   UNL A   1      50.379  26.135  28.866  1.00  0.00     0.040 A 
ATOM     65  C   UNL A   1      49.950  25.331  31.094  1.00  0.00     0.040 A 
ATOM     66  F   UNL A   1      47.808  25.540  32.029  1.00  0.00    -0.206 F 
ATOM     67  C   UNL A   1      50.831  25.518  30.030  1.00  0.00     0.006 A 
ENDBRANCH  46  60
BRANCH  47  68
ATOM     68  C   UNL A   1      38.602  29.215  28.989  1.00  0.00     0.057 A 
ATOM     69  C   UNL A   1      37.746  29.153  30.094  1.00  0.00     0.134 A 
ATOM     70  C   UNL A   1      38.061  29.668  27.779  1.00  0.00     0.134 A 
ATOM     71  F   UNL A   1      38.202  28.712  31.276  1.00  0.00    -0.206 F 
ATOM     72  C   UNL A   1      36.396  29.493  29.996  1.00  0.00     0.040 A 
ATOM     73  C   UNL A   1      36.719  30.035  27.673  1.00  0.00     0.040 A 
ATOM     74  F   UNL A   1      38.831  29.762  26.686  1.00  0.00    -0.206 F 
ATOM     75  C   UNL A   1      35.879  29.937  28.781  1.00  0.00     0.006 A 
ENDBRANCH  47  68
BRANCH  59  76
ATOM     76  C   UNL A   1      44.381  32.363  31.231  1.00  0.00     0.057 A 
ATOM     77  C   UNL A   1      44.684  33.421  30.367  1.00  0.00     0.134 A 
ATOM     78  C   UNL A   1      44.282  32.646  32.599  1.00  0.00     0.134 A 
ATOM     79  F   UNL A   1      44.806  33.209  29.048  1.00  0.00    -0.206 F 
ATOM     80  C   UNL A   1      44.902  34.713  30.849  1.00  0.00     0.040 A 
ATOM     81  C   UNL A   1      44.473  33.938  33.090  1.00  0.00     0.040 A 
ATOM     82  F   UNL A   1      43.985  31.677  33.477  1.00  0.00    -0.206 F 
ATOM     83  C   UNL A   1      44.789  34.975  32.213  1.00  0.00     0.006 A 
ENDBRANCH  59  76
ENDBRANCH  33  34
ENDBRANCH  25  28
ENDBRANCH  23  24
ENDBRANCH  22  23
ENDBRANCH   1  22
TORSDOF 15
ENDMDL
MODEL 3
REMARK VINA RESULT:     -11.1      4.531      8.806
REMARK SMILES CC(C)[C@H]([NH2+]Cc1ccc(O)cn1)C(=O)NCCCNC(=O)c1ccc(-c2c3nc(c(-c4c(F)cccc4F)c4ccc([nH]4)c(-c4c(F)cccc4F)c4nc(c(-c5c(F)cccc5F)c5ccc2[nH]5)C=C4)C=C3)cc1
REMARK SMILES IDX 17 1 16 2 14 3 15 4 4 6 2 7 1 8 3 9 5 10 6 13 7 14 8 15
REMARK SMILES IDX 13 16 9 17 12 18 10 19 11 20 18 22 19 23 20 24 21 25 22 27
REMARK SMILES IDX 23 28 24 29 76 30 25 31 75 32 26 33 27 34 28 35 69 36 29 37
REMARK SMILES IDX 74 38 68 39 70 40 30 41 73 42 67 43 66 44 31 46 57 47 40 48
REMARK SMILES IDX 56 49 41 50 44 51 55 52 71 53 42 54 43 55 54 57 72 58 45 59
REMARK SMILES IDX 32 60 33 61 38 62 34 63 35 64 37 65 39 66 36 67 58 68 59 69
REMARK SMILES IDX 64 70 60 71 61 72 63 73 65 74 62 75 46 76 47 77 52 78 48 79
REMARK SMILES IDX 49 80 51 81 53 82 50 83
REMARK H PARENT 16 5 5 11 5 12 11 21 20 26 70 45 44 56
REMARK Flexibility Score: inf
ROOT
ATOM      1  C   UNL A   1      32.660  29.614  25.062  1.00  0.00     0.118 C 
ENDROOT
BRANCH   1   2
ATOM      2  N   UNL A   1      33.518  29.297  23.941  1.00  0.00    -0.351 N 
ATOM      3  C   UNL A   1      33.417  28.375  22.945  1.00  0.00     0.278 C 
ATOM      4  O   UNL A   1      34.305  28.401  22.085  1.00  0.00    -0.268 OA
ATOM      5  H   UNL A   1      34.329  29.853  23.889  1.00  0.00     0.163 HD
BRANCH   3   6
ATOM      6  C   UNL A   1      32.241  27.368  22.826  1.00  0.00     0.275 C 
BRANCH   6   7
ATOM      7  C   UNL A   1      32.679  25.911  22.492  1.00  0.00     0.051 C 
ATOM      8  C   UNL A   1      31.987  24.787  23.262  1.00  0.00     0.014 C 
ATOM      9  C   UNL A   1      32.563  25.623  20.989  1.00  0.00     0.014 C 
ENDBRANCH   6   7
BRANCH   6  10
ATOM     10  N   UNL A   1      31.177  27.952  21.992  1.00  0.00    -0.331 N 
ATOM     11  H   UNL A   1      30.991  27.313  21.220  1.00  0.00     0.347 HD
ATOM     12  H   UNL A   1      31.518  28.863  21.685  1.00  0.00     0.347 HD
BRANCH  10  13
ATOM     13  C   UNL A   1      29.916  28.197  22.697  1.00  0.00     0.318 C 
BRANCH  13  14
ATOM     14  C   UNL A   1      29.488  29.649  22.534  1.00  0.00     0.095 A 
ATOM     15  C   UNL A   1      29.353  30.464  23.662  1.00  0.00     0.033 A 
ATOM     16  N   UNL A   1      29.178  30.083  21.288  1.00  0.00    -0.251 NA
ATOM     17  C   UNL A   1      28.845  31.754  23.516  1.00  0.00     0.050 A 
ATOM     18  C   UNL A   1      28.694  31.343  21.173  1.00  0.00     0.157 A 
ATOM     19  C   UNL A   1      28.502  32.195  22.247  1.00  0.00     0.133 A 
BRANCH  19  20
ATOM     20  O   UNL A   1      27.979  33.434  22.038  1.00  0.00    -0.506 OA
ATOM     21  H   UNL A   1      27.850  34.016  22.760  1.00  0.00     0.293 HD
ENDBRANCH  19  20
ENDBRANCH  13  14
ENDBRANCH  10  13
ENDBRANCH   6  10
ENDBRANCH   3   6
ENDBRANCH   1   2
BRANCH   1  22
ATOM     22  C   UNL A   1      32.727  28.581  26.173  1.00  0.00     0.042 C 
BRANCH  22  23
ATOM     23  C   UNL A   1      33.929  28.763  27.087  1.00  0.00     0.118 C 
BRANCH  23  24
ATOM     24  N   UNL A   1      33.929  30.059  27.761  1.00  0.00    -0.352 N 
ATOM     25  C   UNL A   1      34.878  30.657  28.553  1.00  0.00     0.251 C 
ATOM     26  H   UNL A   1      33.113  30.592  27.626  1.00  0.00     0.163 HD
ATOM     27  O   UNL A   1      34.586  31.656  29.205  1.00  0.00    -0.269 OA
BRANCH  25  28
ATOM     28  C   UNL A   1      36.240  30.093  28.641  1.00  0.00     0.039 A 
ATOM     29  C   UNL A   1      37.110  30.233  27.555  1.00  0.00     0.014 A 
ATOM     30  C   UNL A   1      36.656  29.413  29.786  1.00  0.00     0.014 A 
ATOM     31  C   UNL A   1      38.422  29.766  27.657  1.00  0.00     0.010 A 
ATOM     32  C   UNL A   1      37.988  29.048  29.926  1.00  0.00     0.010 A 
ATOM     33  C   UNL A   1      38.885  29.213  28.861  1.00  0.00    -0.014 A 
BRANCH  33  34
ATOM     34  C   UNL A   1      40.291  28.772  29.036  1.00  0.00     0.031 A 
ATOM     35  C   UNL A   1      41.311  29.735  29.582  1.00  0.00     0.074 A 
ATOM     36  C   UNL A   1      40.666  27.544  28.627  1.00  0.00     0.049 A 
ATOM     37  N   UNL A   1      42.609  29.600  29.676  1.00  0.00    -0.248 NA
ATOM     38  C   UNL A   1      40.807  31.035  30.054  1.00  0.00     0.031 C 
ATOM     39  C   UNL A   1      39.781  26.534  28.042  1.00  0.00     0.029 A 
ATOM     40  N   UNL A   1      41.899  26.941  28.628  1.00  0.00    -0.354 N 
ATOM     41  C   UNL A   1      43.075  30.803  30.195  1.00  0.00     0.074 A 
ATOM     42  C   UNL A   1      41.931  31.676  30.337  1.00  0.00     0.031 C 
ATOM     43  C   UNL A   1      40.494  25.429  27.767  1.00  0.00     0.029 A 
ATOM     44  C   UNL A   1      41.891  25.668  28.111  1.00  0.00     0.049 A 
ATOM     45  H   UNL A   1      42.712  27.380  28.967  1.00  0.00     0.167 HD
ATOM     46  C   UNL A   1      44.336  31.140  30.550  1.00  0.00     0.037 A 
ATOM     47  C   UNL A   1      42.902  24.798  27.927  1.00  0.00     0.037 A 
ATOM     48  C   UNL A   1      45.466  30.258  30.442  1.00  0.00     0.049 A 
ATOM     49  C   UNL A   1      44.296  25.201  28.322  1.00  0.00     0.074 A 
ATOM     50  C   UNL A   1      46.781  30.490  30.804  1.00  0.00     0.029 A 
ATOM     51  N   UNL A   1      45.409  28.965  29.944  1.00  0.00    -0.354 N 
ATOM     52  N   UNL A   1      44.714  26.327  28.848  1.00  0.00    -0.248 NA
ATOM     53  C   UNL A   1      45.359  24.211  28.102  1.00  0.00     0.031 C 
ATOM     54  C   UNL A   1      47.525  29.345  30.504  1.00  0.00     0.029 A 
ATOM     55  C   UNL A   1      46.666  28.388  29.989  1.00  0.00     0.049 A 
ATOM     56  H   UNL A   1      44.596  28.524  29.609  1.00  0.00     0.167 HD
ATOM     57  C   UNL A   1      46.077  26.167  29.055  1.00  0.00     0.074 A 
ATOM     58  C   UNL A   1      46.415  24.832  28.608  1.00  0.00     0.031 C 
ATOM     59  C   UNL A   1      46.972  27.046  29.567  1.00  0.00     0.037 A 
BRANCH  46  60
ATOM     60  C   UNL A   1      44.553  32.514  31.114  1.00  0.00     0.057 A 
ATOM     61  C   UNL A   1      44.462  32.762  32.489  1.00  0.00     0.134 A 
ATOM     62  C   UNL A   1      44.888  33.589  30.283  1.00  0.00     0.134 A 
ATOM     63  F   UNL A   1      44.128  31.778  33.338  1.00  0.00    -0.206 F 
ATOM     64  C   UNL A   1      44.674  34.037  33.016  1.00  0.00     0.040 A 
ATOM     65  C   UNL A   1      45.129  34.862  30.801  1.00  0.00     0.040 A 
ATOM     66  F   UNL A   1      44.996  33.418  28.956  1.00  0.00    -0.206 F 
ATOM     67  C   UNL A   1      45.016  35.090  32.171  1.00  0.00     0.006 A 
ENDBRANCH  46  60
BRANCH  47  68
ATOM     68  C   UNL A   1      42.642  23.448  27.364  1.00  0.00     0.057 A 
ATOM     69  C   UNL A   1      42.300  22.377  28.198  1.00  0.00     0.134 A 
ATOM     70  C   UNL A   1      42.765  23.184  25.995  1.00  0.00     0.134 A 
ATOM     71  F   UNL A   1      42.184  22.564  29.522  1.00  0.00    -0.206 F 
ATOM     72  C   UNL A   1      42.121  21.087  27.698  1.00  0.00     0.040 A 
ATOM     73  C   UNL A   1      42.564  21.903  25.478  1.00  0.00     0.040 A 
ATOM     74  F   UNL A   1      43.079  24.168  25.140  1.00  0.00    -0.206 F 
ATOM     75  C   UNL A   1      42.252  20.848  26.332  1.00  0.00     0.006 A 
ENDBRANCH  47  68
BRANCH  59  76
ATOM     76  C   UNL A   1      48.385  26.570  29.727  1.00  0.00     0.057 A 
ATOM     77  C   UNL A   1      49.327  26.689  28.699  1.00  0.00     0.134 A 
ATOM     78  C   UNL A   1      48.816  26.027  30.945  1.00  0.00     0.134 A 
ATOM     79  F   UNL A   1      48.971  27.188  27.505  1.00  0.00    -0.206 F 
ATOM     80  C   UNL A   1      50.645  26.265  28.868  1.00  0.00     0.040 A 
ATOM     81  C   UNL A   1      50.137  25.623  31.134  1.00  0.00     0.040 A 
ATOM     82  F   UNL A   1      47.963  25.896  31.972  1.00  0.00    -0.206 F 
ATOM     83  C   UNL A   1      51.055  25.737  30.091  1.00  0.00     0.006 A 
ENDBRANCH  59  76
ENDBRANCH  33  34
ENDBRANCH  25  28
ENDBRANCH  23  24
ENDBRANCH  22  23
ENDBRANCH   1  22
TORSDOF 15
ENDMDL
