MODEL 1
REMARK VINA RESULT:     -12.8      0.000      0.000
REMARK SMILES COc1cc(NC(=O)[C@@H]2[C@@H](C(=O)NCCCNC(=O)c3ccc(-c4c5nc(c(-c6c(F)cccc6F)c6ccc([nH]6)c(-c6c(F)cccc6F)c6nc(c(-c7c(F)cccc7F)c7ccc4[nH]7)C=C6)C=C5)cc3)[C@H]3C=C[C@@H]2C3)ccc1NC(=O)c1ccccc1
REMARK SMILES IDX 14 1 13 2 11 3 12 4 10 6 9 7 77 8 74 9 76 10 78 11 75 12
REMARK SMILES IDX 7 13 6 14 8 16 5 17 3 18 4 19 81 20 80 21 79 22 2 23 1 24
REMARK SMILES IDX 82 25 83 26 84 28 85 29 86 30 90 31 87 32 89 33 88 34 15 35
REMARK SMILES IDX 16 36 17 37 18 38 19 40 20 41 21 42 73 43 22 44 72 45 23 46
REMARK SMILES IDX 24 47 25 48 66 49 26 50 71 51 65 52 67 53 27 54 70 55 64 56
REMARK SMILES IDX 63 57 28 59 54 60 37 61 53 62 38 63 41 64 52 65 68 66 39 67
REMARK SMILES IDX 40 68 51 70 69 71 42 72 29 73 30 74 35 75 31 76 32 77 34 78
REMARK SMILES IDX 36 79 33 80 55 81 56 82 61 83 57 84 58 85 60 86 62 87 59 88
REMARK SMILES IDX 43 89 44 90 49 91 45 92 46 93 48 94 50 95 47 96
REMARK H PARENT 13 5 6 15 82 27 17 39 67 58 41 69
REMARK Flexibility Score: inf
ROOT
ATOM      1  C   UNL A   1      36.739  20.898  24.881  1.00  0.00     0.117 C 
ENDROOT
BRANCH   1   2
ATOM      2  N   UNL A   1      35.713  20.480  25.816  1.00  0.00    -0.356 N 
ATOM      3  C   UNL A   1      34.382  20.344  25.547  1.00  0.00     0.224 C 
ATOM      4  O   UNL A   1      33.581  20.617  26.438  1.00  0.00    -0.275 OA
ATOM      5  H   UNL A   1      36.005  20.274  26.734  1.00  0.00     0.163 HD
BRANCH   3   6
ATOM      6  C   UNL A   1      33.986  19.742  24.211  1.00  0.00     0.098 C 
ATOM      7  C   UNL A   1      32.428  19.737  23.951  1.00  0.00     0.099 C 
ATOM      8  C   UNL A   1      32.153  18.228  23.898  1.00  0.00     0.025 C 
ATOM      9  C   UNL A   1      34.369  18.232  24.167  1.00  0.00     0.025 C 
ATOM     10  C   UNL A   1      32.456  17.576  25.231  1.00  0.00    -0.027 C 
ATOM     11  C   UNL A   1      33.382  17.726  23.121  1.00  0.00     0.017 C 
ATOM     12  C   UNL A   1      33.787  17.528  25.365  1.00  0.00    -0.027 C 
BRANCH   7  13
ATOM     13  C   UNL A   1      32.164  20.675  22.751  1.00  0.00     0.228 C 
ATOM     14  N   UNL A   1      32.470  21.993  22.624  1.00  0.00    -0.326 N 
ATOM     15  H   UNL A   1      32.512  22.260  21.678  1.00  0.00     0.169 HD
ATOM     16  O   UNL A   1      31.777  20.153  21.690  1.00  0.00    -0.274 OA
BRANCH  14  17
ATOM     17  C   UNL A   1      32.744  23.075  23.471  1.00  0.00     0.045 A 
ATOM     18  C   UNL A   1      32.249  24.561  25.321  1.00  0.00     0.144 A 
ATOM     19  C   UNL A   1      31.864  23.582  24.409  1.00  0.00     0.074 A 
ATOM     20  C   UNL A   1      33.451  25.243  25.148  1.00  0.00     0.084 A 
ATOM     21  C   UNL A   1      34.302  24.839  24.116  1.00  0.00     0.032 A 
ATOM     22  C   UNL A   1      33.956  23.754  23.293  1.00  0.00     0.028 A 
BRANCH  18  23
ATOM     23  O   UNL A   1      31.333  24.937  26.269  1.00  0.00    -0.494 OA
ATOM     24  C   UNL A   1      30.383  23.898  26.524  1.00  0.00     0.278 C 
ENDBRANCH  18  23
BRANCH  20  25
ATOM     25  N   UNL A   1      33.724  26.320  26.006  1.00  0.00    -0.319 N 
ATOM     26  C   UNL A   1      33.627  27.672  25.783  1.00  0.00     0.255 C 
ATOM     27  H   UNL A   1      34.033  26.068  26.905  1.00  0.00     0.170 HD
ATOM     28  O   UNL A   1      34.143  28.473  26.549  1.00  0.00    -0.269 OA
BRANCH  26  29
ATOM     29  C   UNL A   1      32.776  28.159  24.677  1.00  0.00     0.040 A 
ATOM     30  C   UNL A   1      31.407  28.302  24.899  1.00  0.00     0.014 A 
ATOM     31  C   UNL A   1      33.328  28.443  23.419  1.00  0.00     0.014 A 
ATOM     32  C   UNL A   1      30.597  28.793  23.876  1.00  0.00     0.001 A 
ATOM     33  C   UNL A   1      32.516  28.939  22.404  1.00  0.00     0.001 A 
ATOM     34  C   UNL A   1      31.153  29.121  22.637  1.00  0.00     0.000 A 
ENDBRANCH  26  29
ENDBRANCH  20  25
ENDBRANCH  14  17
ENDBRANCH   7  13
ENDBRANCH   3   6
ENDBRANCH   1   2
BRANCH   1  35
ATOM     35  C   UNL A   1      37.886  19.888  24.872  1.00  0.00     0.042 C 
BRANCH  35  36
ATOM     36  C   UNL A   1      38.982  20.207  25.887  1.00  0.00     0.118 C 
BRANCH  36  37
ATOM     37  N   UNL A   1      40.022  19.187  25.919  1.00  0.00    -0.352 N 
ATOM     38  C   UNL A   1      41.380  19.330  26.037  1.00  0.00     0.251 C 
ATOM     39  H   UNL A   1      39.703  18.259  25.843  1.00  0.00     0.163 HD
ATOM     40  O   UNL A   1      42.122  18.374  25.842  1.00  0.00    -0.269 OA
BRANCH  38  41
ATOM     41  C   UNL A   1      41.944  20.644  26.394  1.00  0.00     0.039 A 
ATOM     42  C   UNL A   1      42.254  21.548  25.375  1.00  0.00     0.014 A 
ATOM     43  C   UNL A   1      42.179  20.973  27.732  1.00  0.00     0.014 A 
ATOM     44  C   UNL A   1      42.753  22.809  25.703  1.00  0.00     0.010 A 
ATOM     45  C   UNL A   1      42.613  22.251  28.059  1.00  0.00     0.010 A 
ATOM     46  C   UNL A   1      42.912  23.177  27.047  1.00  0.00    -0.014 A 
BRANCH  46  47
ATOM     47  C   UNL A   1      43.416  24.516  27.429  1.00  0.00     0.031 A 
ATOM     48  C   UNL A   1      42.451  25.572  27.886  1.00  0.00     0.074 A 
ATOM     49  C   UNL A   1      44.724  24.802  27.292  1.00  0.00     0.049 A 
ATOM     50  N   UNL A   1      42.669  26.833  28.153  1.00  0.00    -0.248 NA
ATOM     51  C   UNL A   1      41.046  25.157  28.034  1.00  0.00     0.031 C 
ATOM     52  C   UNL A   1      45.753  23.868  26.833  1.00  0.00     0.029 A 
ATOM     53  N   UNL A   1      45.409  25.969  27.517  1.00  0.00    -0.354 N 
ATOM     54  C   UNL A   1      41.428  27.368  28.475  1.00  0.00     0.074 A 
ATOM     55  C   UNL A   1      40.457  26.307  28.326  1.00  0.00     0.031 C 
ATOM     56  C   UNL A   1      46.942  24.491  26.832  1.00  0.00     0.029 A 
ATOM     57  C   UNL A   1      46.752  25.876  27.251  1.00  0.00     0.049 A 
ATOM     58  H   UNL A   1      44.978  26.793  27.837  1.00  0.00     0.167 HD
ATOM     59  C   UNL A   1      41.129  28.625  28.881  1.00  0.00     0.037 A 
ATOM     60  C   UNL A   1      47.719  26.809  27.332  1.00  0.00     0.037 A 
ATOM     61  C   UNL A   1      42.103  29.669  29.054  1.00  0.00     0.049 A 
ATOM     62  C   UNL A   1      47.361  28.202  27.768  1.00  0.00     0.074 A 
ATOM     63  C   UNL A   1      41.912  30.963  29.506  1.00  0.00     0.029 A 
ATOM     64  N   UNL A   1      43.457  29.533  28.786  1.00  0.00    -0.354 N 
ATOM     65  N   UNL A   1      46.192  28.685  28.111  1.00  0.00    -0.248 NA
ATOM     66  C   UNL A   1      48.458  29.178  27.827  1.00  0.00     0.031 C 
ATOM     67  C   UNL A   1      43.147  31.620  29.481  1.00  0.00     0.029 A 
ATOM     68  C   UNL A   1      44.113  30.724  29.050  1.00  0.00     0.049 A 
ATOM     69  H   UNL A   1      43.889  28.712  28.456  1.00  0.00     0.167 HD
ATOM     70  C   UNL A   1      46.416  30.010  28.460  1.00  0.00     0.074 A 
ATOM     71  C   UNL A   1      47.833  30.253  28.287  1.00  0.00     0.031 C 
ATOM     72  C   UNL A   1      45.528  30.940  28.888  1.00  0.00     0.037 A 
BRANCH  59  73
ATOM     73  C   UNL A   1      39.686  28.928  29.158  1.00  0.00     0.057 A 
ATOM     74  C   UNL A   1      39.147  28.824  30.447  1.00  0.00     0.134 A 
ATOM     75  C   UNL A   1      38.827  29.326  28.127  1.00  0.00     0.134 A 
ATOM     76  F   UNL A   1      39.913  28.433  31.476  1.00  0.00    -0.206 F 
ATOM     77  C   UNL A   1      37.794  29.071  30.694  1.00  0.00     0.040 A 
ATOM     78  C   UNL A   1      37.479  29.601  28.367  1.00  0.00     0.040 A 
ATOM     79  F   UNL A   1      39.280  29.449  26.871  1.00  0.00    -0.206 F 
ATOM     80  C   UNL A   1      36.958  29.464  29.652  1.00  0.00     0.006 A 
ENDBRANCH  59  73
BRANCH  60  81
ATOM     81  C   UNL A   1      49.125  26.445  27.031  1.00  0.00     0.057 A 
ATOM     82  C   UNL A   1      49.987  26.025  28.050  1.00  0.00     0.134 A 
ATOM     83  C   UNL A   1      49.639  26.500  25.729  1.00  0.00     0.134 A 
ATOM     84  F   UNL A   1      49.553  25.970  29.318  1.00  0.00    -0.206 F 
ATOM     85  C   UNL A   1      51.313  25.682  27.790  1.00  0.00     0.040 A 
ATOM     86  C   UNL A   1      50.958  26.140  25.453  1.00  0.00     0.040 A 
ATOM     87  F   UNL A   1      48.860  26.888  24.710  1.00  0.00    -0.206 F 
ATOM     88  C   UNL A   1      51.802  25.734  26.485  1.00  0.00     0.006 A 
ENDBRANCH  60  81
BRANCH  72  89
ATOM     89  C   UNL A   1      46.071  32.290  29.247  1.00  0.00     0.057 A 
ATOM     90  C   UNL A   1      46.548  32.577  30.531  1.00  0.00     0.134 A 
ATOM     91  C   UNL A   1      46.160  33.298  28.278  1.00  0.00     0.134 A 
ATOM     92  F   UNL A   1      46.477  31.657  31.505  1.00  0.00    -0.206 F 
ATOM     93  C   UNL A   1      47.082  33.828  30.844  1.00  0.00     0.040 A 
ATOM     94  C   UNL A   1      46.710  34.545  28.574  1.00  0.00     0.040 A 
ATOM     95  F   UNL A   1      45.725  33.081  27.029  1.00  0.00    -0.206 F 
ATOM     96  C   UNL A   1      47.171  34.814  29.862  1.00  0.00     0.006 A 
ENDBRANCH  72  89
ENDBRANCH  46  47
ENDBRANCH  38  41
ENDBRANCH  36  37
ENDBRANCH  35  36
ENDBRANCH   1  35
TORSDOF 15
ENDMDL
MODEL 2
REMARK VINA RESULT:     -12.8      2.621      8.018
REMARK SMILES COc1cc(NC(=O)[C@@H]2[C@@H](C(=O)NCCCNC(=O)c3ccc(-c4c5nc(c(-c6c(F)cccc6F)c6ccc([nH]6)c(-c6c(F)cccc6F)c6nc(c(-c7c(F)cccc7F)c7ccc4[nH]7)C=C6)C=C5)cc3)[C@H]3C=C[C@@H]2C3)ccc1NC(=O)c1ccccc1
REMARK SMILES IDX 14 1 13 2 11 3 12 4 10 6 9 7 77 8 74 9 76 10 78 11 75 12
REMARK SMILES IDX 7 13 6 14 8 16 5 17 3 18 4 19 81 20 80 21 79 22 2 23 1 24
REMARK SMILES IDX 82 25 83 26 84 28 85 29 86 30 90 31 87 32 89 33 88 34 15 35
REMARK SMILES IDX 16 36 17 37 18 38 19 40 20 41 21 42 73 43 22 44 72 45 23 46
REMARK SMILES IDX 24 47 25 48 66 49 26 50 71 51 65 52 67 53 27 54 70 55 64 56
REMARK SMILES IDX 63 57 28 59 54 60 37 61 53 62 38 63 41 64 52 65 68 66 39 67
REMARK SMILES IDX 40 68 51 70 69 71 42 72 29 73 30 74 35 75 31 76 32 77 34 78
REMARK SMILES IDX 36 79 33 80 55 81 56 82 61 83 57 84 58 85 60 86 62 87 59 88
REMARK SMILES IDX 43 89 44 90 49 91 45 92 46 93 48 94 50 95 47 96
REMARK H PARENT 13 5 6 15 82 27 17 39 67 58 41 69
REMARK Flexibility Score: inf
ROOT
ATOM      1  C   UNL A   1      32.278  29.384  25.397  1.00  0.00     0.117 C 
ENDROOT
BRANCH   1   2
ATOM      2  N   UNL A   1      32.163  29.665  23.980  1.00  0.00    -0.356 N 
ATOM      3  C   UNL A   1      31.179  29.221  23.146  1.00  0.00     0.224 C 
ATOM      4  O   UNL A   1      31.481  28.960  21.982  1.00  0.00    -0.275 OA
ATOM      5  H   UNL A   1      32.864  30.231  23.581  1.00  0.00     0.163 HD
BRANCH   3   6
ATOM      6  C   UNL A   1      29.757  29.202  23.674  1.00  0.00     0.098 C 
ATOM      7  C   UNL A   1      28.772  28.306  22.822  1.00  0.00     0.099 C 
ATOM      8  C   UNL A   1      27.800  29.370  22.298  1.00  0.00     0.025 C 
ATOM      9  C   UNL A   1      29.129  30.625  23.579  1.00  0.00     0.025 C 
ATOM     10  C   UNL A   1      28.511  30.357  21.396  1.00  0.00    -0.027 C 
ATOM     11  C   UNL A   1      27.646  30.272  23.534  1.00  0.00     0.017 C 
ATOM     12  C   UNL A   1      29.265  31.145  22.172  1.00  0.00    -0.027 C 
BRANCH   7  13
ATOM     13  C   UNL A   1      28.321  27.138  23.728  1.00  0.00     0.228 C 
ATOM     14  N   UNL A   1      29.089  26.295  24.468  1.00  0.00    -0.326 N 
ATOM     15  H   UNL A   1      28.569  25.882  25.194  1.00  0.00     0.169 HD
ATOM     16  O   UNL A   1      27.104  27.033  23.965  1.00  0.00    -0.274 OA
BRANCH  14  17
ATOM     17  C   UNL A   1      30.420  25.854  24.480  1.00  0.00     0.045 A 
ATOM     18  C   UNL A   1      32.563  25.398  23.445  1.00  0.00     0.144 A 
ATOM     19  C   UNL A   1      31.206  25.697  23.354  1.00  0.00     0.074 A 
ATOM     20  C   UNL A   1      33.110  24.994  24.661  1.00  0.00     0.084 A 
ATOM     21  C   UNL A   1      32.294  25.011  25.795  1.00  0.00     0.032 A 
ATOM     22  C   UNL A   1      30.963  25.451  25.706  1.00  0.00     0.028 A 
BRANCH  18  23
ATOM     23  O   UNL A   1      33.279  25.350  22.277  1.00  0.00    -0.494 OA
ATOM     24  C   UNL A   1      32.477  25.722  21.152  1.00  0.00     0.278 C 
ENDBRANCH  18  23
BRANCH  20  25
ATOM     25  N   UNL A   1      34.445  24.562  24.668  1.00  0.00    -0.319 N 
ATOM     26  C   UNL A   1      34.967  23.312  24.896  1.00  0.00     0.255 C 
ATOM     27  H   UNL A   1      35.110  25.263  24.482  1.00  0.00     0.170 HD
ATOM     28  O   UNL A   1      36.160  23.161  25.115  1.00  0.00    -0.269 OA
BRANCH  26  29
ATOM     29  C   UNL A   1      34.094  22.130  24.742  1.00  0.00     0.040 A 
ATOM     30  C   UNL A   1      34.074  21.176  25.759  1.00  0.00     0.014 A 
ATOM     31  C   UNL A   1      33.323  21.953  23.583  1.00  0.00     0.014 A 
ATOM     32  C   UNL A   1      33.230  20.073  25.644  1.00  0.00     0.001 A 
ATOM     33  C   UNL A   1      32.478  20.853  23.477  1.00  0.00     0.001 A 
ATOM     34  C   UNL A   1      32.427  19.918  24.511  1.00  0.00     0.000 A 
ENDBRANCH  26  29
ENDBRANCH  20  25
ENDBRANCH  14  17
ENDBRANCH   7  13
ENDBRANCH   3   6
ENDBRANCH   1   2
BRANCH   1  35
ATOM     35  C   UNL A   1      33.513  28.527  25.666  1.00  0.00     0.042 C 
BRANCH  35  36
ATOM     36  C   UNL A   1      34.018  28.625  27.106  1.00  0.00     0.118 C 
BRANCH  36  37
ATOM     37  N   UNL A   1      33.912  29.977  27.638  1.00  0.00    -0.352 N 
ATOM     38  C   UNL A   1      34.806  30.686  28.398  1.00  0.00     0.251 C 
ATOM     39  H   UNL A   1      33.077  30.450  27.422  1.00  0.00     0.163 HD
ATOM     40  O   UNL A   1      34.468  31.738  28.929  1.00  0.00    -0.269 OA
BRANCH  38  41
ATOM     41  C   UNL A   1      36.175  30.172  28.579  1.00  0.00     0.039 A 
ATOM     42  C   UNL A   1      37.088  30.290  27.528  1.00  0.00     0.014 A 
ATOM     43  C   UNL A   1      36.549  29.565  29.780  1.00  0.00     0.014 A 
ATOM     44  C   UNL A   1      38.398  29.842  27.701  1.00  0.00     0.010 A 
ATOM     45  C   UNL A   1      37.870  29.180  29.974  1.00  0.00     0.010 A 
ATOM     46  C   UNL A   1      38.803  29.308  28.934  1.00  0.00    -0.014 A 
BRANCH  46  47
ATOM     47  C   UNL A   1      40.192  28.846  29.158  1.00  0.00     0.031 A 
ATOM     48  C   UNL A   1      41.190  29.771  29.793  1.00  0.00     0.074 A 
ATOM     49  C   UNL A   1      40.571  27.630  28.723  1.00  0.00     0.049 A 
ATOM     50  N   UNL A   1      42.475  29.607  29.972  1.00  0.00    -0.248 NA
ATOM     51  C   UNL A   1      40.676  31.068  30.263  1.00  0.00     0.031 C 
ATOM     52  C   UNL A   1      39.699  26.654  28.068  1.00  0.00     0.029 A 
ATOM     53  N   UNL A   1      41.795  27.013  28.758  1.00  0.00    -0.354 N 
ATOM     54  C   UNL A   1      42.927  30.785  30.551  1.00  0.00     0.074 A 
ATOM     55  C   UNL A   1      41.789  31.672  30.651  1.00  0.00     0.031 C 
ATOM     56  C   UNL A   1      40.410  25.551  27.785  1.00  0.00     0.029 A 
ATOM     57  C   UNL A   1      41.794  25.759  28.200  1.00  0.00     0.049 A 
ATOM     58  H   UNL A   1      42.597  27.431  29.146  1.00  0.00     0.167 HD
ATOM     59  C   UNL A   1      44.173  31.092  30.981  1.00  0.00     0.037 A 
ATOM     60  C   UNL A   1      42.801  24.881  28.037  1.00  0.00     0.037 A 
ATOM     61  C   UNL A   1      45.295  30.195  30.904  1.00  0.00     0.049 A 
ATOM     62  C   UNL A   1      44.180  25.249  28.507  1.00  0.00     0.074 A 
ATOM     63  C   UNL A   1      46.590  30.390  31.354  1.00  0.00     0.029 A 
ATOM     64  N   UNL A   1      45.252  28.928  30.342  1.00  0.00    -0.354 N 
ATOM     65  N   UNL A   1      44.587  26.349  29.091  1.00  0.00    -0.248 NA
ATOM     66  C   UNL A   1      45.239  24.253  28.293  1.00  0.00     0.031 C 
ATOM     67  C   UNL A   1      47.338  29.251  31.036  1.00  0.00     0.029 A 
ATOM     68  C   UNL A   1      46.500  28.333  30.422  1.00  0.00     0.049 A 
ATOM     69  H   UNL A   1      44.453  28.513  29.945  1.00  0.00     0.167 HD
ATOM     70  C   UNL A   1      45.939  26.166  29.347  1.00  0.00     0.074 A 
ATOM     71  C   UNL A   1      46.282  24.848  28.854  1.00  0.00     0.031 C 
ATOM     72  C   UNL A   1      46.816  27.012  29.940  1.00  0.00     0.037 A 
BRANCH  59  73
ATOM     73  C   UNL A   1      44.378  32.457  31.567  1.00  0.00     0.057 A 
ATOM     74  C   UNL A   1      44.767  33.547  30.777  1.00  0.00     0.134 A 
ATOM     75  C   UNL A   1      44.185  32.686  32.935  1.00  0.00     0.134 A 
ATOM     76  F   UNL A   1      44.983  33.392  29.463  1.00  0.00    -0.206 F 
ATOM     77  C   UNL A   1      44.993  34.809  31.333  1.00  0.00     0.040 A 
ATOM     78  C   UNL A   1      44.382  33.949  33.498  1.00  0.00     0.040 A 
ATOM     79  F   UNL A   1      43.808  31.688  33.747  1.00  0.00    -0.206 F 
ATOM     80  C   UNL A   1      44.797  35.011  32.697  1.00  0.00     0.006 A 
ENDBRANCH  59  73
BRANCH  60  81
ATOM     81  C   UNL A   1      42.533  23.551  27.437  1.00  0.00     0.057 A 
ATOM     82  C   UNL A   1      42.191  22.461  28.245  1.00  0.00     0.134 A 
ATOM     83  C   UNL A   1      42.603  23.338  26.056  1.00  0.00     0.134 A 
ATOM     84  F   UNL A   1      42.125  22.603  29.577  1.00  0.00    -0.206 F 
ATOM     85  C   UNL A   1      41.938  21.201  27.702  1.00  0.00     0.040 A 
ATOM     86  C   UNL A   1      42.333  22.087  25.498  1.00  0.00     0.040 A 
ATOM     87  F   UNL A   1      42.920  24.345  25.230  1.00  0.00    -0.206 F 
ATOM     88  C   UNL A   1      42.004  21.013  26.322  1.00  0.00     0.006 A 
ENDBRANCH  60  81
BRANCH  72  89
ATOM     89  C   UNL A   1      48.218  26.519  30.133  1.00  0.00     0.057 A 
ATOM     90  C   UNL A   1      48.600  25.805  31.275  1.00  0.00     0.134 A 
ATOM     91  C   UNL A   1      49.183  26.721  29.138  1.00  0.00     0.134 A 
ATOM     92  F   UNL A   1      47.724  25.592  32.268  1.00  0.00    -0.206 F 
ATOM     93  C   UNL A   1      49.900  25.323  31.428  1.00  0.00     0.040 A 
ATOM     94  C   UNL A   1      50.480  26.226  29.271  1.00  0.00     0.040 A 
ATOM     95  F   UNL A   1      48.877  27.392  28.019  1.00  0.00    -0.206 F 
ATOM     96  C   UNL A   1      50.843  25.526  30.421  1.00  0.00     0.006 A 
ENDBRANCH  72  89
ENDBRANCH  46  47
ENDBRANCH  38  41
ENDBRANCH  36  37
ENDBRANCH  35  36
ENDBRANCH   1  35
TORSDOF 15
ENDMDL
MODEL 3
REMARK VINA RESULT:     -12.6      4.643     10.290
REMARK SMILES COc1cc(NC(=O)[C@@H]2[C@@H](C(=O)NCCCNC(=O)c3ccc(-c4c5nc(c(-c6c(F)cccc6F)c6ccc([nH]6)c(-c6c(F)cccc6F)c6nc(c(-c7c(F)cccc7F)c7ccc4[nH]7)C=C6)C=C5)cc3)[C@H]3C=C[C@@H]2C3)ccc1NC(=O)c1ccccc1
REMARK SMILES IDX 14 1 13 2 11 3 12 4 10 6 9 7 77 8 74 9 76 10 78 11 75 12
REMARK SMILES IDX 7 13 6 14 8 16 5 17 3 18 4 19 81 20 80 21 79 22 2 23 1 24
REMARK SMILES IDX 82 25 83 26 84 28 85 29 86 30 90 31 87 32 89 33 88 34 15 35
REMARK SMILES IDX 16 36 17 37 18 38 19 40 20 41 21 42 73 43 22 44 72 45 23 46
REMARK SMILES IDX 24 47 25 48 66 49 26 50 71 51 65 52 67 53 27 54 70 55 64 56
REMARK SMILES IDX 63 57 28 59 54 60 37 61 53 62 38 63 41 64 52 65 68 66 39 67
REMARK SMILES IDX 40 68 51 70 69 71 42 72 29 73 30 74 35 75 31 76 32 77 34 78
REMARK SMILES IDX 36 79 33 80 55 81 56 82 61 83 57 84 58 85 60 86 62 87 59 88
REMARK SMILES IDX 43 89 44 90 49 91 45 92 46 93 48 94 50 95 47 96
REMARK H PARENT 13 5 6 15 82 27 17 39 67 58 41 69
REMARK Flexibility Score: inf
ROOT
ATOM      1  C   UNL A   1      31.769  30.074  26.082  1.00  0.00     0.117 C 
ENDROOT
BRANCH   1   2
ATOM      2  N   UNL A   1      31.940  30.078  24.643  1.00  0.00    -0.356 N 
ATOM      3  C   UNL A   1      31.208  29.362  23.740  1.00  0.00     0.224 C 
ATOM      4  O   UNL A   1      31.780  28.941  22.736  1.00  0.00    -0.275 OA
ATOM      5  H   UNL A   1      32.653  30.653  24.282  1.00  0.00     0.163 HD
BRANCH   3   6
ATOM      6  C   UNL A   1      29.714  29.244  23.973  1.00  0.00     0.098 C 
ATOM      7  C   UNL A   1      28.985  28.276  22.959  1.00  0.00     0.099 C 
ATOM      8  C   UNL A   1      28.067  29.265  22.229  1.00  0.00     0.025 C 
ATOM      9  C   UNL A   1      29.022  30.619  23.726  1.00  0.00     0.025 C 
ATOM     10  C   UNL A   1      28.876  30.295  21.469  1.00  0.00    -0.027 C 
ATOM     11  C   UNL A   1      27.606  30.160  23.392  1.00  0.00     0.017 C 
ATOM     12  C   UNL A   1      29.402  31.139  22.364  1.00  0.00    -0.027 C 
BRANCH   7  13
ATOM     13  C   UNL A   1      28.442  27.083  23.779  1.00  0.00     0.228 C 
ATOM     14  N   UNL A   1      29.127  26.225  24.580  1.00  0.00    -0.326 N 
ATOM     15  H   UNL A   1      28.530  25.792  25.232  1.00  0.00     0.169 HD
ATOM     16  O   UNL A   1      27.206  26.969  23.875  1.00  0.00    -0.274 OA
BRANCH  14  17
ATOM     17  C   UNL A   1      30.450  25.789  24.732  1.00  0.00     0.045 A 
ATOM     18  C   UNL A   1      32.714  25.415  23.950  1.00  0.00     0.144 A 
ATOM     19  C   UNL A   1      31.376  25.715  23.707  1.00  0.00     0.074 A 
ATOM     20  C   UNL A   1      33.106  24.928  25.195  1.00  0.00     0.084 A 
ATOM     21  C   UNL A   1      32.153  24.862  26.213  1.00  0.00     0.032 A 
ATOM     22  C   UNL A   1      30.838  25.302  25.986  1.00  0.00     0.028 A 
BRANCH  18  23
ATOM     23  O   UNL A   1      33.573  25.451  22.883  1.00  0.00    -0.494 OA
ATOM     24  C   UNL A   1      32.875  25.329  21.640  1.00  0.00     0.278 C 
ENDBRANCH  18  23
BRANCH  20  25
ATOM     25  N   UNL A   1      34.435  24.500  25.343  1.00  0.00    -0.319 N 
ATOM     26  C   UNL A   1      34.941  23.236  25.523  1.00  0.00     0.255 C 
ATOM     27  H   UNL A   1      35.108  25.217  25.314  1.00  0.00     0.170 HD
ATOM     28  O   UNL A   1      36.096  23.068  25.887  1.00  0.00    -0.269 OA
BRANCH  26  29
ATOM     29  C   UNL A   1      34.114  22.071  25.143  1.00  0.00     0.040 A 
ATOM     30  C   UNL A   1      33.932  21.049  26.075  1.00  0.00     0.014 A 
ATOM     31  C   UNL A   1      33.549  21.978  23.863  1.00  0.00     0.014 A 
ATOM     32  C   UNL A   1      33.127  19.960  25.744  1.00  0.00     0.001 A 
ATOM     33  C   UNL A   1      32.742  20.891  23.541  1.00  0.00     0.001 A 
ATOM     34  C   UNL A   1      32.526  19.888  24.485  1.00  0.00     0.000 A 
ENDBRANCH  26  29
ENDBRANCH  20  25
ENDBRANCH  14  17
ENDBRANCH   7  13
ENDBRANCH   3   6
ENDBRANCH   1   2
BRANCH   1  35
ATOM     35  C   UNL A   1      31.500  31.492  26.584  1.00  0.00     0.042 C 
BRANCH  35  36
ATOM     36  C   UNL A   1      32.775  32.285  26.869  1.00  0.00     0.118 C 
BRANCH  36  37
ATOM     37  N   UNL A   1      32.494  33.639  27.328  1.00  0.00    -0.352 N 
ATOM     38  C   UNL A   1      33.033  34.332  28.380  1.00  0.00     0.251 C 
ATOM     39  H   UNL A   1      31.816  34.127  26.807  1.00  0.00     0.163 HD
ATOM     40  O   UNL A   1      32.534  35.390  28.745  1.00  0.00    -0.269 OA
BRANCH  38  41
ATOM     41  C   UNL A   1      34.216  33.793  29.076  1.00  0.00     0.039 A 
ATOM     42  C   UNL A   1      34.033  32.859  30.099  1.00  0.00     0.014 A 
ATOM     43  C   UNL A   1      35.499  34.223  28.727  1.00  0.00     0.014 A 
ATOM     44  C   UNL A   1      35.147  32.314  30.739  1.00  0.00     0.010 A 
ATOM     45  C   UNL A   1      36.607  33.631  29.319  1.00  0.00     0.010 A 
ATOM     46  C   UNL A   1      36.440  32.678  30.335  1.00  0.00    -0.014 A 
BRANCH  46  47
ATOM     47  C   UNL A   1      37.643  32.099  30.978  1.00  0.00     0.031 A 
ATOM     48  C   UNL A   1      38.397  30.998  30.289  1.00  0.00     0.074 A 
ATOM     49  C   UNL A   1      38.008  32.511  32.206  1.00  0.00     0.049 A 
ATOM     50  N   UNL A   1      39.398  30.281  30.727  1.00  0.00    -0.248 NA
ATOM     51  C   UNL A   1      37.941  30.637  28.937  1.00  0.00     0.031 C 
ATOM     52  C   UNL A   1      37.339  33.553  32.985  1.00  0.00     0.029 A 
ATOM     53  N   UNL A   1      39.029  32.089  33.019  1.00  0.00    -0.354 N 
ATOM     54  C   UNL A   1      39.676  29.368  29.718  1.00  0.00     0.074 A 
ATOM     55  C   UNL A   1      38.710  29.593  28.665  1.00  0.00     0.031 C 
ATOM     56  C   UNL A   1      37.981  33.708  34.154  1.00  0.00     0.029 A 
ATOM     57  C   UNL A   1      39.080  32.748  34.222  1.00  0.00     0.049 A 
ATOM     58  H   UNL A   1      39.663  31.382  32.764  1.00  0.00     0.167 HD
ATOM     59  C   UNL A   1      40.663  28.443  29.663  1.00  0.00     0.037 A 
ATOM     60  C   UNL A   1      39.916  32.589  35.264  1.00  0.00     0.037 A 
ATOM     61  C   UNL A   1      41.639  28.243  30.701  1.00  0.00     0.049 A 
ATOM     62  C   UNL A   1      40.993  31.544  35.188  1.00  0.00     0.074 A 
ATOM     63  C   UNL A   1      42.708  27.364  30.724  1.00  0.00     0.029 A 
ATOM     64  N   UNL A   1      41.664  28.939  31.900  1.00  0.00    -0.354 N 
ATOM     65  N   UNL A   1      41.274  30.716  34.212  1.00  0.00    -0.248 NA
ATOM     66  C   UNL A   1      41.869  31.412  36.361  1.00  0.00     0.031 C 
ATOM     67  C   UNL A   1      43.362  27.507  31.953  1.00  0.00     0.029 A 
ATOM     68  C   UNL A   1      42.723  28.501  32.678  1.00  0.00     0.049 A 
ATOM     69  H   UNL A   1      41.024  29.640  32.161  1.00  0.00     0.167 HD
ATOM     70  C   UNL A   1      42.377  29.989  34.634  1.00  0.00     0.074 A 
ATOM     71  C   UNL A   1      42.715  30.474  35.957  1.00  0.00     0.031 C 
ATOM     72  C   UNL A   1      43.052  29.010  33.985  1.00  0.00     0.037 A 
BRANCH  59  73
ATOM     73  C   UNL A   1      40.723  27.580  28.438  1.00  0.00     0.057 A 
ATOM     74  C   UNL A   1      41.500  27.931  27.326  1.00  0.00     0.134 A 
ATOM     75  C   UNL A   1      39.996  26.385  28.366  1.00  0.00     0.134 A 
ATOM     76  F   UNL A   1      42.208  29.071  27.325  1.00  0.00    -0.206 F 
ATOM     77  C   UNL A   1      41.524  27.144  26.173  1.00  0.00     0.040 A 
ATOM     78  C   UNL A   1      40.032  25.576  27.228  1.00  0.00     0.040 A 
ATOM     79  F   UNL A   1      39.235  25.987  29.396  1.00  0.00    -0.206 F 
ATOM     80  C   UNL A   1      40.790  25.961  26.124  1.00  0.00     0.006 A 
ENDBRANCH  59  73
BRANCH  60  81
ATOM     81  C   UNL A   1      39.794  33.469  36.452  1.00  0.00     0.057 A 
ATOM     82  C   UNL A   1      40.475  34.690  36.509  1.00  0.00     0.134 A 
ATOM     83  C   UNL A   1      38.995  33.121  37.548  1.00  0.00     0.134 A 
ATOM     84  F   UNL A   1      41.267  35.067  35.494  1.00  0.00    -0.206 F 
ATOM     85  C   UNL A   1      40.377  35.530  37.617  1.00  0.00     0.040 A 
ATOM     86  C   UNL A   1      38.873  33.961  38.655  1.00  0.00     0.040 A 
ATOM     87  F   UNL A   1      38.314  31.966  37.550  1.00  0.00    -0.206 F 
ATOM     88  C   UNL A   1      39.569  35.169  38.694  1.00  0.00     0.006 A 
ENDBRANCH  60  81
BRANCH  72  89
ATOM     89  C   UNL A   1      44.253  28.434  34.673  1.00  0.00     0.057 A 
ATOM     90  C   UNL A   1      45.526  28.998  34.535  1.00  0.00     0.134 A 
ATOM     91  C   UNL A   1      44.119  27.329  35.523  1.00  0.00     0.134 A 
ATOM     92  F   UNL A   1      45.719  30.050  33.725  1.00  0.00    -0.206 F 
ATOM     93  C   UNL A   1      46.630  28.473  35.207  1.00  0.00     0.040 A 
ATOM     94  C   UNL A   1      45.212  26.807  36.216  1.00  0.00     0.040 A 
ATOM     95  F   UNL A   1      42.924  26.747  35.701  1.00  0.00    -0.206 F 
ATOM     96  C   UNL A   1      46.473  27.378  36.056  1.00  0.00     0.006 A 
ENDBRANCH  72  89
ENDBRANCH  46  47
ENDBRANCH  38  41
ENDBRANCH  36  37
ENDBRANCH  35  36
ENDBRANCH   1  35
TORSDOF 15
ENDMDL
