MODEL 1
REMARK VINA RESULT:     -11.8      0.000      0.000
REMARK SMILES COC(=O)c1cc(F)cc(-c2ccc(C(=O)NCCCNC(=O)c3ccc(-c4c5nc(c(-c6c(F)cccc6F)c6ccc([nH]6)c(-c6c(F)cccc6F)c6nc(c(-c7c(F)cccc7F)c7ccc4[nH]7)C=C6)C=C5)cc3)cc2C)c1
REMARK SMILES IDX 18 1 17 2 15 3 16 4 14 6 11 7 12 8 79 9 13 10 78 11 80 12
REMARK SMILES IDX 10 13 5 14 6 15 81 16 7 17 8 18 9 19 3 20 4 21 2 22 1 23
REMARK SMILES IDX 19 24 20 25 21 26 22 27 23 29 24 30 25 31 77 32 26 33 76 34
REMARK SMILES IDX 27 35 28 36 29 37 70 38 30 39 75 40 69 41 71 42 31 43 74 44
REMARK SMILES IDX 68 45 67 46 32 48 58 49 41 50 57 51 42 52 45 53 56 54 72 55
REMARK SMILES IDX 43 56 44 57 55 59 73 60 46 61 33 62 34 63 39 64 35 65 36 66
REMARK SMILES IDX 38 67 40 68 37 69 59 70 60 71 65 72 61 73 62 74 64 75 66 76
REMARK SMILES IDX 63 77 47 78 48 79 53 80 49 81 50 82 52 83 54 84 51 85
REMARK H PARENT 17 5 21 28 71 47 45 58
REMARK Flexibility Score: inf
ROOT
ATOM      1  C   UNL A   1      31.800  30.660  26.218  1.00  0.00     0.118 C 
ENDROOT
BRANCH   1   2
ATOM      2  N   UNL A   1      31.017  30.467  25.016  1.00  0.00    -0.352 N 
ATOM      3  C   UNL A   1      30.900  29.437  24.124  1.00  0.00     0.251 C 
ATOM      4  O   UNL A   1      30.088  29.598  23.211  1.00  0.00    -0.269 OA
ATOM      5  H   UNL A   1      30.451  31.241  24.793  1.00  0.00     0.163 HD
BRANCH   3   6
ATOM      6  C   UNL A   1      31.653  28.149  24.203  1.00  0.00     0.040 A 
ATOM      7  C   UNL A   1      32.918  25.616  24.537  1.00  0.00    -0.015 A 
ATOM      8  C   UNL A   1      33.440  26.596  23.674  1.00  0.00     0.010 A 
ATOM      9  C   UNL A   1      31.726  25.904  25.225  1.00  0.00    -0.042 A 
ATOM     10  C   UNL A   1      32.801  27.828  23.484  1.00  0.00     0.014 A 
ATOM     11  C   UNL A   1      31.120  27.165  25.054  1.00  0.00     0.018 A 
ATOM     12  C   UNL A   1      31.016  24.915  26.110  1.00  0.00     0.045 C 
BRANCH   7  13
ATOM     13  C   UNL A   1      33.638  24.341  24.648  1.00  0.00    -0.014 A 
ATOM     14  C   UNL A   1      35.658  23.098  25.236  1.00  0.00     0.063 A 
ATOM     15  C   UNL A   1      35.087  21.924  24.739  1.00  0.00     0.055 A 
ATOM     16  C   UNL A   1      34.930  24.297  25.199  1.00  0.00     0.024 A 
ATOM     17  C   UNL A   1      33.803  21.967  24.208  1.00  0.00     0.124 A 
ATOM     18  F   UNL A   1      33.253  20.844  23.730  1.00  0.00    -0.207 F 
ATOM     19  C   UNL A   1      33.082  23.154  24.152  1.00  0.00     0.048 A 
BRANCH  14  20
ATOM     20  C   UNL A   1      37.028  23.130  25.807  1.00  0.00     0.337 C 
ATOM     21  O   UNL A   1      37.541  24.135  26.265  1.00  0.00    -0.246 OA
BRANCH  20  22
ATOM     22  O   UNL A   1      37.613  21.911  25.688  1.00  0.00    -0.465 OA
ATOM     23  C   UNL A   1      39.001  21.898  26.025  1.00  0.00     0.282 C 
ENDBRANCH  20  22
ENDBRANCH  14  20
ENDBRANCH   7  13
ENDBRANCH   3   6
ENDBRANCH   1   2
BRANCH   1  24
ATOM     24  C   UNL A   1      31.447  31.989  26.896  1.00  0.00     0.042 C 
BRANCH  24  25
ATOM     25  C   UNL A   1      32.541  33.034  26.685  1.00  0.00     0.118 C 
BRANCH  25  26
ATOM     26  N   UNL A   1      32.400  34.124  27.636  1.00  0.00    -0.352 N 
ATOM     27  C   UNL A   1      33.121  34.484  28.737  1.00  0.00     0.251 C 
ATOM     28  H   UNL A   1      31.636  34.717  27.451  1.00  0.00     0.163 HD
ATOM     29  O   UNL A   1      32.682  35.408  29.423  1.00  0.00    -0.269 OA
BRANCH  27  30
ATOM     30  C   UNL A   1      34.377  33.812  29.140  1.00  0.00     0.039 A 
ATOM     31  C   UNL A   1      34.247  32.617  29.859  1.00  0.00     0.014 A 
ATOM     32  C   UNL A   1      35.651  34.342  28.922  1.00  0.00     0.014 A 
ATOM     33  C   UNL A   1      35.372  31.974  30.369  1.00  0.00     0.010 A 
ATOM     34  C   UNL A   1      36.784  33.659  29.367  1.00  0.00     0.010 A 
ATOM     35  C   UNL A   1      36.651  32.488  30.121  1.00  0.00    -0.014 A 
BRANCH  35  36
ATOM     36  C   UNL A   1      37.846  31.817  30.683  1.00  0.00     0.031 A 
ATOM     37  C   UNL A   1      38.296  32.123  32.084  1.00  0.00     0.074 A 
ATOM     38  C   UNL A   1      38.510  30.926  29.924  1.00  0.00     0.049 A 
ATOM     39  N   UNL A   1      39.301  31.617  32.754  1.00  0.00    -0.248 NA
ATOM     40  C   UNL A   1      37.534  33.140  32.829  1.00  0.00     0.031 C 
ATOM     41  C   UNL A   1      38.172  30.580  28.541  1.00  0.00     0.029 A 
ATOM     42  N   UNL A   1      39.594  30.137  30.209  1.00  0.00    -0.354 N 
ATOM     43  C   UNL A   1      39.289  32.251  33.991  1.00  0.00     0.074 A 
ATOM     44  C   UNL A   1      38.218  33.221  33.962  1.00  0.00     0.031 C 
ATOM     45  C   UNL A   1      39.004  29.618  28.114  1.00  0.00     0.029 A 
ATOM     46  C   UNL A   1      39.954  29.307  29.175  1.00  0.00     0.049 A 
ATOM     47  H   UNL A   1      40.068  30.164  31.071  1.00  0.00     0.167 HD
ATOM     48  C   UNL A   1      40.082  32.019  35.062  1.00  0.00     0.037 A 
ATOM     49  C   UNL A   1      40.939  28.392  29.100  1.00  0.00     0.037 A 
ATOM     50  C   UNL A   1      41.129  31.033  35.086  1.00  0.00     0.049 A 
ATOM     51  C   UNL A   1      41.812  28.169  30.303  1.00  0.00     0.074 A 
ATOM     52  C   UNL A   1      41.969  30.695  36.133  1.00  0.00     0.029 A 
ATOM     53  N   UNL A   1      41.476  30.221  34.015  1.00  0.00    -0.354 N 
ATOM     54  N   UNL A   1      41.758  28.743  31.482  1.00  0.00    -0.248 NA
ATOM     55  C   UNL A   1      42.876  27.166  30.169  1.00  0.00     0.031 C 
ATOM     56  C   UNL A   1      42.853  29.712  35.682  1.00  0.00     0.029 A 
ATOM     57  C   UNL A   1      42.528  29.396  34.372  1.00  0.00     0.049 A 
ATOM     58  H   UNL A   1      41.039  30.232  33.134  1.00  0.00     0.167 HD
ATOM     59  C   UNL A   1      42.762  28.151  32.237  1.00  0.00     0.074 A 
ATOM     60  C   UNL A   1      43.389  27.158  31.391  1.00  0.00     0.031 C 
ATOM     61  C   UNL A   1      43.135  28.410  33.515  1.00  0.00     0.037 A 
BRANCH  48  62
ATOM     62  C   UNL A   1      39.842  32.819  36.310  1.00  0.00     0.057 A 
ATOM     63  C   UNL A   1      38.827  32.461  37.208  1.00  0.00     0.134 A 
ATOM     64  C   UNL A   1      40.545  34.002  36.569  1.00  0.00     0.134 A 
ATOM     65  F   UNL A   1      38.113  31.341  37.017  1.00  0.00    -0.206 F 
ATOM     66  C   UNL A   1      38.503  33.266  38.302  1.00  0.00     0.040 A 
ATOM     67  C   UNL A   1      40.248  34.802  37.675  1.00  0.00     0.040 A 
ATOM     68  F   UNL A   1      41.539  34.394  35.758  1.00  0.00    -0.206 F 
ATOM     69  C   UNL A   1      39.213  34.441  38.536  1.00  0.00     0.006 A 
ENDBRANCH  48  62
BRANCH  49  70
ATOM     70  C   UNL A   1      41.123  27.598  27.859  1.00  0.00     0.057 A 
ATOM     71  C   UNL A   1      40.527  26.342  27.696  1.00  0.00     0.134 A 
ATOM     72  C   UNL A   1      41.906  28.079  26.803  1.00  0.00     0.134 A 
ATOM     73  F   UNL A   1      39.774  25.817  28.674  1.00  0.00    -0.206 F 
ATOM     74  C   UNL A   1      40.707  25.591  26.533  1.00  0.00     0.040 A 
ATOM     75  C   UNL A   1      42.070  27.353  25.622  1.00  0.00     0.040 A 
ATOM     76  F   UNL A   1      42.493  29.282  26.892  1.00  0.00    -0.206 F 
ATOM     77  C   UNL A   1      41.474  26.101  25.489  1.00  0.00     0.006 A 
ENDBRANCH  49  70
BRANCH  61  78
ATOM     78  C   UNL A   1      44.257  27.590  34.081  1.00  0.00     0.057 A 
ATOM     79  C   UNL A   1      45.582  28.035  33.993  1.00  0.00     0.134 A 
ATOM     80  C   UNL A   1      44.032  26.341  34.674  1.00  0.00     0.134 A 
ATOM     81  F   UNL A   1      45.869  29.217  33.424  1.00  0.00    -0.206 F 
ATOM     82  C   UNL A   1      46.643  27.268  34.472  1.00  0.00     0.040 A 
ATOM     83  C   UNL A   1      45.082  25.580  35.187  1.00  0.00     0.040 A 
ATOM     84  F   UNL A   1      42.785  25.861  34.797  1.00  0.00    -0.206 F 
ATOM     85  C   UNL A   1      46.393  26.039  35.079  1.00  0.00     0.006 A 
ENDBRANCH  61  78
ENDBRANCH  35  36
ENDBRANCH  27  30
ENDBRANCH  25  26
ENDBRANCH  24  25
ENDBRANCH   1  24
TORSDOF 13
ENDMDL
MODEL 2
REMARK VINA RESULT:     -11.8      4.683      9.740
REMARK SMILES COC(=O)c1cc(F)cc(-c2ccc(C(=O)NCCCNC(=O)c3ccc(-c4c5nc(c(-c6c(F)cccc6F)c6ccc([nH]6)c(-c6c(F)cccc6F)c6nc(c(-c7c(F)cccc7F)c7ccc4[nH]7)C=C6)C=C5)cc3)cc2C)c1
REMARK SMILES IDX 18 1 17 2 15 3 16 4 14 6 11 7 12 8 79 9 13 10 78 11 80 12
REMARK SMILES IDX 10 13 5 14 6 15 81 16 7 17 8 18 9 19 3 20 4 21 2 22 1 23
REMARK SMILES IDX 19 24 20 25 21 26 22 27 23 29 24 30 25 31 77 32 26 33 76 34
REMARK SMILES IDX 27 35 28 36 29 37 70 38 30 39 75 40 69 41 71 42 31 43 74 44
REMARK SMILES IDX 68 45 67 46 32 48 58 49 41 50 57 51 42 52 45 53 56 54 72 55
REMARK SMILES IDX 43 56 44 57 55 59 73 60 46 61 33 62 34 63 39 64 35 65 36 66
REMARK SMILES IDX 38 67 40 68 37 69 59 70 60 71 65 72 61 73 62 74 64 75 66 76
REMARK SMILES IDX 63 77 47 78 48 79 53 80 49 81 50 82 52 83 54 84 51 85
REMARK H PARENT 17 5 21 28 71 47 45 58
REMARK Flexibility Score: inf
ROOT
ATOM      1  C   UNL A   1      37.049  20.696  24.833  1.00  0.00     0.118 C 
ENDROOT
BRANCH   1   2
ATOM      2  N   UNL A   1      35.764  20.033  24.906  1.00  0.00    -0.352 N 
ATOM      3  C   UNL A   1      34.471  20.478  24.860  1.00  0.00     0.251 C 
ATOM      4  O   UNL A   1      33.596  19.611  24.912  1.00  0.00    -0.269 OA
ATOM      5  H   UNL A   1      35.836  19.057  25.012  1.00  0.00     0.163 HD
BRANCH   3   6
ATOM      6  C   UNL A   1      34.065  21.910  24.725  1.00  0.00     0.040 A 
ATOM      7  C   UNL A   1      33.125  24.600  24.665  1.00  0.00    -0.015 A 
ATOM      8  C   UNL A   1      34.052  24.119  23.724  1.00  0.00     0.010 A 
ATOM      9  C   UNL A   1      32.680  23.721  25.669  1.00  0.00    -0.042 A 
ATOM     10  C   UNL A   1      34.541  22.807  23.773  1.00  0.00     0.014 A 
ATOM     11  C   UNL A   1      33.149  22.391  25.676  1.00  0.00     0.018 A 
ATOM     12  C   UNL A   1      31.756  24.129  26.785  1.00  0.00     0.045 C 
BRANCH   7  13
ATOM     13  C   UNL A   1      32.694  25.999  24.556  1.00  0.00    -0.014 A 
ATOM     14  C   UNL A   1      31.157  27.675  23.662  1.00  0.00     0.063 A 
ATOM     15  C   UNL A   1      31.933  28.693  24.221  1.00  0.00     0.055 A 
ATOM     16  C   UNL A   1      31.533  26.335  23.840  1.00  0.00     0.024 A 
ATOM     17  C   UNL A   1      33.073  28.358  24.941  1.00  0.00     0.124 A 
ATOM     18  F   UNL A   1      33.820  29.332  25.477  1.00  0.00    -0.207 F 
ATOM     19  C   UNL A   1      33.462  27.034  25.108  1.00  0.00     0.048 A 
BRANCH  14  20
ATOM     20  C   UNL A   1      29.933  27.959  22.870  1.00  0.00     0.337 C 
ATOM     21  O   UNL A   1      29.944  28.545  21.803  1.00  0.00    -0.246 OA
BRANCH  20  22
ATOM     22  O   UNL A   1      28.834  27.520  23.534  1.00  0.00    -0.465 OA
ATOM     23  C   UNL A   1      27.651  28.272  23.259  1.00  0.00     0.282 C 
ENDBRANCH  20  22
ENDBRANCH  14  20
ENDBRANCH   7  13
ENDBRANCH   3   6
ENDBRANCH   1   2
BRANCH   1  24
ATOM     24  C   UNL A   1      38.195  19.678  24.874  1.00  0.00     0.042 C 
BRANCH  24  25
ATOM     25  C   UNL A   1      39.144  19.951  26.040  1.00  0.00     0.118 C 
BRANCH  25  26
ATOM     26  N   UNL A   1      40.383  19.211  25.876  1.00  0.00    -0.352 N 
ATOM     27  C   UNL A   1      41.694  19.575  25.980  1.00  0.00     0.251 C 
ATOM     28  H   UNL A   1      40.253  18.263  25.645  1.00  0.00     0.163 HD
ATOM     29  O   UNL A   1      42.541  18.738  25.666  1.00  0.00    -0.269 OA
BRANCH  27  30
ATOM     30  C   UNL A   1      42.130  20.916  26.432  1.00  0.00     0.039 A 
ATOM     31  C   UNL A   1      42.131  21.143  27.816  1.00  0.00     0.014 A 
ATOM     32  C   UNL A   1      42.448  21.967  25.568  1.00  0.00     0.014 A 
ATOM     33  C   UNL A   1      42.425  22.406  28.323  1.00  0.00     0.010 A 
ATOM     34  C   UNL A   1      42.816  23.212  26.079  1.00  0.00     0.010 A 
ATOM     35  C   UNL A   1      42.776  23.450  27.457  1.00  0.00    -0.014 A 
BRANCH  35  36
ATOM     36  C   UNL A   1      43.067  24.798  27.996  1.00  0.00     0.031 A 
ATOM     37  C   UNL A   1      44.488  25.229  28.230  1.00  0.00     0.074 A 
ATOM     38  C   UNL A   1      42.041  25.629  28.262  1.00  0.00     0.049 A 
ATOM     39  N   UNL A   1      44.938  26.377  28.670  1.00  0.00    -0.248 NA
ATOM     40  C   UNL A   1      45.545  24.242  27.948  1.00  0.00     0.031 C 
ATOM     41  C   UNL A   1      40.624  25.296  28.099  1.00  0.00     0.029 A 
ATOM     42  N   UNL A   1      42.030  26.924  28.708  1.00  0.00    -0.354 N 
ATOM     43  C   UNL A   1      46.321  26.249  28.717  1.00  0.00     0.074 A 
ATOM     44  C   UNL A   1      46.638  24.896  28.319  1.00  0.00     0.031 C 
ATOM     45  C   UNL A   1      39.883  26.373  28.399  1.00  0.00     0.029 A 
ATOM     46  C   UNL A   1      40.768  27.457  28.809  1.00  0.00     0.049 A 
ATOM     47  H   UNL A   1      42.847  27.423  28.935  1.00  0.00     0.167 HD
ATOM     48  C   UNL A   1      47.241  27.188  29.035  1.00  0.00     0.037 A 
ATOM     49  C   UNL A   1      40.374  28.689  29.186  1.00  0.00     0.037 A 
ATOM     50  C   UNL A   1      46.914  28.539  29.406  1.00  0.00     0.049 A 
ATOM     51  C   UNL A   1      41.422  29.704  29.546  1.00  0.00     0.074 A 
ATOM     52  C   UNL A   1      47.773  29.579  29.714  1.00  0.00     0.029 A 
ATOM     53  N   UNL A   1      45.624  29.039  29.513  1.00  0.00    -0.354 N 
ATOM     54  N   UNL A   1      42.728  29.583  29.540  1.00  0.00    -0.248 NA
ATOM     55  C   UNL A   1      40.941  31.030  29.956  1.00  0.00     0.031 C 
ATOM     56  C   UNL A   1      47.004  30.695  30.052  1.00  0.00     0.029 A 
ATOM     57  C   UNL A   1      45.665  30.368  29.899  1.00  0.00     0.049 A 
ATOM     58  H   UNL A   1      44.803  28.525  29.341  1.00  0.00     0.167 HD
ATOM     59  C   UNL A   1      43.225  30.823  29.919  1.00  0.00     0.074 A 
ATOM     60  C   UNL A   1      42.081  31.686  30.121  1.00  0.00     0.031 C 
ATOM     61  C   UNL A   1      44.513  31.211  30.090  1.00  0.00     0.037 A 
BRANCH  48  62
ATOM     62  C   UNL A   1      48.692  26.809  28.973  1.00  0.00     0.057 A 
ATOM     63  C   UNL A   1      49.403  26.885  27.768  1.00  0.00     0.134 A 
ATOM     64  C   UNL A   1      49.358  26.271  30.082  1.00  0.00     0.134 A 
ATOM     65  F   UNL A   1      48.826  27.388  26.667  1.00  0.00    -0.206 F 
ATOM     66  C   UNL A   1      50.713  26.413  27.662  1.00  0.00     0.040 A 
ATOM     67  C   UNL A   1      50.676  25.819  29.995  1.00  0.00     0.040 A 
ATOM     68  F   UNL A   1      48.740  26.184  31.269  1.00  0.00    -0.206 F 
ATOM     69  C   UNL A   1      51.352  25.876  28.778  1.00  0.00     0.006 A 
ENDBRANCH  48  62
BRANCH  49  70
ATOM     70  C   UNL A   1      38.930  29.035  29.202  1.00  0.00     0.057 A 
ATOM     71  C   UNL A   1      38.276  29.510  28.059  1.00  0.00     0.134 A 
ATOM     72  C   UNL A   1      38.168  28.899  30.368  1.00  0.00     0.134 A 
ATOM     73  F   UNL A   1      38.950  29.674  26.911  1.00  0.00    -0.206 F 
ATOM     74  C   UNL A   1      36.921  29.844  28.076  1.00  0.00     0.040 A 
ATOM     75  C   UNL A   1      36.805  29.201  30.392  1.00  0.00     0.040 A 
ATOM     76  F   UNL A   1      38.733  28.437  31.493  1.00  0.00    -0.206 F 
ATOM     77  C   UNL A   1      36.180  29.681  29.245  1.00  0.00     0.006 A 
ENDBRANCH  49  70
BRANCH  61  78
ATOM     78  C   UNL A   1      44.752  32.637  30.492  1.00  0.00     0.057 A 
ATOM     79  C   UNL A   1      44.812  32.997  31.845  1.00  0.00     0.134 A 
ATOM     80  C   UNL A   1      44.879  33.660  29.544  1.00  0.00     0.134 A 
ATOM     81  F   UNL A   1      44.683  32.068  32.805  1.00  0.00    -0.206 F 
ATOM     82  C   UNL A   1      44.987  34.323  32.239  1.00  0.00     0.040 A 
ATOM     83  C   UNL A   1      45.089  34.985  29.926  1.00  0.00     0.040 A 
ATOM     84  F   UNL A   1      44.839  33.380  28.232  1.00  0.00    -0.206 F 
ATOM     85  C   UNL A   1      45.135  35.320  31.278  1.00  0.00     0.006 A 
ENDBRANCH  61  78
ENDBRANCH  35  36
ENDBRANCH  27  30
ENDBRANCH  25  26
ENDBRANCH  24  25
ENDBRANCH   1  24
TORSDOF 13
ENDMDL
MODEL 3
REMARK VINA RESULT:     -11.8      1.700      2.491
REMARK SMILES COC(=O)c1cc(F)cc(-c2ccc(C(=O)NCCCNC(=O)c3ccc(-c4c5nc(c(-c6c(F)cccc6F)c6ccc([nH]6)c(-c6c(F)cccc6F)c6nc(c(-c7c(F)cccc7F)c7ccc4[nH]7)C=C6)C=C5)cc3)cc2C)c1
REMARK SMILES IDX 18 1 17 2 15 3 16 4 14 6 11 7 12 8 79 9 13 10 78 11 80 12
REMARK SMILES IDX 10 13 5 14 6 15 81 16 7 17 8 18 9 19 3 20 4 21 2 22 1 23
REMARK SMILES IDX 19 24 20 25 21 26 22 27 23 29 24 30 25 31 77 32 26 33 76 34
REMARK SMILES IDX 27 35 28 36 29 37 70 38 30 39 75 40 69 41 71 42 31 43 74 44
REMARK SMILES IDX 68 45 67 46 32 48 58 49 41 50 57 51 42 52 45 53 56 54 72 55
REMARK SMILES IDX 43 56 44 57 55 59 73 60 46 61 33 62 34 63 39 64 35 65 36 66
REMARK SMILES IDX 38 67 40 68 37 69 59 70 60 71 65 72 61 73 62 74 64 75 66 76
REMARK SMILES IDX 63 77 47 78 48 79 53 80 49 81 50 82 52 83 54 84 51 85
REMARK H PARENT 17 5 21 28 71 47 45 58
REMARK Flexibility Score: inf
ROOT
ATOM      1  C   UNL A   1      31.600  30.781  26.181  1.00  0.00     0.118 C 
ENDROOT
BRANCH   1   2
ATOM      2  N   UNL A   1      30.887  30.455  24.964  1.00  0.00    -0.352 N 
ATOM      3  C   UNL A   1      30.805  29.327  24.194  1.00  0.00     0.251 C 
ATOM      4  O   UNL A   1      30.052  29.389  23.220  1.00  0.00    -0.269 OA
ATOM      5  H   UNL A   1      30.349  31.203  24.617  1.00  0.00     0.163 HD
BRANCH   3   6
ATOM      6  C   UNL A   1      31.530  28.050  24.469  1.00  0.00     0.040 A 
ATOM      7  C   UNL A   1      32.970  25.605  24.740  1.00  0.00    -0.015 A 
ATOM      8  C   UNL A   1      32.299  26.194  25.827  1.00  0.00     0.010 A 
ATOM      9  C   UNL A   1      32.938  26.271  23.501  1.00  0.00    -0.042 A 
ATOM     10  C   UNL A   1      31.620  27.412  25.703  1.00  0.00     0.014 A 
ATOM     11  C   UNL A   1      32.212  27.474  23.385  1.00  0.00     0.018 A 
ATOM     12  C   UNL A   1      33.682  25.796  22.281  1.00  0.00     0.045 C 
BRANCH   7  13
ATOM     13  C   UNL A   1      33.685  24.344  24.971  1.00  0.00    -0.014 A 
ATOM     14  C   UNL A   1      33.684  21.902  25.077  1.00  0.00     0.063 A 
ATOM     15  C   UNL A   1      35.000  21.917  25.546  1.00  0.00     0.055 A 
ATOM     16  C   UNL A   1      33.037  23.111  24.782  1.00  0.00     0.024 A 
ATOM     17  C   UNL A   1      35.644  23.136  25.718  1.00  0.00     0.124 A 
ATOM     18  F   UNL A   1      36.905  23.153  26.169  1.00  0.00    -0.207 F 
ATOM     19  C   UNL A   1      35.004  24.340  25.445  1.00  0.00     0.048 A 
BRANCH  14  20
ATOM     20  C   UNL A   1      32.930  20.639  24.880  1.00  0.00     0.337 C 
ATOM     21  O   UNL A   1      31.781  20.478  25.251  1.00  0.00    -0.246 OA
BRANCH  20  22
ATOM     22  O   UNL A   1      33.720  19.709  24.288  1.00  0.00    -0.465 OA
ATOM     23  C   UNL A   1      33.291  18.363  24.498  1.00  0.00     0.282 C 
ENDBRANCH  20  22
ENDBRANCH  14  20
ENDBRANCH   7  13
ENDBRANCH   3   6
ENDBRANCH   1   2
BRANCH   1  24
ATOM     24  C   UNL A   1      31.402  32.254  26.556  1.00  0.00     0.042 C 
BRANCH  24  25
ATOM     25  C   UNL A   1      32.726  32.920  26.926  1.00  0.00     0.118 C 
BRANCH  25  26
ATOM     26  N   UNL A   1      32.495  34.113  27.723  1.00  0.00    -0.352 N 
ATOM     27  C   UNL A   1      33.140  34.636  28.805  1.00  0.00     0.251 C 
ATOM     28  H   UNL A   1      31.724  34.647  27.425  1.00  0.00     0.163 HD
ATOM     29  O   UNL A   1      32.633  35.620  29.345  1.00  0.00    -0.269 OA
BRANCH  27  30
ATOM     30  C   UNL A   1      34.394  34.071  29.355  1.00  0.00     0.039 A 
ATOM     31  C   UNL A   1      35.581  34.414  28.693  1.00  0.00     0.014 A 
ATOM     32  C   UNL A   1      34.443  33.166  30.418  1.00  0.00     0.014 A 
ATOM     33  C   UNL A   1      36.792  33.845  29.076  1.00  0.00     0.010 A 
ATOM     34  C   UNL A   1      35.666  32.654  30.851  1.00  0.00     0.010 A 
ATOM     35  C   UNL A   1      36.845  32.964  30.163  1.00  0.00    -0.014 A 
BRANCH  35  36
ATOM     36  C   UNL A   1      38.130  32.341  30.556  1.00  0.00     0.031 A 
ATOM     37  C   UNL A   1      38.967  32.957  31.643  1.00  0.00     0.074 A 
ATOM     38  C   UNL A   1      38.527  31.216  29.933  1.00  0.00     0.049 A 
ATOM     39  N   UNL A   1      40.105  32.542  32.139  1.00  0.00    -0.248 NA
ATOM     40  C   UNL A   1      38.476  34.209  32.243  1.00  0.00     0.031 C 
ATOM     41  C   UNL A   1      37.802  30.556  28.845  1.00  0.00     0.029 A 
ATOM     42  N   UNL A   1      39.624  30.420  30.133  1.00  0.00    -0.354 N 
ATOM     43  C   UNL A   1      40.462  33.477  33.103  1.00  0.00     0.074 A 
ATOM     44  C   UNL A   1      39.454  34.513  33.085  1.00  0.00     0.031 C 
ATOM     45  C   UNL A   1      38.451  29.433  28.503  1.00  0.00     0.029 A 
ATOM     46  C   UNL A   1      39.653  29.314  29.319  1.00  0.00     0.049 A 
ATOM     47  H   UNL A   1      40.323  30.623  30.795  1.00  0.00     0.167 HD
ATOM     48  C   UNL A   1      41.519  33.453  33.947  1.00  0.00     0.037 A 
ATOM     49  C   UNL A   1      40.550  28.312  29.249  1.00  0.00     0.037 A 
ATOM     50  C   UNL A   1      42.502  32.402  33.972  1.00  0.00     0.049 A 
ATOM     51  C   UNL A   1      41.721  28.323  30.191  1.00  0.00     0.074 A 
ATOM     52  C   UNL A   1      43.594  32.265  34.811  1.00  0.00     0.029 A 
ATOM     53  N   UNL A   1      42.508  31.305  33.123  1.00  0.00    -0.354 N 
ATOM     54  N   UNL A   1      42.019  29.189  31.130  1.00  0.00    -0.248 NA
ATOM     55  C   UNL A   1      42.675  27.213  30.070  1.00  0.00     0.031 C 
ATOM     56  C   UNL A   1      44.286  31.110  34.440  1.00  0.00     0.029 A 
ATOM     57  C   UNL A   1      43.595  30.496  33.407  1.00  0.00     0.049 A 
ATOM     58  H   UNL A   1      41.840  31.129  32.422  1.00  0.00     0.167 HD
ATOM     59  C   UNL A   1      43.179  28.715  31.729  1.00  0.00     0.074 A 
ATOM     60  C   UNL A   1      43.512  27.473  31.064  1.00  0.00     0.031 C 
ATOM     61  C   UNL A   1      43.906  29.261  32.735  1.00  0.00     0.037 A 
BRANCH  48  62
ATOM     62  C   UNL A   1      41.664  34.574  34.935  1.00  0.00     0.057 A 
ATOM     63  C   UNL A   1      42.375  35.735  34.603  1.00  0.00     0.134 A 
ATOM     64  C   UNL A   1      41.192  34.460  36.248  1.00  0.00     0.134 A 
ATOM     65  F   UNL A   1      42.858  35.908  33.363  1.00  0.00    -0.206 F 
ATOM     66  C   UNL A   1      42.634  36.728  35.550  1.00  0.00     0.040 A 
ATOM     67  C   UNL A   1      41.422  35.458  37.197  1.00  0.00     0.040 A 
ATOM     68  F   UNL A   1      40.491  33.381  36.627  1.00  0.00    -0.206 F 
ATOM     69  C   UNL A   1      42.158  36.590  36.852  1.00  0.00     0.006 A 
ENDBRANCH  48  62
BRANCH  49  70
ATOM     70  C   UNL A   1      40.353  27.204  28.281  1.00  0.00     0.057 A 
ATOM     71  C   UNL A   1      39.566  26.089  28.592  1.00  0.00     0.134 A 
ATOM     72  C   UNL A   1      40.953  27.235  27.016  1.00  0.00     0.134 A 
ATOM     73  F   UNL A   1      38.972  25.991  29.790  1.00  0.00    -0.206 F 
ATOM     74  C   UNL A   1      39.387  25.042  27.685  1.00  0.00     0.040 A 
ATOM     75  C   UNL A   1      40.759  26.210  26.088  1.00  0.00     0.040 A 
ATOM     76  F   UNL A   1      41.708  28.281  26.653  1.00  0.00    -0.206 F 
ATOM     77  C   UNL A   1      39.979  25.107  26.425  1.00  0.00     0.006 A 
ENDBRANCH  49  70
BRANCH  61  78
ATOM     78  C   UNL A   1      45.118  28.504  33.193  1.00  0.00     0.057 A 
ATOM     79  C   UNL A   1      46.369  28.739  32.608  1.00  0.00     0.134 A 
ATOM     80  C   UNL A   1      45.042  27.515  34.181  1.00  0.00     0.134 A 
ATOM     81  F   UNL A   1      46.510  29.663  31.645  1.00  0.00    -0.206 F 
ATOM     82  C   UNL A   1      47.499  28.015  32.988  1.00  0.00     0.040 A 
ATOM     83  C   UNL A   1      46.171  26.808  34.593  1.00  0.00     0.040 A 
ATOM     84  F   UNL A   1      43.874  27.248  34.787  1.00  0.00    -0.206 F 
ATOM     85  C   UNL A   1      47.403  27.052  33.989  1.00  0.00     0.006 A 
ENDBRANCH  61  78
ENDBRANCH  35  36
ENDBRANCH  27  30
ENDBRANCH  25  26
ENDBRANCH  24  25
ENDBRANCH   1  24
TORSDOF 13
ENDMDL
