MODEL 1
REMARK VINA RESULT:     -10.8      0.000      0.000
REMARK SMILES CC(C)[C@@H](NC(N)=O)C(=O)N[C@H](C(=O)NCCCNC(=O)c1ccc(-c2c3nc(c(-c4c(F)cccc4F)c4ccc([nH]4)c(-c4c(F)cccc4F)c4nc(c(-c5c(F)cccc5F)c5ccc2[nH]5)C=C4)C=C3)cc1)[C@@H](C)O
REMARK SMILES IDX 16 1 15 2 13 3 14 4 12 6 11 7 9 8 10 9 4 11 2 12 1 13 3 14
REMARK SMILES IDX 5 15 6 16 7 18 8 19 76 22 77 23 78 24 17 26 18 27 19 28
REMARK SMILES IDX 20 29 21 31 22 32 23 33 75 34 24 35 74 36 25 37 26 38 27 39
REMARK SMILES IDX 68 40 28 41 73 42 67 43 69 44 29 45 72 46 66 47 65 48 30 50
REMARK SMILES IDX 56 51 39 52 55 53 40 54 43 55 54 56 70 57 41 58 42 59 53 61
REMARK SMILES IDX 71 62 44 63 31 64 32 65 37 66 33 67 34 68 36 69 38 70 35 71
REMARK SMILES IDX 57 72 58 73 63 74 59 75 60 76 62 77 64 78 61 79 45 80 46 81
REMARK SMILES IDX 51 82 47 83 48 84 50 85 52 86 49 87
REMARK H PARENT 15 5 11 10 5 17 7 20 7 21 78 25 19 30 69 49 43 60
REMARK Flexibility Score: inf
ROOT
ATOM      1  C   UNL A   1      35.976  20.820  24.910  1.00  0.00     0.117 C 
ENDROOT
BRANCH   1   2
ATOM      2  N   UNL A   1      35.457  21.105  26.237  1.00  0.00    -0.354 N 
ATOM      3  C   UNL A   1      34.203  21.446  26.663  1.00  0.00     0.245 C 
ATOM      4  O   UNL A   1      34.091  21.777  27.847  1.00  0.00    -0.273 OA
ATOM      5  H   UNL A   1      36.125  21.043  26.956  1.00  0.00     0.163 HD
BRANCH   3   6
ATOM      6  C   UNL A   1      32.998  21.449  25.701  1.00  0.00     0.200 C 
BRANCH   6   7
ATOM      7  N   UNL A   1      33.449  22.092  24.456  1.00  0.00    -0.340 N 
ATOM      8  C   UNL A   1      33.304  23.371  24.011  1.00  0.00     0.243 C 
ATOM      9  O   UNL A   1      33.366  23.574  22.794  1.00  0.00    -0.273 OA
ATOM     10  H   UNL A   1      33.937  21.497  23.841  1.00  0.00     0.164 HD
BRANCH   8  11
ATOM     11  C   UNL A   1      32.961  24.536  24.982  1.00  0.00     0.175 C 
BRANCH  11  12
ATOM     12  C   UNL A   1      33.609  25.873  24.519  1.00  0.00     0.015 C 
ATOM     13  C   UNL A   1      32.731  26.680  23.553  1.00  0.00     0.010 C 
ATOM     14  C   UNL A   1      33.982  26.784  25.695  1.00  0.00     0.010 C 
ENDBRANCH  11  12
BRANCH  11  15
ATOM     15  N   UNL A   1      31.501  24.667  25.138  1.00  0.00    -0.326 N 
ATOM     16  C   UNL A   1      30.891  24.473  26.344  1.00  0.00     0.312 C 
ATOM     17  H   UNL A   1      30.952  24.899  24.353  1.00  0.00     0.166 HD
ATOM     18  N   UNL A   1      29.563  24.735  26.306  1.00  0.00    -0.352 N 
ATOM     19  O   UNL A   1      31.416  24.057  27.360  1.00  0.00    -0.249 OA
ATOM     20  H   UNL A   1      29.151  25.071  25.478  1.00  0.00     0.161 HD
ATOM     21  H   UNL A   1      29.010  24.590  27.107  1.00  0.00     0.161 HD
ENDBRANCH  11  15
ENDBRANCH   8  11
ENDBRANCH   6   7
BRANCH   6  22
ATOM     22  C   UNL A   1      32.544  19.995  25.376  1.00  0.00     0.143 C 
ATOM     23  C   UNL A   1      32.875  19.522  23.969  1.00  0.00     0.041 C 
BRANCH  22  24
ATOM     24  O   UNL A   1      33.124  19.043  26.281  1.00  0.00    -0.391 OA
ATOM     25  H   UNL A   1      34.084  19.013  26.145  1.00  0.00     0.211 HD
ENDBRANCH  22  24
ENDBRANCH   6  22
ENDBRANCH   3   6
ENDBRANCH   1   2
BRANCH   1  26
ATOM     26  C   UNL A   1      37.161  19.862  24.973  1.00  0.00     0.042 C 
BRANCH  26  27
ATOM     27  C   UNL A   1      38.476  20.514  25.370  1.00  0.00     0.118 C 
BRANCH  27  28
ATOM     28  N   UNL A   1      39.511  19.530  25.618  1.00  0.00    -0.352 N 
ATOM     29  C   UNL A   1      40.824  19.695  25.987  1.00  0.00     0.251 C 
ATOM     30  H   UNL A   1      39.228  18.594  25.505  1.00  0.00     0.163 HD
ATOM     31  O   UNL A   1      41.591  18.741  25.866  1.00  0.00    -0.269 OA
BRANCH  29  32
ATOM     32  C   UNL A   1      41.340  20.985  26.514  1.00  0.00     0.039 A 
ATOM     33  C   UNL A   1      41.211  21.244  27.883  1.00  0.00     0.014 A 
ATOM     34  C   UNL A   1      41.866  21.979  25.684  1.00  0.00     0.014 A 
ATOM     35  C   UNL A   1      41.615  22.475  28.409  1.00  0.00     0.010 A 
ATOM     36  C   UNL A   1      42.379  23.158  26.227  1.00  0.00     0.010 A 
ATOM     37  C   UNL A   1      42.219  23.441  27.589  1.00  0.00    -0.014 A 
BRANCH  37  38
ATOM     38  C   UNL A   1      42.621  24.765  28.136  1.00  0.00     0.031 A 
ATOM     39  C   UNL A   1      41.589  25.843  28.359  1.00  0.00     0.074 A 
ATOM     40  C   UNL A   1      43.914  25.006  28.432  1.00  0.00     0.049 A 
ATOM     41  N   UNL A   1      41.741  27.047  28.855  1.00  0.00    -0.248 NA
ATOM     42  C   UNL A   1      40.208  25.542  27.948  1.00  0.00     0.031 C 
ATOM     43  C   UNL A   1      45.017  24.067  28.219  1.00  0.00     0.029 A 
ATOM     44  N   UNL A   1      44.518  26.107  28.985  1.00  0.00    -0.354 N 
ATOM     45  C   UNL A   1      40.485  27.640  28.805  1.00  0.00     0.074 A 
ATOM     46  C   UNL A   1      39.598  26.697  28.163  1.00  0.00     0.031 C 
ATOM     47  C   UNL A   1      46.153  24.612  28.681  1.00  0.00     0.029 A 
ATOM     48  C   UNL A   1      45.868  25.952  29.186  1.00  0.00     0.049 A 
ATOM     49  H   UNL A   1      44.029  26.930  29.215  1.00  0.00     0.167 HD
ATOM     50  C   UNL A   1      40.093  28.847  29.280  1.00  0.00     0.037 A 
ATOM     51  C   UNL A   1      46.774  26.791  29.724  1.00  0.00     0.037 A 
ATOM     52  C   UNL A   1      40.973  29.779  29.933  1.00  0.00     0.049 A 
ATOM     53  C   UNL A   1      46.320  28.132  30.232  1.00  0.00     0.074 A 
ATOM     54  C   UNL A   1      40.668  31.008  30.492  1.00  0.00     0.029 A 
ATOM     55  N   UNL A   1      42.335  29.585  30.112  1.00  0.00    -0.354 N 
ATOM     56  N   UNL A   1      45.115  28.648  30.242  1.00  0.00    -0.248 NA
ATOM     57  C   UNL A   1      47.351  29.003  30.812  1.00  0.00     0.031 C 
ATOM     58  C   UNL A   1      41.856  31.582  30.959  1.00  0.00     0.029 A 
ATOM     59  C   UNL A   1      42.889  30.683  30.750  1.00  0.00     0.049 A 
ATOM     60  H   UNL A   1      42.834  28.786  29.826  1.00  0.00     0.167 HD
ATOM     61  C   UNL A   1      45.236  29.887  30.860  1.00  0.00     0.074 A 
ATOM     62  C   UNL A   1      46.631  30.037  31.221  1.00  0.00     0.031 C 
ATOM     63  C   UNL A   1      44.278  30.814  31.110  1.00  0.00     0.037 A 
BRANCH  50  64
ATOM     64  C   UNL A   1      38.647  29.224  29.106  1.00  0.00     0.057 A 
ATOM     65  C   UNL A   1      37.735  29.183  30.171  1.00  0.00     0.134 A 
ATOM     66  C   UNL A   1      38.161  29.652  27.863  1.00  0.00     0.134 A 
ATOM     67  F   UNL A   1      38.128  28.772  31.386  1.00  0.00    -0.206 F 
ATOM     68  C   UNL A   1      36.390  29.517  29.998  1.00  0.00     0.040 A 
ATOM     69  C   UNL A   1      36.826  30.020  27.686  1.00  0.00     0.040 A 
ATOM     70  F   UNL A   1      38.977  29.725  26.801  1.00  0.00    -0.206 F 
ATOM     71  C   UNL A   1      35.933  29.943  28.753  1.00  0.00     0.006 A 
ENDBRANCH  50  64
BRANCH  51  72
ATOM     72  C   UNL A   1      48.194  26.372  29.846  1.00  0.00     0.057 A 
ATOM     73  C   UNL A   1      48.663  25.729  30.999  1.00  0.00     0.134 A 
ATOM     74  C   UNL A   1      49.116  26.598  28.818  1.00  0.00     0.134 A 
ATOM     75  F   UNL A   1      47.833  25.497  32.027  1.00  0.00    -0.206 F 
ATOM     76  C   UNL A   1      49.998  25.346  31.133  1.00  0.00     0.040 A 
ATOM     77  C   UNL A   1      50.448  26.196  28.926  1.00  0.00     0.040 A 
ATOM     78  F   UNL A   1      48.729  27.199  27.682  1.00  0.00    -0.206 F 
ATOM     79  C   UNL A   1      50.895  25.575  30.090  1.00  0.00     0.006 A 
ENDBRANCH  51  72
BRANCH  63  80
ATOM     80  C   UNL A   1      44.695  32.053  31.851  1.00  0.00     0.057 A 
ATOM     81  C   UNL A   1      44.688  32.123  33.250  1.00  0.00     0.134 A 
ATOM     82  C   UNL A   1      45.147  33.178  31.150  1.00  0.00     0.134 A 
ATOM     83  F   UNL A   1      44.257  31.084  33.982  1.00  0.00    -0.206 F 
ATOM     84  C   UNL A   1      45.087  33.279  33.924  1.00  0.00     0.040 A 
ATOM     85  C   UNL A   1      45.579  34.327  31.813  1.00  0.00     0.040 A 
ATOM     86  F   UNL A   1      45.191  33.175  29.809  1.00  0.00    -0.206 F 
ATOM     87  C   UNL A   1      45.542  34.382  33.205  1.00  0.00     0.006 A 
ENDBRANCH  63  80
ENDBRANCH  37  38
ENDBRANCH  29  32
ENDBRANCH  27  28
ENDBRANCH  26  27
ENDBRANCH   1  26
TORSDOF 16
ENDMDL
MODEL 2
REMARK VINA RESULT:     -10.7      2.612      7.146
REMARK SMILES CC(C)[C@@H](NC(N)=O)C(=O)N[C@H](C(=O)NCCCNC(=O)c1ccc(-c2c3nc(c(-c4c(F)cccc4F)c4ccc([nH]4)c(-c4c(F)cccc4F)c4nc(c(-c5c(F)cccc5F)c5ccc2[nH]5)C=C4)C=C3)cc1)[C@@H](C)O
REMARK SMILES IDX 16 1 15 2 13 3 14 4 12 6 11 7 9 8 10 9 4 11 2 12 1 13 3 14
REMARK SMILES IDX 5 15 6 16 7 18 8 19 76 22 77 23 78 24 17 26 18 27 19 28
REMARK SMILES IDX 20 29 21 31 22 32 23 33 75 34 24 35 74 36 25 37 26 38 27 39
REMARK SMILES IDX 68 40 28 41 73 42 67 43 69 44 29 45 72 46 66 47 65 48 30 50
REMARK SMILES IDX 56 51 39 52 55 53 40 54 43 55 54 56 70 57 41 58 42 59 53 61
REMARK SMILES IDX 71 62 44 63 31 64 32 65 37 66 33 67 34 68 36 69 38 70 35 71
REMARK SMILES IDX 57 72 58 73 63 74 59 75 60 76 62 77 64 78 61 79 45 80 46 81
REMARK SMILES IDX 51 82 47 83 48 84 50 85 52 86 49 87
REMARK H PARENT 15 5 11 10 5 17 7 20 7 21 78 25 19 30 69 49 43 60
REMARK Flexibility Score: inf
ROOT
ATOM      1  C   UNL A   1      35.149  23.238  23.260  1.00  0.00     0.117 C 
ENDROOT
BRANCH   1   2
ATOM      2  N   UNL A   1      34.293  22.116  23.605  1.00  0.00    -0.354 N 
ATOM      3  C   UNL A   1      33.539  21.862  24.716  1.00  0.00     0.245 C 
ATOM      4  O   UNL A   1      33.025  20.743  24.794  1.00  0.00    -0.273 OA
ATOM      5  H   UNL A   1      34.248  21.414  22.916  1.00  0.00     0.163 HD
BRANCH   3   6
ATOM      6  C   UNL A   1      33.370  22.912  25.832  1.00  0.00     0.200 C 
BRANCH   6   7
ATOM      7  N   UNL A   1      31.969  22.837  26.279  1.00  0.00    -0.340 N 
ATOM      8  C   UNL A   1      31.022  23.807  26.406  1.00  0.00     0.243 C 
ATOM      9  O   UNL A   1      30.086  23.609  27.189  1.00  0.00    -0.273 OA
ATOM     10  H   UNL A   1      31.666  21.934  26.528  1.00  0.00     0.164 HD
BRANCH   8  11
ATOM     11  C   UNL A   1      31.156  25.175  25.679  1.00  0.00     0.175 C 
BRANCH  11  12
ATOM     12  C   UNL A   1      30.270  25.230  24.401  1.00  0.00     0.015 C 
ATOM     13  C   UNL A   1      29.475  26.535  24.258  1.00  0.00     0.010 C 
ATOM     14  C   UNL A   1      31.080  25.024  23.114  1.00  0.00     0.010 C 
ENDBRANCH  11  12
BRANCH  11  15
ATOM     15  N   UNL A   1      30.846  26.283  26.600  1.00  0.00    -0.326 N 
ATOM     16  C   UNL A   1      31.786  27.215  26.937  1.00  0.00     0.312 C 
ATOM     17  H   UNL A   1      29.942  26.353  26.982  1.00  0.00     0.166 HD
ATOM     18  N   UNL A   1      31.284  28.206  27.712  1.00  0.00    -0.352 N 
ATOM     19  O   UNL A   1      32.968  27.185  26.652  1.00  0.00    -0.249 OA
ATOM     20  H   UNL A   1      30.326  28.219  27.935  1.00  0.00     0.161 HD
ATOM     21  H   UNL A   1      31.878  28.914  28.052  1.00  0.00     0.161 HD
ENDBRANCH  11  15
ENDBRANCH   8  11
ENDBRANCH   6   7
BRANCH   6  22
ATOM     22  C   UNL A   1      34.297  22.590  27.042  1.00  0.00     0.143 C 
ATOM     23  C   UNL A   1      33.569  22.244  28.331  1.00  0.00     0.041 C 
BRANCH  22  24
ATOM     24  O   UNL A   1      35.179  21.493  26.757  1.00  0.00    -0.391 OA
ATOM     25  H   UNL A   1      34.975  20.753  27.350  1.00  0.00     0.211 HD
ENDBRANCH  22  24
ENDBRANCH   6  22
ENDBRANCH   3   6
ENDBRANCH   1   2
BRANCH   1  26
ATOM     26  C   UNL A   1      36.616  22.917  23.526  1.00  0.00     0.042 C 
BRANCH  26  27
ATOM     27  C   UNL A   1      37.148  23.453  24.846  1.00  0.00     0.118 C 
BRANCH  27  28
ATOM     28  N   UNL A   1      38.035  22.506  25.492  1.00  0.00    -0.352 N 
ATOM     29  C   UNL A   1      39.165  22.718  26.245  1.00  0.00     0.251 C 
ATOM     30  H   UNL A   1      37.789  21.561  25.374  1.00  0.00     0.163 HD
ATOM     31  O   UNL A   1      39.916  21.767  26.455  1.00  0.00    -0.269 OA
BRANCH  29  32
ATOM     32  C   UNL A   1      39.506  24.054  26.798  1.00  0.00     0.039 A 
ATOM     33  C   UNL A   1      40.111  24.990  25.951  1.00  0.00     0.014 A 
ATOM     34  C   UNL A   1      39.326  24.378  28.145  1.00  0.00     0.014 A 
ATOM     35  C   UNL A   1      40.515  26.233  26.448  1.00  0.00     0.010 A 
ATOM     36  C   UNL A   1      39.619  25.661  28.613  1.00  0.00     0.010 A 
ATOM     37  C   UNL A   1      40.259  26.589  27.782  1.00  0.00    -0.014 A 
BRANCH  37  38
ATOM     38  C   UNL A   1      40.717  27.897  28.325  1.00  0.00     0.031 A 
ATOM     39  C   UNL A   1      42.187  28.232  28.369  1.00  0.00     0.074 A 
ATOM     40  C   UNL A   1      39.814  28.787  28.783  1.00  0.00     0.049 A 
ATOM     41  N   UNL A   1      42.775  29.330  28.777  1.00  0.00    -0.248 NA
ATOM     42  C   UNL A   1      43.124  27.189  27.921  1.00  0.00     0.031 C 
ATOM     43  C   UNL A   1      38.368  28.568  28.841  1.00  0.00     0.029 A 
ATOM     44  N   UNL A   1      39.977  30.057  29.276  1.00  0.00    -0.354 N 
ATOM     45  C   UNL A   1      44.141  29.102  28.643  1.00  0.00     0.074 A 
ATOM     46  C   UNL A   1      44.298  27.739  28.188  1.00  0.00     0.031 C 
ATOM     47  C   UNL A   1      37.772  29.683  29.294  1.00  0.00     0.029 A 
ATOM     48  C   UNL A   1      38.795  30.680  29.596  1.00  0.00     0.049 A 
ATOM     49  H   UNL A   1      40.858  30.481  29.390  1.00  0.00     0.167 HD
ATOM     50  C   UNL A   1      45.172  29.957  28.845  1.00  0.00     0.037 A 
ATOM     51  C   UNL A   1      38.560  31.918  30.071  1.00  0.00     0.037 A 
ATOM     52  C   UNL A   1      45.013  31.320  29.282  1.00  0.00     0.049 A 
ATOM     53  C   UNL A   1      39.720  32.847  30.302  1.00  0.00     0.074 A 
ATOM     54  C   UNL A   1      45.987  32.284  29.473  1.00  0.00     0.029 A 
ATOM     55  N   UNL A   1      43.798  31.909  29.600  1.00  0.00    -0.354 N 
ATOM     56  N   UNL A   1      40.999  32.640  30.101  1.00  0.00    -0.248 NA
ATOM     57  C   UNL A   1      39.402  34.186  30.817  1.00  0.00     0.031 C 
ATOM     58  C   UNL A   1      45.367  33.440  29.959  1.00  0.00     0.029 A 
ATOM     59  C   UNL A   1      44.001  33.216  30.010  1.00  0.00     0.049 A 
ATOM     60  H   UNL A   1      42.921  31.464  29.543  1.00  0.00     0.167 HD
ATOM     61  C   UNL A   1      41.635  33.831  30.430  1.00  0.00     0.074 A 
ATOM     62  C   UNL A   1      40.597  34.759  30.832  1.00  0.00     0.031 C 
ATOM     63  C   UNL A   1      42.957  34.131  30.398  1.00  0.00     0.037 A 
BRANCH  50  64
ATOM     64  C   UNL A   1      46.562  29.440  28.595  1.00  0.00     0.057 A 
ATOM     65  C   UNL A   1      47.320  28.828  29.605  1.00  0.00     0.134 A 
ATOM     66  C   UNL A   1      47.146  29.536  27.325  1.00  0.00     0.134 A 
ATOM     67  F   UNL A   1      46.828  28.713  30.848  1.00  0.00    -0.206 F 
ATOM     68  C   UNL A   1      48.617  28.367  29.371  1.00  0.00     0.040 A 
ATOM     69  C   UNL A   1      48.429  29.048  27.071  1.00  0.00     0.040 A 
ATOM     70  F   UNL A   1      46.477  30.100  26.308  1.00  0.00    -0.206 F 
ATOM     71  C   UNL A   1      49.173  28.472  28.098  1.00  0.00     0.006 A 
ENDBRANCH  50  64
BRANCH  51  72
ATOM     72  C   UNL A   1      37.165  32.364  30.322  1.00  0.00     0.057 A 
ATOM     73  C   UNL A   1      36.531  32.105  31.544  1.00  0.00     0.134 A 
ATOM     74  C   UNL A   1      36.433  33.060  29.354  1.00  0.00     0.134 A 
ATOM     75  F   UNL A   1      37.173  31.429  32.508  1.00  0.00    -0.206 F 
ATOM     76  C   UNL A   1      35.215  32.503  31.785  1.00  0.00     0.040 A 
ATOM     77  C   UNL A   1      35.126  33.489  29.591  1.00  0.00     0.040 A 
ATOM     78  F   UNL A   1      36.986  33.351  28.166  1.00  0.00    -0.206 F 
ATOM     79  C   UNL A   1      34.510  33.203  30.808  1.00  0.00     0.006 A 
ENDBRANCH  51  72
BRANCH  63  80
ATOM     80  C   UNL A   1      43.354  35.534  30.762  1.00  0.00     0.057 A 
ATOM     81  C   UNL A   1      43.678  35.901  32.074  1.00  0.00     0.134 A 
ATOM     82  C   UNL A   1      43.450  36.521  29.772  1.00  0.00     0.134 A 
ATOM     83  F   UNL A   1      43.596  35.006  33.071  1.00  0.00    -0.206 F 
ATOM     84  C   UNL A   1      44.054  37.207  32.394  1.00  0.00     0.040 A 
ATOM     85  C   UNL A   1      43.856  37.821  30.074  1.00  0.00     0.040 A 
ATOM     86  F   UNL A   1      43.165  36.235  28.492  1.00  0.00    -0.206 F 
ATOM     87  C   UNL A   1      44.151  38.169  31.391  1.00  0.00     0.006 A 
ENDBRANCH  63  80
ENDBRANCH  37  38
ENDBRANCH  29  32
ENDBRANCH  27  28
ENDBRANCH  26  27
ENDBRANCH   1  26
TORSDOF 16
ENDMDL
MODEL 3
REMARK VINA RESULT:     -10.6      4.143      8.334
REMARK SMILES CC(C)[C@@H](NC(N)=O)C(=O)N[C@H](C(=O)NCCCNC(=O)c1ccc(-c2c3nc(c(-c4c(F)cccc4F)c4ccc([nH]4)c(-c4c(F)cccc4F)c4nc(c(-c5c(F)cccc5F)c5ccc2[nH]5)C=C4)C=C3)cc1)[C@@H](C)O
REMARK SMILES IDX 16 1 15 2 13 3 14 4 12 6 11 7 9 8 10 9 4 11 2 12 1 13 3 14
REMARK SMILES IDX 5 15 6 16 7 18 8 19 76 22 77 23 78 24 17 26 18 27 19 28
REMARK SMILES IDX 20 29 21 31 22 32 23 33 75 34 24 35 74 36 25 37 26 38 27 39
REMARK SMILES IDX 68 40 28 41 73 42 67 43 69 44 29 45 72 46 66 47 65 48 30 50
REMARK SMILES IDX 56 51 39 52 55 53 40 54 43 55 54 56 70 57 41 58 42 59 53 61
REMARK SMILES IDX 71 62 44 63 31 64 32 65 37 66 33 67 34 68 36 69 38 70 35 71
REMARK SMILES IDX 57 72 58 73 63 74 59 75 60 76 62 77 64 78 61 79 45 80 46 81
REMARK SMILES IDX 51 82 47 83 48 84 50 85 52 86 49 87
REMARK H PARENT 15 5 11 10 5 17 7 20 7 21 78 25 19 30 69 49 43 60
REMARK Flexibility Score: inf
ROOT
ATOM      1  C   UNL A   1      31.992  29.695  25.251  1.00  0.00     0.117 C 
ENDROOT
BRANCH   1   2
ATOM      2  N   UNL A   1      31.788  28.675  26.266  1.00  0.00    -0.354 N 
ATOM      3  C   UNL A   1      31.337  27.387  26.176  1.00  0.00     0.245 C 
ATOM      4  O   UNL A   1      31.124  26.798  27.239  1.00  0.00    -0.273 OA
ATOM      5  H   UNL A   1      32.013  28.961  27.180  1.00  0.00     0.163 HD
BRANCH   3   6
ATOM      6  C   UNL A   1      31.076  26.719  24.811  1.00  0.00     0.200 C 
BRANCH   6   7
ATOM      7  N   UNL A   1      30.867  25.285  25.072  1.00  0.00    -0.340 N 
ATOM      8  C   UNL A   1      31.291  24.185  24.390  1.00  0.00     0.243 C 
ATOM      9  O   UNL A   1      30.655  23.134  24.527  1.00  0.00    -0.273 OA
ATOM     10  H   UNL A   1      30.330  25.089  25.873  1.00  0.00     0.164 HD
BRANCH   8  11
ATOM     11  C   UNL A   1      32.473  24.259  23.382  1.00  0.00     0.175 C 
BRANCH  11  12
ATOM     12  C   UNL A   1      33.261  22.917  23.329  1.00  0.00     0.015 C 
ATOM     13  C   UNL A   1      32.694  21.912  22.318  1.00  0.00     0.010 C 
ATOM     14  C   UNL A   1      34.748  23.120  23.015  1.00  0.00     0.010 C 
ENDBRANCH  11  12
BRANCH  11  15
ATOM     15  N   UNL A   1      31.991  24.657  22.048  1.00  0.00    -0.326 N 
ATOM     16  C   UNL A   1      32.682  25.546  21.275  1.00  0.00     0.312 C 
ATOM     17  H   UNL A   1      31.150  24.275  21.706  1.00  0.00     0.166 HD
ATOM     18  N   UNL A   1      32.134  25.707  20.047  1.00  0.00    -0.352 N 
ATOM     19  O   UNL A   1      33.655  26.194  21.613  1.00  0.00    -0.249 OA
ATOM     20  H   UNL A   1      31.347  25.177  19.786  1.00  0.00     0.161 HD
ATOM     21  H   UNL A   1      32.522  26.355  19.416  1.00  0.00     0.161 HD
ENDBRANCH  11  15
ENDBRANCH   8  11
ENDBRANCH   6   7
BRANCH   6  22
ATOM     22  C   UNL A   1      29.791  27.298  24.147  1.00  0.00     0.143 C 
ATOM     23  C   UNL A   1      29.979  27.805  22.726  1.00  0.00     0.041 C 
BRANCH  22  24
ATOM     24  O   UNL A   1      28.733  26.328  24.105  1.00  0.00    -0.391 OA
ATOM     25  H   UNL A   1      29.109  25.447  23.949  1.00  0.00     0.211 HD
ENDBRANCH  22  24
ENDBRANCH   6  22
ENDBRANCH   3   6
ENDBRANCH   1   2
BRANCH   1  26
ATOM     26  C   UNL A   1      31.410  31.035  25.688  1.00  0.00     0.042 C 
BRANCH  26  27
ATOM     27  C   UNL A   1      31.837  31.484  27.077  1.00  0.00     0.118 C 
BRANCH  27  28
ATOM     28  N   UNL A   1      31.991  32.923  27.153  1.00  0.00    -0.352 N 
ATOM     29  C   UNL A   1      32.920  33.683  27.822  1.00  0.00     0.251 C 
ATOM     30  H   UNL A   1      31.325  33.438  26.644  1.00  0.00     0.163 HD
ATOM     31  O   UNL A   1      32.693  34.881  27.978  1.00  0.00    -0.269 OA
BRANCH  29  32
ATOM     32  C   UNL A   1      34.173  33.100  28.365  1.00  0.00     0.039 A 
ATOM     33  C   UNL A   1      34.223  31.718  28.585  1.00  0.00     0.014 A 
ATOM     34  C   UNL A   1      35.265  33.885  28.745  1.00  0.00     0.014 A 
ATOM     35  C   UNL A   1      35.356  31.137  29.164  1.00  0.00     0.010 A 
ATOM     36  C   UNL A   1      36.440  33.290  29.210  1.00  0.00     0.010 A 
ATOM     37  C   UNL A   1      36.484  31.915  29.469  1.00  0.00    -0.014 A 
BRANCH  37  38
ATOM     38  C   UNL A   1      37.679  31.307  30.116  1.00  0.00     0.031 A 
ATOM     39  C   UNL A   1      38.009  31.620  31.554  1.00  0.00     0.074 A 
ATOM     40  C   UNL A   1      38.473  30.476  29.413  1.00  0.00     0.049 A 
ATOM     41  N   UNL A   1      38.988  31.165  32.298  1.00  0.00    -0.248 NA
ATOM     42  C   UNL A   1      37.144  32.591  32.243  1.00  0.00     0.031 C 
ATOM     43  C   UNL A   1      38.293  30.129  28.002  1.00  0.00     0.029 A 
ATOM     44  N   UNL A   1      39.583  29.763  29.790  1.00  0.00    -0.354 N 
ATOM     45  C   UNL A   1      38.857  31.800  33.528  1.00  0.00     0.074 A 
ATOM     46  C   UNL A   1      37.754  32.726  33.409  1.00  0.00     0.031 C 
ATOM     47  C   UNL A   1      39.228  29.233  27.647  1.00  0.00     0.029 A 
ATOM     48  C   UNL A   1      40.096  28.972  28.791  1.00  0.00     0.049 A 
ATOM     49  H   UNL A   1      39.975  29.814  30.692  1.00  0.00     0.167 HD
ATOM     50  C   UNL A   1      39.566  31.607  34.666  1.00  0.00     0.037 A 
ATOM     51  C   UNL A   1      41.144  28.125  28.797  1.00  0.00     0.037 A 
ATOM     52  C   UNL A   1      40.654  30.672  34.788  1.00  0.00     0.049 A 
ATOM     53  C   UNL A   1      41.927  27.937  30.067  1.00  0.00     0.074 A 
ATOM     54  C   UNL A   1      41.408  30.367  35.907  1.00  0.00     0.029 A 
ATOM     55  N   UNL A   1      41.145  29.895  33.749  1.00  0.00    -0.354 N 
ATOM     56  N   UNL A   1      41.744  28.491  31.242  1.00  0.00    -0.248 NA
ATOM     57  C   UNL A   1      43.055  26.997  30.015  1.00  0.00     0.031 C 
ATOM     58  C   UNL A   1      42.391  29.445  35.532  1.00  0.00     0.029 A 
ATOM     59  C   UNL A   1      42.209  29.128  34.196  1.00  0.00     0.049 A 
ATOM     60  H   UNL A   1      40.790  29.889  32.831  1.00  0.00     0.167 HD
ATOM     61  C   UNL A   1      42.711  27.942  32.076  1.00  0.00     0.074 A 
ATOM     62  C   UNL A   1      43.468  27.002  31.274  1.00  0.00     0.031 C 
ATOM     63  C   UNL A   1      42.947  28.190  33.388  1.00  0.00     0.037 A 
BRANCH  50  64
ATOM     64  C   UNL A   1      39.185  32.427  35.869  1.00  0.00     0.057 A 
ATOM     65  C   UNL A   1      39.674  33.727  36.067  1.00  0.00     0.134 A 
ATOM     66  C   UNL A   1      38.304  31.919  36.833  1.00  0.00     0.134 A 
ATOM     67  F   UNL A   1      40.531  34.272  35.190  1.00  0.00    -0.206 F 
ATOM     68  C   UNL A   1      39.330  34.475  37.195  1.00  0.00     0.040 A 
ATOM     69  C   UNL A   1      37.927  32.671  37.947  1.00  0.00     0.040 A 
ATOM     70  F   UNL A   1      37.789  30.688  36.704  1.00  0.00    -0.206 F 
ATOM     71  C   UNL A   1      38.449  33.949  38.137  1.00  0.00     0.006 A 
ENDBRANCH  50  64
BRANCH  51  72
ATOM     72  C   UNL A   1      41.487  27.361  27.570  1.00  0.00     0.057 A 
ATOM     73  C   UNL A   1      42.307  27.915  26.578  1.00  0.00     0.134 A 
ATOM     74  C   UNL A   1      41.010  26.063  27.358  1.00  0.00     0.134 A 
ATOM     75  F   UNL A   1      42.783  29.161  26.714  1.00  0.00    -0.206 F 
ATOM     76  C   UNL A   1      42.622  27.214  25.413  1.00  0.00     0.040 A 
ATOM     77  C   UNL A   1      41.340  25.339  26.210  1.00  0.00     0.040 A 
ATOM     78  F   UNL A   1      40.230  25.470  28.274  1.00  0.00    -0.206 F 
ATOM     79  C   UNL A   1      42.143  25.918  25.229  1.00  0.00     0.006 A 
ENDBRANCH  51  72
BRANCH  63  80
ATOM     80  C   UNL A   1      44.037  27.399  34.053  1.00  0.00     0.057 A 
ATOM     81  C   UNL A   1      45.369  27.834  34.072  1.00  0.00     0.134 A 
ATOM     82  C   UNL A   1      43.739  26.203  34.719  1.00  0.00     0.134 A 
ATOM     83  F   UNL A   1      45.723  28.966  33.445  1.00  0.00    -0.206 F 
ATOM     84  C   UNL A   1      46.369  27.092  34.703  1.00  0.00     0.040 A 
ATOM     85  C   UNL A   1      44.724  25.469  35.380  1.00  0.00     0.040 A 
ATOM     86  F   UNL A   1      42.482  25.734  34.750  1.00  0.00    -0.206 F 
ATOM     87  C   UNL A   1      46.046  25.910  35.365  1.00  0.00     0.006 A 
ENDBRANCH  63  80
ENDBRANCH  37  38
ENDBRANCH  29  32
ENDBRANCH  27  28
ENDBRANCH  26  27
ENDBRANCH   1  26
TORSDOF 16
ENDMDL
