MODEL 1
REMARK VINA RESULT:     -12.8      0.000      0.000
REMARK SMILES NS(=O)(=O)c1ccc(-n2nc(C(F)F)cc2-c2ccc(C(=O)NCCCNC(=O)c3ccc(-c4c5nc(c(-c6c(F)cccc6F)c6ccc([nH]6)c(-c6c(F)cccc6F)c6nc(c(-c7c(F)cccc7F)c7ccc4[nH]7)C=C6)C=C5)cc3)cc2)cc1
REMARK SMILES IDX 24 1 23 2 21 3 22 4 20 6 17 7 18 8 85 9 19 10 84 11 16 12
REMARK SMILES IDX 9 13 10 14 11 15 15 16 8 17 5 18 6 19 87 20 7 21 86 22 2 23
REMARK SMILES IDX 3 24 4 25 1 26 12 29 13 30 14 31 25 32 26 33 27 34 28 35
REMARK SMILES IDX 29 37 30 38 31 39 83 40 32 41 82 42 33 43 34 44 35 45 76 46
REMARK SMILES IDX 36 47 81 48 75 49 77 50 37 51 80 52 74 53 73 54 38 56 64 57
REMARK SMILES IDX 47 58 63 59 48 60 51 61 62 62 78 63 49 64 50 65 61 67 79 68
REMARK SMILES IDX 52 69 39 70 40 71 45 72 41 73 42 74 44 75 46 76 43 77 65 78
REMARK SMILES IDX 66 79 71 80 67 81 68 82 70 83 72 84 69 85 53 86 54 87 59 88
REMARK SMILES IDX 55 89 56 90 58 91 60 92 57 93
REMARK H PARENT 23 5 1 27 1 28 27 36 77 55 51 66
REMARK Flexibility Score: inf
ROOT
ATOM      1  C   UNL A   1      31.871  31.091  26.764  1.00  0.00     0.118 C 
ENDROOT
BRANCH   1   2
ATOM      2  N   UNL A   1      33.024  30.712  27.569  1.00  0.00    -0.352 N 
ATOM      3  C   UNL A   1      33.732  29.534  27.633  1.00  0.00     0.251 C 
ATOM      4  O   UNL A   1      34.744  29.493  28.328  1.00  0.00    -0.269 OA
ATOM      5  H   UNL A   1      33.353  31.419  28.171  1.00  0.00     0.163 HD
BRANCH   3   6
ATOM      6  C   UNL A   1      33.338  28.339  26.841  1.00  0.00     0.039 A 
ATOM      7  C   UNL A   1      32.602  25.998  25.486  1.00  0.00     0.000 A 
ATOM      8  C   UNL A   1      31.820  26.472  26.547  1.00  0.00     0.011 A 
ATOM      9  C   UNL A   1      33.725  26.710  25.084  1.00  0.00     0.011 A 
ATOM     10  C   UNL A   1      32.188  27.638  27.225  1.00  0.00     0.014 A 
ATOM     11  C   UNL A   1      34.053  27.894  25.727  1.00  0.00     0.014 A 
BRANCH   7  12
ATOM     12  C   UNL A   1      32.213  24.838  24.709  1.00  0.00     0.075 A 
ATOM     13  N   UNL A   1      31.188  24.832  23.778  1.00  0.00    -0.233 N 
ATOM     14  N   UNL A   1      30.930  23.583  23.320  1.00  0.00    -0.166 NA
ATOM     15  C   UNL A   1      31.948  22.835  23.788  1.00  0.00     0.129 A 
ATOM     16  C   UNL A   1      32.745  23.568  24.697  1.00  0.00     0.060 A 
BRANCH  13  17
ATOM     17  C   UNL A   1      30.431  25.955  23.362  1.00  0.00     0.065 A 
ATOM     18  C   UNL A   1      29.100  28.342  22.860  1.00  0.00     0.082 A 
ATOM     19  C   UNL A   1      30.342  28.113  22.264  1.00  0.00     0.024 A 
ATOM     20  C   UNL A   1      28.507  27.373  23.681  1.00  0.00     0.024 A 
ATOM     21  C   UNL A   1      31.010  26.917  22.518  1.00  0.00     0.030 A 
ATOM     22  C   UNL A   1      29.163  26.160  23.912  1.00  0.00     0.030 A 
BRANCH  18  23
ATOM     23  S   UNL A   1      28.318  29.897  22.552  1.00  0.00     0.238 S 
ATOM     24  O   UNL A   1      27.062  29.919  23.245  1.00  0.00    -0.207 OA
ATOM     25  O   UNL A   1      28.441  30.193  21.135  1.00  0.00    -0.207 OA
BRANCH  23  26
ATOM     26  N   UNL A   1      29.296  31.028  23.318  1.00  0.00    -0.225 NA
ATOM     27  H   UNL A   1      29.109  31.017  24.320  1.00  0.00     0.137 HD
ATOM     28  H   UNL A   1      29.098  31.956  22.945  1.00  0.00     0.137 HD
ENDBRANCH  23  26
ENDBRANCH  18  23
ENDBRANCH  13  17
BRANCH  15  29
ATOM     29  C   UNL A   1      32.178  21.409  23.381  1.00  0.00     0.393 C 
ATOM     30  F   UNL A   1      32.099  21.228  22.036  1.00  0.00    -0.203 F 
ATOM     31  F   UNL A   1      33.410  20.973  23.767  1.00  0.00    -0.203 F 
ENDBRANCH  15  29
ENDBRANCH   7  12
ENDBRANCH   3   6
ENDBRANCH   1   2
BRANCH   1  32
ATOM     32  C   UNL A   1      31.568  32.595  26.862  1.00  0.00     0.042 C 
BRANCH  32  33
ATOM     33  C   UNL A   1      32.818  33.419  27.072  1.00  0.00     0.118 C 
BRANCH  33  34
ATOM     34  N   UNL A   1      32.592  34.551  27.982  1.00  0.00    -0.352 N 
ATOM     35  C   UNL A   1      33.126  34.789  29.237  1.00  0.00     0.251 C 
ATOM     36  H   UNL A   1      31.970  35.238  27.651  1.00  0.00     0.163 HD
ATOM     37  O   UNL A   1      32.591  35.574  30.009  1.00  0.00    -0.269 OA
BRANCH  35  38
ATOM     38  C   UNL A   1      34.363  34.089  29.619  1.00  0.00     0.039 A 
ATOM     39  C   UNL A   1      34.425  33.096  30.600  1.00  0.00     0.014 A 
ATOM     40  C   UNL A   1      35.491  34.429  28.895  1.00  0.00     0.014 A 
ATOM     41  C   UNL A   1      35.646  32.454  30.815  1.00  0.00     0.010 A 
ATOM     42  C   UNL A   1      36.516  33.545  28.836  1.00  0.00     0.010 A 
ATOM     43  C   UNL A   1      36.691  32.710  29.922  1.00  0.00    -0.014 A 
BRANCH  43  44
ATOM     44  C   UNL A   1      38.016  32.119  29.992  1.00  0.00     0.031 A 
ATOM     45  C   UNL A   1      38.109  30.816  29.297  1.00  0.00     0.074 A 
ATOM     46  C   UNL A   1      39.090  32.887  30.301  1.00  0.00     0.049 A 
ATOM     47  N   UNL A   1      38.237  29.646  29.825  1.00  0.00    -0.248 NA
ATOM     48  C   UNL A   1      37.806  30.788  27.853  1.00  0.00     0.031 C 
ATOM     49  C   UNL A   1      39.124  34.324  30.623  1.00  0.00     0.029 A 
ATOM     50  N   UNL A   1      40.411  32.568  30.259  1.00  0.00    -0.354 N 
ATOM     51  C   UNL A   1      38.296  28.769  28.745  1.00  0.00     0.074 A 
ATOM     52  C   UNL A   1      37.725  29.475  27.635  1.00  0.00     0.031 C 
ATOM     53  C   UNL A   1      40.392  34.786  30.528  1.00  0.00     0.029 A 
ATOM     54  C   UNL A   1      41.277  33.664  30.288  1.00  0.00     0.049 A 
ATOM     55  H   UNL A   1      40.733  31.640  30.212  1.00  0.00     0.167 HD
ATOM     56  C   UNL A   1      39.124  27.687  28.768  1.00  0.00     0.037 A 
ATOM     57  C   UNL A   1      42.618  33.624  30.075  1.00  0.00     0.037 A 
ATOM     58  C   UNL A   1      39.602  27.450  30.114  1.00  0.00     0.049 A 
ATOM     59  C   UNL A   1      43.036  32.204  30.228  1.00  0.00     0.074 A 
ATOM     60  C   UNL A   1      39.003  27.213  31.335  1.00  0.00     0.029 A 
ATOM     61  N   UNL A   1      40.887  27.849  30.399  1.00  0.00    -0.354 N 
ATOM     62  N   UNL A   1      42.996  31.558  31.361  1.00  0.00    -0.248 NA
ATOM     63  C   UNL A   1      43.006  31.372  29.034  1.00  0.00     0.031 C 
ATOM     64  C   UNL A   1      39.787  27.942  32.278  1.00  0.00     0.029 A 
ATOM     65  C   UNL A   1      40.869  28.507  31.600  1.00  0.00     0.049 A 
ATOM     66  H   UNL A   1      41.681  27.689  29.839  1.00  0.00     0.167 HD
ATOM     67  C   UNL A   1      42.501  30.303  31.036  1.00  0.00     0.074 A 
ATOM     68  C   UNL A   1      42.591  30.224  29.579  1.00  0.00     0.031 C 
ATOM     69  C   UNL A   1      41.779  29.576  31.941  1.00  0.00     0.037 A 
BRANCH  56  70
ATOM     70  C   UNL A   1      39.855  27.125  27.561  1.00  0.00     0.057 A 
ATOM     71  C   UNL A   1      39.849  25.730  27.375  1.00  0.00     0.134 A 
ATOM     72  C   UNL A   1      40.784  27.820  26.758  1.00  0.00     0.134 A 
ATOM     73  F   UNL A   1      38.995  24.948  28.053  1.00  0.00    -0.206 F 
ATOM     74  C   UNL A   1      40.779  25.072  26.560  1.00  0.00     0.040 A 
ATOM     75  C   UNL A   1      41.684  27.175  25.904  1.00  0.00     0.040 A 
ATOM     76  F   UNL A   1      40.952  29.144  26.804  1.00  0.00    -0.206 F 
ATOM     77  C   UNL A   1      41.713  25.795  25.835  1.00  0.00     0.006 A 
ENDBRANCH  56  70
BRANCH  57  78
ATOM     78  C   UNL A   1      43.503  34.640  29.452  1.00  0.00     0.057 A 
ATOM     79  C   UNL A   1      43.485  34.880  28.070  1.00  0.00     0.134 A 
ATOM     80  C   UNL A   1      44.185  35.593  30.229  1.00  0.00     0.134 A 
ATOM     81  F   UNL A   1      42.827  34.052  27.246  1.00  0.00    -0.206 F 
ATOM     82  C   UNL A   1      44.087  36.011  27.498  1.00  0.00     0.040 A 
ATOM     83  C   UNL A   1      44.793  36.724  29.671  1.00  0.00     0.040 A 
ATOM     84  F   UNL A   1      44.205  35.506  31.568  1.00  0.00    -0.206 F 
ATOM     85  C   UNL A   1      44.733  36.944  28.302  1.00  0.00     0.006 A 
ENDBRANCH  57  78
BRANCH  69  86
ATOM     86  C   UNL A   1      41.741  30.060  33.366  1.00  0.00     0.057 A 
ATOM     87  C   UNL A   1      40.746  30.901  33.890  1.00  0.00     0.134 A 
ATOM     88  C   UNL A   1      42.648  29.515  34.279  1.00  0.00     0.134 A 
ATOM     89  F   UNL A   1      39.775  31.394  33.114  1.00  0.00    -0.206 F 
ATOM     90  C   UNL A   1      40.680  31.212  35.253  1.00  0.00     0.040 A 
ATOM     91  C   UNL A   1      42.574  29.791  35.646  1.00  0.00     0.040 A 
ATOM     92  F   UNL A   1      43.591  28.658  33.861  1.00  0.00    -0.206 F 
ATOM     93  C   UNL A   1      41.593  30.647  36.136  1.00  0.00     0.006 A 
ENDBRANCH  69  86
ENDBRANCH  43  44
ENDBRANCH  35  38
ENDBRANCH  33  34
ENDBRANCH  32  33
ENDBRANCH   1  32
TORSDOF 15
ENDMDL
MODEL 2
REMARK VINA RESULT:     -12.7      4.856      9.188
REMARK SMILES NS(=O)(=O)c1ccc(-n2nc(C(F)F)cc2-c2ccc(C(=O)NCCCNC(=O)c3ccc(-c4c5nc(c(-c6c(F)cccc6F)c6ccc([nH]6)c(-c6c(F)cccc6F)c6nc(c(-c7c(F)cccc7F)c7ccc4[nH]7)C=C6)C=C5)cc3)cc2)cc1
REMARK SMILES IDX 24 1 23 2 21 3 22 4 20 6 17 7 18 8 85 9 19 10 84 11 16 12
REMARK SMILES IDX 9 13 10 14 11 15 15 16 8 17 5 18 6 19 87 20 7 21 86 22 2 23
REMARK SMILES IDX 3 24 4 25 1 26 12 29 13 30 14 31 25 32 26 33 27 34 28 35
REMARK SMILES IDX 29 37 30 38 31 39 83 40 32 41 82 42 33 43 34 44 35 45 76 46
REMARK SMILES IDX 36 47 81 48 75 49 77 50 37 51 80 52 74 53 73 54 38 56 64 57
REMARK SMILES IDX 47 58 63 59 48 60 51 61 62 62 78 63 49 64 50 65 61 67 79 68
REMARK SMILES IDX 52 69 39 70 40 71 45 72 41 73 42 74 44 75 46 76 43 77 65 78
REMARK SMILES IDX 66 79 71 80 67 81 68 82 70 83 72 84 69 85 53 86 54 87 59 88
REMARK SMILES IDX 55 89 56 90 58 91 60 92 57 93
REMARK H PARENT 23 5 1 27 1 28 27 36 77 55 51 66
REMARK Flexibility Score: inf
ROOT
ATOM      1  C   UNL A   1      37.681  20.827  24.848  1.00  0.00     0.118 C 
ENDROOT
BRANCH   1   2
ATOM      2  N   UNL A   1      38.369  22.057  25.219  1.00  0.00    -0.352 N 
ATOM      3  C   UNL A   1      37.906  23.344  25.351  1.00  0.00     0.251 C 
ATOM      4  O   UNL A   1      38.671  24.205  25.781  1.00  0.00    -0.269 OA
ATOM      5  H   UNL A   1      39.330  21.947  25.406  1.00  0.00     0.163 HD
BRANCH   3   6
ATOM      6  C   UNL A   1      36.495  23.705  25.048  1.00  0.00     0.039 A 
ATOM      7  C   UNL A   1      33.893  24.495  24.369  1.00  0.00     0.000 A 
ATOM      8  C   UNL A   1      34.757  23.999  23.383  1.00  0.00     0.011 A 
ATOM      9  C   UNL A   1      34.316  24.562  25.690  1.00  0.00     0.011 A 
ATOM     10  C   UNL A   1      36.056  23.608  23.722  1.00  0.00     0.014 A 
ATOM     11  C   UNL A   1      35.588  24.122  26.025  1.00  0.00     0.014 A 
BRANCH   7  12
ATOM     12  C   UNL A   1      32.516  24.838  24.073  1.00  0.00     0.075 A 
ATOM     13  N   UNL A   1      31.527  23.913  23.783  1.00  0.00    -0.233 N 
ATOM     14  N   UNL A   1      30.378  24.511  23.387  1.00  0.00    -0.166 NA
ATOM     15  C   UNL A   1      30.568  25.818  23.651  1.00  0.00     0.129 A 
ATOM     16  C   UNL A   1      31.904  26.072  24.037  1.00  0.00     0.060 A 
BRANCH  13  17
ATOM     17  C   UNL A   1      31.665  22.503  23.822  1.00  0.00     0.065 A 
ATOM     18  C   UNL A   1      32.325  19.805  23.901  1.00  0.00     0.082 A 
ATOM     19  C   UNL A   1      32.113  20.492  25.097  1.00  0.00     0.024 A 
ATOM     20  C   UNL A   1      32.180  20.451  22.665  1.00  0.00     0.024 A 
ATOM     21  C   UNL A   1      31.785  21.845  25.058  1.00  0.00     0.030 A 
ATOM     22  C   UNL A   1      31.821  21.803  22.624  1.00  0.00     0.030 A 
BRANCH  18  23
ATOM     23  S   UNL A   1      32.794  18.104  24.004  1.00  0.00     0.238 S 
ATOM     24  O   UNL A   1      31.966  17.464  24.986  1.00  0.00    -0.207 OA
ATOM     25  O   UNL A   1      34.244  18.035  24.031  1.00  0.00    -0.207 OA
BRANCH  23  26
ATOM     26  N   UNL A   1      32.355  17.448  22.521  1.00  0.00    -0.225 NA
ATOM     27  H   UNL A   1      31.344  17.515  22.405  1.00  0.00     0.137 HD
ATOM     28  H   UNL A   1      32.637  16.469  22.486  1.00  0.00     0.137 HD
ENDBRANCH  23  26
ENDBRANCH  18  23
ENDBRANCH  13  17
BRANCH  15  29
ATOM     29  C   UNL A   1      29.483  26.848  23.539  1.00  0.00     0.393 C 
ATOM     30  F   UNL A   1      28.386  26.537  24.279  1.00  0.00    -0.203 F 
ATOM     31  F   UNL A   1      29.911  28.070  23.962  1.00  0.00    -0.203 F 
ENDBRANCH  15  29
ENDBRANCH   7  12
ENDBRANCH   3   6
ENDBRANCH   1   2
BRANCH   1  32
ATOM     32  C   UNL A   1      38.551  19.583  25.095  1.00  0.00     0.042 C 
BRANCH  32  33
ATOM     33  C   UNL A   1      39.535  19.786  26.224  1.00  0.00     0.118 C 
BRANCH  33  34
ATOM     34  N   UNL A   1      40.790  19.052  26.007  1.00  0.00    -0.352 N 
ATOM     35  C   UNL A   1      42.079  19.538  25.873  1.00  0.00     0.251 C 
ATOM     36  H   UNL A   1      40.699  18.074  25.949  1.00  0.00     0.163 HD
ATOM     37  O   UNL A   1      42.956  18.857  25.357  1.00  0.00    -0.269 OA
BRANCH  35  38
ATOM     38  C   UNL A   1      42.378  20.887  26.379  1.00  0.00     0.039 A 
ATOM     39  C   UNL A   1      42.627  21.990  25.557  1.00  0.00     0.014 A 
ATOM     40  C   UNL A   1      42.343  21.033  27.754  1.00  0.00     0.014 A 
ATOM     41  C   UNL A   1      42.822  23.234  26.160  1.00  0.00     0.010 A 
ATOM     42  C   UNL A   1      42.132  22.266  28.271  1.00  0.00     0.010 A 
ATOM     43  C   UNL A   1      42.583  23.344  27.533  1.00  0.00    -0.014 A 
BRANCH  43  44
ATOM     44  C   UNL A   1      42.724  24.562  28.313  1.00  0.00     0.031 A 
ATOM     45  C   UNL A   1      41.596  25.501  28.133  1.00  0.00     0.074 A 
ATOM     46  C   UNL A   1      43.580  24.604  29.363  1.00  0.00     0.049 A 
ATOM     47  N   UNL A   1      41.600  26.634  27.515  1.00  0.00    -0.248 NA
ATOM     48  C   UNL A   1      40.246  25.026  28.497  1.00  0.00     0.031 C 
ATOM     49  C   UNL A   1      44.471  23.541  29.860  1.00  0.00     0.029 A 
ATOM     50  N   UNL A   1      43.737  25.575  30.302  1.00  0.00    -0.354 N 
ATOM     51  C   UNL A   1      40.304  27.124  27.653  1.00  0.00     0.074 A 
ATOM     52  C   UNL A   1      39.487  25.988  27.970  1.00  0.00     0.031 C 
ATOM     53  C   UNL A   1      44.894  23.842  31.109  1.00  0.00     0.029 A 
ATOM     54  C   UNL A   1      44.434  25.175  31.445  1.00  0.00     0.049 A 
ATOM     55  H   UNL A   1      43.387  26.487  30.187  1.00  0.00     0.167 HD
ATOM     56  C   UNL A   1      40.077  28.453  27.848  1.00  0.00     0.037 A 
ATOM     57  C   UNL A   1      44.562  25.893  32.591  1.00  0.00     0.037 A 
ATOM     58  C   UNL A   1      41.272  29.214  27.555  1.00  0.00     0.049 A 
ATOM     59  C   UNL A   1      44.206  27.299  32.259  1.00  0.00     0.074 A 
ATOM     60  C   UNL A   1      42.093  29.356  26.453  1.00  0.00     0.029 A 
ATOM     61  N   UNL A   1      42.006  29.663  28.628  1.00  0.00    -0.354 N 
ATOM     62  N   UNL A   1      44.917  28.057  31.470  1.00  0.00    -0.248 NA
ATOM     63  C   UNL A   1      42.807  27.679  32.394  1.00  0.00     0.031 C 
ATOM     64  C   UNL A   1      43.416  29.416  26.985  1.00  0.00     0.029 A 
ATOM     65  C   UNL A   1      43.326  29.400  28.378  1.00  0.00     0.049 A 
ATOM     66  H   UNL A   1      41.645  30.099  29.434  1.00  0.00     0.167 HD
ATOM     67  C   UNL A   1      43.986  28.721  30.683  1.00  0.00     0.074 A 
ATOM     68  C   UNL A   1      42.701  28.499  31.344  1.00  0.00     0.031 C 
ATOM     69  C   UNL A   1      44.296  29.117  29.412  1.00  0.00     0.037 A 
BRANCH  56  70
ATOM     70  C   UNL A   1      38.967  29.028  28.710  1.00  0.00     0.057 A 
ATOM     71  C   UNL A   1      38.917  28.647  30.065  1.00  0.00     0.134 A 
ATOM     72  C   UNL A   1      37.805  29.677  28.241  1.00  0.00     0.134 A 
ATOM     73  F   UNL A   1      39.965  28.046  30.650  1.00  0.00    -0.206 F 
ATOM     74  C   UNL A   1      37.763  28.781  30.846  1.00  0.00     0.040 A 
ATOM     75  C   UNL A   1      36.665  29.860  29.029  1.00  0.00     0.040 A 
ATOM     76  F   UNL A   1      37.653  30.097  26.983  1.00  0.00    -0.206 F 
ATOM     77  C   UNL A   1      36.624  29.373  30.322  1.00  0.00     0.006 A 
ENDBRANCH  56  70
BRANCH  57  78
ATOM     78  C   UNL A   1      44.661  25.418  33.993  1.00  0.00     0.057 A 
ATOM     79  C   UNL A   1      43.898  24.335  34.457  1.00  0.00     0.134 A 
ATOM     80  C   UNL A   1      45.706  25.834  34.836  1.00  0.00     0.134 A 
ATOM     81  F   UNL A   1      42.903  23.837  33.709  1.00  0.00    -0.206 F 
ATOM     82  C   UNL A   1      44.174  23.689  35.671  1.00  0.00     0.040 A 
ATOM     83  C   UNL A   1      45.990  25.202  36.053  1.00  0.00     0.040 A 
ATOM     84  F   UNL A   1      46.545  26.812  34.464  1.00  0.00    -0.206 F 
ATOM     85  C   UNL A   1      45.231  24.116  36.468  1.00  0.00     0.006 A 
ENDBRANCH  57  78
BRANCH  69  86
ATOM     86  C   UNL A   1      45.734  29.034  28.976  1.00  0.00     0.057 A 
ATOM     87  C   UNL A   1      46.299  27.931  28.316  1.00  0.00     0.134 A 
ATOM     88  C   UNL A   1      46.528  30.180  29.076  1.00  0.00     0.134 A 
ATOM     89  F   UNL A   1      45.588  26.823  28.084  1.00  0.00    -0.206 F 
ATOM     90  C   UNL A   1      47.604  27.957  27.812  1.00  0.00     0.040 A 
ATOM     91  C   UNL A   1      47.820  30.231  28.549  1.00  0.00     0.040 A 
ATOM     92  F   UNL A   1      46.036  31.292  29.643  1.00  0.00    -0.206 F 
ATOM     93  C   UNL A   1      48.365  29.115  27.921  1.00  0.00     0.006 A 
ENDBRANCH  69  86
ENDBRANCH  43  44
ENDBRANCH  35  38
ENDBRANCH  33  34
ENDBRANCH  32  33
ENDBRANCH   1  32
TORSDOF 15
ENDMDL
MODEL 3
REMARK VINA RESULT:     -12.2      4.031      8.482
REMARK SMILES NS(=O)(=O)c1ccc(-n2nc(C(F)F)cc2-c2ccc(C(=O)NCCCNC(=O)c3ccc(-c4c5nc(c(-c6c(F)cccc6F)c6ccc([nH]6)c(-c6c(F)cccc6F)c6nc(c(-c7c(F)cccc7F)c7ccc4[nH]7)C=C6)C=C5)cc3)cc2)cc1
REMARK SMILES IDX 24 1 23 2 21 3 22 4 20 6 17 7 18 8 85 9 19 10 84 11 16 12
REMARK SMILES IDX 9 13 10 14 11 15 15 16 8 17 5 18 6 19 87 20 7 21 86 22 2 23
REMARK SMILES IDX 3 24 4 25 1 26 12 29 13 30 14 31 25 32 26 33 27 34 28 35
REMARK SMILES IDX 29 37 30 38 31 39 83 40 32 41 82 42 33 43 34 44 35 45 76 46
REMARK SMILES IDX 36 47 81 48 75 49 77 50 37 51 80 52 74 53 73 54 38 56 64 57
REMARK SMILES IDX 47 58 63 59 48 60 51 61 62 62 78 63 49 64 50 65 61 67 79 68
REMARK SMILES IDX 52 69 39 70 40 71 45 72 41 73 42 74 44 75 46 76 43 77 65 78
REMARK SMILES IDX 66 79 71 80 67 81 68 82 70 83 72 84 69 85 53 86 54 87 59 88
REMARK SMILES IDX 55 89 56 90 58 91 60 92 57 93
REMARK H PARENT 23 5 1 27 1 28 27 36 77 55 51 66
REMARK Flexibility Score: inf
ROOT
ATOM      1  C   UNL A   1      40.396  21.380  27.199  1.00  0.00     0.118 C 
ENDROOT
BRANCH   1   2
ATOM      2  N   UNL A   1      40.149  22.768  26.829  1.00  0.00    -0.352 N 
ATOM      3  C   UNL A   1      39.050  23.367  26.260  1.00  0.00     0.251 C 
ATOM      4  O   UNL A   1      39.044  24.589  26.137  1.00  0.00    -0.269 OA
ATOM      5  H   UNL A   1      40.896  23.381  27.020  1.00  0.00     0.163 HD
BRANCH   3   6
ATOM      6  C   UNL A   1      37.855  22.583  25.849  1.00  0.00     0.039 A 
ATOM      7  C   UNL A   1      35.570  21.081  25.231  1.00  0.00     0.000 A 
ATOM      8  C   UNL A   1      35.464  22.229  26.028  1.00  0.00     0.011 A 
ATOM      9  C   UNL A   1      36.806  20.708  24.718  1.00  0.00     0.011 A 
ATOM     10  C   UNL A   1      36.603  22.976  26.339  1.00  0.00     0.014 A 
ATOM     11  C   UNL A   1      37.922  21.486  24.987  1.00  0.00     0.014 A 
BRANCH   7  12
ATOM     12  C   UNL A   1      34.404  20.323  24.824  1.00  0.00     0.075 A 
ATOM     13  N   UNL A   1      33.281  20.879  24.233  1.00  0.00    -0.233 N 
ATOM     14  N   UNL A   1      32.279  19.976  24.106  1.00  0.00    -0.166 NA
ATOM     15  C   UNL A   1      32.851  18.792  24.403  1.00  0.00     0.129 A 
ATOM     16  C   UNL A   1      34.162  18.969  24.901  1.00  0.00     0.060 A 
BRANCH  13  17
ATOM     17  C   UNL A   1      33.126  22.232  23.843  1.00  0.00     0.065 A 
ATOM     18  C   UNL A   1      32.575  24.748  22.801  1.00  0.00     0.082 A 
ATOM     19  C   UNL A   1      31.802  24.261  23.857  1.00  0.00     0.024 A 
ATOM     20  C   UNL A   1      33.640  23.997  22.283  1.00  0.00     0.024 A 
ATOM     21  C   UNL A   1      32.077  22.999  24.377  1.00  0.00     0.030 A 
ATOM     22  C   UNL A   1      33.935  22.742  22.826  1.00  0.00     0.030 A 
BRANCH  18  23
ATOM     23  S   UNL A   1      32.153  26.331  22.138  1.00  0.00     0.238 S 
ATOM     24  O   UNL A   1      31.699  27.167  23.211  1.00  0.00    -0.207 OA
ATOM     25  O   UNL A   1      31.385  26.123  20.923  1.00  0.00    -0.207 OA
BRANCH  23  26
ATOM     26  N   UNL A   1      33.613  26.983  21.621  1.00  0.00    -0.225 NA
ATOM     27  H   UNL A   1      34.151  27.297  22.429  1.00  0.00     0.137 HD
ATOM     28  H   UNL A   1      33.433  27.774  21.004  1.00  0.00     0.137 HD
ENDBRANCH  23  26
ENDBRANCH  18  23
ENDBRANCH  13  17
BRANCH  15  29
ATOM     29  C   UNL A   1      32.159  17.474  24.221  1.00  0.00     0.393 C 
ATOM     30  F   UNL A   1      32.900  16.586  23.506  1.00  0.00    -0.203 F 
ATOM     31  F   UNL A   1      31.886  16.885  25.419  1.00  0.00    -0.203 F 
ENDBRANCH  15  29
ENDBRANCH   7  12
ENDBRANCH   3   6
ENDBRANCH   1   2
BRANCH   1  32
ATOM     32  C   UNL A   1      41.242  20.645  26.146  1.00  0.00     0.042 C 
BRANCH  32  33
ATOM     33  C   UNL A   1      42.488  20.028  26.740  1.00  0.00     0.118 C 
BRANCH  33  34
ATOM     34  N   UNL A   1      43.597  19.977  25.776  1.00  0.00    -0.352 N 
ATOM     35  C   UNL A   1      44.190  21.006  25.066  1.00  0.00     0.251 C 
ATOM     36  H   UNL A   1      43.970  19.081  25.613  1.00  0.00     0.163 HD
ATOM     37  O   UNL A   1      44.851  20.775  24.061  1.00  0.00    -0.269 OA
BRANCH  35  38
ATOM     38  C   UNL A   1      44.025  22.384  25.553  1.00  0.00     0.039 A 
ATOM     39  C   UNL A   1      43.189  23.329  24.950  1.00  0.00     0.014 A 
ATOM     40  C   UNL A   1      44.713  22.697  26.711  1.00  0.00     0.014 A 
ATOM     41  C   UNL A   1      43.060  24.580  25.556  1.00  0.00     0.010 A 
ATOM     42  C   UNL A   1      44.271  23.726  27.472  1.00  0.00     0.010 A 
ATOM     43  C   UNL A   1      43.629  24.762  26.820  1.00  0.00    -0.014 A 
BRANCH  43  44
ATOM     44  C   UNL A   1      43.577  25.990  27.593  1.00  0.00     0.031 A 
ATOM     45  C   UNL A   1      44.626  26.961  27.212  1.00  0.00     0.074 A 
ATOM     46  C   UNL A   1      42.450  26.324  28.267  1.00  0.00     0.049 A 
ATOM     47  N   UNL A   1      45.667  27.308  27.892  1.00  0.00    -0.248 NA
ATOM     48  C   UNL A   1      44.638  27.444  25.818  1.00  0.00     0.031 C 
ATOM     49  C   UNL A   1      41.186  25.573  28.367  1.00  0.00     0.029 A 
ATOM     50  N   UNL A   1      42.145  27.487  28.905  1.00  0.00    -0.354 N 
ATOM     51  C   UNL A   1      46.312  28.256  27.103  1.00  0.00     0.074 A 
ATOM     52  C   UNL A   1      45.822  28.055  25.770  1.00  0.00     0.031 C 
ATOM     53  C   UNL A   1      40.204  26.383  28.825  1.00  0.00     0.029 A 
ATOM     54  C   UNL A   1      40.788  27.657  29.192  1.00  0.00     0.049 A 
ATOM     55  H   UNL A   1      42.826  28.156  29.144  1.00  0.00     0.167 HD
ATOM     56  C   UNL A   1      46.913  29.342  27.666  1.00  0.00     0.037 A 
ATOM     57  C   UNL A   1      40.210  28.797  29.652  1.00  0.00     0.037 A 
ATOM     58  C   UNL A   1      47.049  29.155  29.095  1.00  0.00     0.049 A 
ATOM     59  C   UNL A   1      41.306  29.654  30.178  1.00  0.00     0.074 A 
ATOM     60  C   UNL A   1      47.650  28.209  29.902  1.00  0.00     0.029 A 
ATOM     61  N   UNL A   1      46.155  29.820  29.900  1.00  0.00    -0.354 N 
ATOM     62  N   UNL A   1      42.015  29.353  31.232  1.00  0.00    -0.248 NA
ATOM     63  C   UNL A   1      41.940  30.571  29.242  1.00  0.00     0.031 C 
ATOM     64  C   UNL A   1      46.750  28.032  30.994  1.00  0.00     0.029 A 
ATOM     65  C   UNL A   1      45.699  28.939  30.844  1.00  0.00     0.049 A 
ATOM     66  H   UNL A   1      45.890  30.765  29.814  1.00  0.00     0.167 HD
ATOM     67  C   UNL A   1      43.320  29.677  30.886  1.00  0.00     0.074 A 
ATOM     68  C   UNL A   1      43.202  30.487  29.674  1.00  0.00     0.031 C 
ATOM     69  C   UNL A   1      44.378  29.003  31.427  1.00  0.00     0.037 A 
BRANCH  56  70
ATOM     70  C   UNL A   1      46.968  30.726  27.042  1.00  0.00     0.057 A 
ATOM     71  C   UNL A   1      48.200  31.406  27.050  1.00  0.00     0.134 A 
ATOM     72  C   UNL A   1      45.857  31.530  26.712  1.00  0.00     0.134 A 
ATOM     73  F   UNL A   1      49.344  30.756  27.319  1.00  0.00    -0.206 F 
ATOM     74  C   UNL A   1      48.301  32.791  26.875  1.00  0.00     0.040 A 
ATOM     75  C   UNL A   1      45.953  32.906  26.487  1.00  0.00     0.040 A 
ATOM     76  F   UNL A   1      44.603  31.073  26.671  1.00  0.00    -0.206 F 
ATOM     77  C   UNL A   1      47.170  33.550  26.610  1.00  0.00     0.006 A 
ENDBRANCH  56  70
BRANCH  57  78
ATOM     78  C   UNL A   1      38.850  29.333  29.393  1.00  0.00     0.057 A 
ATOM     79  C   UNL A   1      38.397  29.586  28.090  1.00  0.00     0.134 A 
ATOM     80  C   UNL A   1      37.865  29.346  30.396  1.00  0.00     0.134 A 
ATOM     81  F   UNL A   1      39.251  29.556  27.057  1.00  0.00    -0.206 F 
ATOM     82  C   UNL A   1      37.043  29.813  27.798  1.00  0.00     0.040 A 
ATOM     83  C   UNL A   1      36.512  29.575  30.120  1.00  0.00     0.040 A 
ATOM     84  F   UNL A   1      38.170  29.046  31.668  1.00  0.00    -0.206 F 
ATOM     85  C   UNL A   1      36.094  29.796  28.814  1.00  0.00     0.006 A 
ENDBRANCH  57  78
BRANCH  69  86
ATOM     86  C   UNL A   1      44.109  28.074  32.580  1.00  0.00     0.057 A 
ATOM     87  C   UNL A   1      43.916  26.689  32.452  1.00  0.00     0.134 A 
ATOM     88  C   UNL A   1      44.222  28.575  33.880  1.00  0.00     0.134 A 
ATOM     89  F   UNL A   1      43.893  26.100  31.252  1.00  0.00    -0.206 F 
ATOM     90  C   UNL A   1      43.805  25.850  33.566  1.00  0.00     0.040 A 
ATOM     91  C   UNL A   1      44.145  27.744  35.000  1.00  0.00     0.040 A 
ATOM     92  F   UNL A   1      44.464  29.879  34.081  1.00  0.00    -0.206 F 
ATOM     93  C   UNL A   1      43.928  26.378  34.846  1.00  0.00     0.006 A 
ENDBRANCH  69  86
ENDBRANCH  43  44
ENDBRANCH  35  38
ENDBRANCH  33  34
ENDBRANCH  32  33
ENDBRANCH   1  32
TORSDOF 15
ENDMDL
