MODEL 1
REMARK VINA RESULT:     -13.0      0.000      0.000
REMARK SMILES O=C(CCC(=O)Nc1cccc2c1C(=O)c1ccccc1C2=O)NCCCNC(=O)c1ccc(-c2c3nc(c(-c4c(F)cccc4F)c4ccc([nH]4)c(-c4c(F)cccc4F)c4nc(c(-c5c(F)cccc5F)c5ccc2[nH]5)C=C4)C=C3)cc1
REMARK SMILES IDX 25 1 24 2 1 3 2 4 3 6 4 7 5 8 6 9 7 10 8 12 9 13 13 14 10 15
REMARK SMILES IDX 12 16 14 17 11 18 22 19 15 20 16 21 21 22 23 23 17 24 20 25
REMARK SMILES IDX 18 26 19 27 26 28 27 29 28 30 29 31 30 33 31 34 32 35 84 36
REMARK SMILES IDX 33 37 83 38 34 39 35 40 36 41 77 42 37 43 82 44 76 45 78 46
REMARK SMILES IDX 38 47 81 48 75 49 74 50 39 52 65 53 48 54 64 55 49 56 52 57
REMARK SMILES IDX 63 58 79 59 50 60 51 61 62 63 80 64 53 65 40 66 41 67 46 68
REMARK SMILES IDX 42 69 43 70 45 71 47 72 44 73 66 74 67 75 72 76 68 77 69 78
REMARK SMILES IDX 71 79 73 80 70 81 54 82 55 83 60 84 56 85 57 86 59 87 61 88
REMARK SMILES IDX 58 89
REMARK H PARENT 24 5 7 11 28 32 78 51 52 62
REMARK Flexibility Score: inf
ROOT
ATOM      1  C   UNL A   1      32.625  29.160  25.061  1.00  0.00     0.117 C 
ENDROOT
BRANCH   1   2
ATOM      2  N   UNL A   1      31.411  28.591  25.599  1.00  0.00    -0.356 N 
ATOM      3  O   UNL A   1      30.688  27.132  23.969  1.00  0.00    -0.275 OA
ATOM      4  C   UNL A   1      31.020  27.355  25.125  1.00  0.00     0.220 C 
ATOM      5  H   UNL A   1      30.881  29.068  26.278  1.00  0.00     0.163 HD
BRANCH   4   6
ATOM      6  C   UNL A   1      31.277  26.220  26.083  1.00  0.00     0.110 C 
BRANCH   6   7
ATOM      7  C   UNL A   1      30.663  24.943  25.483  1.00  0.00     0.110 C 
BRANCH   7   8
ATOM      8  C   UNL A   1      30.692  23.839  26.500  1.00  0.00     0.224 C 
ATOM      9  O   UNL A   1      29.711  23.687  27.245  1.00  0.00    -0.275 OA
ATOM     10  N   UNL A   1      31.691  22.943  26.679  1.00  0.00    -0.325 N 
ATOM     11  H   UNL A   1      31.427  22.297  27.373  1.00  0.00     0.169 HD
BRANCH  10  12
ATOM     12  C   UNL A   1      32.989  22.616  26.207  1.00  0.00     0.053 A 
ATOM     13  C   UNL A   1      33.878  23.694  26.429  1.00  0.00     0.027 A 
ATOM     14  C   UNL A   1      33.533  21.458  25.601  1.00  0.00     0.057 A 
ATOM     15  C   UNL A   1      35.245  23.605  26.183  1.00  0.00     0.003 A 
ATOM     16  C   UNL A   1      34.936  21.327  25.492  1.00  0.00     0.036 A 
ATOM     17  C   UNL A   1      32.887  20.649  24.531  1.00  0.00     0.196 C 
ATOM     18  C   UNL A   1      35.784  22.402  25.766  1.00  0.00     0.013 A 
ATOM     19  C   UNL A   1      35.541  20.057  25.010  1.00  0.00     0.194 C 
ATOM     20  O   UNL A   1      32.297  21.204  23.613  1.00  0.00    -0.288 OA
ATOM     21  C   UNL A   1      33.322  19.264  24.307  1.00  0.00     0.034 A 
ATOM     22  C   UNL A   1      34.653  18.965  24.570  1.00  0.00     0.034 A 
ATOM     23  O   UNL A   1      36.757  19.911  24.988  1.00  0.00    -0.289 OA
ATOM     24  C   UNL A   1      32.502  18.315  23.692  1.00  0.00     0.013 A 
ATOM     25  C   UNL A   1      35.149  17.684  24.310  1.00  0.00     0.013 A 
ATOM     26  C   UNL A   1      32.984  17.027  23.453  1.00  0.00     0.001 A 
ATOM     27  C   UNL A   1      34.303  16.708  23.775  1.00  0.00     0.001 A 
ENDBRANCH  10  12
ENDBRANCH   7   8
ENDBRANCH   6   7
ENDBRANCH   4   6
ENDBRANCH   1   2
BRANCH   1  28
ATOM     28  C   UNL A   1      33.915  28.902  25.798  1.00  0.00     0.042 C 
BRANCH  28  29
ATOM     29  C   UNL A   1      33.684  28.855  27.285  1.00  0.00     0.118 C 
BRANCH  29  30
ATOM     30  N   UNL A   1      33.766  30.165  27.937  1.00  0.00    -0.352 N 
ATOM     31  C   UNL A   1      34.856  30.762  28.529  1.00  0.00     0.251 C 
ATOM     32  H   UNL A   1      32.932  30.686  27.956  1.00  0.00     0.163 HD
ATOM     33  O   UNL A   1      34.759  31.840  29.087  1.00  0.00    -0.269 OA
BRANCH  31  34
ATOM     34  C   UNL A   1      36.128  30.015  28.532  1.00  0.00     0.039 A 
ATOM     35  C   UNL A   1      36.984  30.141  27.439  1.00  0.00     0.014 A 
ATOM     36  C   UNL A   1      36.528  29.334  29.681  1.00  0.00     0.014 A 
ATOM     37  C   UNL A   1      38.288  29.662  27.542  1.00  0.00     0.010 A 
ATOM     38  C   UNL A   1      37.860  29.001  29.835  1.00  0.00     0.010 A 
ATOM     39  C   UNL A   1      38.751  29.145  28.763  1.00  0.00    -0.014 A 
BRANCH  39  40
ATOM     40  C   UNL A   1      40.153  28.713  28.956  1.00  0.00     0.031 A 
ATOM     41  C   UNL A   1      41.145  29.689  29.526  1.00  0.00     0.074 A 
ATOM     42  C   UNL A   1      40.550  27.499  28.525  1.00  0.00     0.049 A 
ATOM     43  N   UNL A   1      42.443  29.582  29.633  1.00  0.00    -0.248 NA
ATOM     44  C   UNL A   1      40.611  30.984  29.984  1.00  0.00     0.031 C 
ATOM     45  C   UNL A   1      39.694  26.498  27.885  1.00  0.00     0.029 A 
ATOM     46  N   UNL A   1      41.787  26.908  28.551  1.00  0.00    -0.354 N 
ATOM     47  C   UNL A   1      42.878  30.807  30.124  1.00  0.00     0.074 A 
ATOM     48  C   UNL A   1      41.719  31.664  30.226  1.00  0.00     0.031 C 
ATOM     49  C   UNL A   1      40.422  25.404  27.615  1.00  0.00     0.029 A 
ATOM     50  C   UNL A   1      41.802  25.642  28.020  1.00  0.00     0.049 A 
ATOM     51  H   UNL A   1      42.587  27.350  28.915  1.00  0.00     0.167 HD
ATOM     52  C   UNL A   1      44.125  31.173  30.494  1.00  0.00     0.037 A 
ATOM     53  C   UNL A   1      42.823  24.776  27.876  1.00  0.00     0.037 A 
ATOM     54  C   UNL A   1      45.257  30.289  30.457  1.00  0.00     0.049 A 
ATOM     55  C   UNL A   1      44.193  25.187  28.339  1.00  0.00     0.074 A 
ATOM     56  C   UNL A   1      46.547  30.519  30.896  1.00  0.00     0.029 A 
ATOM     57  N   UNL A   1      45.223  28.994  29.959  1.00  0.00    -0.354 N 
ATOM     58  N   UNL A   1      44.579  26.323  28.868  1.00  0.00    -0.248 NA
ATOM     59  C   UNL A   1      45.267  24.197  28.186  1.00  0.00     0.031 C 
ATOM     60  C   UNL A   1      47.303  29.372  30.636  1.00  0.00     0.029 A 
ATOM     61  C   UNL A   1      46.475  28.415  30.069  1.00  0.00     0.049 A 
ATOM     62  H   UNL A   1      44.427  28.552  29.586  1.00  0.00     0.167 HD
ATOM     63  C   UNL A   1      45.934  26.180  29.128  1.00  0.00     0.074 A 
ATOM     64  C   UNL A   1      46.298  24.838  28.717  1.00  0.00     0.031 C 
ATOM     65  C   UNL A   1      46.804  27.076  29.656  1.00  0.00     0.037 A 
BRANCH  52  66
ATOM     66  C   UNL A   1      44.314  32.576  30.991  1.00  0.00     0.057 A 
ATOM     67  C   UNL A   1      44.249  32.892  32.356  1.00  0.00     0.134 A 
ATOM     68  C   UNL A   1      44.563  33.624  30.097  1.00  0.00     0.134 A 
ATOM     69  F   UNL A   1      43.993  31.937  33.263  1.00  0.00    -0.206 F 
ATOM     70  C   UNL A   1      44.392  34.204  32.810  1.00  0.00     0.040 A 
ATOM     71  C   UNL A   1      44.739  34.935  30.543  1.00  0.00     0.040 A 
ATOM     72  F   UNL A   1      44.638  33.392  28.778  1.00  0.00    -0.206 F 
ATOM     73  C   UNL A   1      44.644  35.229  31.901  1.00  0.00     0.006 A 
ENDBRANCH  52  66
BRANCH  53  74
ATOM     74  C   UNL A   1      42.583  23.429  27.300  1.00  0.00     0.057 A 
ATOM     75  C   UNL A   1      42.186  22.362  28.113  1.00  0.00     0.134 A 
ATOM     76  C   UNL A   1      42.744  23.173  25.933  1.00  0.00     0.134 A 
ATOM     77  F   UNL A   1      42.031  22.542  29.433  1.00  0.00    -0.206 F 
ATOM     78  C   UNL A   1      41.973  21.084  27.595  1.00  0.00     0.040 A 
ATOM     79  C   UNL A   1      42.513  21.904  25.396  1.00  0.00     0.040 A 
ATOM     80  F   UNL A   1      43.115  24.155  25.099  1.00  0.00    -0.206 F 
ATOM     81  C   UNL A   1      42.134  20.854  26.229  1.00  0.00     0.006 A 
ENDBRANCH  53  74
BRANCH  65  82
ATOM     82  C   UNL A   1      48.221  26.625  29.835  1.00  0.00     0.057 A 
ATOM     83  C   UNL A   1      48.637  25.953  30.990  1.00  0.00     0.134 A 
ATOM     84  C   UNL A   1      49.165  26.824  28.820  1.00  0.00     0.134 A 
ATOM     85  F   UNL A   1      47.781  25.745  32.001  1.00  0.00    -0.206 F 
ATOM     86  C   UNL A   1      49.951  25.509  31.137  1.00  0.00     0.040 A 
ATOM     87  C   UNL A   1      50.475  26.363  28.946  1.00  0.00     0.040 A 
ATOM     88  F   UNL A   1      48.824  27.454  27.685  1.00  0.00    -0.206 F 
ATOM     89  C   UNL A   1      50.872  25.707  30.109  1.00  0.00     0.006 A 
ENDBRANCH  65  82
ENDBRANCH  39  40
ENDBRANCH  31  34
ENDBRANCH  29  30
ENDBRANCH  28  29
ENDBRANCH   1  28
TORSDOF 13
ENDMDL
MODEL 2
REMARK VINA RESULT:     -13.0      4.749     10.957
REMARK SMILES O=C(CCC(=O)Nc1cccc2c1C(=O)c1ccccc1C2=O)NCCCNC(=O)c1ccc(-c2c3nc(c(-c4c(F)cccc4F)c4ccc([nH]4)c(-c4c(F)cccc4F)c4nc(c(-c5c(F)cccc5F)c5ccc2[nH]5)C=C4)C=C3)cc1
REMARK SMILES IDX 25 1 24 2 1 3 2 4 3 6 4 7 5 8 6 9 7 10 8 12 9 13 13 14 10 15
REMARK SMILES IDX 12 16 14 17 11 18 22 19 15 20 16 21 21 22 23 23 17 24 20 25
REMARK SMILES IDX 18 26 19 27 26 28 27 29 28 30 29 31 30 33 31 34 32 35 84 36
REMARK SMILES IDX 33 37 83 38 34 39 35 40 36 41 77 42 37 43 82 44 76 45 78 46
REMARK SMILES IDX 38 47 81 48 75 49 74 50 39 52 65 53 48 54 64 55 49 56 52 57
REMARK SMILES IDX 63 58 79 59 50 60 51 61 62 63 80 64 53 65 40 66 41 67 46 68
REMARK SMILES IDX 42 69 43 70 45 71 47 72 44 73 66 74 67 75 72 76 68 77 69 78
REMARK SMILES IDX 71 79 73 80 70 81 54 82 55 83 60 84 56 85 57 86 59 87 61 88
REMARK SMILES IDX 58 89
REMARK H PARENT 24 5 7 11 28 32 78 51 52 62
REMARK Flexibility Score: inf
ROOT
ATOM      1  C   UNL A   1      42.763  19.382  25.730  1.00  0.00     0.117 C 
ENDROOT
BRANCH   1   2
ATOM      2  N   UNL A   1      44.130  18.947  25.901  1.00  0.00    -0.356 N 
ATOM      3  O   UNL A   1      45.013  18.979  23.773  1.00  0.00    -0.275 OA
ATOM      4  C   UNL A   1      45.046  19.333  24.943  1.00  0.00     0.220 C 
ATOM      5  H   UNL A   1      44.398  18.395  26.671  1.00  0.00     0.163 HD
BRANCH   4   6
ATOM      6  C   UNL A   1      45.966  20.444  25.383  1.00  0.00     0.110 C 
BRANCH   6   7
ATOM      7  C   UNL A   1      46.079  21.453  24.228  1.00  0.00     0.110 C 
BRANCH   7   8
ATOM      8  C   UNL A   1      44.897  22.379  24.245  1.00  0.00     0.224 C 
ATOM      9  O   UNL A   1      44.047  22.279  23.346  1.00  0.00    -0.275 OA
ATOM     10  N   UNL A   1      44.633  23.321  25.181  1.00  0.00    -0.325 N 
ATOM     11  H   UNL A   1      43.768  23.744  24.979  1.00  0.00     0.169 HD
BRANCH  10  12
ATOM     12  C   UNL A   1      45.176  23.906  26.354  1.00  0.00     0.053 A 
ATOM     13  C   UNL A   1      44.231  23.867  27.406  1.00  0.00     0.027 A 
ATOM     14  C   UNL A   1      46.435  24.479  26.653  1.00  0.00     0.057 A 
ATOM     15  C   UNL A   1      44.536  24.255  28.707  1.00  0.00     0.003 A 
ATOM     16  C   UNL A   1      46.780  24.732  28.000  1.00  0.00     0.036 A 
ATOM     17  C   UNL A   1      47.202  25.407  25.776  1.00  0.00     0.196 C 
ATOM     18  C   UNL A   1      45.829  24.636  29.018  1.00  0.00     0.013 A 
ATOM     19  C   UNL A   1      48.152  25.181  28.358  1.00  0.00     0.194 C 
ATOM     20  O   UNL A   1      46.621  26.294  25.164  1.00  0.00    -0.288 OA
ATOM     21  C   UNL A   1      48.647  25.572  25.982  1.00  0.00     0.034 A 
ATOM     22  C   UNL A   1      49.124  25.436  27.279  1.00  0.00     0.034 A 
ATOM     23  O   UNL A   1      48.478  25.326  29.530  1.00  0.00    -0.289 OA
ATOM     24  C   UNL A   1      49.499  26.018  24.968  1.00  0.00     0.013 A 
ATOM     25  C   UNL A   1      50.477  25.651  27.555  1.00  0.00     0.013 A 
ATOM     26  C   UNL A   1      50.855  26.211  25.233  1.00  0.00     0.001 A 
ATOM     27  C   UNL A   1      51.347  26.013  26.523  1.00  0.00     0.001 A 
ENDBRANCH  10  12
ENDBRANCH   7   8
ENDBRANCH   6   7
ENDBRANCH   4   6
ENDBRANCH   1   2
BRANCH   1  28
ATOM     28  C   UNL A   1      42.183  20.317  26.762  1.00  0.00     0.042 C 
BRANCH  28  29
ATOM     29  C   UNL A   1      41.714  21.597  26.124  1.00  0.00     0.118 C 
BRANCH  29  30
ATOM     30  N   UNL A   1      40.255  21.730  26.070  1.00  0.00    -0.352 N 
ATOM     31  C   UNL A   1      39.485  22.841  26.333  1.00  0.00     0.251 C 
ATOM     32  H   UNL A   1      39.761  20.919  25.814  1.00  0.00     0.163 HD
ATOM     33  O   UNL A   1      38.268  22.786  26.302  1.00  0.00    -0.269 OA
BRANCH  31  34
ATOM     34  C   UNL A   1      40.181  24.079  26.728  1.00  0.00     0.039 A 
ATOM     35  C   UNL A   1      40.373  25.077  25.773  1.00  0.00     0.014 A 
ATOM     36  C   UNL A   1      40.487  24.303  28.070  1.00  0.00     0.014 A 
ATOM     37  C   UNL A   1      40.784  26.342  26.189  1.00  0.00     0.010 A 
ATOM     38  C   UNL A   1      40.743  25.592  28.495  1.00  0.00     0.010 A 
ATOM     39  C   UNL A   1      40.911  26.622  27.560  1.00  0.00    -0.014 A 
BRANCH  39  40
ATOM     40  C   UNL A   1      41.249  27.973  28.060  1.00  0.00     0.031 A 
ATOM     41  C   UNL A   1      42.690  28.404  28.079  1.00  0.00     0.074 A 
ATOM     42  C   UNL A   1      40.289  28.757  28.587  1.00  0.00     0.049 A 
ATOM     43  N   UNL A   1      43.229  29.468  28.615  1.00  0.00    -0.248 NA
ATOM     44  C   UNL A   1      43.665  27.485  27.464  1.00  0.00     0.031 C 
ATOM     45  C   UNL A   1      38.869  28.412  28.693  1.00  0.00     0.029 A 
ATOM     46  N   UNL A   1      40.368  30.005  29.147  1.00  0.00    -0.354 N 
ATOM     47  C   UNL A   1      44.599  29.319  28.441  1.00  0.00     0.074 A 
ATOM     48  C   UNL A   1      44.815  28.034  27.816  1.00  0.00     0.031 C 
ATOM     49  C   UNL A   1      38.206  29.440  29.247  1.00  0.00     0.029 A 
ATOM     50  C   UNL A   1      39.158  30.495  29.574  1.00  0.00     0.049 A 
ATOM     51  H   UNL A   1      41.212  30.504  29.235  1.00  0.00     0.167 HD
ATOM     52  C   UNL A   1      45.587  30.192  28.739  1.00  0.00     0.037 A 
ATOM     53  C   UNL A   1      38.859  31.665  30.168  1.00  0.00     0.037 A 
ATOM     54  C   UNL A   1      45.354  31.497  29.292  1.00  0.00     0.049 A 
ATOM     55  C   UNL A   1      39.968  32.641  30.446  1.00  0.00     0.074 A 
ATOM     56  C   UNL A   1      46.268  32.503  29.546  1.00  0.00     0.029 A 
ATOM     57  N   UNL A   1      44.107  31.979  29.665  1.00  0.00    -0.354 N 
ATOM     58  N   UNL A   1      41.252  32.520  30.212  1.00  0.00    -0.248 NA
ATOM     59  C   UNL A   1      39.586  33.916  31.068  1.00  0.00     0.031 C 
ATOM     60  C   UNL A   1      45.577  33.585  30.102  1.00  0.00     0.029 A 
ATOM     61  C   UNL A   1      44.229  33.265  30.159  1.00  0.00     0.049 A 
ATOM     62  H   UNL A   1      43.262  31.480  29.588  1.00  0.00     0.167 HD
ATOM     63  C   UNL A   1      41.831  33.706  30.640  1.00  0.00     0.074 A 
ATOM     64  C   UNL A   1      40.753  34.543  31.130  1.00  0.00     0.031 C 
ATOM     65  C   UNL A   1      43.136  34.073  30.634  1.00  0.00     0.037 A 
BRANCH  52  66
ATOM     66  C   UNL A   1      46.995  29.767  28.445  1.00  0.00     0.057 A 
ATOM     67  C   UNL A   1      47.556  29.899  27.167  1.00  0.00     0.134 A 
ATOM     68  C   UNL A   1      47.801  29.219  29.450  1.00  0.00     0.134 A 
ATOM     69  F   UNL A   1      46.831  30.398  26.155  1.00  0.00    -0.206 F 
ATOM     70  C   UNL A   1      48.856  29.471  26.892  1.00  0.00     0.040 A 
ATOM     71  C   UNL A   1      49.112  28.816  29.194  1.00  0.00     0.040 A 
ATOM     72  F   UNL A   1      47.328  29.064  30.696  1.00  0.00    -0.206 F 
ATOM     73  C   UNL A   1      49.640  28.933  27.910  1.00  0.00     0.006 A 
ENDBRANCH  52  66
BRANCH  53  74
ATOM     74  C   UNL A   1      37.451  31.992  30.506  1.00  0.00     0.057 A 
ATOM     75  C   UNL A   1      36.626  32.647  29.587  1.00  0.00     0.134 A 
ATOM     76  C   UNL A   1      36.897  31.661  31.749  1.00  0.00     0.134 A 
ATOM     77  F   UNL A   1      37.104  33.004  28.386  1.00  0.00    -0.206 F 
ATOM     78  C   UNL A   1      35.305  32.979  29.893  1.00  0.00     0.040 A 
ATOM     79  C   UNL A   1      35.571  31.967  32.061  1.00  0.00     0.040 A 
ATOM     80  F   UNL A   1      37.633  31.025  32.672  1.00  0.00    -0.206 F 
ATOM     81  C   UNL A   1      34.773  32.634  31.134  1.00  0.00     0.006 A 
ENDBRANCH  53  74
BRANCH  65  82
ATOM     82  C   UNL A   1      43.461  35.440  31.154  1.00  0.00     0.057 A 
ATOM     83  C   UNL A   1      43.669  35.676  32.518  1.00  0.00     0.134 A 
ATOM     84  C   UNL A   1      43.614  36.519  30.274  1.00  0.00     0.134 A 
ATOM     85  F   UNL A   1      43.524  34.685  33.409  1.00  0.00    -0.206 F 
ATOM     86  C   UNL A   1      44.000  36.946  32.992  1.00  0.00     0.040 A 
ATOM     87  C   UNL A   1      43.968  37.786  30.734  1.00  0.00     0.040 A 
ATOM     88  F   UNL A   1      43.436  36.353  28.955  1.00  0.00    -0.206 F 
ATOM     89  C   UNL A   1      44.159  38.003  32.097  1.00  0.00     0.006 A 
ENDBRANCH  65  82
ENDBRANCH  39  40
ENDBRANCH  31  34
ENDBRANCH  29  30
ENDBRANCH  28  29
ENDBRANCH   1  28
TORSDOF 13
ENDMDL
MODEL 3
REMARK VINA RESULT:     -12.9      4.648     10.490
REMARK SMILES O=C(CCC(=O)Nc1cccc2c1C(=O)c1ccccc1C2=O)NCCCNC(=O)c1ccc(-c2c3nc(c(-c4c(F)cccc4F)c4ccc([nH]4)c(-c4c(F)cccc4F)c4nc(c(-c5c(F)cccc5F)c5ccc2[nH]5)C=C4)C=C3)cc1
REMARK SMILES IDX 25 1 24 2 1 3 2 4 3 6 4 7 5 8 6 9 7 10 8 12 9 13 13 14 10 15
REMARK SMILES IDX 12 16 14 17 11 18 22 19 15 20 16 21 21 22 23 23 17 24 20 25
REMARK SMILES IDX 18 26 19 27 26 28 27 29 28 30 29 31 30 33 31 34 32 35 84 36
REMARK SMILES IDX 33 37 83 38 34 39 35 40 36 41 77 42 37 43 82 44 76 45 78 46
REMARK SMILES IDX 38 47 81 48 75 49 74 50 39 52 65 53 48 54 64 55 49 56 52 57
REMARK SMILES IDX 63 58 79 59 50 60 51 61 62 63 80 64 53 65 40 66 41 67 46 68
REMARK SMILES IDX 42 69 43 70 45 71 47 72 44 73 66 74 67 75 72 76 68 77 69 78
REMARK SMILES IDX 71 79 73 80 70 81 54 82 55 83 60 84 56 85 57 86 59 87 61 88
REMARK SMILES IDX 58 89
REMARK H PARENT 24 5 7 11 28 32 78 51 52 62
REMARK Flexibility Score: inf
ROOT
ATOM      1  C   UNL A   1      45.156  20.191  24.136  1.00  0.00     0.117 C 
ENDROOT
BRANCH   1   2
ATOM      2  N   UNL A   1      46.201  20.773  24.947  1.00  0.00    -0.356 N 
ATOM      3  O   UNL A   1      46.905  22.607  23.744  1.00  0.00    -0.275 OA
ATOM      4  C   UNL A   1      46.467  22.116  24.775  1.00  0.00     0.220 C 
ATOM      5  H   UNL A   1      46.705  20.232  25.597  1.00  0.00     0.163 HD
BRANCH   4   6
ATOM      6  C   UNL A   1      45.934  22.995  25.878  1.00  0.00     0.110 C 
BRANCH   6   7
ATOM      7  C   UNL A   1      45.609  24.372  25.273  1.00  0.00     0.110 C 
BRANCH   7   8
ATOM      8  C   UNL A   1      44.164  24.420  24.867  1.00  0.00     0.224 C 
ATOM      9  O   UNL A   1      43.652  23.408  24.364  1.00  0.00    -0.275 OA
ATOM     10  N   UNL A   1      43.324  25.471  25.022  1.00  0.00    -0.325 N 
ATOM     11  H   UNL A   1      42.423  25.213  24.722  1.00  0.00     0.169 HD
BRANCH  10  12
ATOM     12  C   UNL A   1      43.299  26.817  25.470  1.00  0.00     0.053 A 
ATOM     13  C   UNL A   1      41.977  27.321  25.435  1.00  0.00     0.027 A 
ATOM     14  C   UNL A   1      44.302  27.699  25.937  1.00  0.00     0.057 A 
ATOM     15  C   UNL A   1      41.634  28.572  25.939  1.00  0.00     0.003 A 
ATOM     16  C   UNL A   1      43.925  28.902  26.576  1.00  0.00     0.036 A 
ATOM     17  C   UNL A   1      45.657  27.871  25.344  1.00  0.00     0.196 C 
ATOM     18  C   UNL A   1      42.600  29.342  26.562  1.00  0.00     0.013 A 
ATOM     19  C   UNL A   1      44.948  29.768  27.221  1.00  0.00     0.194 C 
ATOM     20  O   UNL A   1      45.796  27.896  24.128  1.00  0.00    -0.288 OA
ATOM     21  C   UNL A   1      46.733  28.457  26.153  1.00  0.00     0.034 A 
ATOM     22  C   UNL A   1      46.371  29.395  27.111  1.00  0.00     0.034 A 
ATOM     23  O   UNL A   1      44.618  30.771  27.843  1.00  0.00    -0.289 OA
ATOM     24  C   UNL A   1      48.084  28.231  25.875  1.00  0.00     0.013 A 
ATOM     25  C   UNL A   1      47.353  30.044  27.866  1.00  0.00     0.013 A 
ATOM     26  C   UNL A   1      49.068  28.857  26.641  1.00  0.00     0.001 A 
ATOM     27  C   UNL A   1      48.702  29.753  27.646  1.00  0.00     0.001 A 
ENDBRANCH  10  12
ENDBRANCH   7   8
ENDBRANCH   6   7
ENDBRANCH   4   6
ENDBRANCH   1   2
BRANCH   1  28
ATOM     28  C   UNL A   1      44.317  19.094  24.743  1.00  0.00     0.042 C 
BRANCH  28  29
ATOM     29  C   UNL A   1      43.327  19.656  25.727  1.00  0.00     0.118 C 
BRANCH  29  30
ATOM     30  N   UNL A   1      41.955  19.183  25.522  1.00  0.00    -0.352 N 
ATOM     31  C   UNL A   1      40.776  19.765  25.930  1.00  0.00     0.251 C 
ATOM     32  H   UNL A   1      41.864  18.337  25.028  1.00  0.00     0.163 HD
ATOM     33  O   UNL A   1      39.704  19.222  25.736  1.00  0.00    -0.269 OA
BRANCH  31  34
ATOM     34  C   UNL A   1      40.862  21.032  26.681  1.00  0.00     0.039 A 
ATOM     35  C   UNL A   1      41.162  20.987  28.042  1.00  0.00     0.014 A 
ATOM     36  C   UNL A   1      40.808  22.246  25.999  1.00  0.00     0.014 A 
ATOM     37  C   UNL A   1      41.506  22.167  28.699  1.00  0.00     0.010 A 
ATOM     38  C   UNL A   1      41.297  23.383  26.612  1.00  0.00     0.010 A 
ATOM     39  C   UNL A   1      41.634  23.361  27.972  1.00  0.00    -0.014 A 
BRANCH  39  40
ATOM     40  C   UNL A   1      42.091  24.622  28.600  1.00  0.00     0.031 A 
ATOM     41  C   UNL A   1      41.113  25.753  28.759  1.00  0.00     0.074 A 
ATOM     42  C   UNL A   1      43.389  24.782  28.923  1.00  0.00     0.049 A 
ATOM     43  N   UNL A   1      41.329  26.987  29.131  1.00  0.00    -0.248 NA
ATOM     44  C   UNL A   1      39.712  25.474  28.394  1.00  0.00     0.031 C 
ATOM     45  C   UNL A   1      44.444  23.783  28.741  1.00  0.00     0.029 A 
ATOM     46  N   UNL A   1      44.044  25.859  29.461  1.00  0.00    -0.354 N 
ATOM     47  C   UNL A   1      40.106  27.634  28.999  1.00  0.00     0.074 A 
ATOM     48  C   UNL A   1      39.172  26.680  28.447  1.00  0.00     0.031 C 
ATOM     49  C   UNL A   1      45.605  24.279  29.196  1.00  0.00     0.029 A 
ATOM     50  C   UNL A   1      45.386  25.645  29.659  1.00  0.00     0.049 A 
ATOM     51  H   UNL A   1      43.595  26.706  29.685  1.00  0.00     0.167 HD
ATOM     52  C   UNL A   1      39.781  28.900  29.344  1.00  0.00     0.037 A 
ATOM     53  C   UNL A   1      46.329  26.466  30.156  1.00  0.00     0.037 A 
ATOM     54  C   UNL A   1      40.698  29.817  29.960  1.00  0.00     0.049 A 
ATOM     55  C   UNL A   1      45.934  27.853  30.578  1.00  0.00     0.074 A 
ATOM     56  C   UNL A   1      40.455  31.091  30.439  1.00  0.00     0.029 A 
ATOM     57  N   UNL A   1      42.040  29.546  30.192  1.00  0.00    -0.354 N 
ATOM     58  N   UNL A   1      44.759  28.432  30.515  1.00  0.00    -0.248 NA
ATOM     59  C   UNL A   1      46.994  28.701  31.141  1.00  0.00     0.031 C 
ATOM     60  C   UNL A   1      41.658  31.603  30.936  1.00  0.00     0.029 A 
ATOM     61  C   UNL A   1      42.641  30.634  30.798  1.00  0.00     0.049 A 
ATOM     62  H   UNL A   1      42.494  28.704  29.962  1.00  0.00     0.167 HD
ATOM     63  C   UNL A   1      44.931  29.702  31.045  1.00  0.00     0.074 A 
ATOM     64  C   UNL A   1      46.322  29.803  31.443  1.00  0.00     0.031 C 
ATOM     65  C   UNL A   1      44.026  30.701  31.187  1.00  0.00     0.037 A 
BRANCH  52  66
ATOM     66  C   UNL A   1      38.372  29.345  29.084  1.00  0.00     0.057 A 
ATOM     67  C   UNL A   1      37.403  29.363  30.097  1.00  0.00     0.134 A 
ATOM     68  C   UNL A   1      37.977  29.761  27.807  1.00  0.00     0.134 A 
ATOM     69  F   UNL A   1      37.710  28.958  31.339  1.00  0.00    -0.206 F 
ATOM     70  C   UNL A   1      36.086  29.746  29.842  1.00  0.00     0.040 A 
ATOM     71  C   UNL A   1      36.670  30.176  27.547  1.00  0.00     0.040 A 
ATOM     72  F   UNL A   1      38.853  29.769  26.791  1.00  0.00    -0.206 F 
ATOM     73  C   UNL A   1      35.718  30.160  28.564  1.00  0.00     0.006 A 
ENDBRANCH  52  66
BRANCH  53  74
ATOM     74  C   UNL A   1      47.726  25.989  30.313  1.00  0.00     0.057 A 
ATOM     75  C   UNL A   1      48.559  25.829  29.201  1.00  0.00     0.134 A 
ATOM     76  C   UNL A   1      48.263  25.681  31.570  1.00  0.00     0.134 A 
ATOM     77  F   UNL A   1      48.098  26.092  27.969  1.00  0.00    -0.206 F 
ATOM     78  C   UNL A   1      49.869  25.365  29.326  1.00  0.00     0.040 A 
ATOM     79  C   UNL A   1      49.579  25.237  31.713  1.00  0.00     0.040 A 
ATOM     80  F   UNL A   1      47.519  25.821  32.676  1.00  0.00    -0.206 F 
ATOM     81  C   UNL A   1      50.383  25.071  30.588  1.00  0.00     0.006 A 
ENDBRANCH  53  74
BRANCH  65  82
ATOM     82  C   UNL A   1      44.508  31.972  31.815  1.00  0.00     0.057 A 
ATOM     83  C   UNL A   1      45.013  33.026  31.044  1.00  0.00     0.134 A 
ATOM     84  C   UNL A   1      44.420  32.161  33.200  1.00  0.00     0.134 A 
ATOM     85  F   UNL A   1      45.134  32.899  29.715  1.00  0.00    -0.206 F 
ATOM     86  C   UNL A   1      45.433  34.219  31.633  1.00  0.00     0.040 A 
ATOM     87  C   UNL A   1      44.814  33.358  33.796  1.00  0.00     0.040 A 
ATOM     88  F   UNL A   1      43.935  31.191  33.991  1.00  0.00    -0.206 F 
ATOM     89  C   UNL A   1      45.326  34.390  33.013  1.00  0.00     0.006 A 
ENDBRANCH  65  82
ENDBRANCH  39  40
ENDBRANCH  31  34
ENDBRANCH  29  30
ENDBRANCH  28  29
ENDBRANCH   1  28
TORSDOF 13
ENDMDL
