MODEL 1
REMARK VINA RESULT:     -11.7      0.000      0.000
REMARK SMILES Cc1cc(C(=O)N[C@H]2C=C[C@@H](C(=O)NCCCNC(=O)c3ccc(-c4c5nc(c(-c6c(F)cccc6F)c6ccc([nH]6)c(-c6c(F)cccc6F)c6nc(c(-c7c(F)cccc7F)c7ccc4[nH]7)C=C6)C=C5)cc3)C2)no1
REMARK SMILES IDX 16 1 15 2 14 3 12 4 13 5 11 7 8 8 9 9 75 10 10 11 7 12 5 13
REMARK SMILES IDX 6 14 4 16 1 17 2 18 3 19 77 20 76 21 17 22 18 23 19 24 20 26
REMARK SMILES IDX 21 27 22 28 74 29 23 30 73 31 24 32 25 33 26 34 67 35 27 36
REMARK SMILES IDX 72 37 66 38 68 39 28 40 71 41 65 42 64 43 29 45 55 46 38 47
REMARK SMILES IDX 54 48 39 49 42 50 53 51 69 52 40 53 41 54 52 56 70 57 43 58
REMARK SMILES IDX 30 59 31 60 36 61 32 62 33 63 35 64 37 65 34 66 56 67 57 68
REMARK SMILES IDX 62 69 58 70 59 71 61 72 63 73 60 74 44 75 45 76 50 77 46 78
REMARK SMILES IDX 47 79 49 80 51 81 48 82
REMARK H PARENT 14 6 7 15 18 25 68 44 42 55
REMARK Flexibility Score: inf
ROOT
ATOM      1  C   UNL A   1      37.919  19.597  25.001  1.00  0.00     0.042 C 
ENDROOT
BRANCH   1   2
ATOM      2  C   UNL A   1      36.875  20.686  24.798  1.00  0.00     0.117 C 
BRANCH   2   3
ATOM      3  N   UNL A   1      35.560  20.267  25.258  1.00  0.00    -0.356 N 
ATOM      4  C   UNL A   1      34.378  20.936  25.343  1.00  0.00     0.227 C 
ATOM      5  O   UNL A   1      33.412  20.316  25.800  1.00  0.00    -0.274 OA
ATOM      6  H   UNL A   1      35.519  19.332  25.562  1.00  0.00     0.163 HD
BRANCH   4   7
ATOM      7  C   UNL A   1      34.210  22.385  24.886  1.00  0.00     0.103 C 
ATOM      8  C   UNL A   1      32.560  24.188  25.146  1.00  0.00     0.106 C 
ATOM      9  C   UNL A   1      33.685  24.300  26.126  1.00  0.00    -0.006 C 
ATOM     10  C   UNL A   1      32.778  22.794  24.528  1.00  0.00     0.047 C 
ATOM     11  C   UNL A   1      34.608  23.351  25.953  1.00  0.00    -0.016 C 
BRANCH   8  12
ATOM     12  N   UNL A   1      31.263  24.310  25.780  1.00  0.00    -0.344 N 
ATOM     13  C   UNL A   1      30.490  25.424  26.036  1.00  0.00     0.273 C 
ATOM     14  O   UNL A   1      29.366  25.239  26.502  1.00  0.00    -0.267 OA
ATOM     15  H   UNL A   1      30.870  23.458  26.079  1.00  0.00     0.164 HD
BRANCH  13  16
ATOM     16  C   UNL A   1      31.054  26.757  25.820  1.00  0.00     0.171 A 
ATOM     17  C   UNL A   1      32.142  30.184  26.529  1.00  0.00     0.091 C 
ATOM     18  C   UNL A   1      31.779  28.823  26.098  1.00  0.00     0.134 A 
ATOM     19  C   UNL A   1      31.763  27.600  26.718  1.00  0.00     0.082 A 
ATOM     20  O   UNL A   1      31.283  28.692  24.841  1.00  0.00    -0.361 OA
ATOM     21  N   UNL A   1      30.847  27.394  24.654  1.00  0.00    -0.074 NA
ENDBRANCH  13  16
ENDBRANCH   8  12
ENDBRANCH   4   7
ENDBRANCH   2   3
ENDBRANCH   1   2
BRANCH   1  22
ATOM     22  C   UNL A   1      39.156  20.076  25.747  1.00  0.00     0.118 C 
BRANCH  22  23
ATOM     23  N   UNL A   1      40.174  19.043  25.865  1.00  0.00    -0.352 N 
ATOM     24  C   UNL A   1      41.525  19.168  26.077  1.00  0.00     0.251 C 
ATOM     25  H   UNL A   1      39.846  18.119  25.778  1.00  0.00     0.163 HD
ATOM     26  O   UNL A   1      42.255  18.187  25.974  1.00  0.00    -0.269 OA
BRANCH  24  27
ATOM     27  C   UNL A   1      42.101  20.486  26.413  1.00  0.00     0.039 A 
ATOM     28  C   UNL A   1      42.516  21.327  25.377  1.00  0.00     0.014 A 
ATOM     29  C   UNL A   1      42.244  20.888  27.743  1.00  0.00     0.014 A 
ATOM     30  C   UNL A   1      43.017  22.597  25.674  1.00  0.00     0.010 A 
ATOM     31  C   UNL A   1      42.668  22.180  28.034  1.00  0.00     0.010 A 
ATOM     32  C   UNL A   1      43.068  23.044  27.003  1.00  0.00    -0.014 A 
BRANCH  32  33
ATOM     33  C   UNL A   1      43.557  24.400  27.348  1.00  0.00     0.031 A 
ATOM     34  C   UNL A   1      42.585  25.446  27.821  1.00  0.00     0.074 A 
ATOM     35  C   UNL A   1      44.852  24.715  27.160  1.00  0.00     0.049 A 
ATOM     36  N   UNL A   1      42.788  26.717  28.059  1.00  0.00    -0.248 NA
ATOM     37  C   UNL A   1      41.194  25.012  28.022  1.00  0.00     0.031 C 
ATOM     38  C   UNL A   1      45.885  23.803  26.665  1.00  0.00     0.029 A 
ATOM     39  N   UNL A   1      45.519  25.899  27.350  1.00  0.00    -0.354 N 
ATOM     40  C   UNL A   1      41.547  27.237  28.407  1.00  0.00     0.074 A 
ATOM     41  C   UNL A   1      40.591  26.156  28.308  1.00  0.00     0.031 C 
ATOM     42  C   UNL A   1      47.057  24.455  26.611  1.00  0.00     0.029 A 
ATOM     43  C   UNL A   1      46.853  25.838  27.030  1.00  0.00     0.049 A 
ATOM     44  H   UNL A   1      45.083  26.716  27.686  1.00  0.00     0.167 HD
ATOM     45  C   UNL A   1      41.237  28.497  28.793  1.00  0.00     0.037 A 
ATOM     46  C   UNL A   1      47.801  26.792  27.064  1.00  0.00     0.037 A 
ATOM     47  C   UNL A   1      42.196  29.558  28.936  1.00  0.00     0.049 A 
ATOM     48  C   UNL A   1      47.436  28.178  27.517  1.00  0.00     0.074 A 
ATOM     49  C   UNL A   1      41.993  30.849  29.389  1.00  0.00     0.029 A 
ATOM     50  N   UNL A   1      43.545  29.446  28.636  1.00  0.00    -0.354 N 
ATOM     51  N   UNL A   1      46.269  28.643  27.893  1.00  0.00    -0.248 NA
ATOM     52  C   UNL A   1      48.518  29.171  27.553  1.00  0.00     0.031 C 
ATOM     53  C   UNL A   1      43.215  31.528  29.334  1.00  0.00     0.029 A 
ATOM     54  C   UNL A   1      44.184  30.648  28.881  1.00  0.00     0.049 A 
ATOM     55  H   UNL A   1      43.982  28.631  28.298  1.00  0.00     0.167 HD
ATOM     56  C   UNL A   1      46.482  29.971  28.237  1.00  0.00     0.074 A 
ATOM     57  C   UNL A   1      47.891  30.236  28.032  1.00  0.00     0.031 C 
ATOM     58  C   UNL A   1      45.591  30.888  28.684  1.00  0.00     0.037 A 
BRANCH  45  59
ATOM     59  C   UNL A   1      39.797  28.790  29.095  1.00  0.00     0.057 A 
ATOM     60  C   UNL A   1      39.274  28.669  30.389  1.00  0.00     0.134 A 
ATOM     61  C   UNL A   1      38.929  29.224  28.085  1.00  0.00     0.134 A 
ATOM     62  F   UNL A   1      40.049  28.245  31.398  1.00  0.00    -0.206 F 
ATOM     63  C   UNL A   1      37.934  28.943  30.663  1.00  0.00     0.040 A 
ATOM     64  C   UNL A   1      37.592  29.525  28.351  1.00  0.00     0.040 A 
ATOM     65  F   UNL A   1      39.366  29.364  26.825  1.00  0.00    -0.206 F 
ATOM     66  C   UNL A   1      37.089  29.378  29.642  1.00  0.00     0.006 A 
ENDBRANCH  45  59
BRANCH  46  67
ATOM     67  C   UNL A   1      49.198  26.463  26.686  1.00  0.00     0.057 A 
ATOM     68  C   UNL A   1      49.658  26.682  25.383  1.00  0.00     0.134 A 
ATOM     69  C   UNL A   1      50.101  25.924  27.610  1.00  0.00     0.134 A 
ATOM     70  F   UNL A   1      48.832  27.179  24.450  1.00  0.00    -0.206 F 
ATOM     71  C   UNL A   1      50.963  26.362  25.005  1.00  0.00     0.040 A 
ATOM     72  C   UNL A   1      51.414  25.620  27.251  1.00  0.00     0.040 A 
ATOM     73  F   UNL A   1      49.720  25.697  28.875  1.00  0.00    -0.206 F 
ATOM     74  C   UNL A   1      51.847  25.833  25.944  1.00  0.00     0.006 A 
ENDBRANCH  46  67
BRANCH  58  75
ATOM     75  C   UNL A   1      46.118  32.250  29.018  1.00  0.00     0.057 A 
ATOM     76  C   UNL A   1      46.619  32.556  30.289  1.00  0.00     0.134 A 
ATOM     77  C   UNL A   1      46.165  33.254  28.042  1.00  0.00     0.134 A 
ATOM     78  F   UNL A   1      46.588  31.641  31.269  1.00  0.00    -0.206 F 
ATOM     79  C   UNL A   1      47.135  33.819  30.583  1.00  0.00     0.040 A 
ATOM     80  C   UNL A   1      46.698  34.513  28.317  1.00  0.00     0.040 A 
ATOM     81  F   UNL A   1      45.707  33.020  26.803  1.00  0.00    -0.206 F 
ATOM     82  C   UNL A   1      47.180  34.799  29.593  1.00  0.00     0.006 A 
ENDBRANCH  58  75
ENDBRANCH  32  33
ENDBRANCH  24  27
ENDBRANCH  22  23
ENDBRANCH   1  22
TORSDOF 12
ENDMDL
MODEL 2
REMARK VINA RESULT:     -11.7      1.951      6.494
REMARK SMILES Cc1cc(C(=O)N[C@H]2C=C[C@@H](C(=O)NCCCNC(=O)c3ccc(-c4c5nc(c(-c6c(F)cccc6F)c6ccc([nH]6)c(-c6c(F)cccc6F)c6nc(c(-c7c(F)cccc7F)c7ccc4[nH]7)C=C6)C=C5)cc3)C2)no1
REMARK SMILES IDX 16 1 15 2 14 3 12 4 13 5 11 7 8 8 9 9 75 10 10 11 7 12 5 13
REMARK SMILES IDX 6 14 4 16 1 17 2 18 3 19 77 20 76 21 17 22 18 23 19 24 20 26
REMARK SMILES IDX 21 27 22 28 74 29 23 30 73 31 24 32 25 33 26 34 67 35 27 36
REMARK SMILES IDX 72 37 66 38 68 39 28 40 71 41 65 42 64 43 29 45 55 46 38 47
REMARK SMILES IDX 54 48 39 49 42 50 53 51 69 52 40 53 41 54 52 56 70 57 43 58
REMARK SMILES IDX 30 59 31 60 36 61 32 62 33 63 35 64 37 65 34 66 56 67 57 68
REMARK SMILES IDX 62 69 58 70 59 71 61 72 63 73 60 74 44 75 45 76 50 77 46 78
REMARK SMILES IDX 47 79 49 80 51 81 48 82
REMARK H PARENT 14 6 7 15 18 25 68 44 42 55
REMARK Flexibility Score: inf
ROOT
ATOM      1  C   UNL A   1      37.491  19.590  25.009  1.00  0.00     0.042 C 
ENDROOT
BRANCH   1   2
ATOM      2  C   UNL A   1      36.347  20.572  24.792  1.00  0.00     0.117 C 
BRANCH   2   3
ATOM      3  N   UNL A   1      35.644  20.865  26.030  1.00  0.00    -0.356 N 
ATOM      4  C   UNL A   1      34.742  21.834  26.349  1.00  0.00     0.227 C 
ATOM      5  O   UNL A   1      34.319  21.849  27.509  1.00  0.00    -0.274 OA
ATOM      6  H   UNL A   1      35.857  20.253  26.770  1.00  0.00     0.163 HD
BRANCH   4   7
ATOM      7  C   UNL A   1      34.240  22.864  25.337  1.00  0.00     0.103 C 
ATOM      8  C   UNL A   1      33.012  24.993  25.376  1.00  0.00     0.106 C 
ATOM      9  C   UNL A   1      34.494  25.191  25.310  1.00  0.00    -0.006 C 
ATOM     10  C   UNL A   1      32.877  23.486  25.662  1.00  0.00     0.047 C 
ATOM     11  C   UNL A   1      35.160  24.036  25.238  1.00  0.00    -0.016 C 
BRANCH   8  12
ATOM     12  N   UNL A   1      32.394  25.804  26.405  1.00  0.00    -0.344 N 
ATOM     13  C   UNL A   1      31.398  26.755  26.322  1.00  0.00     0.273 C 
ATOM     14  O   UNL A   1      30.978  27.231  27.377  1.00  0.00    -0.267 OA
ATOM     15  H   UNL A   1      32.743  25.651  27.314  1.00  0.00     0.164 HD
BRANCH  13  16
ATOM     16  C   UNL A   1      30.944  27.208  25.007  1.00  0.00     0.171 A 
ATOM     17  C   UNL A   1      30.123  29.479  22.249  1.00  0.00     0.091 C 
ATOM     18  C   UNL A   1      30.425  28.443  23.252  1.00  0.00     0.134 A 
ATOM     19  C   UNL A   1      31.385  28.308  24.223  1.00  0.00     0.082 A 
ATOM     20  O   UNL A   1      29.566  27.395  23.327  1.00  0.00    -0.361 OA
ATOM     21  N   UNL A   1      29.899  26.606  24.411  1.00  0.00    -0.074 NA
ENDBRANCH  13  16
ENDBRANCH   8  12
ENDBRANCH   4   7
ENDBRANCH   2   3
ENDBRANCH   1   2
BRANCH   1  22
ATOM     22  C   UNL A   1      38.743  20.238  25.581  1.00  0.00     0.118 C 
BRANCH  22  23
ATOM     23  N   UNL A   1      39.847  19.298  25.717  1.00  0.00    -0.352 N 
ATOM     24  C   UNL A   1      41.149  19.528  26.087  1.00  0.00     0.251 C 
ATOM     25  H   UNL A   1      39.627  18.360  25.512  1.00  0.00     0.163 HD
ATOM     26  O   UNL A   1      41.984  18.636  25.978  1.00  0.00    -0.269 OA
BRANCH  24  27
ATOM     27  C   UNL A   1      41.548  20.854  26.602  1.00  0.00     0.039 A 
ATOM     28  C   UNL A   1      42.097  21.785  25.716  1.00  0.00     0.014 A 
ATOM     29  C   UNL A   1      41.393  21.176  27.952  1.00  0.00     0.014 A 
ATOM     30  C   UNL A   1      42.434  23.062  26.174  1.00  0.00     0.010 A 
ATOM     31  C   UNL A   1      41.655  22.469  28.389  1.00  0.00     0.010 A 
ATOM     32  C   UNL A   1      42.187  23.422  27.508  1.00  0.00    -0.014 A 
BRANCH  32  33
ATOM     33  C   UNL A   1      42.496  24.781  28.015  1.00  0.00     0.031 A 
ATOM     34  C   UNL A   1      43.901  25.121  28.429  1.00  0.00     0.074 A 
ATOM     35  C   UNL A   1      41.507  25.679  28.178  1.00  0.00     0.049 A 
ATOM     36  N   UNL A   1      44.355  26.205  29.004  1.00  0.00    -0.248 NA
ATOM     37  C   UNL A   1      44.926  24.091  28.195  1.00  0.00     0.031 C 
ATOM     38  C   UNL A   1      40.096  25.456  27.854  1.00  0.00     0.029 A 
ATOM     39  N   UNL A   1      41.536  26.958  28.673  1.00  0.00    -0.354 N 
ATOM     40  C   UNL A   1      45.707  25.974  29.227  1.00  0.00     0.074 A 
ATOM     41  C   UNL A   1      45.991  24.634  28.765  1.00  0.00     0.031 C 
ATOM     42  C   UNL A   1      39.399  26.568  28.140  1.00  0.00     0.029 A 
ATOM     43  C   UNL A   1      40.304  27.566  28.699  1.00  0.00     0.049 A 
ATOM     44  H   UNL A   1      42.361  27.399  28.979  1.00  0.00     0.167 HD
ATOM     45  C   UNL A   1      46.633  26.812  29.751  1.00  0.00     0.037 A 
ATOM     46  C   UNL A   1      39.946  28.788  29.135  1.00  0.00     0.037 A 
ATOM     47  C   UNL A   1      46.359  28.161  30.166  1.00  0.00     0.049 A 
ATOM     48  C   UNL A   1      40.996  29.708  29.692  1.00  0.00     0.074 A 
ATOM     49  C   UNL A   1      47.242  29.113  30.644  1.00  0.00     0.029 A 
ATOM     50  N   UNL A   1      45.105  28.752  30.145  1.00  0.00    -0.354 N 
ATOM     51  N   UNL A   1      42.281  29.497  29.849  1.00  0.00    -0.248 NA
ATOM     52  C   UNL A   1      40.548  31.037  30.131  1.00  0.00     0.031 C 
ATOM     53  C   UNL A   1      46.516  30.272  30.939  1.00  0.00     0.029 A 
ATOM     54  C   UNL A   1      45.188  30.052  30.613  1.00  0.00     0.049 A 
ATOM     55  H   UNL A   1      44.278  28.312  29.841  1.00  0.00     0.167 HD
ATOM     56  C   UNL A   1      42.798  30.672  30.376  1.00  0.00     0.074 A 
ATOM     57  C   UNL A   1      41.690  31.596  30.506  1.00  0.00     0.031 C 
ATOM     58  C   UNL A   1      44.076  30.961  30.721  1.00  0.00     0.037 A 
BRANCH  45  59
ATOM     59  C   UNL A   1      48.031  26.291  29.896  1.00  0.00     0.057 A 
ATOM     60  C   UNL A   1      48.486  25.719  31.092  1.00  0.00     0.134 A 
ATOM     61  C   UNL A   1      48.927  26.336  28.820  1.00  0.00     0.134 A 
ATOM     62  F   UNL A   1      47.682  25.659  32.164  1.00  0.00    -0.206 F 
ATOM     63  C   UNL A   1      49.788  25.236  31.221  1.00  0.00     0.040 A 
ATOM     64  C   UNL A   1      50.224  25.832  28.929  1.00  0.00     0.040 A 
ATOM     65  F   UNL A   1      48.555  26.866  27.646  1.00  0.00    -0.206 F 
ATOM     66  C   UNL A   1      50.660  25.287  30.135  1.00  0.00     0.006 A 
ENDBRANCH  45  59
BRANCH  46  67
ATOM     67  C   UNL A   1      38.533  29.227  29.032  1.00  0.00     0.057 A 
ATOM     68  C   UNL A   1      38.007  29.671  27.814  1.00  0.00     0.134 A 
ATOM     69  C   UNL A   1      37.679  29.217  30.141  1.00  0.00     0.134 A 
ATOM     70  F   UNL A   1      38.783  29.721  26.722  1.00  0.00    -0.206 F 
ATOM     71  C   UNL A   1      36.685  30.104  27.703  1.00  0.00     0.040 A 
ATOM     72  C   UNL A   1      36.349  29.627  30.040  1.00  0.00     0.040 A 
ATOM     73  F   UNL A   1      38.123  28.797  31.335  1.00  0.00    -0.206 F 
ATOM     74  C   UNL A   1      35.850  30.078  28.819  1.00  0.00     0.006 A 
ENDBRANCH  46  67
BRANCH  58  75
ATOM     75  C   UNL A   1      44.352  32.342  31.234  1.00  0.00     0.057 A 
ATOM     76  C   UNL A   1      44.331  32.638  32.601  1.00  0.00     0.134 A 
ATOM     77  C   UNL A   1      44.686  33.375  30.349  1.00  0.00     0.134 A 
ATOM     78  F   UNL A   1      44.004  31.693  33.496  1.00  0.00    -0.206 F 
ATOM     79  C   UNL A   1      44.618  33.920  33.073  1.00  0.00     0.040 A 
ATOM     80  C   UNL A   1      44.996  34.655  30.809  1.00  0.00     0.040 A 
ATOM     81  F   UNL A   1      44.730  33.152  29.027  1.00  0.00    -0.206 F 
ATOM     82  C   UNL A   1      44.957  34.931  32.175  1.00  0.00     0.006 A 
ENDBRANCH  58  75
ENDBRANCH  32  33
ENDBRANCH  24  27
ENDBRANCH  22  23
ENDBRANCH   1  22
TORSDOF 12
ENDMDL
MODEL 3
REMARK VINA RESULT:     -11.7      0.997      1.716
REMARK SMILES Cc1cc(C(=O)N[C@H]2C=C[C@@H](C(=O)NCCCNC(=O)c3ccc(-c4c5nc(c(-c6c(F)cccc6F)c6ccc([nH]6)c(-c6c(F)cccc6F)c6nc(c(-c7c(F)cccc7F)c7ccc4[nH]7)C=C6)C=C5)cc3)C2)no1
REMARK SMILES IDX 16 1 15 2 14 3 12 4 13 5 11 7 8 8 9 9 75 10 10 11 7 12 5 13
REMARK SMILES IDX 6 14 4 16 1 17 2 18 3 19 77 20 76 21 17 22 18 23 19 24 20 26
REMARK SMILES IDX 21 27 22 28 74 29 23 30 73 31 24 32 25 33 26 34 67 35 27 36
REMARK SMILES IDX 72 37 66 38 68 39 28 40 71 41 65 42 64 43 29 45 55 46 38 47
REMARK SMILES IDX 54 48 39 49 42 50 53 51 69 52 40 53 41 54 52 56 70 57 43 58
REMARK SMILES IDX 30 59 31 60 36 61 32 62 33 63 35 64 37 65 34 66 56 67 57 68
REMARK SMILES IDX 62 69 58 70 59 71 61 72 63 73 60 74 44 75 45 76 50 77 46 78
REMARK SMILES IDX 47 79 49 80 51 81 48 82
REMARK H PARENT 14 6 7 15 18 25 68 44 42 55
REMARK Flexibility Score: inf
ROOT
ATOM      1  C   UNL A   1      37.691  19.799  25.001  1.00  0.00     0.042 C 
ENDROOT
BRANCH   1   2
ATOM      2  C   UNL A   1      36.645  20.896  24.858  1.00  0.00     0.117 C 
BRANCH   2   3
ATOM      3  N   UNL A   1      35.882  21.078  26.082  1.00  0.00    -0.356 N 
ATOM      4  C   UNL A   1      34.848  21.909  26.386  1.00  0.00     0.227 C 
ATOM      5  O   UNL A   1      34.403  21.856  27.537  1.00  0.00    -0.274 OA
ATOM      6  H   UNL A   1      36.164  20.496  26.823  1.00  0.00     0.163 HD
BRANCH   4   7
ATOM      7  C   UNL A   1      34.227  22.867  25.369  1.00  0.00     0.103 C 
ATOM      8  C   UNL A   1      32.946  24.964  25.401  1.00  0.00     0.106 C 
ATOM      9  C   UNL A   1      34.409  25.194  25.191  1.00  0.00    -0.006 C 
ATOM     10  C   UNL A   1      32.881  23.473  25.780  1.00  0.00     0.047 C 
ATOM     11  C   UNL A   1      35.100  24.054  25.122  1.00  0.00    -0.016 C 
BRANCH   8  12
ATOM     12  N   UNL A   1      32.398  25.817  26.436  1.00  0.00    -0.344 N 
ATOM     13  C   UNL A   1      31.370  26.737  26.391  1.00  0.00     0.273 C 
ATOM     14  O   UNL A   1      31.032  27.262  27.452  1.00  0.00    -0.267 OA
ATOM     15  H   UNL A   1      32.831  25.726  27.316  1.00  0.00     0.164 HD
BRANCH  13  16
ATOM     16  C   UNL A   1      30.787  27.103  25.100  1.00  0.00     0.171 A 
ATOM     17  C   UNL A   1      29.524  29.194  22.368  1.00  0.00     0.091 C 
ATOM     18  C   UNL A   1      30.015  28.226  23.364  1.00  0.00     0.134 A 
ATOM     19  C   UNL A   1      31.038  28.234  24.278  1.00  0.00     0.082 A 
ATOM     20  O   UNL A   1      29.304  27.078  23.502  1.00  0.00    -0.361 OA
ATOM     21  N   UNL A   1      29.797  26.360  24.574  1.00  0.00    -0.074 NA
ENDBRANCH  13  16
ENDBRANCH   8  12
ENDBRANCH   4   7
ENDBRANCH   2   3
ENDBRANCH   1   2
BRANCH   1  22
ATOM     22  C   UNL A   1      38.937  20.247  25.751  1.00  0.00     0.118 C 
BRANCH  22  23
ATOM     23  N   UNL A   1      39.948  19.203  25.831  1.00  0.00    -0.352 N 
ATOM     24  C   UNL A   1      41.302  19.311  26.031  1.00  0.00     0.251 C 
ATOM     25  H   UNL A   1      39.612  18.284  25.724  1.00  0.00     0.163 HD
ATOM     26  O   UNL A   1      42.023  18.328  25.894  1.00  0.00    -0.269 OA
BRANCH  24  27
ATOM     27  C   UNL A   1      41.893  20.616  26.394  1.00  0.00     0.039 A 
ATOM     28  C   UNL A   1      42.225  21.515  25.376  1.00  0.00     0.014 A 
ATOM     29  C   UNL A   1      42.131  20.948  27.729  1.00  0.00     0.014 A 
ATOM     30  C   UNL A   1      42.739  22.772  25.703  1.00  0.00     0.010 A 
ATOM     31  C   UNL A   1      42.568  22.227  28.056  1.00  0.00     0.010 A 
ATOM     32  C   UNL A   1      42.885  23.148  27.047  1.00  0.00    -0.014 A 
BRANCH  32  33
ATOM     33  C   UNL A   1      43.389  24.490  27.427  1.00  0.00     0.031 A 
ATOM     34  C   UNL A   1      42.424  25.549  27.884  1.00  0.00     0.074 A 
ATOM     35  C   UNL A   1      44.696  24.781  27.285  1.00  0.00     0.049 A 
ATOM     36  N   UNL A   1      42.643  26.812  28.147  1.00  0.00    -0.248 NA
ATOM     37  C   UNL A   1      41.018  25.140  28.034  1.00  0.00     0.031 C 
ATOM     38  C   UNL A   1      45.726  23.855  26.810  1.00  0.00     0.029 A 
ATOM     39  N   UNL A   1      45.379  25.949  27.514  1.00  0.00    -0.354 N 
ATOM     40  C   UNL A   1      41.403  27.351  28.463  1.00  0.00     0.074 A 
ATOM     41  C   UNL A   1      40.429  26.292  28.318  1.00  0.00     0.031 C 
ATOM     42  C   UNL A   1      46.912  24.484  26.803  1.00  0.00     0.029 A 
ATOM     43  C   UNL A   1      46.721  25.864  27.236  1.00  0.00     0.049 A 
ATOM     44  H   UNL A   1      44.949  26.769  27.847  1.00  0.00     0.167 HD
ATOM     45  C   UNL A   1      41.105  28.612  28.857  1.00  0.00     0.037 A 
ATOM     46  C   UNL A   1      47.687  26.799  27.313  1.00  0.00     0.037 A 
ATOM     47  C   UNL A   1      42.080  29.652  29.046  1.00  0.00     0.049 A 
ATOM     48  C   UNL A   1      47.335  28.185  27.775  1.00  0.00     0.074 A 
ATOM     49  C   UNL A   1      41.888  30.940  29.511  1.00  0.00     0.029 A 
ATOM     50  N   UNL A   1      43.436  29.516  28.787  1.00  0.00    -0.354 N 
ATOM     51  N   UNL A   1      46.165  28.669  28.120  1.00  0.00    -0.248 NA
ATOM     52  C   UNL A   1      48.435  29.156  27.860  1.00  0.00     0.031 C 
ATOM     53  C   UNL A   1      43.125  31.595  29.505  1.00  0.00     0.029 A 
ATOM     54  C   UNL A   1      44.090  30.702  29.070  1.00  0.00     0.049 A 
ATOM     55  H   UNL A   1      43.868  28.698  28.452  1.00  0.00     0.167 HD
ATOM     56  C   UNL A   1      46.394  29.987  28.490  1.00  0.00     0.074 A 
ATOM     57  C   UNL A   1      47.814  30.227  28.334  1.00  0.00     0.031 C 
ATOM     58  C   UNL A   1      45.507  30.916  28.922  1.00  0.00     0.037 A 
BRANCH  45  59
ATOM     59  C   UNL A   1      39.663  28.930  29.117  1.00  0.00     0.057 A 
ATOM     60  C   UNL A   1      38.802  29.347  28.092  1.00  0.00     0.134 A 
ATOM     61  C   UNL A   1      39.120  28.794  30.401  1.00  0.00     0.134 A 
ATOM     62  F   UNL A   1      39.263  29.510  26.844  1.00  0.00    -0.206 F 
ATOM     63  C   UNL A   1      37.461  29.641  28.340  1.00  0.00     0.040 A 
ATOM     64  C   UNL A   1      37.774  29.061  30.657  1.00  0.00     0.040 A 
ATOM     65  F   UNL A   1      39.888  28.396  31.426  1.00  0.00    -0.206 F 
ATOM     66  C   UNL A   1      36.942  29.494  29.626  1.00  0.00     0.006 A 
ENDBRANCH  45  59
BRANCH  46  67
ATOM     67  C   UNL A   1      49.088  26.447  26.975  1.00  0.00     0.057 A 
ATOM     68  C   UNL A   1      49.586  26.648  25.683  1.00  0.00     0.134 A 
ATOM     69  C   UNL A   1      49.959  25.904  27.927  1.00  0.00     0.134 A 
ATOM     70  F   UNL A   1      48.792  27.148  24.724  1.00  0.00    -0.206 F 
ATOM     71  C   UNL A   1      50.895  26.307  25.343  1.00  0.00     0.040 A 
ATOM     72  C   UNL A   1      51.277  25.578  27.606  1.00  0.00     0.040 A 
ATOM     73  F   UNL A   1      49.542  25.694  29.184  1.00  0.00    -0.206 F 
ATOM     74  C   UNL A   1      51.747  25.774  26.309  1.00  0.00     0.006 A 
ENDBRANCH  46  67
BRANCH  58  75
ATOM     75  C   UNL A   1      46.050  32.263  29.292  1.00  0.00     0.057 A 
ATOM     76  C   UNL A   1      46.153  33.299  28.358  1.00  0.00     0.134 A 
ATOM     77  C   UNL A   1      46.435  32.535  30.611  1.00  0.00     0.134 A 
ATOM     78  F   UNL A   1      45.813  33.094  27.076  1.00  0.00    -0.206 F 
ATOM     79  C   UNL A   1      46.633  34.559  28.718  1.00  0.00     0.040 A 
ATOM     80  C   UNL A   1      46.896  33.797  30.989  1.00  0.00     0.040 A 
ATOM     81  F   UNL A   1      46.353  31.585  31.555  1.00  0.00    -0.206 F 
ATOM     82  C   UNL A   1      47.001  34.811  30.039  1.00  0.00     0.006 A 
ENDBRANCH  58  75
ENDBRANCH  32  33
ENDBRANCH  24  27
ENDBRANCH  22  23
ENDBRANCH   1  22
TORSDOF 12
ENDMDL
