MODEL 1
REMARK VINA RESULT:     -10.5      0.000      0.000
REMARK SMILES [NH3+]CCOCC(=O)N[C@H](C(=O)NCCCNC(=O)c1ccc(-c2c3nc(c(-c4c(F)cccc4F)c4ccc([nH]4)c(-c4c(F)cccc4F)c4nc(c(-c5c(F)cccc5F)c5ccc2[nH]5)C=C4)C=C3)cc1)C1CCCCC1
REMARK SMILES IDX 10 1 11 2 12 3 9 5 8 6 6 7 7 8 5 10 4 11 3 12 2 13 1 14
REMARK SMILES IDX 73 18 74 19 78 20 75 21 77 22 76 23 13 24 14 25 15 26 16 27
REMARK SMILES IDX 17 28 18 30 19 31 20 32 72 33 21 34 71 35 22 36 23 37 24 38
REMARK SMILES IDX 65 39 25 40 70 41 64 42 66 43 26 44 69 45 63 46 62 47 27 49
REMARK SMILES IDX 53 50 36 51 52 52 37 53 40 54 51 55 67 56 38 57 39 58 50 60
REMARK SMILES IDX 68 61 41 62 28 63 29 64 34 65 30 66 31 67 33 68 35 69 32 70
REMARK SMILES IDX 54 71 55 72 60 73 56 74 57 75 59 76 61 77 58 78 42 79 43 80
REMARK SMILES IDX 48 81 44 82 45 83 47 84 49 85 46 86
REMARK H PARENT 12 4 8 9 1 15 1 16 1 17 16 29 66 48 40 59
REMARK Flexibility Score: inf
ROOT
ATOM      1  C   UNL A   1      34.628  23.509  23.131  1.00  0.00     0.242 C 
ATOM      2  O   UNL A   1      34.045  23.332  22.061  1.00  0.00    -0.273 OA
ATOM      3  N   UNL A   1      35.915  23.037  23.186  1.00  0.00    -0.354 N 
ATOM      4  H   UNL A   1      36.291  22.745  22.325  1.00  0.00     0.163 HD
ENDROOT
BRANCH   1   5
ATOM      5  C   UNL A   1      33.918  24.003  24.429  1.00  0.00     0.174 C 
BRANCH   5   6
ATOM      6  N   UNL A   1      33.946  23.021  25.524  1.00  0.00    -0.342 N 
ATOM      7  C   UNL A   1      33.266  21.862  25.729  1.00  0.00     0.246 C 
ATOM      8  O   UNL A   1      33.463  21.269  26.795  1.00  0.00    -0.272 OA
ATOM      9  H   UNL A   1      34.576  23.247  26.245  1.00  0.00     0.164 HD
BRANCH   7  10
ATOM     10  C   UNL A   1      32.255  21.327  24.709  1.00  0.00     0.260 C 
BRANCH  10  11
ATOM     11  O   UNL A   1      31.787  20.001  24.846  1.00  0.00    -0.366 OA
BRANCH  11  12
ATOM     12  C   UNL A   1      32.617  19.001  24.263  1.00  0.00     0.222 C 
BRANCH  12  13
ATOM     13  C   UNL A   1      33.101  17.880  25.196  1.00  0.00     0.287 C 
BRANCH  13  14
ATOM     14  N   UNL A   1      32.905  18.135  26.623  1.00  0.00    -0.356 N 
ATOM     15  H   UNL A   1      33.525  17.532  27.164  1.00  0.00     0.344 HD
ATOM     16  H   UNL A   1      31.936  17.938  26.873  1.00  0.00     0.344 HD
ATOM     17  H   UNL A   1      33.119  19.111  26.827  1.00  0.00     0.344 HD
ENDBRANCH  13  14
ENDBRANCH  12  13
ENDBRANCH  11  12
ENDBRANCH  10  11
ENDBRANCH   7  10
ENDBRANCH   5   6
BRANCH   5  18
ATOM     18  C   UNL A   1      34.078  25.504  24.864  1.00  0.00     0.021 C 
ATOM     19  C   UNL A   1      33.856  26.475  23.680  1.00  0.00     0.006 C 
ATOM     20  C   UNL A   1      33.313  25.937  26.132  1.00  0.00     0.006 C 
ATOM     21  C   UNL A   1      33.974  27.946  24.055  1.00  0.00     0.000 C 
ATOM     22  C   UNL A   1      33.407  27.434  26.427  1.00  0.00     0.000 C 
ATOM     23  C   UNL A   1      33.052  28.282  25.217  1.00  0.00     0.000 C 
ENDBRANCH   5  18
ENDBRANCH   1   5
BRANCH   3  24
ATOM     24  C   UNL A   1      36.802  22.905  24.326  1.00  0.00     0.117 C 
BRANCH  24  25
ATOM     25  C   UNL A   1      37.337  21.493  24.529  1.00  0.00     0.042 C 
BRANCH  25  26
ATOM     26  C   UNL A   1      38.343  21.319  25.662  1.00  0.00     0.118 C 
BRANCH  26  27
ATOM     27  N   UNL A   1      39.216  20.164  25.526  1.00  0.00    -0.352 N 
ATOM     28  C   UNL A   1      40.497  19.948  25.979  1.00  0.00     0.251 C 
ATOM     29  H   UNL A   1      38.825  19.410  25.028  1.00  0.00     0.163 HD
ATOM     30  O   UNL A   1      41.042  18.870  25.790  1.00  0.00    -0.269 OA
BRANCH  28  31
ATOM     31  C   UNL A   1      41.245  21.051  26.611  1.00  0.00     0.039 A 
ATOM     32  C   UNL A   1      41.899  21.959  25.774  1.00  0.00     0.014 A 
ATOM     33  C   UNL A   1      41.222  21.244  27.990  1.00  0.00     0.014 A 
ATOM     34  C   UNL A   1      42.428  23.130  26.314  1.00  0.00     0.010 A 
ATOM     35  C   UNL A   1      41.659  22.453  28.512  1.00  0.00     0.010 A 
ATOM     36  C   UNL A   1      42.249  23.414  27.676  1.00  0.00    -0.014 A 
BRANCH  36  37
ATOM     37  C   UNL A   1      42.639  24.725  28.245  1.00  0.00     0.031 A 
ATOM     38  C   UNL A   1      41.600  25.786  28.456  1.00  0.00     0.074 A 
ATOM     39  C   UNL A   1      43.943  24.985  28.466  1.00  0.00     0.049 A 
ATOM     40  N   UNL A   1      41.752  27.029  28.834  1.00  0.00    -0.248 NA
ATOM     41  C   UNL A   1      40.207  25.414  28.158  1.00  0.00     0.031 C 
ATOM     42  C   UNL A   1      45.047  24.053  28.219  1.00  0.00     0.029 A 
ATOM     43  N   UNL A   1      44.564  26.115  28.931  1.00  0.00    -0.354 N 
ATOM     44  C   UNL A   1      40.483  27.592  28.788  1.00  0.00     0.074 A 
ATOM     45  C   UNL A   1      39.584  26.573  28.294  1.00  0.00     0.031 C 
ATOM     46  C   UNL A   1      46.205  24.642  28.557  1.00  0.00     0.029 A 
ATOM     47  C   UNL A   1      45.931  26.000  29.011  1.00  0.00     0.049 A 
ATOM     48  H   UNL A   1      44.077  26.932  29.185  1.00  0.00     0.167 HD
ATOM     49  C   UNL A   1      40.102  28.840  29.149  1.00  0.00     0.037 A 
ATOM     50  C   UNL A   1      46.858  26.893  29.405  1.00  0.00     0.037 A 
ATOM     51  C   UNL A   1      41.002  29.828  29.679  1.00  0.00     0.049 A 
ATOM     52  C   UNL A   1      46.402  28.251  29.859  1.00  0.00     0.074 A 
ATOM     53  C   UNL A   1      40.714  31.095  30.153  1.00  0.00     0.029 A 
ATOM     54  N   UNL A   1      42.373  29.653  29.808  1.00  0.00    -0.354 N 
ATOM     55  N   UNL A   1      45.189  28.748  29.885  1.00  0.00    -0.248 NA
ATOM     56  C   UNL A   1      47.439  29.167  30.351  1.00  0.00     0.031 C 
ATOM     57  C   UNL A   1      41.916  31.699  30.539  1.00  0.00     0.029 A 
ATOM     58  C   UNL A   1      42.948  30.794  30.342  1.00  0.00     0.049 A 
ATOM     59  H   UNL A   1      42.864  28.837  29.557  1.00  0.00     0.167 HD
ATOM     60  C   UNL A   1      45.311  30.026  30.411  1.00  0.00     0.074 A 
ATOM     61  C   UNL A   1      46.717  30.219  30.709  1.00  0.00     0.031 C 
ATOM     62  C   UNL A   1      44.351  30.957  30.626  1.00  0.00     0.037 A 
BRANCH  49  63
ATOM     63  C   UNL A   1      38.650  29.189  28.985  1.00  0.00     0.057 A 
ATOM     64  C   UNL A   1      38.122  29.603  27.754  1.00  0.00     0.134 A 
ATOM     65  C   UNL A   1      37.770  29.115  30.071  1.00  0.00     0.134 A 
ATOM     66  F   UNL A   1      38.915  29.712  26.676  1.00  0.00    -0.206 F 
ATOM     67  C   UNL A   1      36.781  29.965  27.617  1.00  0.00     0.040 A 
ATOM     68  C   UNL A   1      36.420  29.446  29.940  1.00  0.00     0.040 A 
ATOM     69  F   UNL A   1      38.206  28.723  31.277  1.00  0.00    -0.206 F 
ATOM     70  C   UNL A   1      35.924  29.883  28.713  1.00  0.00     0.006 A 
ENDBRANCH  49  63
BRANCH  50  71
ATOM     71  C   UNL A   1      48.292  26.515  29.424  1.00  0.00     0.057 A 
ATOM     72  C   UNL A   1      49.131  26.815  28.345  1.00  0.00     0.134 A 
ATOM     73  C   UNL A   1      48.865  25.864  30.523  1.00  0.00     0.134 A 
ATOM     74  F   UNL A   1      48.638  27.425  27.257  1.00  0.00    -0.206 F 
ATOM     75  C   UNL A   1      50.484  26.472  28.350  1.00  0.00     0.040 A 
ATOM     76  C   UNL A   1      50.222  25.534  30.553  1.00  0.00     0.040 A 
ATOM     77  F   UNL A   1      48.118  25.559  31.595  1.00  0.00    -0.206 F 
ATOM     78  C   UNL A   1      51.034  25.834  29.460  1.00  0.00     0.006 A 
ENDBRANCH  50  71
BRANCH  62  79
ATOM     79  C   UNL A   1      44.793  32.257  31.230  1.00  0.00     0.057 A 
ATOM     80  C   UNL A   1      45.179  33.343  30.434  1.00  0.00     0.134 A 
ATOM     81  C   UNL A   1      44.801  32.432  32.618  1.00  0.00     0.134 A 
ATOM     82  F   UNL A   1      45.205  33.232  29.098  1.00  0.00    -0.206 F 
ATOM     83  C   UNL A   1      45.583  34.552  31.001  1.00  0.00     0.040 A 
ATOM     84  C   UNL A   1      45.179  33.643  33.196  1.00  0.00     0.040 A 
ATOM     85  F   UNL A   1      44.435  31.432  33.433  1.00  0.00    -0.206 F 
ATOM     86  C   UNL A   1      45.577  34.706  32.387  1.00  0.00     0.006 A 
ENDBRANCH  62  79
ENDBRANCH  36  37
ENDBRANCH  28  31
ENDBRANCH  26  27
ENDBRANCH  25  26
ENDBRANCH  24  25
ENDBRANCH   3  24
TORSDOF 17
ENDMDL
MODEL 2
REMARK VINA RESULT:     -10.4      4.918      9.421
REMARK SMILES [NH3+]CCOCC(=O)N[C@H](C(=O)NCCCNC(=O)c1ccc(-c2c3nc(c(-c4c(F)cccc4F)c4ccc([nH]4)c(-c4c(F)cccc4F)c4nc(c(-c5c(F)cccc5F)c5ccc2[nH]5)C=C4)C=C3)cc1)C1CCCCC1
REMARK SMILES IDX 10 1 11 2 12 3 9 5 8 6 6 7 7 8 5 10 4 11 3 12 2 13 1 14
REMARK SMILES IDX 73 18 74 19 78 20 75 21 77 22 76 23 13 24 14 25 15 26 16 27
REMARK SMILES IDX 17 28 18 30 19 31 20 32 72 33 21 34 71 35 22 36 23 37 24 38
REMARK SMILES IDX 65 39 25 40 70 41 64 42 66 43 26 44 69 45 63 46 62 47 27 49
REMARK SMILES IDX 53 50 36 51 52 52 37 53 40 54 51 55 67 56 38 57 39 58 50 60
REMARK SMILES IDX 68 61 41 62 28 63 29 64 34 65 30 66 31 67 33 68 35 69 32 70
REMARK SMILES IDX 54 71 55 72 60 73 56 74 57 75 59 76 61 77 58 78 42 79 43 80
REMARK SMILES IDX 48 81 44 82 45 83 47 84 49 85 46 86
REMARK H PARENT 12 4 8 9 1 15 1 16 1 17 16 29 66 48 40 59
REMARK Flexibility Score: inf
ROOT
ATOM      1  C   UNL A   1      33.903  29.132  26.728  1.00  0.00     0.242 C 
ATOM      2  O   UNL A   1      34.869  28.971  27.474  1.00  0.00    -0.273 OA
ATOM      3  N   UNL A   1      33.105  30.209  27.020  1.00  0.00    -0.354 N 
ATOM      4  H   UNL A   1      33.467  30.828  27.695  1.00  0.00     0.163 HD
ENDROOT
BRANCH   1   5
ATOM      5  C   UNL A   1      33.442  28.078  25.674  1.00  0.00     0.174 C 
BRANCH   5   6
ATOM      6  N   UNL A   1      33.947  28.344  24.318  1.00  0.00    -0.342 N 
ATOM      7  C   UNL A   1      33.352  28.299  23.097  1.00  0.00     0.246 C 
ATOM      8  O   UNL A   1      34.062  28.521  22.110  1.00  0.00    -0.272 OA
ATOM      9  H   UNL A   1      34.896  28.602  24.290  1.00  0.00     0.164 HD
BRANCH   7  10
ATOM     10  C   UNL A   1      31.872  27.939  22.932  1.00  0.00     0.260 C 
BRANCH  10  11
ATOM     11  O   UNL A   1      30.896  28.895  23.293  1.00  0.00    -0.366 OA
BRANCH  11  12
ATOM     12  C   UNL A   1      30.007  29.280  22.248  1.00  0.00     0.222 C 
BRANCH  12  13
ATOM     13  C   UNL A   1      28.612  29.761  22.676  1.00  0.00     0.287 C 
BRANCH  13  14
ATOM     14  N   UNL A   1      27.703  30.080  21.576  1.00  0.00    -0.356 N 
ATOM     15  H   UNL A   1      27.252  29.226  21.248  1.00  0.00     0.344 HD
ATOM     16  H   UNL A   1      28.230  30.502  20.811  1.00  0.00     0.344 HD
ATOM     17  H   UNL A   1      26.992  30.735  21.902  1.00  0.00     0.344 HD
ENDBRANCH  13  14
ENDBRANCH  12  13
ENDBRANCH  11  12
ENDBRANCH  10  11
ENDBRANCH   7  10
ENDBRANCH   5   6
BRANCH   5  18
ATOM     18  C   UNL A   1      33.377  26.564  26.086  1.00  0.00     0.021 C 
ATOM     19  C   UNL A   1      31.922  26.039  26.127  1.00  0.00     0.006 C 
ATOM     20  C   UNL A   1      34.327  25.606  25.336  1.00  0.00     0.006 C 
ATOM     21  C   UNL A   1      31.805  24.566  26.495  1.00  0.00     0.000 C 
ATOM     22  C   UNL A   1      34.123  24.134  25.691  1.00  0.00     0.000 C 
ATOM     23  C   UNL A   1      32.668  23.712  25.581  1.00  0.00     0.000 C 
ENDBRANCH   5  18
ENDBRANCH   1   5
BRANCH   3  24
ATOM     24  C   UNL A   1      31.809  30.572  26.481  1.00  0.00     0.117 C 
BRANCH  24  25
ATOM     25  C   UNL A   1      31.347  31.968  26.879  1.00  0.00     0.042 C 
BRANCH  25  26
ATOM     26  C   UNL A   1      32.358  33.090  26.666  1.00  0.00     0.118 C 
BRANCH  26  27
ATOM     27  N   UNL A   1      32.260  34.184  27.619  1.00  0.00    -0.352 N 
ATOM     28  C   UNL A   1      33.120  34.588  28.615  1.00  0.00     0.251 C 
ATOM     29  H   UNL A   1      31.443  34.726  27.539  1.00  0.00     0.163 HD
ATOM     30  O   UNL A   1      32.862  35.578  29.285  1.00  0.00    -0.269 OA
BRANCH  28  31
ATOM     31  C   UNL A   1      34.307  33.772  28.931  1.00  0.00     0.039 A 
ATOM     32  C   UNL A   1      35.565  34.357  28.767  1.00  0.00     0.014 A 
ATOM     33  C   UNL A   1      34.183  32.493  29.470  1.00  0.00     0.014 A 
ATOM     34  C   UNL A   1      36.695  33.705  29.258  1.00  0.00     0.010 A 
ATOM     35  C   UNL A   1      35.292  31.891  30.047  1.00  0.00     0.010 A 
ATOM     36  C   UNL A   1      36.553  32.500  29.962  1.00  0.00    -0.014 A 
BRANCH  36  37
ATOM     37  C   UNL A   1      37.706  31.874  30.650  1.00  0.00     0.031 A 
ATOM     38  C   UNL A   1      38.503  30.810  29.955  1.00  0.00     0.074 A 
ATOM     39  C   UNL A   1      37.958  32.193  31.936  1.00  0.00     0.049 A 
ATOM     40  N   UNL A   1      39.471  30.064  30.421  1.00  0.00    -0.248 NA
ATOM     41  C   UNL A   1      38.131  30.513  28.562  1.00  0.00     0.031 C 
ATOM     42  C   UNL A   1      37.196  33.155  32.736  1.00  0.00     0.029 A 
ATOM     43  N   UNL A   1      38.915  31.730  32.802  1.00  0.00    -0.354 N 
ATOM     44  C   UNL A   1      39.800  29.192  29.391  1.00  0.00     0.074 A 
ATOM     45  C   UNL A   1      38.893  29.464  28.298  1.00  0.00     0.031 C 
ATOM     46  C   UNL A   1      37.729  33.227  33.966  1.00  0.00     0.029 A 
ATOM     47  C   UNL A   1      38.846  32.294  34.052  1.00  0.00     0.049 A 
ATOM     48  H   UNL A   1      39.589  31.057  32.551  1.00  0.00     0.167 HD
ATOM     49  C   UNL A   1      40.786  28.265  29.355  1.00  0.00     0.037 A 
ATOM     50  C   UNL A   1      39.600  32.080  35.147  1.00  0.00     0.037 A 
ATOM     51  C   UNL A   1      41.707  28.036  30.435  1.00  0.00     0.049 A 
ATOM     52  C   UNL A   1      40.727  31.090  35.061  1.00  0.00     0.074 A 
ATOM     53  C   UNL A   1      42.794  27.182  30.480  1.00  0.00     0.029 A 
ATOM     54  N   UNL A   1      41.648  28.676  31.667  1.00  0.00    -0.354 N 
ATOM     55  N   UNL A   1      41.079  30.325  34.056  1.00  0.00    -0.248 NA
ATOM     56  C   UNL A   1      41.570  30.942  36.255  1.00  0.00     0.031 C 
ATOM     57  C   UNL A   1      43.373  27.281  31.750  1.00  0.00     0.029 A 
ATOM     58  C   UNL A   1      42.671  28.225  32.483  1.00  0.00     0.049 A 
ATOM     59  H   UNL A   1      40.977  29.350  31.921  1.00  0.00     0.167 HD
ATOM     60  C   UNL A   1      42.193  29.618  34.486  1.00  0.00     0.074 A 
ATOM     61  C   UNL A   1      42.469  30.062  35.838  1.00  0.00     0.031 C 
ATOM     62  C   UNL A   1      42.920  28.685  33.826  1.00  0.00     0.037 A 
BRANCH  49  63
ATOM     63  C   UNL A   1      40.912  27.444  28.104  1.00  0.00     0.057 A 
ATOM     64  C   UNL A   1      41.669  27.877  27.006  1.00  0.00     0.134 A 
ATOM     65  C   UNL A   1      40.266  26.207  27.994  1.00  0.00     0.134 A 
ATOM     66  F   UNL A   1      42.300  29.061  27.040  1.00  0.00    -0.206 F 
ATOM     67  C   UNL A   1      41.749  27.127  25.831  1.00  0.00     0.040 A 
ATOM     68  C   UNL A   1      40.363  25.434  26.835  1.00  0.00     0.040 A 
ATOM     69  F   UNL A   1      39.528  25.729  29.006  1.00  0.00    -0.206 F 
ATOM     70  C   UNL A   1      41.097  25.898  25.744  1.00  0.00     0.006 A 
ENDBRANCH  49  63
BRANCH  50  71
ATOM     71  C   UNL A   1      39.336  32.843  36.391  1.00  0.00     0.057 A 
ATOM     72  C   UNL A   1      39.975  34.064  36.637  1.00  0.00     0.134 A 
ATOM     73  C   UNL A   1      38.429  32.386  37.354  1.00  0.00     0.134 A 
ATOM     74  F   UNL A   1      40.865  34.548  35.758  1.00  0.00    -0.206 F 
ATOM     75  C   UNL A   1      39.732  34.797  37.800  1.00  0.00     0.040 A 
ATOM     76  C   UNL A   1      38.160  33.119  38.512  1.00  0.00     0.040 A 
ATOM     77  F   UNL A   1      37.775  31.229  37.174  1.00  0.00    -0.206 F 
ATOM     78  C   UNL A   1      38.817  34.327  38.739  1.00  0.00     0.006 A 
ENDBRANCH  50  71
BRANCH  62  79
ATOM     79  C   UNL A   1      44.093  28.101  34.556  1.00  0.00     0.057 A 
ATOM     80  C   UNL A   1      45.357  28.704  34.517  1.00  0.00     0.134 A 
ATOM     81  C   UNL A   1      43.948  26.943  35.328  1.00  0.00     0.134 A 
ATOM     82  F   UNL A   1      45.562  29.808  33.783  1.00  0.00    -0.206 F 
ATOM     83  C   UNL A   1      46.443  28.160  35.203  1.00  0.00     0.040 A 
ATOM     84  C   UNL A   1      45.020  26.404  36.038  1.00  0.00     0.040 A 
ATOM     85  F   UNL A   1      42.761  26.324  35.412  1.00  0.00    -0.206 F 
ATOM     86  C   UNL A   1      46.274  27.009  35.972  1.00  0.00     0.006 A 
ENDBRANCH  62  79
ENDBRANCH  36  37
ENDBRANCH  28  31
ENDBRANCH  26  27
ENDBRANCH  25  26
ENDBRANCH  24  25
ENDBRANCH   3  24
TORSDOF 17
ENDMDL
MODEL 3
REMARK VINA RESULT:     -10.4      4.699      8.562
REMARK SMILES [NH3+]CCOCC(=O)N[C@H](C(=O)NCCCNC(=O)c1ccc(-c2c3nc(c(-c4c(F)cccc4F)c4ccc([nH]4)c(-c4c(F)cccc4F)c4nc(c(-c5c(F)cccc5F)c5ccc2[nH]5)C=C4)C=C3)cc1)C1CCCCC1
REMARK SMILES IDX 10 1 11 2 12 3 9 5 8 6 6 7 7 8 5 10 4 11 3 12 2 13 1 14
REMARK SMILES IDX 73 18 74 19 78 20 75 21 77 22 76 23 13 24 14 25 15 26 16 27
REMARK SMILES IDX 17 28 18 30 19 31 20 32 72 33 21 34 71 35 22 36 23 37 24 38
REMARK SMILES IDX 65 39 25 40 70 41 64 42 66 43 26 44 69 45 63 46 62 47 27 49
REMARK SMILES IDX 53 50 36 51 52 52 37 53 40 54 51 55 67 56 38 57 39 58 50 60
REMARK SMILES IDX 68 61 41 62 28 63 29 64 34 65 30 66 31 67 33 68 35 69 32 70
REMARK SMILES IDX 54 71 55 72 60 73 56 74 57 75 59 76 61 77 58 78 42 79 43 80
REMARK SMILES IDX 48 81 44 82 45 83 47 84 49 85 46 86
REMARK H PARENT 12 4 8 9 1 15 1 16 1 17 16 29 66 48 40 59
REMARK Flexibility Score: inf
ROOT
ATOM      1  C   UNL A   1      33.995  29.050  26.416  1.00  0.00     0.242 C 
ATOM      2  O   UNL A   1      35.049  28.984  27.048  1.00  0.00    -0.273 OA
ATOM      3  N   UNL A   1      33.169  30.091  26.752  1.00  0.00    -0.354 N 
ATOM      4  H   UNL A   1      33.566  30.764  27.350  1.00  0.00     0.163 HD
ENDROOT
BRANCH   1   5
ATOM      5  C   UNL A   1      33.484  27.917  25.472  1.00  0.00     0.174 C 
BRANCH   5   6
ATOM      6  N   UNL A   1      33.961  28.046  24.087  1.00  0.00    -0.342 N 
ATOM      7  C   UNL A   1      33.349  27.855  22.888  1.00  0.00     0.246 C 
ATOM      8  O   UNL A   1      34.038  27.985  21.871  1.00  0.00    -0.272 OA
ATOM      9  H   UNL A   1      34.903  28.322  24.014  1.00  0.00     0.164 HD
BRANCH   7  10
ATOM     10  C   UNL A   1      31.876  27.445  22.790  1.00  0.00     0.260 C 
BRANCH  10  11
ATOM     11  O   UNL A   1      30.893  28.308  23.324  1.00  0.00    -0.366 OA
BRANCH  11  12
ATOM     12  C   UNL A   1      29.546  27.884  23.140  1.00  0.00     0.222 C 
BRANCH  12  13
ATOM     13  C   UNL A   1      29.110  26.627  23.910  1.00  0.00     0.287 C 
BRANCH  13  14
ATOM     14  N   UNL A   1      27.670  26.373  23.916  1.00  0.00    -0.356 N 
ATOM     15  H   UNL A   1      27.464  25.569  23.323  1.00  0.00     0.344 HD
ATOM     16  H   UNL A   1      27.179  27.193  23.561  1.00  0.00     0.344 HD
ATOM     17  H   UNL A   1      27.363  26.179  24.869  1.00  0.00     0.344 HD
ENDBRANCH  13  14
ENDBRANCH  12  13
ENDBRANCH  11  12
ENDBRANCH  10  11
ENDBRANCH   7  10
ENDBRANCH   5   6
BRANCH   5  18
ATOM     18  C   UNL A   1      33.393  26.448  26.021  1.00  0.00     0.021 C 
ATOM     19  C   UNL A   1      31.930  25.953  26.108  1.00  0.00     0.006 C 
ATOM     20  C   UNL A   1      34.327  25.410  25.365  1.00  0.00     0.006 C 
ATOM     21  C   UNL A   1      31.788  24.522  26.609  1.00  0.00     0.000 C 
ATOM     22  C   UNL A   1      34.099  23.980  25.852  1.00  0.00     0.000 C 
ATOM     23  C   UNL A   1      32.637  23.573  25.779  1.00  0.00     0.000 C 
ENDBRANCH   5  18
ENDBRANCH   1   5
BRANCH   3  24
ATOM     24  C   UNL A   1      31.798  30.349  26.355  1.00  0.00     0.117 C 
BRANCH  24  25
ATOM     25  C   UNL A   1      31.297  31.736  26.739  1.00  0.00     0.042 C 
BRANCH  25  26
ATOM     26  C   UNL A   1      32.264  32.887  26.483  1.00  0.00     0.118 C 
BRANCH  26  27
ATOM     27  N   UNL A   1      32.210  33.956  27.468  1.00  0.00    -0.352 N 
ATOM     28  C   UNL A   1      33.102  34.318  28.451  1.00  0.00     0.251 C 
ATOM     29  H   UNL A   1      31.400  34.514  27.423  1.00  0.00     0.163 HD
ATOM     30  O   UNL A   1      32.878  35.293  29.154  1.00  0.00    -0.269 OA
BRANCH  28  31
ATOM     31  C   UNL A   1      34.281  33.474  28.715  1.00  0.00     0.039 A 
ATOM     32  C   UNL A   1      35.537  34.087  28.712  1.00  0.00     0.014 A 
ATOM     33  C   UNL A   1      34.148  32.129  29.053  1.00  0.00     0.014 A 
ATOM     34  C   UNL A   1      36.647  33.379  29.169  1.00  0.00     0.010 A 
ATOM     35  C   UNL A   1      35.232  31.458  29.601  1.00  0.00     0.010 A 
ATOM     36  C   UNL A   1      36.486  32.083  29.681  1.00  0.00    -0.014 A 
BRANCH  36  37
ATOM     37  C   UNL A   1      37.608  31.372  30.337  1.00  0.00     0.031 A 
ATOM     38  C   UNL A   1      37.951  31.675  31.765  1.00  0.00     0.074 A 
ATOM     39  C   UNL A   1      38.374  30.537  29.607  1.00  0.00     0.049 A 
ATOM     40  N   UNL A   1      38.957  31.247  32.483  1.00  0.00    -0.248 NA
ATOM     41  C   UNL A   1      37.069  32.621  32.468  1.00  0.00     0.031 C 
ATOM     42  C   UNL A   1      38.181  30.231  28.187  1.00  0.00     0.029 A 
ATOM     43  N   UNL A   1      39.482  29.807  29.953  1.00  0.00    -0.354 N 
ATOM     44  C   UNL A   1      38.846  31.896  33.706  1.00  0.00     0.074 A 
ATOM     45  C   UNL A   1      37.710  32.785  33.614  1.00  0.00     0.031 C 
ATOM     46  C   UNL A   1      39.122  29.360  27.791  1.00  0.00     0.029 A 
ATOM     47  C   UNL A   1      40.003  29.072  28.916  1.00  0.00     0.049 A 
ATOM     48  H   UNL A   1      39.867  29.808  30.859  1.00  0.00     0.167 HD
ATOM     49  C   UNL A   1      39.611  31.744  34.812  1.00  0.00     0.037 A 
ATOM     50  C   UNL A   1      41.076  28.259  28.879  1.00  0.00     0.037 A 
ATOM     51  C   UNL A   1      40.713  30.824  34.901  1.00  0.00     0.049 A 
ATOM     52  C   UNL A   1      41.872  28.060  30.137  1.00  0.00     0.074 A 
ATOM     53  C   UNL A   1      41.507  30.526  35.994  1.00  0.00     0.029 A 
ATOM     54  N   UNL A   1      41.173  30.044  33.848  1.00  0.00    -0.354 N 
ATOM     55  N   UNL A   1      41.712  28.620  31.312  1.00  0.00    -0.248 NA
ATOM     56  C   UNL A   1      42.988  27.107  30.070  1.00  0.00     0.031 C 
ATOM     57  C   UNL A   1      42.467  29.592  35.593  1.00  0.00     0.029 A 
ATOM     58  C   UNL A   1      42.248  29.276  34.261  1.00  0.00     0.049 A 
ATOM     59  H   UNL A   1      40.790  30.040  32.941  1.00  0.00     0.167 HD
ATOM     60  C   UNL A   1      42.693  28.077  32.130  1.00  0.00     0.074 A 
ATOM     61  C   UNL A   1      43.430  27.128  31.320  1.00  0.00     0.031 C 
ATOM     62  C   UNL A   1      42.963  28.340  33.431  1.00  0.00     0.037 A 
BRANCH  49  63
ATOM     63  C   UNL A   1      39.270  32.589  36.006  1.00  0.00     0.057 A 
ATOM     64  C   UNL A   1      38.393  32.143  37.004  1.00  0.00     0.134 A 
ATOM     65  C   UNL A   1      39.823  33.866  36.159  1.00  0.00     0.134 A 
ATOM     66  F   UNL A   1      37.815  30.934  36.911  1.00  0.00    -0.206 F 
ATOM     67  C   UNL A   1      38.048  32.949  38.090  1.00  0.00     0.040 A 
ATOM     68  C   UNL A   1      39.509  34.671  37.256  1.00  0.00     0.040 A 
ATOM     69  F   UNL A   1      40.673  34.356  35.244  1.00  0.00    -0.206 F 
ATOM     70  C   UNL A   1      38.611  34.217  38.221  1.00  0.00     0.006 A 
ENDBRANCH  49  63
BRANCH  50  71
ATOM     71  C   UNL A   1      41.426  27.549  27.623  1.00  0.00     0.057 A 
ATOM     72  C   UNL A   1      40.940  26.263  27.362  1.00  0.00     0.134 A 
ATOM     73  C   UNL A   1      42.236  28.143  26.647  1.00  0.00     0.134 A 
ATOM     74  F   UNL A   1      40.170  25.638  28.265  1.00  0.00    -0.206 F 
ATOM     75  C   UNL A   1      41.255  25.586  26.183  1.00  0.00     0.040 A 
ATOM     76  C   UNL A   1      42.542  27.486  25.453  1.00  0.00     0.040 A 
ATOM     77  F   UNL A   1      42.725  29.378  26.831  1.00  0.00    -0.206 F 
ATOM     78  C   UNL A   1      42.054  26.201  25.222  1.00  0.00     0.006 A 
ENDBRANCH  50  71
BRANCH  62  79
ATOM     79  C   UNL A   1      44.090  27.574  34.057  1.00  0.00     0.057 A 
ATOM     80  C   UNL A   1      45.399  28.070  34.067  1.00  0.00     0.134 A 
ATOM     81  C   UNL A   1      43.855  26.343  34.681  1.00  0.00     0.134 A 
ATOM     82  F   UNL A   1      45.690  29.237  33.473  1.00  0.00    -0.206 F 
ATOM     83  C   UNL A   1      46.442  27.355  34.657  1.00  0.00     0.040 A 
ATOM     84  C   UNL A   1      44.884  25.631  35.296  1.00  0.00     0.040 A 
ATOM     85  F   UNL A   1      42.620  25.819  34.711  1.00  0.00    -0.206 F 
ATOM     86  C   UNL A   1      46.184  26.134  35.279  1.00  0.00     0.006 A 
ENDBRANCH  62  79
ENDBRANCH  36  37
ENDBRANCH  28  31
ENDBRANCH  26  27
ENDBRANCH  25  26
ENDBRANCH  24  25
ENDBRANCH   3  24
TORSDOF 17
ENDMDL
