MODEL 1
REMARK VINA RESULT:     -11.1      0.000      0.000
REMARK SMILES C[C@@H](C(=O)NCCCNC(=O)c1ccc(-c2c3nc(c(-c4c(F)cccc4F)c4ccc([nH]4)c(-c4c(F)cccc4F)c4nc(c(-c5c(F)cccc5F)c5ccc2[nH]5)C=C4)C=C3)cc1)c1ccc(Cc2ccsc2)cc1F
REMARK SMILES IDX 6 1 5 2 3 3 4 4 2 6 1 7 66 8 67 9 77 10 68 11 76 12 78 13
REMARK SMILES IDX 69 14 70 15 71 16 72 17 75 18 73 19 74 20 7 21 8 22 9 23
REMARK SMILES IDX 10 24 11 26 12 27 13 28 65 29 14 30 64 31 15 32 16 33 17 34
REMARK SMILES IDX 58 35 18 36 63 37 57 38 59 39 19 40 62 41 56 42 55 43 20 45
REMARK SMILES IDX 46 46 29 47 45 48 30 49 33 50 44 51 60 52 31 53 32 54 43 56
REMARK SMILES IDX 61 57 34 58 21 59 22 60 27 61 23 62 24 63 26 64 28 65 25 66
REMARK SMILES IDX 47 67 48 68 53 69 49 70 50 71 52 72 54 73 51 74 35 75 36 76
REMARK SMILES IDX 41 77 37 78 38 79 40 80 42 81 39 82
REMARK H PARENT 5 5 9 25 59 44 33 55
REMARK Flexibility Score: inf
ROOT
ATOM      1  C   UNL A   1      36.293  19.866  25.002  1.00  0.00     0.117 C 
ENDROOT
BRANCH   1   2
ATOM      2  N   UNL A   1      36.058  21.015  25.859  1.00  0.00    -0.356 N 
ATOM      3  C   UNL A   1      35.703  22.297  25.541  1.00  0.00     0.227 C 
ATOM      4  O   UNL A   1      35.862  23.151  26.416  1.00  0.00    -0.274 OA
ATOM      5  H   UNL A   1      36.172  20.843  26.822  1.00  0.00     0.163 HD
BRANCH   3   6
ATOM      6  C   UNL A   1      35.165  22.617  24.135  1.00  0.00     0.108 C 
ATOM      7  C   UNL A   1      36.360  23.017  23.258  1.00  0.00     0.023 C 
BRANCH   6   8
ATOM      8  C   UNL A   1      34.045  23.662  24.127  1.00  0.00    -0.000 A 
ATOM      9  C   UNL A   1      34.269  24.989  23.728  1.00  0.00     0.008 A 
ATOM     10  C   UNL A   1      32.727  23.318  24.462  1.00  0.00     0.127 A 
ATOM     11  C   UNL A   1      33.241  25.934  23.736  1.00  0.00     0.004 A 
ATOM     12  C   UNL A   1      31.704  24.270  24.516  1.00  0.00     0.043 A 
ATOM     13  F   UNL A   1      32.412  22.040  24.719  1.00  0.00    -0.207 F 
ATOM     14  C   UNL A   1      31.954  25.604  24.173  1.00  0.00    -0.041 A 
BRANCH  14  15
ATOM     15  C   UNL A   1      30.861  26.646  24.216  1.00  0.00     0.072 C 
BRANCH  15  16
ATOM     16  C   UNL A   1      31.244  27.668  25.255  1.00  0.00    -0.033 A 
ATOM     17  C   UNL A   1      31.503  27.394  26.645  1.00  0.00     0.015 A 
ATOM     18  C   UNL A   1      31.465  29.009  24.989  1.00  0.00     0.068 A 
ATOM     19  C   UNL A   1      31.852  28.517  27.362  1.00  0.00     0.065 A 
ATOM     20  S   UNL A   1      31.926  29.904  26.372  1.00  0.00    -0.152 S 
ENDBRANCH  15  16
ENDBRANCH  14  15
ENDBRANCH   6   8
ENDBRANCH   3   6
ENDBRANCH   1   2
BRANCH   1  21
ATOM     21  C   UNL A   1      37.772  19.742  24.624  1.00  0.00     0.042 C 
BRANCH  21  22
ATOM     22  C   UNL A   1      38.743  20.094  25.745  1.00  0.00     0.118 C 
BRANCH  22  23
ATOM     23  N   UNL A   1      39.921  19.246  25.748  1.00  0.00    -0.352 N 
ATOM     24  C   UNL A   1      41.227  19.563  26.012  1.00  0.00     0.251 C 
ATOM     25  H   UNL A   1      39.758  18.301  25.528  1.00  0.00     0.163 HD
ATOM     26  O   UNL A   1      42.104  18.722  25.787  1.00  0.00    -0.269 OA
BRANCH  24  27
ATOM     27  C   UNL A   1      41.613  20.890  26.546  1.00  0.00     0.039 A 
ATOM     28  C   UNL A   1      41.488  21.114  27.922  1.00  0.00     0.014 A 
ATOM     29  C   UNL A   1      42.026  21.934  25.712  1.00  0.00     0.014 A 
ATOM     30  C   UNL A   1      41.794  22.366  28.460  1.00  0.00     0.010 A 
ATOM     31  C   UNL A   1      42.399  23.162  26.258  1.00  0.00     0.010 A 
ATOM     32  C   UNL A   1      42.264  23.399  27.635  1.00  0.00    -0.014 A 
BRANCH  32  33
ATOM     33  C   UNL A   1      42.564  24.742  28.194  1.00  0.00     0.031 A 
ATOM     34  C   UNL A   1      43.967  25.090  28.616  1.00  0.00     0.074 A 
ATOM     35  C   UNL A   1      41.575  25.642  28.348  1.00  0.00     0.049 A 
ATOM     36  N   UNL A   1      44.421  26.200  29.144  1.00  0.00    -0.248 NA
ATOM     37  C   UNL A   1      44.988  24.046  28.445  1.00  0.00     0.031 C 
ATOM     38  C   UNL A   1      40.166  25.416  28.025  1.00  0.00     0.029 A 
ATOM     39  N   UNL A   1      41.605  26.930  28.823  1.00  0.00    -0.354 N 
ATOM     40  C   UNL A   1      45.773  25.980  29.379  1.00  0.00     0.074 A 
ATOM     41  C   UNL A   1      46.053  24.615  28.986  1.00  0.00     0.031 C 
ATOM     42  C   UNL A   1      39.470  26.533  28.290  1.00  0.00     0.029 A 
ATOM     43  C   UNL A   1      40.377  27.545  28.824  1.00  0.00     0.049 A 
ATOM     44  H   UNL A   1      42.429  27.371  29.133  1.00  0.00     0.167 HD
ATOM     45  C   UNL A   1      46.704  26.841  29.856  1.00  0.00     0.037 A 
ATOM     46  C   UNL A   1      40.024  28.787  29.206  1.00  0.00     0.037 A 
ATOM     47  C   UNL A   1      46.435  28.207  30.221  1.00  0.00     0.049 A 
ATOM     48  C   UNL A   1      41.079  29.736  29.700  1.00  0.00     0.074 A 
ATOM     49  C   UNL A   1      47.319  29.170  30.675  1.00  0.00     0.029 A 
ATOM     50  N   UNL A   1      45.184  28.805  30.167  1.00  0.00    -0.354 N 
ATOM     51  N   UNL A   1      42.362  29.531  29.865  1.00  0.00    -0.248 NA
ATOM     52  C   UNL A   1      40.638  31.095  30.045  1.00  0.00     0.031 C 
ATOM     53  C   UNL A   1      46.597  30.345  30.921  1.00  0.00     0.029 A 
ATOM     54  C   UNL A   1      45.272  30.122  30.583  1.00  0.00     0.049 A 
ATOM     55  H   UNL A   1      44.357  28.357  29.875  1.00  0.00     0.167 HD
ATOM     56  C   UNL A   1      42.887  30.738  30.308  1.00  0.00     0.074 A 
ATOM     57  C   UNL A   1      41.784  31.675  30.373  1.00  0.00     0.031 C 
ATOM     58  C   UNL A   1      44.167  31.043  30.633  1.00  0.00     0.037 A 
BRANCH  45  59
ATOM     59  C   UNL A   1      48.106  26.325  29.998  1.00  0.00     0.057 A 
ATOM     60  C   UNL A   1      49.030  26.405  28.948  1.00  0.00     0.134 A 
ATOM     61  C   UNL A   1      48.544  25.759  31.202  1.00  0.00     0.134 A 
ATOM     62  F   UNL A   1      48.669  26.924  27.765  1.00  0.00    -0.206 F 
ATOM     63  C   UNL A   1      50.329  25.912  29.078  1.00  0.00     0.040 A 
ATOM     64  C   UNL A   1      49.849  25.286  31.352  1.00  0.00     0.040 A 
ATOM     65  F   UNL A   1      47.713  25.657  32.250  1.00  0.00    -0.206 F 
ATOM     66  C   UNL A   1      50.743  25.354  30.286  1.00  0.00     0.006 A 
ENDBRANCH  45  59
BRANCH  46  67
ATOM     67  C   UNL A   1      38.608  29.216  29.098  1.00  0.00     0.057 A 
ATOM     68  C   UNL A   1      37.758  29.185  30.209  1.00  0.00     0.134 A 
ATOM     69  C   UNL A   1      38.073  29.670  27.887  1.00  0.00     0.134 A 
ATOM     70  F   UNL A   1      38.210  28.744  31.392  1.00  0.00    -0.206 F 
ATOM     71  C   UNL A   1      36.421  29.573  30.117  1.00  0.00     0.040 A 
ATOM     72  C   UNL A   1      36.744  30.081  27.785  1.00  0.00     0.040 A 
ATOM     73  F   UNL A   1      38.840  29.731  26.788  1.00  0.00    -0.206 F 
ATOM     74  C   UNL A   1      35.912  30.028  28.902  1.00  0.00     0.006 A 
ENDBRANCH  46  67
BRANCH  58  75
ATOM     75  C   UNL A   1      44.448  32.455  31.051  1.00  0.00     0.057 A 
ATOM     76  C   UNL A   1      44.747  33.457  30.119  1.00  0.00     0.134 A 
ATOM     77  C   UNL A   1      44.391  32.823  32.402  1.00  0.00     0.134 A 
ATOM     78  F   UNL A   1      44.830  33.166  28.811  1.00  0.00    -0.206 F 
ATOM     79  C   UNL A   1      45.002  34.770  30.517  1.00  0.00     0.040 A 
ATOM     80  C   UNL A   1      44.621  34.137  32.809  1.00  0.00     0.040 A 
ATOM     81  F   UNL A   1      44.103  31.913  33.343  1.00  0.00    -0.206 F 
ATOM     82  C   UNL A   1      44.934  35.113  31.866  1.00  0.00     0.006 A 
ENDBRANCH  58  75
ENDBRANCH  32  33
ENDBRANCH  24  27
ENDBRANCH  22  23
ENDBRANCH  21  22
ENDBRANCH   1  21
TORSDOF 13
ENDMDL
MODEL 2
REMARK VINA RESULT:     -11.0      1.081      1.875
REMARK SMILES C[C@@H](C(=O)NCCCNC(=O)c1ccc(-c2c3nc(c(-c4c(F)cccc4F)c4ccc([nH]4)c(-c4c(F)cccc4F)c4nc(c(-c5c(F)cccc5F)c5ccc2[nH]5)C=C4)C=C3)cc1)c1ccc(Cc2ccsc2)cc1F
REMARK SMILES IDX 6 1 5 2 3 3 4 4 2 6 1 7 66 8 67 9 77 10 68 11 76 12 78 13
REMARK SMILES IDX 69 14 70 15 71 16 72 17 75 18 73 19 74 20 7 21 8 22 9 23
REMARK SMILES IDX 10 24 11 26 12 27 13 28 65 29 14 30 64 31 15 32 16 33 17 34
REMARK SMILES IDX 58 35 18 36 63 37 57 38 59 39 19 40 62 41 56 42 55 43 20 45
REMARK SMILES IDX 46 46 29 47 45 48 30 49 33 50 44 51 60 52 31 53 32 54 43 56
REMARK SMILES IDX 61 57 34 58 21 59 22 60 27 61 23 62 24 63 26 64 28 65 25 66
REMARK SMILES IDX 47 67 48 68 53 69 49 70 50 71 52 72 54 73 51 74 35 75 36 76
REMARK SMILES IDX 41 77 37 78 38 79 40 80 42 81 39 82
REMARK H PARENT 5 5 9 25 59 44 33 55
REMARK Flexibility Score: inf
ROOT
ATOM      1  C   UNL A   1      36.535  20.143  25.022  1.00  0.00     0.117 C 
ENDROOT
BRANCH   1   2
ATOM      2  N   UNL A   1      36.669  21.317  25.867  1.00  0.00    -0.356 N 
ATOM      3  C   UNL A   1      36.189  22.587  25.699  1.00  0.00     0.227 C 
ATOM      4  O   UNL A   1      36.692  23.469  26.398  1.00  0.00    -0.274 OA
ATOM      5  H   UNL A   1      37.186  21.175  26.693  1.00  0.00     0.163 HD
BRANCH   3   6
ATOM      6  C   UNL A   1      35.097  22.861  24.650  1.00  0.00     0.108 C 
ATOM      7  C   UNL A   1      35.791  23.083  23.298  1.00  0.00     0.023 C 
BRANCH   6   8
ATOM      8  C   UNL A   1      34.152  24.006  25.028  1.00  0.00    -0.000 A 
ATOM      9  C   UNL A   1      34.351  25.317  24.568  1.00  0.00     0.008 A 
ATOM     10  C   UNL A   1      33.008  23.776  25.807  1.00  0.00     0.127 A 
ATOM     11  C   UNL A   1      33.487  26.353  24.929  1.00  0.00     0.004 A 
ATOM     12  C   UNL A   1      32.166  24.818  26.211  1.00  0.00     0.043 A 
ATOM     13  F   UNL A   1      32.680  22.527  26.167  1.00  0.00    -0.207 F 
ATOM     14  C   UNL A   1      32.409  26.132  25.793  1.00  0.00    -0.041 A 
BRANCH  14  15
ATOM     15  C   UNL A   1      31.508  27.270  26.210  1.00  0.00     0.072 C 
BRANCH  15  16
ATOM     16  C   UNL A   1      30.884  27.841  24.964  1.00  0.00    -0.033 A 
ATOM     17  C   UNL A   1      29.985  27.143  24.081  1.00  0.00     0.015 A 
ATOM     18  C   UNL A   1      31.043  29.149  24.537  1.00  0.00     0.068 A 
ATOM     19  C   UNL A   1      29.553  27.916  23.026  1.00  0.00     0.065 A 
ATOM     20  S   UNL A   1      30.174  29.503  23.107  1.00  0.00    -0.152 S 
ENDBRANCH  15  16
ENDBRANCH  14  15
ENDBRANCH   6   8
ENDBRANCH   3   6
ENDBRANCH   1   2
BRANCH   1  21
ATOM     21  C   UNL A   1      37.827  19.321  24.996  1.00  0.00     0.042 C 
BRANCH  21  22
ATOM     22  C   UNL A   1      39.012  19.984  25.689  1.00  0.00     0.118 C 
BRANCH  22  23
ATOM     23  N   UNL A   1      40.150  19.092  25.821  1.00  0.00    -0.352 N 
ATOM     24  C   UNL A   1      41.459  19.380  26.106  1.00  0.00     0.251 C 
ATOM     25  H   UNL A   1      39.953  18.138  25.685  1.00  0.00     0.163 HD
ATOM     26  O   UNL A   1      42.304  18.486  25.997  1.00  0.00    -0.269 OA
BRANCH  24  27
ATOM     27  C   UNL A   1      41.884  20.735  26.526  1.00  0.00     0.039 A 
ATOM     28  C   UNL A   1      41.842  21.051  27.889  1.00  0.00     0.014 A 
ATOM     29  C   UNL A   1      42.253  21.717  25.602  1.00  0.00     0.014 A 
ATOM     30  C   UNL A   1      42.188  22.333  28.323  1.00  0.00     0.010 A 
ATOM     31  C   UNL A   1      42.666  22.975  26.042  1.00  0.00     0.010 A 
ATOM     32  C   UNL A   1      42.615  23.304  27.405  1.00  0.00    -0.014 A 
BRANCH  32  33
ATOM     33  C   UNL A   1      42.955  24.678  27.855  1.00  0.00     0.031 A 
ATOM     34  C   UNL A   1      44.396  25.102  27.967  1.00  0.00     0.074 A 
ATOM     35  C   UNL A   1      41.976  25.539  28.188  1.00  0.00     0.049 A 
ATOM     36  N   UNL A   1      44.893  26.248  28.359  1.00  0.00    -0.248 NA
ATOM     37  C   UNL A   1      45.410  24.098  27.614  1.00  0.00     0.031 C 
ATOM     38  C   UNL A   1      40.543  25.240  28.169  1.00  0.00     0.029 A 
ATOM     39  N   UNL A   1      42.038  26.843  28.612  1.00  0.00    -0.354 N 
ATOM     40  C   UNL A   1      46.273  26.096  28.315  1.00  0.00     0.074 A 
ATOM     41  C   UNL A   1      46.535  24.732  27.907  1.00  0.00     0.031 C 
ATOM     42  C   UNL A   1      39.862  26.334  28.544  1.00  0.00     0.029 A 
ATOM     43  C   UNL A   1      40.807  27.403  28.851  1.00  0.00     0.049 A 
ATOM     44  H   UNL A   1      42.885  27.330  28.732  1.00  0.00     0.167 HD
ATOM     45  C   UNL A   1      47.238  27.014  28.565  1.00  0.00     0.037 A 
ATOM     46  C   UNL A   1      40.479  28.642  29.266  1.00  0.00     0.037 A 
ATOM     47  C   UNL A   1      46.982  28.379  28.942  1.00  0.00     0.049 A 
ATOM     48  C   UNL A   1      41.564  29.653  29.506  1.00  0.00     0.074 A 
ATOM     49  C   UNL A   1      47.891  29.396  29.178  1.00  0.00     0.029 A 
ATOM     50  N   UNL A   1      45.719  28.919  29.134  1.00  0.00    -0.354 N 
ATOM     51  N   UNL A   1      42.863  29.510  29.406  1.00  0.00    -0.248 NA
ATOM     52  C   UNL A   1      41.136  31.002  29.900  1.00  0.00     0.031 C 
ATOM     53  C   UNL A   1      47.178  30.545  29.538  1.00  0.00     0.029 A 
ATOM     54  C   UNL A   1      45.825  30.253  29.489  1.00  0.00     0.049 A 
ATOM     55  H   UNL A   1      44.873  28.426  29.032  1.00  0.00     0.167 HD
ATOM     56  C   UNL A   1      43.406  30.754  29.699  1.00  0.00     0.074 A 
ATOM     57  C   UNL A   1      42.295  31.643  29.967  1.00  0.00     0.031 C 
ATOM     58  C   UNL A   1      44.708  31.126  29.742  1.00  0.00     0.037 A 
BRANCH  45  59
ATOM     59  C   UNL A   1      48.664  26.565  28.427  1.00  0.00     0.057 A 
ATOM     60  C   UNL A   1      49.390  26.072  29.519  1.00  0.00     0.134 A 
ATOM     61  C   UNL A   1      49.313  26.610  27.187  1.00  0.00     0.134 A 
ATOM     62  F   UNL A   1      48.830  26.016  30.736  1.00  0.00    -0.206 F 
ATOM     63  C   UNL A   1      50.720  25.670  29.390  1.00  0.00     0.040 A 
ATOM     64  C   UNL A   1      50.635  26.186  27.041  1.00  0.00     0.040 A 
ATOM     65  F   UNL A   1      48.674  27.065  26.098  1.00  0.00    -0.206 F 
ATOM     66  C   UNL A   1      51.345  25.722  28.146  1.00  0.00     0.006 A 
ENDBRANCH  45  59
BRANCH  46  67
ATOM     67  C   UNL A   1      39.052  29.005  29.444  1.00  0.00     0.057 A 
ATOM     68  C   UNL A   1      38.310  29.552  28.392  1.00  0.00     0.134 A 
ATOM     69  C   UNL A   1      38.397  28.811  30.666  1.00  0.00     0.134 A 
ATOM     70  F   UNL A   1      38.889  29.776  27.204  1.00  0.00    -0.206 F 
ATOM     71  C   UNL A   1      36.970  29.911  28.551  1.00  0.00     0.040 A 
ATOM     72  C   UNL A   1      37.052  29.145  30.833  1.00  0.00     0.040 A 
ATOM     73  F   UNL A   1      39.052  28.283  31.710  1.00  0.00    -0.206 F 
ATOM     74  C   UNL A   1      36.337  29.702  29.775  1.00  0.00     0.006 A 
ENDBRANCH  46  67
BRANCH  58  75
ATOM     75  C   UNL A   1      44.999  32.563  30.056  1.00  0.00     0.057 A 
ATOM     76  C   UNL A   1      45.061  33.541  29.055  1.00  0.00     0.134 A 
ATOM     77  C   UNL A   1      45.190  32.979  31.381  1.00  0.00     0.134 A 
ATOM     78  F   UNL A   1      44.901  33.204  27.766  1.00  0.00    -0.206 F 
ATOM     79  C   UNL A   1      45.327  34.877  29.357  1.00  0.00     0.040 A 
ATOM     80  C   UNL A   1      45.433  34.316  31.697  1.00  0.00     0.040 A 
ATOM     81  F   UNL A   1      45.135  32.093  32.387  1.00  0.00    -0.206 F 
ATOM     82  C   UNL A   1      45.508  35.268  30.683  1.00  0.00     0.006 A 
ENDBRANCH  58  75
ENDBRANCH  32  33
ENDBRANCH  24  27
ENDBRANCH  22  23
ENDBRANCH  21  22
ENDBRANCH   1  21
TORSDOF 13
ENDMDL
MODEL 3
REMARK VINA RESULT:     -10.9      4.459      9.246
REMARK SMILES C[C@@H](C(=O)NCCCNC(=O)c1ccc(-c2c3nc(c(-c4c(F)cccc4F)c4ccc([nH]4)c(-c4c(F)cccc4F)c4nc(c(-c5c(F)cccc5F)c5ccc2[nH]5)C=C4)C=C3)cc1)c1ccc(Cc2ccsc2)cc1F
REMARK SMILES IDX 6 1 5 2 3 3 4 4 2 6 1 7 66 8 67 9 77 10 68 11 76 12 78 13
REMARK SMILES IDX 69 14 70 15 71 16 72 17 75 18 73 19 74 20 7 21 8 22 9 23
REMARK SMILES IDX 10 24 11 26 12 27 13 28 65 29 14 30 64 31 15 32 16 33 17 34
REMARK SMILES IDX 58 35 18 36 63 37 57 38 59 39 19 40 62 41 56 42 55 43 20 45
REMARK SMILES IDX 46 46 29 47 45 48 30 49 33 50 44 51 60 52 31 53 32 54 43 56
REMARK SMILES IDX 61 57 34 58 21 59 22 60 27 61 23 62 24 63 26 64 28 65 25 66
REMARK SMILES IDX 47 67 48 68 53 69 49 70 50 71 52 72 54 73 51 74 35 75 36 76
REMARK SMILES IDX 41 77 37 78 38 79 40 80 42 81 39 82
REMARK H PARENT 5 5 9 25 59 44 33 55
REMARK Flexibility Score: inf
ROOT
ATOM      1  C   UNL A   1      31.341  30.817  25.630  1.00  0.00     0.117 C 
ENDROOT
BRANCH   1   2
ATOM      2  N   UNL A   1      32.717  30.354  25.587  1.00  0.00    -0.356 N 
ATOM      3  C   UNL A   1      33.234  29.101  25.773  1.00  0.00     0.227 C 
ATOM      4  O   UNL A   1      34.447  29.025  25.984  1.00  0.00    -0.274 OA
ATOM      5  H   UNL A   1      33.383  31.052  25.392  1.00  0.00     0.163 HD
BRANCH   3   6
ATOM      6  C   UNL A   1      32.304  27.876  25.743  1.00  0.00     0.108 C 
ATOM      7  C   UNL A   1      31.737  27.685  27.158  1.00  0.00     0.023 C 
BRANCH   6   8
ATOM      8  C   UNL A   1      32.969  26.610  25.194  1.00  0.00    -0.000 A 
ATOM      9  C   UNL A   1      33.381  25.562  26.033  1.00  0.00     0.008 A 
ATOM     10  C   UNL A   1      33.140  26.418  23.815  1.00  0.00     0.127 A 
ATOM     11  C   UNL A   1      33.996  24.418  25.520  1.00  0.00     0.004 A 
ATOM     12  C   UNL A   1      33.796  25.296  23.299  1.00  0.00     0.043 A 
ATOM     13  F   UNL A   1      32.646  27.313  22.947  1.00  0.00    -0.207 F 
ATOM     14  C   UNL A   1      34.256  24.285  24.152  1.00  0.00    -0.041 A 
BRANCH  14  15
ATOM     15  C   UNL A   1      34.960  23.062  23.614  1.00  0.00     0.072 C 
BRANCH  15  16
ATOM     16  C   UNL A   1      34.161  21.854  24.030  1.00  0.00    -0.033 A 
ATOM     17  C   UNL A   1      32.827  21.539  23.587  1.00  0.00     0.015 A 
ATOM     18  C   UNL A   1      34.637  20.845  24.848  1.00  0.00     0.068 A 
ATOM     19  C   UNL A   1      32.346  20.360  24.113  1.00  0.00     0.065 A 
ATOM     20  S   UNL A   1      33.502  19.590  25.102  1.00  0.00    -0.152 S 
ENDBRANCH  15  16
ENDBRANCH  14  15
ENDBRANCH   6   8
ENDBRANCH   3   6
ENDBRANCH   1   2
BRANCH   1  21
ATOM     21  C   UNL A   1      31.211  32.108  26.443  1.00  0.00     0.042 C 
BRANCH  21  22
ATOM     22  C   UNL A   1      32.451  32.477  27.249  1.00  0.00     0.118 C 
BRANCH  22  23
ATOM     23  N   UNL A   1      32.474  33.879  27.626  1.00  0.00    -0.352 N 
ATOM     24  C   UNL A   1      33.284  34.532  28.518  1.00  0.00     0.251 C 
ATOM     25  H   UNL A   1      31.810  34.445  27.173  1.00  0.00     0.163 HD
ATOM     26  O   UNL A   1      33.019  35.700  28.821  1.00  0.00    -0.269 OA
BRANCH  24  27
ATOM     27  C   UNL A   1      34.456  33.869  29.135  1.00  0.00     0.039 A 
ATOM     28  C   UNL A   1      35.733  34.230  28.692  1.00  0.00     0.014 A 
ATOM     29  C   UNL A   1      34.317  32.854  30.087  1.00  0.00     0.014 A 
ATOM     30  C   UNL A   1      36.862  33.595  29.213  1.00  0.00     0.010 A 
ATOM     31  C   UNL A   1      35.448  32.269  30.658  1.00  0.00     0.010 A 
ATOM     32  C   UNL A   1      36.732  32.616  30.209  1.00  0.00    -0.014 A 
BRANCH  32  33
ATOM     33  C   UNL A   1      37.926  31.914  30.747  1.00  0.00     0.031 A 
ATOM     34  C   UNL A   1      38.477  32.286  32.098  1.00  0.00     0.074 A 
ATOM     35  C   UNL A   1      38.532  30.962  30.015  1.00  0.00     0.049 A 
ATOM     36  N   UNL A   1      39.520  31.804  32.728  1.00  0.00    -0.248 NA
ATOM     37  C   UNL A   1      37.779  33.356  32.826  1.00  0.00     0.031 C 
ATOM     38  C   UNL A   1      38.129  30.540  28.672  1.00  0.00     0.029 A 
ATOM     39  N   UNL A   1      39.623  30.177  30.296  1.00  0.00    -0.354 N 
ATOM     40  C   UNL A   1      39.609  32.522  33.914  1.00  0.00     0.074 A 
ATOM     41  C   UNL A   1      38.547  33.505  33.894  1.00  0.00     0.031 C 
ATOM     42  C   UNL A   1      38.947  29.561  28.256  1.00  0.00     0.029 A 
ATOM     43  C   UNL A   1      39.946  29.301  29.289  1.00  0.00     0.049 A 
ATOM     44  H   UNL A   1      40.127  30.237  31.141  1.00  0.00     0.167 HD
ATOM     45  C   UNL A   1      40.479  32.362  34.940  1.00  0.00     0.037 A 
ATOM     46  C   UNL A   1      40.932  28.388  29.211  1.00  0.00     0.037 A 
ATOM     47  C   UNL A   1      41.517  31.367  34.977  1.00  0.00     0.049 A 
ATOM     48  C   UNL A   1      41.864  28.205  30.375  1.00  0.00     0.074 A 
ATOM     49  C   UNL A   1      42.423  31.099  35.990  1.00  0.00     0.029 A 
ATOM     50  N   UNL A   1      41.784  30.469  33.954  1.00  0.00    -0.354 N 
ATOM     51  N   UNL A   1      41.902  28.853  31.513  1.00  0.00    -0.248 NA
ATOM     52  C   UNL A   1      42.881  27.151  30.250  1.00  0.00     0.031 C 
ATOM     53  C   UNL A   1      43.255  30.055  35.567  1.00  0.00     0.029 A 
ATOM     54  C   UNL A   1      42.843  29.650  34.308  1.00  0.00     0.049 A 
ATOM     55  H   UNL A   1      41.293  30.423  33.101  1.00  0.00     0.167 HD
ATOM     56  C   UNL A   1      42.926  28.272  32.249  1.00  0.00     0.074 A 
ATOM     57  C   UNL A   1      43.476  27.209  31.433  1.00  0.00     0.031 C 
ATOM     58  C   UNL A   1      43.371  28.590  33.489  1.00  0.00     0.037 A 
BRANCH  45  59
ATOM     59  C   UNL A   1      40.331  33.285  36.114  1.00  0.00     0.057 A 
ATOM     60  C   UNL A   1      41.078  34.466  36.221  1.00  0.00     0.134 A 
ATOM     61  C   UNL A   1      39.422  33.001  37.141  1.00  0.00     0.134 A 
ATOM     62  F   UNL A   1      41.975  34.789  35.277  1.00  0.00    -0.206 F 
ATOM     63  C   UNL A   1      40.949  35.316  37.321  1.00  0.00     0.040 A 
ATOM     64  C   UNL A   1      39.266  33.857  38.233  1.00  0.00     0.040 A 
ATOM     65  F   UNL A   1      38.671  31.891  37.100  1.00  0.00    -0.206 F 
ATOM     66  C   UNL A   1      40.037  35.014  38.329  1.00  0.00     0.006 A 
ENDBRANCH  45  59
BRANCH  46  67
ATOM     67  C   UNL A   1      41.063  27.547  27.996  1.00  0.00     0.057 A 
ATOM     68  C   UNL A   1      41.826  27.972  26.903  1.00  0.00     0.134 A 
ATOM     69  C   UNL A   1      40.432  26.301  27.899  1.00  0.00     0.134 A 
ATOM     70  F   UNL A   1      42.439  29.164  26.931  1.00  0.00    -0.206 F 
ATOM     71  C   UNL A   1      41.945  27.197  25.748  1.00  0.00     0.040 A 
ATOM     72  C   UNL A   1      40.560  25.506  26.760  1.00  0.00     0.040 A 
ATOM     73  F   UNL A   1      39.694  25.835  28.917  1.00  0.00    -0.206 F 
ATOM     74  C   UNL A   1      41.314  25.956  25.678  1.00  0.00     0.006 A 
ENDBRANCH  46  67
BRANCH  58  75
ATOM     75  C   UNL A   1      44.483  27.756  34.051  1.00  0.00     0.057 A 
ATOM     76  C   UNL A   1      45.826  28.131  33.923  1.00  0.00     0.134 A 
ATOM     77  C   UNL A   1      44.203  26.578  34.756  1.00  0.00     0.134 A 
ATOM     78  F   UNL A   1      46.160  29.242  33.247  1.00  0.00    -0.206 F 
ATOM     79  C   UNL A   1      46.854  27.352  34.454  1.00  0.00     0.040 A 
ATOM     80  C   UNL A   1      45.221  25.803  35.312  1.00  0.00     0.040 A 
ATOM     81  F   UNL A   1      42.937  26.168  34.921  1.00  0.00    -0.206 F 
ATOM     82  C   UNL A   1      46.552  26.187  35.156  1.00  0.00     0.006 A 
ENDBRANCH  58  75
ENDBRANCH  32  33
ENDBRANCH  24  27
ENDBRANCH  22  23
ENDBRANCH  21  22
ENDBRANCH   1  21
TORSDOF 13
ENDMDL
