MODEL 1
REMARK VINA RESULT:     -12.4      0.000      0.000
REMARK SMILES C[C@@H]1C[C@H](C)C[C@H]([N@@H+]2[C@@H](C(=O)NCCCNC(=O)c3ccc(-c4c5nc(c(-c6c(F)cccc6F)c6ccc([nH]6)c(-c6c(F)cccc6F)c6nc(c(-c7c(F)cccc7F)c7ccc4[nH]7)C=C6)C=C5)cc3)CC[C@@H]3CCCC[C@@H]32)C1
REMARK SMILES IDX 14 1 13 2 12 3 10 4 11 5 9 7 8 8 80 9 73 11 75 12 79 13
REMARK SMILES IDX 74 14 76 15 78 16 77 17 7 18 5 19 4 20 6 21 3 22 2 23 81 24
REMARK SMILES IDX 1 25 15 26 16 27 17 28 18 30 19 31 20 32 72 33 21 34 71 35
REMARK SMILES IDX 22 36 23 37 24 38 65 39 25 40 70 41 64 42 66 43 26 44 69 45
REMARK SMILES IDX 63 46 62 47 27 49 53 50 36 51 52 52 37 53 40 54 51 55 67 56
REMARK SMILES IDX 38 57 39 58 50 60 68 61 41 62 28 63 29 64 34 65 30 66 31 67
REMARK SMILES IDX 33 68 35 69 32 70 54 71 55 72 60 73 56 74 57 75 59 76 61 77
REMARK SMILES IDX 58 78 42 79 43 80 48 81 44 82 45 83 47 84 49 85 46 86
REMARK H PARENT 12 6 8 10 16 29 66 48 40 59
REMARK Flexibility Score: inf
ROOT
ATOM      1  C   UNL A   1      37.532  19.791  24.981  1.00  0.00     0.042 C 
ENDROOT
BRANCH   1   2
ATOM      2  C   UNL A   1      36.358  20.758  24.905  1.00  0.00     0.118 C 
BRANCH   2   3
ATOM      3  N   UNL A   1      36.644  21.905  24.045  1.00  0.00    -0.351 N 
ATOM      4  C   UNL A   1      36.354  23.183  24.469  1.00  0.00     0.278 C 
ATOM      5  O   UNL A   1      37.073  23.709  25.319  1.00  0.00    -0.268 OA
ATOM      6  H   UNL A   1      37.047  21.762  23.159  1.00  0.00     0.163 HD
BRANCH   4   7
ATOM      7  C   UNL A   1      35.163  23.933  23.794  1.00  0.00     0.274 C 
ATOM      8  N   UNL A   1      34.288  24.571  24.804  1.00  0.00    -0.320 N 
ATOM      9  C   UNL A   1      33.470  23.591  25.516  1.00  0.00     0.188 C 
ATOM     10  H   UNL A   1      34.431  24.925  25.751  1.00  0.00     0.349 HD
ATOM     11  C   UNL A   1      34.361  23.157  22.750  1.00  0.00     0.076 C 
ATOM     12  C   UNL A   1      32.590  22.670  24.647  1.00  0.00     0.048 C 
ATOM     13  C   UNL A   1      32.870  23.897  26.893  1.00  0.00     0.065 C 
ATOM     14  C   UNL A   1      33.118  22.399  23.224  1.00  0.00     0.016 C 
ATOM     15  C   UNL A   1      31.078  22.913  24.697  1.00  0.00     0.010 C 
ATOM     16  C   UNL A   1      31.559  23.179  27.208  1.00  0.00     0.006 C 
ATOM     17  C   UNL A   1      30.531  23.242  26.087  1.00  0.00     0.001 C 
BRANCH   8  18
ATOM     18  C   UNL A   1      34.178  26.037  24.667  1.00  0.00     0.185 C 
ATOM     19  C   UNL A   1      31.579  25.848  22.045  1.00  0.00     0.008 C 
ATOM     20  C   UNL A   1      32.139  26.717  23.172  1.00  0.00    -0.008 C 
ATOM     21  C   UNL A   1      33.662  26.557  23.298  1.00  0.00     0.068 C 
ATOM     22  C   UNL A   1      31.422  26.493  24.503  1.00  0.00     0.007 C 
ATOM     23  C   UNL A   1      32.084  27.282  25.633  1.00  0.00    -0.008 C 
ATOM     24  C   UNL A   1      33.572  26.905  25.796  1.00  0.00     0.068 C 
ATOM     25  C   UNL A   1      31.307  27.204  26.956  1.00  0.00     0.008 C 
ENDBRANCH   8  18
ENDBRANCH   4   7
ENDBRANCH   2   3
ENDBRANCH   1   2
BRANCH   1  26
ATOM     26  C   UNL A   1      38.838  20.438  25.427  1.00  0.00     0.118 C 
BRANCH  26  27
ATOM     27  N   UNL A   1      39.842  19.430  25.709  1.00  0.00    -0.352 N 
ATOM     28  C   UNL A   1      41.158  19.594  26.046  1.00  0.00     0.251 C 
ATOM     29  H   UNL A   1      39.534  18.498  25.651  1.00  0.00     0.163 HD
ATOM     30  O   UNL A   1      41.933  18.637  25.900  1.00  0.00    -0.269 OA
BRANCH  28  31
ATOM     31  C   UNL A   1      41.681  20.869  26.590  1.00  0.00     0.039 A 
ATOM     32  C   UNL A   1      41.533  21.123  27.958  1.00  0.00     0.014 A 
ATOM     33  C   UNL A   1      42.191  21.871  25.758  1.00  0.00     0.014 A 
ATOM     34  C   UNL A   1      41.881  22.370  28.486  1.00  0.00     0.010 A 
ATOM     35  C   UNL A   1      42.604  23.093  26.297  1.00  0.00     0.010 A 
ATOM     36  C   UNL A   1      42.413  23.371  27.658  1.00  0.00    -0.014 A 
BRANCH  36  37
ATOM     37  C   UNL A   1      42.688  24.732  28.191  1.00  0.00     0.031 A 
ATOM     38  C   UNL A   1      44.090  25.119  28.589  1.00  0.00     0.074 A 
ATOM     39  C   UNL A   1      41.686  25.620  28.340  1.00  0.00     0.049 A 
ATOM     40  N   UNL A   1      44.528  26.248  29.091  1.00  0.00    -0.248 NA
ATOM     41  C   UNL A   1      45.133  24.095  28.424  1.00  0.00     0.031 C 
ATOM     42  C   UNL A   1      40.278  25.365  28.034  1.00  0.00     0.029 A 
ATOM     43  N   UNL A   1      41.701  26.916  28.790  1.00  0.00    -0.354 N 
ATOM     44  C   UNL A   1      45.884  26.058  29.324  1.00  0.00     0.074 A 
ATOM     45  C   UNL A   1      46.191  24.695  28.949  1.00  0.00     0.031 C 
ATOM     46  C   UNL A   1      39.567  26.475  28.290  1.00  0.00     0.029 A 
ATOM     47  C   UNL A   1      40.464  27.512  28.798  1.00  0.00     0.049 A 
ATOM     48  H   UNL A   1      42.522  27.376  29.082  1.00  0.00     0.167 HD
ATOM     49  C   UNL A   1      46.800  26.943  29.788  1.00  0.00     0.037 A 
ATOM     50  C   UNL A   1      40.092  28.751  29.168  1.00  0.00     0.037 A 
ATOM     51  C   UNL A   1      46.513  28.314  30.115  1.00  0.00     0.049 A 
ATOM     52  C   UNL A   1      41.131  29.729  29.643  1.00  0.00     0.074 A 
ATOM     53  C   UNL A   1      47.391  29.308  30.512  1.00  0.00     0.029 A 
ATOM     54  N   UNL A   1      45.251  28.886  30.077  1.00  0.00    -0.354 N 
ATOM     55  N   UNL A   1      42.421  29.556  29.790  1.00  0.00    -0.248 NA
ATOM     56  C   UNL A   1      40.663  31.078  29.992  1.00  0.00     0.031 C 
ATOM     57  C   UNL A   1      46.654  30.474  30.747  1.00  0.00     0.029 A 
ATOM     58  C   UNL A   1      45.323  30.215  30.461  1.00  0.00     0.049 A 
ATOM     59  H   UNL A   1      44.426  28.417  29.816  1.00  0.00     0.167 HD
ATOM     60  C   UNL A   1      42.922  30.776  30.228  1.00  0.00     0.074 A 
ATOM     61  C   UNL A   1      41.798  31.684  30.310  1.00  0.00     0.031 C 
ATOM     62  C   UNL A   1      44.199  31.110  30.534  1.00  0.00     0.037 A 
BRANCH  49  63
ATOM     63  C   UNL A   1      48.208  26.452  29.966  1.00  0.00     0.057 A 
ATOM     64  C   UNL A   1      49.174  26.599  28.962  1.00  0.00     0.134 A 
ATOM     65  C   UNL A   1      48.609  25.856  31.167  1.00  0.00     0.134 A 
ATOM     66  F   UNL A   1      48.851  27.152  27.784  1.00  0.00    -0.206 F 
ATOM     67  C   UNL A   1      50.482  26.144  29.137  1.00  0.00     0.040 A 
ATOM     68  C   UNL A   1      49.920  25.419  31.363  1.00  0.00     0.040 A 
ATOM     69  F   UNL A   1      47.735  25.692  32.172  1.00  0.00    -0.206 F 
ATOM     70  C   UNL A   1      50.859  25.557  30.343  1.00  0.00     0.006 A 
ENDBRANCH  49  63
BRANCH  50  71
ATOM     71  C   UNL A   1      38.667  29.151  29.073  1.00  0.00     0.057 A 
ATOM     72  C   UNL A   1      37.823  29.087  30.187  1.00  0.00     0.134 A 
ATOM     73  C   UNL A   1      38.118  29.610  27.870  1.00  0.00     0.134 A 
ATOM     74  F   UNL A   1      38.289  28.636  31.361  1.00  0.00    -0.206 F 
ATOM     75  C   UNL A   1      36.480  29.456  30.108  1.00  0.00     0.040 A 
ATOM     76  C   UNL A   1      36.782  30.001  27.781  1.00  0.00     0.040 A 
ATOM     77  F   UNL A   1      38.879  29.698  26.769  1.00  0.00    -0.206 F 
ATOM     78  C   UNL A   1      35.957  29.920  28.901  1.00  0.00     0.006 A 
ENDBRANCH  50  71
BRANCH  62  79
ATOM     79  C   UNL A   1      44.454  32.524  30.961  1.00  0.00     0.057 A 
ATOM     80  C   UNL A   1      44.443  32.899  32.310  1.00  0.00     0.134 A 
ATOM     81  C   UNL A   1      44.758  33.513  30.016  1.00  0.00     0.134 A 
ATOM     82  F   UNL A   1      44.148  32.000  33.262  1.00  0.00    -0.206 F 
ATOM     83  C   UNL A   1      44.706  34.212  32.704  1.00  0.00     0.040 A 
ATOM     84  C   UNL A   1      45.043  34.824  30.399  1.00  0.00     0.040 A 
ATOM     85  F   UNL A   1      44.792  33.216  28.708  1.00  0.00    -0.206 F 
ATOM     86  C   UNL A   1      45.014  35.177  31.746  1.00  0.00     0.006 A 
ENDBRANCH  62  79
ENDBRANCH  36  37
ENDBRANCH  28  31
ENDBRANCH  26  27
ENDBRANCH   1  26
TORSDOF 11
ENDMDL
MODEL 2
REMARK VINA RESULT:     -12.2      0.490      6.163
REMARK SMILES C[C@@H]1C[C@H](C)C[C@H]([N@@H+]2[C@@H](C(=O)NCCCNC(=O)c3ccc(-c4c5nc(c(-c6c(F)cccc6F)c6ccc([nH]6)c(-c6c(F)cccc6F)c6nc(c(-c7c(F)cccc7F)c7ccc4[nH]7)C=C6)C=C5)cc3)CC[C@@H]3CCCC[C@@H]32)C1
REMARK SMILES IDX 14 1 13 2 12 3 10 4 11 5 9 7 8 8 80 9 73 11 75 12 79 13
REMARK SMILES IDX 74 14 76 15 78 16 77 17 7 18 5 19 4 20 6 21 3 22 2 23 81 24
REMARK SMILES IDX 1 25 15 26 16 27 17 28 18 30 19 31 20 32 72 33 21 34 71 35
REMARK SMILES IDX 22 36 23 37 24 38 65 39 25 40 70 41 64 42 66 43 26 44 69 45
REMARK SMILES IDX 63 46 62 47 27 49 53 50 36 51 52 52 37 53 40 54 51 55 67 56
REMARK SMILES IDX 38 57 39 58 50 60 68 61 41 62 28 63 29 64 34 65 30 66 31 67
REMARK SMILES IDX 33 68 35 69 32 70 54 71 55 72 60 73 56 74 57 75 59 76 61 77
REMARK SMILES IDX 58 78 42 79 43 80 48 81 44 82 45 83 47 84 49 85 46 86
REMARK H PARENT 12 6 8 10 16 29 66 48 40 59
REMARK Flexibility Score: inf
ROOT
ATOM      1  C   UNL A   1      37.630  19.964  24.971  1.00  0.00     0.042 C 
ENDROOT
BRANCH   1   2
ATOM      2  C   UNL A   1      36.455  20.933  24.932  1.00  0.00     0.118 C 
BRANCH   2   3
ATOM      3  N   UNL A   1      36.700  22.063  24.039  1.00  0.00    -0.351 N 
ATOM      4  C   UNL A   1      36.394  23.346  24.438  1.00  0.00     0.278 C 
ATOM      5  O   UNL A   1      37.121  23.906  25.259  1.00  0.00    -0.268 OA
ATOM      6  H   UNL A   1      37.087  21.906  23.148  1.00  0.00     0.163 HD
BRANCH   4   7
ATOM      7  C   UNL A   1      35.175  24.056  23.770  1.00  0.00     0.274 C 
ATOM      8  N   UNL A   1      34.288  24.668  24.786  1.00  0.00    -0.320 N 
ATOM      9  C   UNL A   1      33.507  23.663  25.505  1.00  0.00     0.188 C 
ATOM     10  H   UNL A   1      34.426  25.027  25.730  1.00  0.00     0.349 HD
ATOM     11  C   UNL A   1      34.391  23.253  22.733  1.00  0.00     0.076 C 
ATOM     12  C   UNL A   1      32.650  22.713  24.643  1.00  0.00     0.048 C 
ATOM     13  C   UNL A   1      32.908  23.953  26.885  1.00  0.00     0.065 C 
ATOM     14  C   UNL A   1      33.176  22.457  23.217  1.00  0.00     0.016 C 
ATOM     15  C   UNL A   1      31.131  22.908  24.704  1.00  0.00     0.010 C 
ATOM     16  C   UNL A   1      31.622  23.194  27.211  1.00  0.00     0.006 C 
ATOM     17  C   UNL A   1      30.585  23.222  26.098  1.00  0.00     0.001 C 
BRANCH   8  18
ATOM     18  C   UNL A   1      34.131  26.129  24.646  1.00  0.00     0.185 C 
ATOM     19  C   UNL A   1      31.588  25.854  21.978  1.00  0.00     0.008 C 
ATOM     20  C   UNL A   1      32.097  26.740  23.115  1.00  0.00    -0.008 C 
ATOM     21  C   UNL A   1      33.622  26.632  23.269  1.00  0.00     0.068 C 
ATOM     22  C   UNL A   1      31.364  26.491  24.433  1.00  0.00     0.007 C 
ATOM     23  C   UNL A   1      31.978  27.301  25.575  1.00  0.00    -0.008 C 
ATOM     24  C   UNL A   1      33.475  26.975  25.765  1.00  0.00     0.068 C 
ATOM     25  C   UNL A   1      31.180  27.195  26.883  1.00  0.00     0.008 C 
ENDBRANCH   8  18
ENDBRANCH   4   7
ENDBRANCH   2   3
ENDBRANCH   1   2
BRANCH   1  26
ATOM     26  C   UNL A   1      38.869  20.525  25.658  1.00  0.00     0.118 C 
BRANCH  26  27
ATOM     27  N   UNL A   1      39.864  19.487  25.855  1.00  0.00    -0.352 N 
ATOM     28  C   UNL A   1      41.209  19.611  26.067  1.00  0.00     0.251 C 
ATOM     29  H   UNL A   1      39.522  18.565  25.833  1.00  0.00     0.163 HD
ATOM     30  O   UNL A   1      41.937  18.629  25.858  1.00  0.00    -0.269 OA
BRANCH  28  31
ATOM     31  C   UNL A   1      41.820  20.871  26.552  1.00  0.00     0.039 A 
ATOM     32  C   UNL A   1      41.802  21.138  27.925  1.00  0.00     0.014 A 
ATOM     33  C   UNL A   1      42.286  21.851  25.668  1.00  0.00     0.014 A 
ATOM     34  C   UNL A   1      42.236  22.376  28.409  1.00  0.00     0.010 A 
ATOM     35  C   UNL A   1      42.785  23.061  26.158  1.00  0.00     0.010 A 
ATOM     36  C   UNL A   1      42.725  23.353  27.528  1.00  0.00    -0.014 A 
BRANCH  36  37
ATOM     37  C   UNL A   1      43.090  24.708  28.022  1.00  0.00     0.031 A 
ATOM     38  C   UNL A   1      42.015  25.736  28.272  1.00  0.00     0.074 A 
ATOM     39  C   UNL A   1      44.379  25.032  28.232  1.00  0.00     0.049 A 
ATOM     40  N   UNL A   1      42.131  26.975  28.683  1.00  0.00    -0.248 NA
ATOM     41  C   UNL A   1      40.629  25.326  28.000  1.00  0.00     0.031 C 
ATOM     42  C   UNL A   1      45.522  24.150  27.993  1.00  0.00     0.029 A 
ATOM     43  N   UNL A   1      44.945  26.196  28.691  1.00  0.00    -0.354 N 
ATOM     44  C   UNL A   1      40.843  27.495  28.692  1.00  0.00     0.074 A 
ATOM     45  C   UNL A   1      39.963  26.453  28.206  1.00  0.00     0.031 C 
ATOM     46  C   UNL A   1      46.651  24.798  28.323  1.00  0.00     0.029 A 
ATOM     47  C   UNL A   1      46.315  26.147  28.775  1.00  0.00     0.049 A 
ATOM     48  H   UNL A   1      44.419  26.991  28.935  1.00  0.00     0.167 HD
ATOM     49  C   UNL A   1      40.422  28.720  29.088  1.00  0.00     0.037 A 
ATOM     50  C   UNL A   1      47.200  27.079  29.174  1.00  0.00     0.037 A 
ATOM     51  C   UNL A   1      41.283  29.743  29.620  1.00  0.00     0.049 A 
ATOM     52  C   UNL A   1      46.708  28.419  29.647  1.00  0.00     0.074 A 
ATOM     53  C   UNL A   1      40.937  30.985  30.125  1.00  0.00     0.029 A 
ATOM     54  N   UNL A   1      42.661  29.640  29.719  1.00  0.00    -0.354 N 
ATOM     55  N   UNL A   1      45.479  28.869  29.716  1.00  0.00    -0.248 NA
ATOM     56  C   UNL A   1      47.725  29.375  30.107  1.00  0.00     0.031 C 
ATOM     57  C   UNL A   1      42.111  31.647  30.500  1.00  0.00     0.029 A 
ATOM     58  C   UNL A   1      43.183  30.803  30.261  1.00  0.00     0.049 A 
ATOM     59  H   UNL A   1      43.190  28.856  29.444  1.00  0.00     0.167 HD
ATOM     60  C   UNL A   1      45.573  30.150  30.246  1.00  0.00     0.074 A 
ATOM     61  C   UNL A   1      46.977  30.400  30.492  1.00  0.00     0.031 C 
ATOM     62  C   UNL A   1      44.582  31.037  30.505  1.00  0.00     0.037 A 
BRANCH  49  63
ATOM     63  C   UNL A   1      38.956  29.022  28.966  1.00  0.00     0.057 A 
ATOM     64  C   UNL A   1      38.085  28.913  30.059  1.00  0.00     0.134 A 
ATOM     65  C   UNL A   1      38.416  29.456  27.750  1.00  0.00     0.134 A 
ATOM     66  F   UNL A   1      38.538  28.491  31.249  1.00  0.00    -0.206 F 
ATOM     67  C   UNL A   1      36.724  29.199  29.938  1.00  0.00     0.040 A 
ATOM     68  C   UNL A   1      37.061  29.768  27.623  1.00  0.00     0.040 A 
ATOM     69  F   UNL A   1      39.196  29.589  26.666  1.00  0.00    -0.206 F 
ATOM     70  C   UNL A   1      36.210  29.634  28.717  1.00  0.00     0.006 A 
ENDBRANCH  49  63
BRANCH  50  71
ATOM     71  C   UNL A   1      48.649  26.764  29.174  1.00  0.00     0.057 A 
ATOM     72  C   UNL A   1      49.254  26.141  30.271  1.00  0.00     0.134 A 
ATOM     73  C   UNL A   1      49.462  27.072  28.076  1.00  0.00     0.134 A 
ATOM     74  F   UNL A   1      48.528  25.840  31.359  1.00  0.00    -0.206 F 
ATOM     75  C   UNL A   1      50.616  25.844  30.284  1.00  0.00     0.040 A 
ATOM     76  C   UNL A   1      50.823  26.762  28.067  1.00  0.00     0.040 A 
ATOM     77  F   UNL A   1      48.940  27.664  26.993  1.00  0.00    -0.206 F 
ATOM     78  C   UNL A   1      51.405  26.151  29.176  1.00  0.00     0.006 A 
ENDBRANCH  50  71
BRANCH  62  79
ATOM     79  C   UNL A   1      44.978  32.352  31.107  1.00  0.00     0.057 A 
ATOM     80  C   UNL A   1      45.080  32.527  32.492  1.00  0.00     0.134 A 
ATOM     81  C   UNL A   1      45.304  33.442  30.290  1.00  0.00     0.134 A 
ATOM     82  F   UNL A   1      44.770  31.524  33.328  1.00  0.00    -0.206 F 
ATOM     83  C   UNL A   1      45.474  33.747  33.045  1.00  0.00     0.040 A 
ATOM     84  C   UNL A   1      45.719  34.660  30.830  1.00  0.00     0.040 A 
ATOM     85  F   UNL A   1      45.235  33.337  28.954  1.00  0.00    -0.206 F 
ATOM     86  C   UNL A   1      45.801  34.815  32.212  1.00  0.00     0.006 A 
ENDBRANCH  62  79
ENDBRANCH  36  37
ENDBRANCH  28  31
ENDBRANCH  26  27
ENDBRANCH   1  26
TORSDOF 11
ENDMDL
MODEL 3
REMARK VINA RESULT:     -12.2      0.898      6.194
REMARK SMILES C[C@@H]1C[C@H](C)C[C@H]([N@@H+]2[C@@H](C(=O)NCCCNC(=O)c3ccc(-c4c5nc(c(-c6c(F)cccc6F)c6ccc([nH]6)c(-c6c(F)cccc6F)c6nc(c(-c7c(F)cccc7F)c7ccc4[nH]7)C=C6)C=C5)cc3)CC[C@@H]3CCCC[C@@H]32)C1
REMARK SMILES IDX 14 1 13 2 12 3 10 4 11 5 9 7 8 8 80 9 73 11 75 12 79 13
REMARK SMILES IDX 74 14 76 15 78 16 77 17 7 18 5 19 4 20 6 21 3 22 2 23 81 24
REMARK SMILES IDX 1 25 15 26 16 27 17 28 18 30 19 31 20 32 72 33 21 34 71 35
REMARK SMILES IDX 22 36 23 37 24 38 65 39 25 40 70 41 64 42 66 43 26 44 69 45
REMARK SMILES IDX 63 46 62 47 27 49 53 50 36 51 52 52 37 53 40 54 51 55 67 56
REMARK SMILES IDX 38 57 39 58 50 60 68 61 41 62 28 63 29 64 34 65 30 66 31 67
REMARK SMILES IDX 33 68 35 69 32 70 54 71 55 72 60 73 56 74 57 75 59 76 61 77
REMARK SMILES IDX 58 78 42 79 43 80 48 81 44 82 45 83 47 84 49 85 46 86
REMARK H PARENT 12 6 8 10 16 29 66 48 40 59
REMARK Flexibility Score: inf
ROOT
ATOM      1  C   UNL A   1      37.782  19.831  24.948  1.00  0.00     0.042 C 
ENDROOT
BRANCH   1   2
ATOM      2  C   UNL A   1      36.597  20.788  24.931  1.00  0.00     0.118 C 
BRANCH   2   3
ATOM      3  N   UNL A   1      36.862  21.979  24.127  1.00  0.00    -0.351 N 
ATOM      4  C   UNL A   1      36.486  23.224  24.581  1.00  0.00     0.278 C 
ATOM      5  O   UNL A   1      37.137  23.753  25.482  1.00  0.00    -0.268 OA
ATOM      6  H   UNL A   1      37.311  21.890  23.256  1.00  0.00     0.163 HD
BRANCH   4   7
ATOM      7  C   UNL A   1      35.289  23.937  23.876  1.00  0.00     0.274 C 
ATOM      8  N   UNL A   1      34.370  24.546  24.865  1.00  0.00    -0.320 N 
ATOM      9  C   UNL A   1      33.565  23.540  25.555  1.00  0.00     0.188 C 
ATOM     10  H   UNL A   1      34.478  24.902  25.815  1.00  0.00     0.349 HD
ATOM     11  C   UNL A   1      34.538  23.138  22.812  1.00  0.00     0.076 C 
ATOM     12  C   UNL A   1      32.736  22.593  24.663  1.00  0.00     0.048 C 
ATOM     13  C   UNL A   1      32.922  23.825  26.916  1.00  0.00     0.065 C 
ATOM     14  C   UNL A   1      33.308  22.341  23.254  1.00  0.00     0.016 C 
ATOM     15  C   UNL A   1      31.217  22.788  24.675  1.00  0.00     0.010 C 
ATOM     16  C   UNL A   1      31.626  23.065  27.198  1.00  0.00     0.006 C 
ATOM     17  C   UNL A   1      30.625  23.098  26.052  1.00  0.00     0.001 C 
BRANCH   8  18
ATOM     18  C   UNL A   1      34.218  26.008  24.726  1.00  0.00     0.185 C 
ATOM     19  C   UNL A   1      31.742  25.743  21.994  1.00  0.00     0.008 C 
ATOM     20  C   UNL A   1      32.223  26.626  23.145  1.00  0.00    -0.008 C 
ATOM     21  C   UNL A   1      33.744  26.515  23.337  1.00  0.00     0.068 C 
ATOM     22  C   UNL A   1      31.457  26.373  24.444  1.00  0.00     0.007 C 
ATOM     23  C   UNL A   1      32.044  27.181  25.603  1.00  0.00    -0.008 C 
ATOM     24  C   UNL A   1      33.535  26.852  25.830  1.00  0.00     0.068 C 
ATOM     25  C   UNL A   1      31.213  27.072  26.891  1.00  0.00     0.008 C 
ENDBRANCH   8  18
ENDBRANCH   4   7
ENDBRANCH   2   3
ENDBRANCH   1   2
BRANCH   1  26
ATOM     26  C   UNL A   1      39.021  20.394  25.633  1.00  0.00     0.118 C 
BRANCH  26  27
ATOM     27  N   UNL A   1      40.000  19.349  25.869  1.00  0.00    -0.352 N 
ATOM     28  C   UNL A   1      41.350  19.459  26.056  1.00  0.00     0.251 C 
ATOM     29  H   UNL A   1      39.641  18.434  25.898  1.00  0.00     0.163 HD
ATOM     30  O   UNL A   1      42.058  18.454  25.888  1.00  0.00    -0.269 OA
BRANCH  28  31
ATOM     31  C   UNL A   1      41.990  20.730  26.467  1.00  0.00     0.039 A 
ATOM     32  C   UNL A   1      41.980  21.076  27.823  1.00  0.00     0.014 A 
ATOM     33  C   UNL A   1      42.477  21.647  25.529  1.00  0.00     0.014 A 
ATOM     34  C   UNL A   1      42.443  22.330  28.235  1.00  0.00     0.010 A 
ATOM     35  C   UNL A   1      43.004  22.872  25.948  1.00  0.00     0.010 A 
ATOM     36  C   UNL A   1      42.953  23.244  27.299  1.00  0.00    -0.014 A 
BRANCH  36  37
ATOM     37  C   UNL A   1      43.349  24.616  27.715  1.00  0.00     0.031 A 
ATOM     38  C   UNL A   1      42.292  25.647  28.020  1.00  0.00     0.074 A 
ATOM     39  C   UNL A   1      44.649  24.952  27.804  1.00  0.00     0.049 A 
ATOM     40  N   UNL A   1      42.434  26.900  28.378  1.00  0.00    -0.248 NA
ATOM     41  C   UNL A   1      40.891  25.223  27.881  1.00  0.00     0.031 C 
ATOM     42  C   UNL A   1      45.774  24.066  27.498  1.00  0.00     0.029 A 
ATOM     43  N   UNL A   1      45.245  26.132  28.173  1.00  0.00    -0.354 N 
ATOM     44  C   UNL A   1      41.148  27.415  28.478  1.00  0.00     0.074 A 
ATOM     45  C   UNL A   1      40.238  26.354  28.105  1.00  0.00     0.031 C 
ATOM     46  C   UNL A   1      46.922  24.729  27.709  1.00  0.00     0.029 A 
ATOM     47  C   UNL A   1      46.617  26.092  28.143  1.00  0.00     0.049 A 
ATOM     48  H   UNL A   1      44.735  26.933  28.435  1.00  0.00     0.167 HD
ATOM     49  C   UNL A   1      40.754  28.651  28.868  1.00  0.00     0.037 A 
ATOM     50  C   UNL A   1      47.526  27.041  28.433  1.00  0.00     0.037 A 
ATOM     51  C   UNL A   1      41.650  29.695  29.289  1.00  0.00     0.049 A 
ATOM     52  C   UNL A   1      47.067  28.394  28.901  1.00  0.00     0.074 A 
ATOM     53  C   UNL A   1      41.340  30.952  29.780  1.00  0.00     0.029 A 
ATOM     54  N   UNL A   1      43.032  29.601  29.275  1.00  0.00    -0.354 N 
ATOM     55  N   UNL A   1      45.845  28.841  29.059  1.00  0.00    -0.248 NA
ATOM     56  C   UNL A   1      48.112  29.369  29.240  1.00  0.00     0.031 C 
ATOM     57  C   UNL A   1      42.537  31.631  30.031  1.00  0.00     0.029 A 
ATOM     58  C   UNL A   1      43.591  30.783  29.730  1.00  0.00     0.049 A 
ATOM     59  H   UNL A   1      43.541  28.811  28.983  1.00  0.00     0.167 HD
ATOM     60  C   UNL A   1      45.975  30.140  29.536  1.00  0.00     0.074 A 
ATOM     61  C   UNL A   1      47.393  30.404  29.653  1.00  0.00     0.031 C 
ATOM     62  C   UNL A   1      45.004  31.032  29.847  1.00  0.00     0.037 A 
BRANCH  49  63
ATOM     63  C   UNL A   1      39.281  28.943  28.860  1.00  0.00     0.057 A 
ATOM     64  C   UNL A   1      38.621  29.389  27.707  1.00  0.00     0.134 A 
ATOM     65  C   UNL A   1      38.509  28.746  30.012  1.00  0.00     0.134 A 
ATOM     66  F   UNL A   1      39.306  29.608  26.575  1.00  0.00    -0.206 F 
ATOM     67  C   UNL A   1      37.251  29.654  27.708  1.00  0.00     0.040 A 
ATOM     68  C   UNL A   1      37.133  28.984  30.018  1.00  0.00     0.040 A 
ATOM     69  F   UNL A   1      39.077  28.313  31.147  1.00  0.00    -0.206 F 
ATOM     70  C   UNL A   1      36.502  29.446  28.865  1.00  0.00     0.006 A 
ENDBRANCH  49  63
BRANCH  50  71
ATOM     71  C   UNL A   1      48.972  26.731  28.321  1.00  0.00     0.057 A 
ATOM     72  C   UNL A   1      49.693  26.238  29.414  1.00  0.00     0.134 A 
ATOM     73  C   UNL A   1      49.666  26.916  27.119  1.00  0.00     0.134 A 
ATOM     74  F   UNL A   1      49.085  26.059  30.596  1.00  0.00    -0.206 F 
ATOM     75  C   UNL A   1      51.054  25.947  29.321  1.00  0.00     0.040 A 
ATOM     76  C   UNL A   1      51.023  26.610  27.006  1.00  0.00     0.040 A 
ATOM     77  F   UNL A   1      49.028  27.381  26.035  1.00  0.00    -0.206 F 
ATOM     78  C   UNL A   1      51.722  26.129  28.111  1.00  0.00     0.006 A 
ENDBRANCH  50  71
BRANCH  62  79
ATOM     79  C   UNL A   1      45.440  32.368  30.369  1.00  0.00     0.057 A 
ATOM     80  C   UNL A   1      45.647  33.459  29.517  1.00  0.00     0.134 A 
ATOM     81  C   UNL A   1      45.614  32.577  31.743  1.00  0.00     0.134 A 
ATOM     82  F   UNL A   1      45.508  33.320  28.189  1.00  0.00    -0.206 F 
ATOM     83  C   UNL A   1      46.029  34.707  30.011  1.00  0.00     0.040 A 
ATOM     84  C   UNL A   1      45.975  33.824  32.251  1.00  0.00     0.040 A 
ATOM     85  F   UNL A   1      45.423  31.573  32.614  1.00  0.00    -0.206 F 
ATOM     86  C   UNL A   1      46.187  34.893  31.383  1.00  0.00     0.006 A 
ENDBRANCH  62  79
ENDBRANCH  36  37
ENDBRANCH  28  31
ENDBRANCH  26  27
ENDBRANCH   1  26
TORSDOF 11
ENDMDL
