MODEL 1
REMARK VINA RESULT:     -10.9      0.000      0.000
REMARK SMILES N#Cc1cccc(/C=C/C(=O)NCC(=O)NCCCNC(=O)c2ccc(-c3c4nc(c(-c5c(F)cccc5F)c5ccc([nH]5)c(-c5c(F)cccc5F)c5nc(c(-c6c(F)cccc6F)c6ccc3[nH]6)C=C5)C=C4)cc2)c1
REMARK SMILES IDX 17 1 16 2 14 3 15 4 13 6 12 7 10 8 11 9 9 11 8 12 7 13 3 14
REMARK SMILES IDX 4 15 77 16 5 17 6 18 2 19 1 20 18 21 19 22 20 23 21 24 22 26
REMARK SMILES IDX 23 27 24 28 76 29 25 30 75 31 26 32 27 33 28 34 69 35 29 36
REMARK SMILES IDX 74 37 68 38 70 39 30 40 73 41 67 42 66 43 31 45 57 46 40 47
REMARK SMILES IDX 56 48 41 49 44 50 55 51 71 52 42 53 43 54 54 56 72 57 45 58
REMARK SMILES IDX 32 59 33 60 38 61 34 62 35 63 37 64 39 65 36 66 58 67 59 68
REMARK SMILES IDX 64 69 60 70 61 71 63 72 65 73 62 74 46 75 47 76 52 77 48 78
REMARK SMILES IDX 49 79 51 80 53 81 50 82
REMARK H PARENT 16 5 12 10 20 25 70 44 44 55
REMARK Flexibility Score: inf
ROOT
ATOM      1  C   UNL A   1      35.022  34.685  28.640  1.00  0.00     0.117 C 
ENDROOT
BRANCH   1   2
ATOM      2  N   UNL A   1      34.416  35.987  28.482  1.00  0.00    -0.355 N 
ATOM      3  C   UNL A   1      33.457  36.625  29.206  1.00  0.00     0.239 C 
ATOM      4  O   UNL A   1      33.244  37.806  28.913  1.00  0.00    -0.273 OA
ATOM      5  H   UNL A   1      34.757  36.504  27.716  1.00  0.00     0.163 HD
BRANCH   3   6
ATOM      6  C   UNL A   1      32.779  36.010  30.445  1.00  0.00     0.216 C 
BRANCH   6   7
ATOM      7  N   UNL A   1      33.063  36.599  31.745  1.00  0.00    -0.343 N 
ATOM      8  C   UNL A   1      34.044  36.476  32.667  1.00  0.00     0.244 C 
ATOM      9  O   UNL A   1      34.005  37.242  33.635  1.00  0.00    -0.270 OA
ATOM     10  H   UNL A   1      32.371  37.244  32.021  1.00  0.00     0.164 HD
BRANCH   8  11
ATOM     11  C   UNL A   1      35.137  35.463  32.645  1.00  0.00     0.072 C 
ATOM     12  C   UNL A   1      35.811  34.925  33.671  1.00  0.00     0.014 C 
BRANCH  12  13
ATOM     13  C   UNL A   1      36.984  34.035  33.613  1.00  0.00    -0.024 A 
ATOM     14  C   UNL A   1      38.182  32.185  34.666  1.00  0.00     0.053 A 
ATOM     15  C   UNL A   1      39.215  32.321  33.738  1.00  0.00     0.019 A 
ATOM     16  C   UNL A   1      37.078  33.042  34.603  1.00  0.00     0.027 A 
ATOM     17  C   UNL A   1      39.140  33.311  32.758  1.00  0.00     0.002 A 
ATOM     18  C   UNL A   1      38.034  34.167  32.697  1.00  0.00     0.008 A 
BRANCH  14  19
ATOM     19  C   UNL A   1      38.238  31.182  35.686  1.00  0.00     0.099 C 
ATOM     20  N   UNL A   1      38.262  30.375  36.521  1.00  0.00    -0.192 NA
ENDBRANCH  14  19
ENDBRANCH  12  13
ENDBRANCH   8  11
ENDBRANCH   6   7
ENDBRANCH   3   6
ENDBRANCH   1   2
BRANCH   1  21
ATOM     21  C   UNL A   1      34.189  33.563  28.048  1.00  0.00     0.042 C 
BRANCH  21  22
ATOM     22  C   UNL A   1      34.377  32.239  28.772  1.00  0.00     0.118 C 
BRANCH  22  23
ATOM     23  N   UNL A   1      34.342  32.385  30.223  1.00  0.00    -0.352 N 
ATOM     24  C   UNL A   1      35.160  31.852  31.187  1.00  0.00     0.251 C 
ATOM     25  H   UNL A   1      33.617  32.957  30.565  1.00  0.00     0.163 HD
ATOM     26  O   UNL A   1      34.844  31.940  32.369  1.00  0.00    -0.269 OA
BRANCH  24  27
ATOM     27  C   UNL A   1      36.405  31.156  30.805  1.00  0.00     0.039 A 
ATOM     28  C   UNL A   1      36.954  31.401  29.544  1.00  0.00     0.014 A 
ATOM     29  C   UNL A   1      37.028  30.260  31.679  1.00  0.00     0.014 A 
ATOM     30  C   UNL A   1      38.162  30.801  29.189  1.00  0.00     0.010 A 
ATOM     31  C   UNL A   1      38.277  29.738  31.361  1.00  0.00     0.010 A 
ATOM     32  C   UNL A   1      38.858  30.002  30.112  1.00  0.00    -0.014 A 
BRANCH  32  33
ATOM     33  C   UNL A   1      40.200  29.454  29.791  1.00  0.00     0.031 A 
ATOM     34  C   UNL A   1      41.418  30.337  29.848  1.00  0.00     0.074 A 
ATOM     35  C   UNL A   1      40.312  28.171  29.390  1.00  0.00     0.049 A 
ATOM     36  N   UNL A   1      42.659  30.049  29.547  1.00  0.00    -0.248 NA
ATOM     37  C   UNL A   1      41.214  31.730  30.277  1.00  0.00     0.031 C 
ATOM     38  C   UNL A   1      39.200  27.228  29.247  1.00  0.00     0.029 A 
ATOM     39  N   UNL A   1      41.413  27.439  29.018  1.00  0.00    -0.354 N 
ATOM     40  C   UNL A   1      43.376  31.223  29.736  1.00  0.00     0.074 A 
ATOM     41  C   UNL A   1      42.429  32.240  30.133  1.00  0.00     0.031 C 
ATOM     42  C   UNL A   1      39.677  26.041  28.840  1.00  0.00     0.029 A 
ATOM     43  C   UNL A   1      41.118  26.150  28.641  1.00  0.00     0.049 A 
ATOM     44  H   UNL A   1      42.328  27.804  29.021  1.00  0.00     0.167 HD
ATOM     45  C   UNL A   1      44.709  31.427  29.605  1.00  0.00     0.037 A 
ATOM     46  C   UNL A   1      41.914  25.174  28.164  1.00  0.00     0.037 A 
ATOM     47  C   UNL A   1      45.650  30.405  29.231  1.00  0.00     0.049 A 
ATOM     48  C   UNL A   1      43.387  25.442  28.010  1.00  0.00     0.074 A 
ATOM     49  C   UNL A   1      47.028  30.500  29.144  1.00  0.00     0.029 A 
ATOM     50  N   UNL A   1      45.314  29.111  28.868  1.00  0.00    -0.354 N 
ATOM     51  N   UNL A   1      44.063  26.532  28.281  1.00  0.00    -0.248 NA
ATOM     52  C   UNL A   1      44.211  24.341  27.489  1.00  0.00     0.031 C 
ATOM     53  C   UNL A   1      47.519  29.287  28.654  1.00  0.00     0.029 A 
ATOM     54  C   UNL A   1      46.456  28.410  28.516  1.00  0.00     0.049 A 
ATOM     55  H   UNL A   1      44.400  28.744  28.861  1.00  0.00     0.167 HD
ATOM     56  C   UNL A   1      45.391  26.237  27.997  1.00  0.00     0.074 A 
ATOM     57  C   UNL A   1      45.428  24.859  27.555  1.00  0.00     0.031 C 
ATOM     58  C   UNL A   1      46.483  27.035  28.090  1.00  0.00     0.037 A 
BRANCH  45  59
ATOM     59  C   UNL A   1      45.243  32.806  29.860  1.00  0.00     0.057 A 
ATOM     60  C   UNL A   1      45.314  33.776  28.853  1.00  0.00     0.134 A 
ATOM     61  C   UNL A   1      45.602  33.197  31.158  1.00  0.00     0.134 A 
ATOM     62  F   UNL A   1      44.995  33.466  27.587  1.00  0.00    -0.206 F 
ATOM     63  C   UNL A   1      45.730  35.081  29.124  1.00  0.00     0.040 A 
ATOM     64  C   UNL A   1      45.989  34.505  31.447  1.00  0.00     0.040 A 
ATOM     65  F   UNL A   1      45.551  32.320  32.172  1.00  0.00    -0.206 F 
ATOM     66  C   UNL A   1      46.054  35.452  30.428  1.00  0.00     0.006 A 
ENDBRANCH  45  59
BRANCH  46  67
ATOM     67  C   UNL A   1      41.344  23.857  27.772  1.00  0.00     0.057 A 
ATOM     68  C   UNL A   1      41.605  22.697  28.512  1.00  0.00     0.134 A 
ATOM     69  C   UNL A   1      40.573  23.715  26.610  1.00  0.00     0.134 A 
ATOM     70  F   UNL A   1      42.349  22.760  29.626  1.00  0.00    -0.206 F 
ATOM     71  C   UNL A   1      41.163  21.442  28.088  1.00  0.00     0.040 A 
ATOM     72  C   UNL A   1      40.092  22.472  26.195  1.00  0.00     0.040 A 
ATOM     73  F   UNL A   1      40.276  24.786  25.859  1.00  0.00    -0.206 F 
ATOM     74  C   UNL A   1      40.403  21.328  26.926  1.00  0.00     0.006 A 
ENDBRANCH  46  67
BRANCH  58  75
ATOM     75  C   UNL A   1      47.816  26.427  27.759  1.00  0.00     0.057 A 
ATOM     76  C   UNL A   1      48.562  25.708  28.701  1.00  0.00     0.134 A 
ATOM     77  C   UNL A   1      48.342  26.533  26.465  1.00  0.00     0.134 A 
ATOM     78  F   UNL A   1      48.123  25.577  29.963  1.00  0.00    -0.206 F 
ATOM     79  C   UNL A   1      49.797  25.143  28.376  1.00  0.00     0.040 A 
ATOM     80  C   UNL A   1      49.557  25.941  26.117  1.00  0.00     0.040 A 
ATOM     81  F   UNL A   1      47.674  27.196  25.509  1.00  0.00    -0.206 F 
ATOM     82  C   UNL A   1      50.293  25.251  27.078  1.00  0.00     0.006 A 
ENDBRANCH  58  75
ENDBRANCH  32  33
ENDBRANCH  24  27
ENDBRANCH  22  23
ENDBRANCH  21  22
ENDBRANCH   1  21
TORSDOF 14
ENDMDL
MODEL 2
REMARK VINA RESULT:     -10.8      4.854     10.032
REMARK SMILES N#Cc1cccc(/C=C/C(=O)NCC(=O)NCCCNC(=O)c2ccc(-c3c4nc(c(-c5c(F)cccc5F)c5ccc([nH]5)c(-c5c(F)cccc5F)c5nc(c(-c6c(F)cccc6F)c6ccc3[nH]6)C=C5)C=C4)cc2)c1
REMARK SMILES IDX 17 1 16 2 14 3 15 4 13 6 12 7 10 8 11 9 9 11 8 12 7 13 3 14
REMARK SMILES IDX 4 15 77 16 5 17 6 18 2 19 1 20 18 21 19 22 20 23 21 24 22 26
REMARK SMILES IDX 23 27 24 28 76 29 25 30 75 31 26 32 27 33 28 34 69 35 29 36
REMARK SMILES IDX 74 37 68 38 70 39 30 40 73 41 67 42 66 43 31 45 57 46 40 47
REMARK SMILES IDX 56 48 41 49 44 50 55 51 71 52 42 53 43 54 54 56 72 57 45 58
REMARK SMILES IDX 32 59 33 60 38 61 34 62 35 63 37 64 39 65 36 66 58 67 59 68
REMARK SMILES IDX 64 69 60 70 61 71 63 72 65 73 62 74 46 75 47 76 52 77 48 78
REMARK SMILES IDX 49 79 51 80 53 81 50 82
REMARK H PARENT 16 5 12 10 20 25 70 44 44 55
REMARK Flexibility Score: inf
ROOT
ATOM      1  C   UNL A   1      31.731  30.682  26.414  1.00  0.00     0.117 C 
ENDROOT
BRANCH   1   2
ATOM      2  N   UNL A   1      33.105  30.298  26.646  1.00  0.00    -0.355 N 
ATOM      3  C   UNL A   1      33.660  29.099  26.967  1.00  0.00     0.239 C 
ATOM      4  O   UNL A   1      34.894  29.046  26.957  1.00  0.00    -0.273 OA
ATOM      5  H   UNL A   1      33.753  31.035  26.556  1.00  0.00     0.163 HD
BRANCH   3   6
ATOM      6  C   UNL A   1      32.840  27.809  27.161  1.00  0.00     0.216 C 
BRANCH   6   7
ATOM      7  N   UNL A   1      32.948  26.769  26.149  1.00  0.00    -0.343 N 
ATOM      8  C   UNL A   1      32.297  26.465  25.003  1.00  0.00     0.244 C 
ATOM      9  O   UNL A   1      32.752  25.538  24.327  1.00  0.00    -0.270 OA
ATOM     10  H   UNL A   1      33.673  26.131  26.346  1.00  0.00     0.164 HD
BRANCH   8  11
ATOM     11  C   UNL A   1      31.048  27.115  24.515  1.00  0.00     0.072 C 
ATOM     12  C   UNL A   1      30.908  28.191  23.727  1.00  0.00     0.014 C 
BRANCH  12  13
ATOM     13  C   UNL A   1      29.664  28.899  23.379  1.00  0.00    -0.024 A 
ATOM     14  C   UNL A   1      28.576  31.066  23.087  1.00  0.00     0.053 A 
ATOM     15  C   UNL A   1      27.358  30.428  22.854  1.00  0.00     0.019 A 
ATOM     16  C   UNL A   1      29.717  30.303  23.352  1.00  0.00     0.027 A 
ATOM     17  C   UNL A   1      27.288  29.035  22.891  1.00  0.00     0.002 A 
ATOM     18  C   UNL A   1      28.432  28.274  23.155  1.00  0.00     0.008 A 
BRANCH  14  19
ATOM     19  C   UNL A   1      28.672  32.495  23.063  1.00  0.00     0.099 C 
ATOM     20  N   UNL A   1      28.733  33.654  23.025  1.00  0.00    -0.192 NA
ENDBRANCH  14  19
ENDBRANCH  12  13
ENDBRANCH   8  11
ENDBRANCH   6   7
ENDBRANCH   3   6
ENDBRANCH   1   2
BRANCH   1  21
ATOM     21  C   UNL A   1      31.458  32.142  26.732  1.00  0.00     0.042 C 
BRANCH  21  22
ATOM     22  C   UNL A   1      32.708  32.901  27.152  1.00  0.00     0.118 C 
BRANCH  22  23
ATOM     23  N   UNL A   1      32.412  34.250  27.621  1.00  0.00    -0.352 N 
ATOM     24  C   UNL A   1      32.983  34.981  28.631  1.00  0.00     0.251 C 
ATOM     25  H   UNL A   1      31.689  34.708  27.135  1.00  0.00     0.163 HD
ATOM     26  O   UNL A   1      32.458  36.028  28.996  1.00  0.00    -0.269 OA
BRANCH  24  27
ATOM     27  C   UNL A   1      34.212  34.501  29.295  1.00  0.00     0.039 A 
ATOM     28  C   UNL A   1      34.101  33.845  30.523  1.00  0.00     0.014 A 
ATOM     29  C   UNL A   1      35.469  34.702  28.718  1.00  0.00     0.014 A 
ATOM     30  C   UNL A   1      35.244  33.329  31.135  1.00  0.00     0.010 A 
ATOM     31  C   UNL A   1      36.593  34.106  29.282  1.00  0.00     0.010 A 
ATOM     32  C   UNL A   1      36.493  33.413  30.497  1.00  0.00    -0.014 A 
BRANCH  32  33
ATOM     33  C   UNL A   1      37.695  32.767  31.081  1.00  0.00     0.031 A 
ATOM     34  C   UNL A   1      38.289  31.542  30.439  1.00  0.00     0.074 A 
ATOM     35  C   UNL A   1      38.218  33.252  32.225  1.00  0.00     0.049 A 
ATOM     36  N   UNL A   1      39.299  30.810  30.837  1.00  0.00    -0.248 NA
ATOM     37  C   UNL A   1      37.653  31.060  29.201  1.00  0.00     0.031 C 
ATOM     38  C   UNL A   1      37.704  34.404  32.970  1.00  0.00     0.029 A 
ATOM     39  N   UNL A   1      39.292  32.832  32.971  1.00  0.00    -0.354 N 
ATOM     40  C   UNL A   1      39.410  29.781  29.911  1.00  0.00     0.074 A 
ATOM     41  C   UNL A   1      38.338  29.952  28.956  1.00  0.00     0.031 C 
ATOM     42  C   UNL A   1      38.473  34.612  34.050  1.00  0.00     0.029 A 
ATOM     43  C   UNL A   1      39.501  33.578  34.108  1.00  0.00     0.049 A 
ATOM     44  H   UNL A   1      39.859  32.069  32.716  1.00  0.00     0.167 HD
ATOM     45  C   UNL A   1      40.333  28.792  29.856  1.00  0.00     0.037 A 
ATOM     46  C   UNL A   1      40.402  33.431  35.097  1.00  0.00     0.037 A 
ATOM     47  C   UNL A   1      41.411  28.640  30.797  1.00  0.00     0.049 A 
ATOM     48  C   UNL A   1      41.401  32.307  35.016  1.00  0.00     0.074 A 
ATOM     49  C   UNL A   1      42.439  27.713  30.780  1.00  0.00     0.029 A 
ATOM     50  N   UNL A   1      41.595  29.421  31.927  1.00  0.00    -0.354 N 
ATOM     51  N   UNL A   1      41.547  31.396  34.084  1.00  0.00    -0.248 NA
ATOM     52  C   UNL A   1      42.364  32.194  36.120  1.00  0.00     0.031 C 
ATOM     53  C   UNL A   1      43.199  27.882  31.939  1.00  0.00     0.029 A 
ATOM     54  C   UNL A   1      42.695  28.968  32.636  1.00  0.00     0.049 A 
ATOM     55  H   UNL A   1      41.028  30.182  32.187  1.00  0.00     0.167 HD
ATOM     56  C   UNL A   1      42.637  30.627  34.474  1.00  0.00     0.074 A 
ATOM     57  C   UNL A   1      43.128  31.192  35.712  1.00  0.00     0.031 C 
ATOM     58  C   UNL A   1      43.182  29.547  33.862  1.00  0.00     0.037 A 
BRANCH  45  59
ATOM     59  C   UNL A   1      40.228  27.785  28.748  1.00  0.00     0.057 A 
ATOM     60  C   UNL A   1      40.891  27.950  27.525  1.00  0.00     0.134 A 
ATOM     61  C   UNL A   1      39.529  26.585  28.947  1.00  0.00     0.134 A 
ATOM     62  F   UNL A   1      41.569  29.079  27.267  1.00  0.00    -0.206 F 
ATOM     63  C   UNL A   1      40.857  26.964  26.538  1.00  0.00     0.040 A 
ATOM     64  C   UNL A   1      39.514  25.580  27.980  1.00  0.00     0.040 A 
ATOM     65  F   UNL A   1      38.878  26.359  30.097  1.00  0.00    -0.206 F 
ATOM     66  C   UNL A   1      40.179  25.768  26.771  1.00  0.00     0.006 A 
ENDBRANCH  45  59
BRANCH  46  67
ATOM     67  C   UNL A   1      40.397  34.349  36.268  1.00  0.00     0.057 A 
ATOM     68  C   UNL A   1      39.581  34.110  37.382  1.00  0.00     0.134 A 
ATOM     69  C   UNL A   1      41.163  35.523  36.275  1.00  0.00     0.134 A 
ATOM     70  F   UNL A   1      38.811  33.013  37.432  1.00  0.00    -0.206 F 
ATOM     71  C   UNL A   1      39.492  35.024  38.433  1.00  0.00     0.040 A 
ATOM     72  C   UNL A   1      41.111  36.426  37.338  1.00  0.00     0.040 A 
ATOM     73  F   UNL A   1      41.974  35.810  35.246  1.00  0.00    -0.206 F 
ATOM     74  C   UNL A   1      40.260  36.186  38.414  1.00  0.00     0.006 A 
ENDBRANCH  46  67
BRANCH  58  75
ATOM     75  C   UNL A   1      44.402  28.936  34.491  1.00  0.00     0.057 A 
ATOM     76  C   UNL A   1      44.320  27.863  35.388  1.00  0.00     0.134 A 
ATOM     77  C   UNL A   1      45.681  29.406  34.164  1.00  0.00     0.134 A 
ATOM     78  F   UNL A   1      43.127  27.370  35.754  1.00  0.00    -0.206 F 
ATOM     79  C   UNL A   1      45.463  27.300  35.959  1.00  0.00     0.040 A 
ATOM     80  C   UNL A   1      46.833  28.828  34.698  1.00  0.00     0.040 A 
ATOM     81  F   UNL A   1      45.833  30.422  33.301  1.00  0.00    -0.206 F 
ATOM     82  C   UNL A   1      46.725  27.777  35.607  1.00  0.00     0.006 A 
ENDBRANCH  58  75
ENDBRANCH  32  33
ENDBRANCH  24  27
ENDBRANCH  22  23
ENDBRANCH  21  22
ENDBRANCH   1  21
TORSDOF 14
ENDMDL
MODEL 3
REMARK VINA RESULT:     -10.7      4.596     11.512
REMARK SMILES N#Cc1cccc(/C=C/C(=O)NCC(=O)NCCCNC(=O)c2ccc(-c3c4nc(c(-c5c(F)cccc5F)c5ccc([nH]5)c(-c5c(F)cccc5F)c5nc(c(-c6c(F)cccc6F)c6ccc3[nH]6)C=C5)C=C4)cc2)c1
REMARK SMILES IDX 17 1 16 2 14 3 15 4 13 6 12 7 10 8 11 9 9 11 8 12 7 13 3 14
REMARK SMILES IDX 4 15 77 16 5 17 6 18 2 19 1 20 18 21 19 22 20 23 21 24 22 26
REMARK SMILES IDX 23 27 24 28 76 29 25 30 75 31 26 32 27 33 28 34 69 35 29 36
REMARK SMILES IDX 74 37 68 38 70 39 30 40 73 41 67 42 66 43 31 45 57 46 40 47
REMARK SMILES IDX 56 48 41 49 44 50 55 51 71 52 42 53 43 54 54 56 72 57 45 58
REMARK SMILES IDX 32 59 33 60 38 61 34 62 35 63 37 64 39 65 36 66 58 67 59 68
REMARK SMILES IDX 64 69 60 70 61 71 63 72 65 73 62 74 46 75 47 76 52 77 48 78
REMARK SMILES IDX 49 79 51 80 53 81 50 82
REMARK H PARENT 16 5 12 10 20 25 70 44 44 55
REMARK Flexibility Score: inf
ROOT
ATOM      1  C   UNL A   1      42.606  21.241  27.004  1.00  0.00     0.117 C 
ENDROOT
BRANCH   1   2
ATOM      2  N   UNL A   1      42.646  19.798  27.053  1.00  0.00    -0.355 N 
ATOM      3  C   UNL A   1      43.057  18.880  26.137  1.00  0.00     0.239 C 
ATOM      4  O   UNL A   1      43.110  17.707  26.523  1.00  0.00    -0.273 OA
ATOM      5  H   UNL A   1      42.316  19.410  27.897  1.00  0.00     0.163 HD
BRANCH   3   6
ATOM      6  C   UNL A   1      43.608  19.254  24.749  1.00  0.00     0.216 C 
BRANCH   6   7
ATOM      7  N   UNL A   1      45.053  19.299  24.573  1.00  0.00    -0.343 N 
ATOM      8  C   UNL A   1      46.046  20.133  24.955  1.00  0.00     0.244 C 
ATOM      9  O   UNL A   1      47.202  19.780  24.705  1.00  0.00    -0.270 OA
ATOM     10  H   UNL A   1      45.388  18.535  24.048  1.00  0.00     0.164 HD
BRANCH   8  11
ATOM     11  C   UNL A   1      45.864  21.464  25.600  1.00  0.00     0.072 C 
ATOM     12  C   UNL A   1      45.413  22.607  25.066  1.00  0.00     0.014 C 
BRANCH  12  13
ATOM     13  C   UNL A   1      45.380  23.943  25.686  1.00  0.00    -0.024 A 
ATOM     14  C   UNL A   1      44.400  26.179  25.638  1.00  0.00     0.053 A 
ATOM     15  C   UNL A   1      45.260  26.583  26.659  1.00  0.00     0.019 A 
ATOM     16  C   UNL A   1      44.466  24.869  25.155  1.00  0.00     0.027 A 
ATOM     17  C   UNL A   1      46.181  25.677  27.187  1.00  0.00     0.002 A 
ATOM     18  C   UNL A   1      46.245  24.366  26.701  1.00  0.00     0.008 A 
BRANCH  14  19
ATOM     19  C   UNL A   1      43.450  27.091  25.075  1.00  0.00     0.099 C 
ATOM     20  N   UNL A   1      42.695  27.836  24.599  1.00  0.00    -0.192 NA
ENDBRANCH  14  19
ENDBRANCH  12  13
ENDBRANCH   8  11
ENDBRANCH   6   7
ENDBRANCH   3   6
ENDBRANCH   1   2
BRANCH   1  21
ATOM     21  C   UNL A   1      41.492  21.778  26.123  1.00  0.00     0.042 C 
BRANCH  21  22
ATOM     22  C   UNL A   1      40.105  21.467  26.665  1.00  0.00     0.118 C 
BRANCH  22  23
ATOM     23  N   UNL A   1      39.043  22.031  25.840  1.00  0.00    -0.352 N 
ATOM     24  C   UNL A   1      38.470  23.277  25.864  1.00  0.00     0.251 C 
ATOM     25  H   UNL A   1      38.680  21.421  25.157  1.00  0.00     0.163 HD
ATOM     26  O   UNL A   1      37.452  23.491  25.213  1.00  0.00    -0.269 OA
BRANCH  24  27
ATOM     27  C   UNL A   1      39.060  24.352  26.687  1.00  0.00     0.039 A 
ATOM     28  C   UNL A   1      39.944  25.252  26.086  1.00  0.00     0.014 A 
ATOM     29  C   UNL A   1      38.753  24.473  28.045  1.00  0.00     0.014 A 
ATOM     30  C   UNL A   1      40.462  26.311  26.831  1.00  0.00     0.010 A 
ATOM     31  C   UNL A   1      39.195  25.581  28.759  1.00  0.00     0.010 A 
ATOM     32  C   UNL A   1      40.055  26.513  28.161  1.00  0.00    -0.014 A 
BRANCH  32  33
ATOM     33  C   UNL A   1      40.507  27.701  28.928  1.00  0.00     0.031 A 
ATOM     34  C   UNL A   1      41.878  27.731  29.549  1.00  0.00     0.074 A 
ATOM     35  C   UNL A   1      39.657  28.732  29.113  1.00  0.00     0.049 A 
ATOM     36  N   UNL A   1      42.422  28.656  30.299  1.00  0.00    -0.248 NA
ATOM     37  C   UNL A   1      42.742  26.563  29.318  1.00  0.00     0.031 C 
ATOM     38  C   UNL A   1      38.285  28.801  28.602  1.00  0.00     0.029 A 
ATOM     39  N   UNL A   1      39.815  29.916  29.790  1.00  0.00    -0.354 N 
ATOM     40  C   UNL A   1      43.680  28.177  30.638  1.00  0.00     0.074 A 
ATOM     41  C   UNL A   1      43.805  26.861  30.053  1.00  0.00     0.031 C 
ATOM     42  C   UNL A   1      37.736  29.971  28.965  1.00  0.00     0.029 A 
ATOM     43  C   UNL A   1      38.694  30.713  29.779  1.00  0.00     0.049 A 
ATOM     44  H   UNL A   1      40.652  30.170  30.241  1.00  0.00     0.167 HD
ATOM     45  C   UNL A   1      44.649  28.788  31.360  1.00  0.00     0.037 A 
ATOM     46  C   UNL A   1      38.455  31.896  30.376  1.00  0.00     0.037 A 
ATOM     47  C   UNL A   1      44.528  30.107  31.921  1.00  0.00     0.049 A 
ATOM     48  C   UNL A   1      39.547  32.537  31.190  1.00  0.00     0.074 A 
ATOM     49  C   UNL A   1      45.483  30.839  32.605  1.00  0.00     0.029 A 
ATOM     50  N   UNL A   1      43.382  30.886  31.879  1.00  0.00    -0.354 N 
ATOM     51  N   UNL A   1      40.764  32.110  31.425  1.00  0.00    -0.248 NA
ATOM     52  C   UNL A   1      39.236  33.829  31.817  1.00  0.00     0.031 C 
ATOM     53  C   UNL A   1      44.893  32.027  33.044  1.00  0.00     0.029 A 
ATOM     54  C   UNL A   1      43.595  32.072  32.562  1.00  0.00     0.049 A 
ATOM     55  H   UNL A   1      42.543  30.633  31.432  1.00  0.00     0.167 HD
ATOM     56  C   UNL A   1      41.370  33.095  32.196  1.00  0.00     0.074 A 
ATOM     57  C   UNL A   1      40.396  34.150  32.368  1.00  0.00     0.031 C 
ATOM     58  C   UNL A   1      42.622  33.122  32.717  1.00  0.00     0.037 A 
BRANCH  45  59
ATOM     59  C   UNL A   1      45.932  28.045  31.598  1.00  0.00     0.057 A 
ATOM     60  C   UNL A   1      46.140  27.263  32.741  1.00  0.00     0.134 A 
ATOM     61  C   UNL A   1      46.936  28.038  30.619  1.00  0.00     0.134 A 
ATOM     62  F   UNL A   1      45.223  27.234  33.720  1.00  0.00    -0.206 F 
ATOM     63  C   UNL A   1      47.301  26.507  32.906  1.00  0.00     0.040 A 
ATOM     64  C   UNL A   1      48.087  27.262  30.760  1.00  0.00     0.040 A 
ATOM     65  F   UNL A   1      46.799  28.759  29.496  1.00  0.00    -0.206 F 
ATOM     66  C   UNL A   1      48.272  26.495  31.907  1.00  0.00     0.006 A 
ENDBRANCH  45  59
BRANCH  46  67
ATOM     67  C   UNL A   1      37.124  32.549  30.256  1.00  0.00     0.057 A 
ATOM     68  C   UNL A   1      36.065  32.215  31.110  1.00  0.00     0.134 A 
ATOM     69  C   UNL A   1      36.860  33.481  29.242  1.00  0.00     0.134 A 
ATOM     70  F   UNL A   1      36.246  31.318  32.091  1.00  0.00    -0.206 F 
ATOM     71  C   UNL A   1      34.785  32.744  30.932  1.00  0.00     0.040 A 
ATOM     72  C   UNL A   1      35.594  34.047  29.078  1.00  0.00     0.040 A 
ATOM     73  F   UNL A   1      37.830  33.855  28.395  1.00  0.00    -0.206 F 
ATOM     74  C   UNL A   1      34.548  33.665  29.914  1.00  0.00     0.006 A 
ENDBRANCH  46  67
BRANCH  58  75
ATOM     75  C   UNL A   1      43.029  34.351  33.478  1.00  0.00     0.057 A 
ATOM     76  C   UNL A   1      42.906  34.441  34.870  1.00  0.00     0.134 A 
ATOM     77  C   UNL A   1      43.589  35.448  32.808  1.00  0.00     0.134 A 
ATOM     78  F   UNL A   1      42.368  33.432  35.574  1.00  0.00    -0.206 F 
ATOM     79  C   UNL A   1      43.296  35.588  35.565  1.00  0.00     0.040 A 
ATOM     80  C   UNL A   1      44.017  36.584  33.495  1.00  0.00     0.040 A 
ATOM     81  F   UNL A   1      43.748  35.424  31.476  1.00  0.00    -0.206 F 
ATOM     82  C   UNL A   1      43.862  36.660  34.877  1.00  0.00     0.006 A 
ENDBRANCH  58  75
ENDBRANCH  32  33
ENDBRANCH  24  27
ENDBRANCH  22  23
ENDBRANCH  21  22
ENDBRANCH   1  21
TORSDOF 14
ENDMDL
