MODEL 1
REMARK VINA RESULT:     -12.3      0.000      0.000
REMARK SMILES Cc1cc(NC(=O)N2CCO[C@@H](CC(=O)NCCCNC(=O)c3ccc(-c4c5nc(c(-c6c(F)cccc6F)c6ccc([nH]6)c(-c6c(F)cccc6F)c6nc(c(-c7c(F)cccc7F)c7ccc4[nH]7)C=C6)C=C5)cc3)C2)ccc1F
REMARK SMILES IDX 17 1 16 2 14 3 15 4 13 6 12 7 8 8 9 9 77 10 10 11 11 12 6 13
REMARK SMILES IDX 5 14 7 16 4 17 1 18 2 19 3 20 80 21 79 22 81 23 78 24 18 25
REMARK SMILES IDX 19 26 20 27 21 28 22 30 23 31 24 32 76 33 25 34 75 35 26 36
REMARK SMILES IDX 27 37 28 38 69 39 29 40 74 41 68 42 70 43 30 44 73 45 67 46
REMARK SMILES IDX 66 47 31 49 57 50 40 51 56 52 41 53 44 54 55 55 71 56 42 57
REMARK SMILES IDX 43 58 54 60 72 61 45 62 32 63 33 64 38 65 34 66 35 67 37 68
REMARK SMILES IDX 39 69 36 70 58 71 59 72 64 73 60 74 61 75 63 76 65 77 62 78
REMARK SMILES IDX 46 79 47 80 52 81 48 82 49 83 51 84 53 85 50 86
REMARK H PARENT 16 5 5 15 20 29 70 48 44 59
REMARK Flexibility Score: inf
ROOT
ATOM      1  C   UNL A   1      33.115  29.413  25.051  1.00  0.00     0.117 C 
ENDROOT
BRANCH   1   2
ATOM      2  N   UNL A   1      33.656  29.182  23.713  1.00  0.00    -0.356 N 
ATOM      3  C   UNL A   1      33.317  28.246  22.775  1.00  0.00     0.222 C 
ATOM      4  O   UNL A   1      34.032  28.131  21.779  1.00  0.00    -0.275 OA
ATOM      5  H   UNL A   1      34.377  29.796  23.446  1.00  0.00     0.163 HD
BRANCH   3   6
ATOM      6  C   UNL A   1      32.097  27.367  22.969  1.00  0.00     0.133 C 
BRANCH   6   7
ATOM      7  C   UNL A   1      32.411  25.901  23.302  1.00  0.00     0.147 C 
ATOM      8  N   UNL A   1      31.967  24.189  25.093  1.00  0.00    -0.320 N 
ATOM      9  C   UNL A   1      31.253  23.372  24.114  1.00  0.00     0.150 C 
ATOM     10  C   UNL A   1      32.015  25.584  24.739  1.00  0.00     0.154 C 
ATOM     11  C   UNL A   1      31.759  23.682  22.701  1.00  0.00     0.182 C 
ATOM     12  O   UNL A   1      31.640  25.082  22.392  1.00  0.00    -0.374 OA
BRANCH   8  13
ATOM     13  C   UNL A   1      32.011  23.865  26.433  1.00  0.00     0.322 C 
ATOM     14  N   UNL A   1      32.900  22.913  26.838  1.00  0.00    -0.308 N 
ATOM     15  H   UNL A   1      32.696  22.479  27.698  1.00  0.00     0.171 HD
ATOM     16  O   UNL A   1      31.294  24.412  27.271  1.00  0.00    -0.248 OA
BRANCH  14  17
ATOM     17  C   UNL A   1      34.065  22.466  26.196  1.00  0.00     0.043 A 
ATOM     18  C   UNL A   1      37.644  23.664  25.728  1.00  0.00     0.047 C 
ATOM     19  C   UNL A   1      36.414  22.811  25.724  1.00  0.00    -0.013 A 
ATOM     20  C   UNL A   1      35.193  23.288  26.219  1.00  0.00     0.032 A 
ATOM     21  C   UNL A   1      36.488  21.503  25.241  1.00  0.00     0.126 A 
ATOM     22  C   UNL A   1      35.355  20.718  25.122  1.00  0.00     0.041 A 
ATOM     23  F   UNL A   1      37.667  20.991  24.866  1.00  0.00    -0.207 F 
ATOM     24  C   UNL A   1      34.136  21.229  25.547  1.00  0.00     0.029 A 
ENDBRANCH  14  17
ENDBRANCH   8  13
ENDBRANCH   6   7
ENDBRANCH   3   6
ENDBRANCH   1   2
BRANCH   1  25
ATOM     25  C   UNL A   1      34.071  28.909  26.120  1.00  0.00     0.042 C 
BRANCH  25  26
ATOM     26  C   UNL A   1      33.675  29.283  27.505  1.00  0.00     0.118 C 
BRANCH  26  27
ATOM     27  N   UNL A   1      33.989  30.659  27.833  1.00  0.00    -0.352 N 
ATOM     28  C   UNL A   1      35.056  31.104  28.592  1.00  0.00     0.251 C 
ATOM     29  H   UNL A   1      33.381  31.349  27.480  1.00  0.00     0.163 HD
ATOM     30  O   UNL A   1      35.073  32.237  29.045  1.00  0.00    -0.269 OA
BRANCH  28  31
ATOM     31  C   UNL A   1      36.209  30.199  28.790  1.00  0.00     0.039 A 
ATOM     32  C   UNL A   1      36.394  29.480  29.977  1.00  0.00     0.014 A 
ATOM     33  C   UNL A   1      37.183  30.160  27.800  1.00  0.00     0.014 A 
ATOM     34  C   UNL A   1      37.612  28.836  30.178  1.00  0.00     0.010 A 
ATOM     35  C   UNL A   1      38.178  29.254  27.845  1.00  0.00     0.010 A 
ATOM     36  C   UNL A   1      38.503  28.796  29.107  1.00  0.00    -0.014 A 
BRANCH  36  37
ATOM     37  C   UNL A   1      39.902  28.453  29.152  1.00  0.00     0.031 A 
ATOM     38  C   UNL A   1      40.277  27.106  28.775  1.00  0.00     0.074 A 
ATOM     39  C   UNL A   1      40.730  29.524  29.210  1.00  0.00     0.049 A 
ATOM     40  N   UNL A   1      41.345  26.523  29.172  1.00  0.00    -0.248 NA
ATOM     41  C   UNL A   1      39.436  26.277  27.915  1.00  0.00     0.031 C 
ATOM     42  C   UNL A   1      42.121  29.693  28.833  1.00  0.00     0.029 A 
ATOM     43  N   UNL A   1      40.382  30.787  29.713  1.00  0.00    -0.354 N 
ATOM     44  C   UNL A   1      41.539  25.485  28.292  1.00  0.00     0.074 A 
ATOM     45  C   UNL A   1      40.247  25.239  27.694  1.00  0.00     0.031 C 
ATOM     46  C   UNL A   1      42.587  30.821  29.410  1.00  0.00     0.029 A 
ATOM     47  C   UNL A   1      41.539  31.338  30.280  1.00  0.00     0.049 A 
ATOM     48  H   UNL A   1      39.493  31.206  29.675  1.00  0.00     0.167 HD
ATOM     49  C   UNL A   1      42.819  25.145  27.969  1.00  0.00     0.037 A 
ATOM     50  C   UNL A   1      41.563  31.406  31.648  1.00  0.00     0.037 A 
ATOM     51  C   UNL A   1      43.764  26.082  28.601  1.00  0.00     0.049 A 
ATOM     52  C   UNL A   1      42.472  30.346  32.242  1.00  0.00     0.074 A 
ATOM     53  C   UNL A   1      44.507  27.161  28.147  1.00  0.00     0.029 A 
ATOM     54  N   UNL A   1      43.745  26.211  29.977  1.00  0.00    -0.354 N 
ATOM     55  N   UNL A   1      43.069  29.418  31.542  1.00  0.00    -0.248 NA
ATOM     56  C   UNL A   1      42.763  30.223  33.666  1.00  0.00     0.031 C 
ATOM     57  C   UNL A   1      44.942  27.918  29.281  1.00  0.00     0.029 A 
ATOM     58  C   UNL A   1      44.462  27.302  30.422  1.00  0.00     0.049 A 
ATOM     59  H   UNL A   1      43.269  25.592  30.575  1.00  0.00     0.167 HD
ATOM     60  C   UNL A   1      43.791  28.592  32.352  1.00  0.00     0.074 A 
ATOM     61  C   UNL A   1      43.543  29.125  33.684  1.00  0.00     0.031 C 
ATOM     62  C   UNL A   1      44.517  27.538  31.860  1.00  0.00     0.037 A 
BRANCH  49  63
ATOM     63  C   UNL A   1      43.196  24.178  26.874  1.00  0.00     0.057 A 
ATOM     64  C   UNL A   1      43.260  22.796  27.126  1.00  0.00     0.134 A 
ATOM     65  C   UNL A   1      43.467  24.534  25.537  1.00  0.00     0.134 A 
ATOM     66  F   UNL A   1      42.937  22.282  28.320  1.00  0.00    -0.206 F 
ATOM     67  C   UNL A   1      43.639  21.858  26.160  1.00  0.00     0.040 A 
ATOM     68  C   UNL A   1      43.896  23.611  24.571  1.00  0.00     0.040 A 
ATOM     69  F   UNL A   1      43.265  25.776  25.080  1.00  0.00    -0.206 F 
ATOM     70  C   UNL A   1      43.984  22.264  24.882  1.00  0.00     0.006 A 
ENDBRANCH  49  63
BRANCH  50  71
ATOM     71  C   UNL A   1      40.216  31.845  32.168  1.00  0.00     0.057 A 
ATOM     72  C   UNL A   1      39.449  30.875  32.853  1.00  0.00     0.134 A 
ATOM     73  C   UNL A   1      39.950  33.184  32.480  1.00  0.00     0.134 A 
ATOM     74  F   UNL A   1      39.635  29.569  32.597  1.00  0.00    -0.206 F 
ATOM     75  C   UNL A   1      38.616  31.206  33.928  1.00  0.00     0.040 A 
ATOM     76  C   UNL A   1      39.089  33.526  33.535  1.00  0.00     0.040 A 
ATOM     77  F   UNL A   1      40.622  34.174  31.876  1.00  0.00    -0.206 F 
ATOM     78  C   UNL A   1      38.469  32.536  34.298  1.00  0.00     0.006 A 
ENDBRANCH  50  71
BRANCH  62  79
ATOM     79  C   UNL A   1      45.311  26.579  32.716  1.00  0.00     0.057 A 
ATOM     80  C   UNL A   1      46.693  26.413  32.591  1.00  0.00     0.134 A 
ATOM     81  C   UNL A   1      44.696  25.716  33.655  1.00  0.00     0.134 A 
ATOM     82  F   UNL A   1      47.381  27.025  31.616  1.00  0.00    -0.206 F 
ATOM     83  C   UNL A   1      47.426  25.572  33.438  1.00  0.00     0.040 A 
ATOM     84  C   UNL A   1      45.407  24.836  34.468  1.00  0.00     0.040 A 
ATOM     85  F   UNL A   1      43.373  25.676  33.852  1.00  0.00    -0.206 F 
ATOM     86  C   UNL A   1      46.784  24.789  34.389  1.00  0.00     0.006 A 
ENDBRANCH  62  79
ENDBRANCH  36  37
ENDBRANCH  28  31
ENDBRANCH  26  27
ENDBRANCH  25  26
ENDBRANCH   1  25
TORSDOF 13
ENDMDL
MODEL 2
REMARK VINA RESULT:     -12.2      2.923      8.132
REMARK SMILES Cc1cc(NC(=O)N2CCO[C@@H](CC(=O)NCCCNC(=O)c3ccc(-c4c5nc(c(-c6c(F)cccc6F)c6ccc([nH]6)c(-c6c(F)cccc6F)c6nc(c(-c7c(F)cccc7F)c7ccc4[nH]7)C=C6)C=C5)cc3)C2)ccc1F
REMARK SMILES IDX 17 1 16 2 14 3 15 4 13 6 12 7 8 8 9 9 77 10 10 11 11 12 6 13
REMARK SMILES IDX 5 14 7 16 4 17 1 18 2 19 3 20 80 21 79 22 81 23 78 24 18 25
REMARK SMILES IDX 19 26 20 27 21 28 22 30 23 31 24 32 76 33 25 34 75 35 26 36
REMARK SMILES IDX 27 37 28 38 69 39 29 40 74 41 68 42 70 43 30 44 73 45 67 46
REMARK SMILES IDX 66 47 31 49 57 50 40 51 56 52 41 53 44 54 55 55 71 56 42 57
REMARK SMILES IDX 43 58 54 60 72 61 45 62 32 63 33 64 38 65 34 66 35 67 37 68
REMARK SMILES IDX 39 69 36 70 58 71 59 72 64 73 60 74 61 75 63 76 65 77 62 78
REMARK SMILES IDX 46 79 47 80 52 81 48 82 49 83 51 84 53 85 50 86
REMARK H PARENT 16 5 5 15 20 29 70 48 44 59
REMARK Flexibility Score: inf
ROOT
ATOM      1  C   UNL A   1      36.737  20.994  24.643  1.00  0.00     0.117 C 
ENDROOT
BRANCH   1   2
ATOM      2  N   UNL A   1      35.673  20.873  25.636  1.00  0.00    -0.356 N 
ATOM      3  C   UNL A   1      34.356  21.236  25.566  1.00  0.00     0.222 C 
ATOM      4  O   UNL A   1      33.683  21.195  26.595  1.00  0.00    -0.275 OA
ATOM      5  H   UNL A   1      35.947  20.466  26.490  1.00  0.00     0.163 HD
BRANCH   3   6
ATOM      6  C   UNL A   1      33.750  21.688  24.251  1.00  0.00     0.133 C 
BRANCH   6   7
ATOM      7  C   UNL A   1      33.067  23.062  24.302  1.00  0.00     0.147 C 
ATOM      8  N   UNL A   1      32.374  24.933  22.767  1.00  0.00    -0.320 N 
ATOM      9  C   UNL A   1      30.979  24.696  23.131  1.00  0.00     0.150 C 
ATOM     10  C   UNL A   1      33.214  23.781  22.966  1.00  0.00     0.154 C 
ATOM     11  C   UNL A   1      30.900  24.049  24.519  1.00  0.00     0.182 C 
ATOM     12  O   UNL A   1      31.665  22.831  24.577  1.00  0.00    -0.374 OA
BRANCH   8  13
ATOM     13  C   UNL A   1      32.738  25.831  21.785  1.00  0.00     0.322 C 
ATOM     14  N   UNL A   1      32.502  27.157  22.003  1.00  0.00    -0.308 N 
ATOM     15  H   UNL A   1      32.464  27.720  21.196  1.00  0.00     0.171 HD
ATOM     16  O   UNL A   1      33.278  25.482  20.735  1.00  0.00    -0.248 OA
BRANCH  14  17
ATOM     17  C   UNL A   1      32.305  27.828  23.220  1.00  0.00     0.043 A 
ATOM     18  C   UNL A   1      34.335  28.653  26.327  1.00  0.00     0.047 C 
ATOM     19  C   UNL A   1      33.242  28.621  25.306  1.00  0.00    -0.013 A 
ATOM     20  C   UNL A   1      33.346  27.836  24.150  1.00  0.00     0.032 A 
ATOM     21  C   UNL A   1      32.104  29.410  25.493  1.00  0.00     0.126 A 
ATOM     22  C   UNL A   1      31.028  29.330  24.629  1.00  0.00     0.041 A 
ATOM     23  F   UNL A   1      32.033  30.250  26.534  1.00  0.00    -0.207 F 
ATOM     24  C   UNL A   1      31.111  28.491  23.526  1.00  0.00     0.029 A 
ENDBRANCH  14  17
ENDBRANCH   8  13
ENDBRANCH   6   7
ENDBRANCH   3   6
ENDBRANCH   1   2
BRANCH   1  25
ATOM     25  C   UNL A   1      37.280  22.414  24.594  1.00  0.00     0.042 C 
BRANCH  25  26
ATOM     26  C   UNL A   1      37.774  22.913  25.906  1.00  0.00     0.118 C 
BRANCH  26  27
ATOM     27  N   UNL A   1      39.074  22.381  26.263  1.00  0.00    -0.352 N 
ATOM     28  C   UNL A   1      40.204  23.110  26.583  1.00  0.00     0.251 C 
ATOM     29  H   UNL A   1      39.161  21.400  26.280  1.00  0.00     0.163 HD
ATOM     30  O   UNL A   1      41.306  22.586  26.589  1.00  0.00    -0.269 OA
BRANCH  28  31
ATOM     31  C   UNL A   1      40.044  24.525  26.983  1.00  0.00     0.039 A 
ATOM     32  C   UNL A   1      40.424  25.581  26.147  1.00  0.00     0.014 A 
ATOM     33  C   UNL A   1      39.604  24.790  28.275  1.00  0.00     0.014 A 
ATOM     34  C   UNL A   1      40.459  26.867  26.679  1.00  0.00     0.010 A 
ATOM     35  C   UNL A   1      39.295  26.043  28.656  1.00  0.00     0.010 A 
ATOM     36  C   UNL A   1      39.941  27.048  27.959  1.00  0.00    -0.014 A 
BRANCH  36  37
ATOM     37  C   UNL A   1      40.122  28.191  28.818  1.00  0.00     0.031 A 
ATOM     38  C   UNL A   1      39.146  29.259  28.733  1.00  0.00     0.074 A 
ATOM     39  C   UNL A   1      40.985  27.981  29.841  1.00  0.00     0.049 A 
ATOM     40  N   UNL A   1      39.383  30.473  29.059  1.00  0.00    -0.248 NA
ATOM     41  C   UNL A   1      37.792  29.035  28.232  1.00  0.00     0.031 C 
ATOM     42  C   UNL A   1      41.128  28.624  31.134  1.00  0.00     0.029 A 
ATOM     43  N   UNL A   1      42.018  27.031  29.844  1.00  0.00    -0.354 N 
ATOM     44  C   UNL A   1      38.148  31.047  29.241  1.00  0.00     0.074 A 
ATOM     45  C   UNL A   1      37.223  30.210  28.511  1.00  0.00     0.031 C 
ATOM     46  C   UNL A   1      42.341  28.309  31.637  1.00  0.00     0.029 A 
ATOM     47  C   UNL A   1      43.060  27.557  30.618  1.00  0.00     0.049 A 
ATOM     48  H   UNL A   1      42.011  26.159  29.387  1.00  0.00     0.167 HD
ATOM     49  C   UNL A   1      38.014  31.996  30.210  1.00  0.00     0.037 A 
ATOM     50  C   UNL A   1      44.174  27.960  29.929  1.00  0.00     0.037 A 
ATOM     51  C   UNL A   1      39.276  32.137  30.955  1.00  0.00     0.049 A 
ATOM     52  C   UNL A   1      44.253  29.473  29.834  1.00  0.00     0.074 A 
ATOM     53  C   UNL A   1      39.723  31.703  32.194  1.00  0.00     0.029 A 
ATOM     54  N   UNL A   1      40.422  32.471  30.256  1.00  0.00    -0.354 N 
ATOM     55  N   UNL A   1      43.319  30.282  30.260  1.00  0.00    -0.248 NA
ATOM     56  C   UNL A   1      45.365  30.197  29.231  1.00  0.00     0.031 C 
ATOM     57  C   UNL A   1      41.151  31.807  32.220  1.00  0.00     0.029 A 
ATOM     58  C   UNL A   1      41.570  32.300  30.998  1.00  0.00     0.049 A 
ATOM     59  H   UNL A   1      40.417  32.796  29.327  1.00  0.00     0.167 HD
ATOM     60  C   UNL A   1      43.655  31.580  30.009  1.00  0.00     0.074 A 
ATOM     61  C   UNL A   1      44.941  31.471  29.335  1.00  0.00     0.031 C 
ATOM     62  C   UNL A   1      42.844  32.626  30.366  1.00  0.00     0.037 A 
BRANCH  49  63
ATOM     63  C   UNL A   1      36.695  32.566  30.670  1.00  0.00     0.057 A 
ATOM     64  C   UNL A   1      36.079  33.613  29.961  1.00  0.00     0.134 A 
ATOM     65  C   UNL A   1      35.955  32.106  31.778  1.00  0.00     0.134 A 
ATOM     66  F   UNL A   1      36.602  34.102  28.828  1.00  0.00    -0.206 F 
ATOM     67  C   UNL A   1      34.876  34.206  30.362  1.00  0.00     0.040 A 
ATOM     68  C   UNL A   1      34.775  32.723  32.220  1.00  0.00     0.040 A 
ATOM     69  F   UNL A   1      36.297  30.998  32.447  1.00  0.00    -0.206 F 
ATOM     70  C   UNL A   1      34.230  33.780  31.510  1.00  0.00     0.006 A 
ENDBRANCH  49  63
BRANCH  50  71
ATOM     71  C   UNL A   1      44.502  26.962  28.847  1.00  0.00     0.057 A 
ATOM     72  C   UNL A   1      44.881  25.666  29.268  1.00  0.00     0.134 A 
ATOM     73  C   UNL A   1      43.954  27.064  27.562  1.00  0.00     0.134 A 
ATOM     74  F   UNL A   1      45.429  25.488  30.482  1.00  0.00    -0.206 F 
ATOM     75  C   UNL A   1      44.549  24.518  28.539  1.00  0.00     0.040 A 
ATOM     76  C   UNL A   1      43.649  25.918  26.810  1.00  0.00     0.040 A 
ATOM     77  F   UNL A   1      43.573  28.252  27.074  1.00  0.00    -0.206 F 
ATOM     78  C   UNL A   1      43.890  24.643  27.323  1.00  0.00     0.006 A 
ENDBRANCH  50  71
BRANCH  62  79
ATOM     79  C   UNL A   1      43.156  34.078  30.087  1.00  0.00     0.057 A 
ATOM     80  C   UNL A   1      43.314  35.030  31.099  1.00  0.00     0.134 A 
ATOM     81  C   UNL A   1      43.232  34.597  28.772  1.00  0.00     0.134 A 
ATOM     82  F   UNL A   1      43.084  34.723  32.384  1.00  0.00    -0.206 F 
ATOM     83  C   UNL A   1      43.672  36.356  30.829  1.00  0.00     0.040 A 
ATOM     84  C   UNL A   1      43.536  35.927  28.489  1.00  0.00     0.040 A 
ATOM     85  F   UNL A   1      43.027  33.852  27.680  1.00  0.00    -0.206 F 
ATOM     86  C   UNL A   1      43.797  36.806  29.521  1.00  0.00     0.006 A 
ENDBRANCH  62  79
ENDBRANCH  36  37
ENDBRANCH  28  31
ENDBRANCH  26  27
ENDBRANCH  25  26
ENDBRANCH   1  25
TORSDOF 13
ENDMDL
MODEL 3
REMARK VINA RESULT:     -11.8      2.982      5.162
REMARK SMILES Cc1cc(NC(=O)N2CCO[C@@H](CC(=O)NCCCNC(=O)c3ccc(-c4c5nc(c(-c6c(F)cccc6F)c6ccc([nH]6)c(-c6c(F)cccc6F)c6nc(c(-c7c(F)cccc7F)c7ccc4[nH]7)C=C6)C=C5)cc3)C2)ccc1F
REMARK SMILES IDX 17 1 16 2 14 3 15 4 13 6 12 7 8 8 9 9 77 10 10 11 11 12 6 13
REMARK SMILES IDX 5 14 7 16 4 17 1 18 2 19 3 20 80 21 79 22 81 23 78 24 18 25
REMARK SMILES IDX 19 26 20 27 21 28 22 30 23 31 24 32 76 33 25 34 75 35 26 36
REMARK SMILES IDX 27 37 28 38 69 39 29 40 74 41 68 42 70 43 30 44 73 45 67 46
REMARK SMILES IDX 66 47 31 49 57 50 40 51 56 52 41 53 44 54 55 55 71 56 42 57
REMARK SMILES IDX 43 58 54 60 72 61 45 62 32 63 33 64 38 65 34 66 35 67 37 68
REMARK SMILES IDX 39 69 36 70 58 71 59 72 64 73 60 74 61 75 63 76 65 77 62 78
REMARK SMILES IDX 46 79 47 80 52 81 48 82 49 83 51 84 53 85 50 86
REMARK H PARENT 16 5 5 15 20 29 70 48 44 59
REMARK Flexibility Score: inf
ROOT
ATOM      1  C   UNL A   1      35.113  31.892  27.923  1.00  0.00     0.117 C 
ENDROOT
BRANCH   1   2
ATOM      2  N   UNL A   1      33.710  31.518  27.769  1.00  0.00    -0.356 N 
ATOM      3  C   UNL A   1      33.151  30.391  27.234  1.00  0.00     0.222 C 
ATOM      4  O   UNL A   1      31.934  30.370  27.052  1.00  0.00    -0.275 OA
ATOM      5  H   UNL A   1      33.065  32.182  28.103  1.00  0.00     0.163 HD
BRANCH   3   6
ATOM      6  C   UNL A   1      34.018  29.202  26.864  1.00  0.00     0.133 C 
BRANCH   6   7
ATOM      7  C   UNL A   1      33.297  28.113  26.055  1.00  0.00     0.147 C 
ATOM      8  N   UNL A   1      33.219  27.173  23.721  1.00  0.00    -0.320 N 
ATOM      9  C   UNL A   1      33.683  25.888  24.239  1.00  0.00     0.150 C 
ATOM     10  C   UNL A   1      33.573  28.284  24.566  1.00  0.00     0.154 C 
ATOM     11  C   UNL A   1      33.300  25.747  25.717  1.00  0.00     0.182 C 
ATOM     12  O   UNL A   1      33.814  26.838  26.502  1.00  0.00    -0.374 OA
BRANCH   8  13
ATOM     13  C   UNL A   1      33.072  27.414  22.371  1.00  0.00     0.322 C 
ATOM     14  N   UNL A   1      31.812  27.408  21.848  1.00  0.00    -0.308 N 
ATOM     15  H   UNL A   1      31.756  27.259  20.876  1.00  0.00     0.171 HD
ATOM     16  O   UNL A   1      34.028  27.649  21.631  1.00  0.00    -0.248 OA
BRANCH  14  17
ATOM     17  C   UNL A   1      30.584  27.584  22.506  1.00  0.00     0.043 A 
ATOM     18  C   UNL A   1      27.875  30.243  22.722  1.00  0.00     0.047 C 
ATOM     19  C   UNL A   1      28.622  28.955  22.865  1.00  0.00    -0.013 A 
ATOM     20  C   UNL A   1      29.916  28.799  22.351  1.00  0.00     0.032 A 
ATOM     21  C   UNL A   1      28.009  27.873  23.501  1.00  0.00     0.126 A 
ATOM     22  C   UNL A   1      28.700  26.701  23.747  1.00  0.00     0.041 A 
ATOM     23  F   UNL A   1      26.734  27.964  23.901  1.00  0.00    -0.207 F 
ATOM     24  C   UNL A   1      30.009  26.585  23.298  1.00  0.00     0.029 A 
ENDBRANCH  14  17
ENDBRANCH   8  13
ENDBRANCH   6   7
ENDBRANCH   3   6
ENDBRANCH   1   2
BRANCH   1  25
ATOM     25  C   UNL A   1      35.275  32.992  28.960  1.00  0.00     0.042 C 
BRANCH  25  26
ATOM     26  C   UNL A   1      34.426  32.808  30.168  1.00  0.00     0.118 C 
BRANCH  26  27
ATOM     27  N   UNL A   1      34.256  34.026  30.934  1.00  0.00    -0.352 N 
ATOM     28  C   UNL A   1      35.085  34.494  31.936  1.00  0.00     0.251 C 
ATOM     29  H   UNL A   1      33.469  34.578  30.718  1.00  0.00     0.163 HD
ATOM     30  O   UNL A   1      34.710  35.365  32.704  1.00  0.00    -0.269 OA
BRANCH  28  31
ATOM     31  C   UNL A   1      36.463  33.962  32.020  1.00  0.00     0.039 A 
ATOM     32  C   UNL A   1      37.539  34.580  31.372  1.00  0.00     0.014 A 
ATOM     33  C   UNL A   1      36.654  32.751  32.675  1.00  0.00     0.014 A 
ATOM     34  C   UNL A   1      38.751  33.899  31.305  1.00  0.00     0.010 A 
ATOM     35  C   UNL A   1      37.893  32.285  32.917  1.00  0.00     0.010 A 
ATOM     36  C   UNL A   1      38.870  32.723  32.043  1.00  0.00    -0.014 A 
BRANCH  36  37
ATOM     37  C   UNL A   1      39.890  31.714  31.914  1.00  0.00     0.031 A 
ATOM     38  C   UNL A   1      39.582  30.541  31.121  1.00  0.00     0.074 A 
ATOM     39  C   UNL A   1      41.130  32.136  32.264  1.00  0.00     0.049 A 
ATOM     40  N   UNL A   1      40.155  29.407  31.268  1.00  0.00    -0.248 NA
ATOM     41  C   UNL A   1      38.550  30.553  30.087  1.00  0.00     0.031 C 
ATOM     42  C   UNL A   1      42.452  31.665  31.893  1.00  0.00     0.029 A 
ATOM     43  N   UNL A   1      41.405  33.189  33.149  1.00  0.00    -0.354 N 
ATOM     44  C   UNL A   1      39.908  28.723  30.101  1.00  0.00     0.074 A 
ATOM     45  C   UNL A   1      38.750  29.362  29.517  1.00  0.00     0.031 C 
ATOM     46  C   UNL A   1      43.346  32.170  32.770  1.00  0.00     0.029 A 
ATOM     47  C   UNL A   1      42.602  32.875  33.804  1.00  0.00     0.049 A 
ATOM     48  H   UNL A   1      40.858  33.996  33.284  1.00  0.00     0.167 HD
ATOM     49  C   UNL A   1      40.872  27.883  29.630  1.00  0.00     0.037 A 
ATOM     50  C   UNL A   1      42.490  32.522  35.123  1.00  0.00     0.037 A 
ATOM     51  C   UNL A   1      42.074  27.971  30.476  1.00  0.00     0.049 A 
ATOM     52  C   UNL A   1      42.664  31.027  35.317  1.00  0.00     0.074 A 
ATOM     53  C   UNL A   1      43.307  28.591  30.345  1.00  0.00     0.029 A 
ATOM     54  N   UNL A   1      41.955  27.688  31.824  1.00  0.00    -0.354 N 
ATOM     55  N   UNL A   1      42.795  30.173  34.336  1.00  0.00    -0.248 NA
ATOM     56  C   UNL A   1      42.677  30.367  36.616  1.00  0.00     0.031 C 
ATOM     57  C   UNL A   1      43.922  28.651  31.638  1.00  0.00     0.029 A 
ATOM     58  C   UNL A   1      43.062  28.071  32.551  1.00  0.00     0.049 A 
ATOM     59  H   UNL A   1      41.163  27.260  32.222  1.00  0.00     0.167 HD
ATOM     60  C   UNL A   1      42.899  28.901  34.816  1.00  0.00     0.074 A 
ATOM     61  C   UNL A   1      42.791  29.074  36.257  1.00  0.00     0.031 C 
ATOM     62  C   UNL A   1      43.052  27.818  33.988  1.00  0.00     0.037 A 
BRANCH  49  63
ATOM     63  C   UNL A   1      40.843  27.226  28.272  1.00  0.00     0.057 A 
ATOM     64  C   UNL A   1      40.063  26.077  28.047  1.00  0.00     0.134 A 
ATOM     65  C   UNL A   1      41.525  27.693  27.130  1.00  0.00     0.134 A 
ATOM     66  F   UNL A   1      39.278  25.560  29.002  1.00  0.00    -0.206 F 
ATOM     67  C   UNL A   1      40.027  25.404  26.821  1.00  0.00     0.040 A 
ATOM     68  C   UNL A   1      41.537  27.002  25.910  1.00  0.00     0.040 A 
ATOM     69  F   UNL A   1      42.156  28.874  27.116  1.00  0.00    -0.206 F 
ATOM     70  C   UNL A   1      40.785  25.850  25.751  1.00  0.00     0.006 A 
ENDBRANCH  49  63
BRANCH  50  71
ATOM     71  C   UNL A   1      41.494  33.420  35.815  1.00  0.00     0.057 A 
ATOM     72  C   UNL A   1      41.869  34.772  35.992  1.00  0.00     0.134 A 
ATOM     73  C   UNL A   1      40.119  33.153  35.785  1.00  0.00     0.134 A 
ATOM     74  F   UNL A   1      43.169  35.106  36.047  1.00  0.00    -0.206 F 
ATOM     75  C   UNL A   1      40.940  35.817  35.937  1.00  0.00     0.040 A 
ATOM     76  C   UNL A   1      39.179  34.196  35.765  1.00  0.00     0.040 A 
ATOM     77  F   UNL A   1      39.669  31.901  35.630  1.00  0.00    -0.206 F 
ATOM     78  C   UNL A   1      39.590  35.528  35.779  1.00  0.00     0.006 A 
ENDBRANCH  50  71
BRANCH  62  79
ATOM     79  C   UNL A   1      43.146  26.388  34.466  1.00  0.00     0.057 A 
ATOM     80  C   UNL A   1      44.292  25.604  34.302  1.00  0.00     0.134 A 
ATOM     81  C   UNL A   1      42.046  25.711  35.046  1.00  0.00     0.134 A 
ATOM     82  F   UNL A   1      45.345  26.051  33.603  1.00  0.00    -0.206 F 
ATOM     83  C   UNL A   1      44.388  24.304  34.812  1.00  0.00     0.040 A 
ATOM     84  C   UNL A   1      42.112  24.399  35.511  1.00  0.00     0.040 A 
ATOM     85  F   UNL A   1      40.843  26.275  35.208  1.00  0.00    -0.206 F 
ATOM     86  C   UNL A   1      43.300  23.701  35.431  1.00  0.00     0.006 A 
ENDBRANCH  62  79
ENDBRANCH  36  37
ENDBRANCH  28  31
ENDBRANCH  26  27
ENDBRANCH  25  26
ENDBRANCH   1  25
TORSDOF 13
ENDMDL
