MODEL 1
REMARK VINA RESULT:     -11.2      0.000      0.000
REMARK SMILES C[C@@H](C(=O)NCCCNC(=O)c1ccc(-c2c3nc(c(-c4c(F)cccc4F)c4ccc([nH]4)c(-c4c(F)cccc4F)c4nc(c(-c5c(F)cccc5F)c5ccc2[nH]5)C=C4)C=C3)cc1)c1ccc(Cc2ccoc2)cc1F
REMARK SMILES IDX 6 1 5 2 3 3 4 4 2 6 1 7 66 8 67 9 77 10 68 11 76 12 78 13
REMARK SMILES IDX 69 14 70 15 71 16 72 17 75 18 73 19 74 20 7 21 8 22 9 23
REMARK SMILES IDX 10 24 11 26 12 27 13 28 65 29 14 30 64 31 15 32 16 33 17 34
REMARK SMILES IDX 58 35 18 36 63 37 57 38 59 39 19 40 62 41 56 42 55 43 20 45
REMARK SMILES IDX 46 46 29 47 45 48 30 49 33 50 44 51 60 52 31 53 32 54 43 56
REMARK SMILES IDX 61 57 34 58 21 59 22 60 27 61 23 62 24 63 26 64 28 65 25 66
REMARK SMILES IDX 47 67 48 68 53 69 49 70 50 71 52 72 54 73 51 74 35 75 36 76
REMARK SMILES IDX 41 77 37 78 38 79 40 80 42 81 39 82
REMARK H PARENT 5 5 9 25 59 44 33 55
REMARK Flexibility Score: inf
ROOT
ATOM      1  C   UNL A   1      36.538  20.408  25.015  1.00  0.00     0.117 C 
ENDROOT
BRANCH   1   2
ATOM      2  N   UNL A   1      36.765  21.656  25.715  1.00  0.00    -0.356 N 
ATOM      3  C   UNL A   1      36.265  22.908  25.513  1.00  0.00     0.227 C 
ATOM      4  O   UNL A   1      36.842  23.798  26.142  1.00  0.00    -0.274 OA
ATOM      5  H   UNL A   1      37.393  21.588  26.470  1.00  0.00     0.163 HD
BRANCH   3   6
ATOM      6  C   UNL A   1      35.077  23.134  24.561  1.00  0.00     0.108 C 
ATOM      7  C   UNL A   1      35.568  23.311  23.120  1.00  0.00     0.023 C 
BRANCH   6   8
ATOM      8  C   UNL A   1      34.126  24.286  24.899  1.00  0.00    -0.000 A 
ATOM      9  C   UNL A   1      34.028  25.470  24.157  1.00  0.00     0.008 A 
ATOM     10  C   UNL A   1      33.219  24.127  25.958  1.00  0.00     0.127 A 
ATOM     11  C   UNL A   1      33.075  26.446  24.467  1.00  0.00     0.004 A 
ATOM     12  C   UNL A   1      32.260  25.096  26.275  1.00  0.00     0.043 A 
ATOM     13  F   UNL A   1      33.233  22.992  26.674  1.00  0.00    -0.207 F 
ATOM     14  C   UNL A   1      32.175  26.275  25.526  1.00  0.00    -0.041 A 
BRANCH  14  15
ATOM     15  C   UNL A   1      31.104  27.303  25.795  1.00  0.00     0.074 C 
BRANCH  15  16
ATOM     16  C   UNL A   1      31.766  28.577  26.197  1.00  0.00    -0.005 A 
ATOM     17  C   UNL A   1      32.686  28.811  27.265  1.00  0.00     0.046 A 
ATOM     18  C   UNL A   1      31.680  29.789  25.536  1.00  0.00     0.198 A 
ATOM     19  C   UNL A   1      33.065  30.130  27.183  1.00  0.00     0.195 A 
ATOM     20  O   UNL A   1      32.459  30.729  26.129  1.00  0.00    -0.472 OA
ENDBRANCH  15  16
ENDBRANCH  14  15
ENDBRANCH   6   8
ENDBRANCH   3   6
ENDBRANCH   1   2
BRANCH   1  21
ATOM     21  C   UNL A   1      37.796  19.538  25.001  1.00  0.00     0.042 C 
BRANCH  21  22
ATOM     22  C   UNL A   1      39.014  20.159  25.683  1.00  0.00     0.118 C 
BRANCH  22  23
ATOM     23  N   UNL A   1      40.131  19.236  25.799  1.00  0.00    -0.352 N 
ATOM     24  C   UNL A   1      41.441  19.480  26.125  1.00  0.00     0.251 C 
ATOM     25  H   UNL A   1      39.916  18.293  25.617  1.00  0.00     0.163 HD
ATOM     26  O   UNL A   1      42.276  18.581  26.004  1.00  0.00    -0.269 OA
BRANCH  24  27
ATOM     27  C   UNL A   1      41.870  20.815  26.594  1.00  0.00     0.039 A 
ATOM     28  C   UNL A   1      42.288  21.756  25.649  1.00  0.00     0.014 A 
ATOM     29  C   UNL A   1      41.889  21.138  27.954  1.00  0.00     0.014 A 
ATOM     30  C   UNL A   1      42.661  23.038  26.060  1.00  0.00     0.010 A 
ATOM     31  C   UNL A   1      42.191  22.438  28.357  1.00  0.00     0.010 A 
ATOM     32  C   UNL A   1      42.582  23.401  27.414  1.00  0.00    -0.014 A 
BRANCH  32  33
ATOM     33  C   UNL A   1      42.895  24.785  27.858  1.00  0.00     0.031 A 
ATOM     34  C   UNL A   1      44.319  25.205  28.096  1.00  0.00     0.074 A 
ATOM     35  C   UNL A   1      41.890  25.650  28.099  1.00  0.00     0.049 A 
ATOM     36  N   UNL A   1      44.781  26.345  28.543  1.00  0.00    -0.248 NA
ATOM     37  C   UNL A   1      45.360  24.203  27.817  1.00  0.00     0.031 C 
ATOM     38  C   UNL A   1      40.464  25.357  27.941  1.00  0.00     0.029 A 
ATOM     39  N   UNL A   1      41.914  26.951  28.534  1.00  0.00    -0.354 N 
ATOM     40  C   UNL A   1      46.161  26.195  28.608  1.00  0.00     0.074 A 
ATOM     41  C   UNL A   1      46.457  24.837  28.204  1.00  0.00     0.031 C 
ATOM     42  C   UNL A   1      39.753  26.454  28.248  1.00  0.00     0.029 A 
ATOM     43  C   UNL A   1      40.667  27.513  28.664  1.00  0.00     0.049 A 
ATOM     44  H   UNL A   1      42.747  27.438  28.735  1.00  0.00     0.167 HD
ATOM     45  C   UNL A   1      47.098  27.112  28.951  1.00  0.00     0.037 A 
ATOM     46  C   UNL A   1      40.299  28.741  29.077  1.00  0.00     0.037 A 
ATOM     47  C   UNL A   1      46.805  28.468  29.334  1.00  0.00     0.049 A 
ATOM     48  C   UNL A   1      41.358  29.731  29.475  1.00  0.00     0.074 A 
ATOM     49  C   UNL A   1      47.688  29.484  29.654  1.00  0.00     0.029 A 
ATOM     50  N   UNL A   1      45.529  28.997  29.451  1.00  0.00    -0.354 N 
ATOM     51  N   UNL A   1      42.662  29.592  29.479  1.00  0.00    -0.248 NA
ATOM     52  C   UNL A   1      40.894  31.052  29.923  1.00  0.00     0.031 C 
ATOM     53  C   UNL A   1      46.946  30.615  30.008  1.00  0.00     0.029 A 
ATOM     54  C   UNL A   1      45.601  30.320  29.859  1.00  0.00     0.049 A 
ATOM     55  H   UNL A   1      44.694  28.506  29.273  1.00  0.00     0.167 HD
ATOM     56  C   UNL A   1      43.173  30.814  29.897  1.00  0.00     0.074 A 
ATOM     57  C   UNL A   1      42.040  31.686  30.127  1.00  0.00     0.031 C 
ATOM     58  C   UNL A   1      44.466  31.180  30.075  1.00  0.00     0.037 A 
BRANCH  45  59
ATOM     59  C   UNL A   1      48.535  26.678  28.921  1.00  0.00     0.057 A 
ATOM     60  C   UNL A   1      49.350  26.897  27.802  1.00  0.00     0.134 A 
ATOM     61  C   UNL A   1      49.124  26.073  30.038  1.00  0.00     0.134 A 
ATOM     62  F   UNL A   1      48.845  27.463  26.695  1.00  0.00    -0.206 F 
ATOM     63  C   UNL A   1      50.691  26.508  27.786  1.00  0.00     0.040 A 
ATOM     64  C   UNL A   1      50.472  25.704  30.044  1.00  0.00     0.040 A 
ATOM     65  F   UNL A   1      48.405  25.838  31.146  1.00  0.00    -0.206 F 
ATOM     66  C   UNL A   1      51.257  25.916  28.913  1.00  0.00     0.006 A 
ENDBRANCH  45  59
BRANCH  46  67
ATOM     67  C   UNL A   1      38.863  29.116  29.113  1.00  0.00     0.057 A 
ATOM     68  C   UNL A   1      38.120  29.011  30.295  1.00  0.00     0.134 A 
ATOM     69  C   UNL A   1      38.195  29.574  27.970  1.00  0.00     0.134 A 
ATOM     70  F   UNL A   1      38.700  28.560  31.417  1.00  0.00    -0.206 F 
ATOM     71  C   UNL A   1      36.762  29.328  30.337  1.00  0.00     0.040 A 
ATOM     72  C   UNL A   1      36.843  29.920  28.003  1.00  0.00     0.040 A 
ATOM     73  F   UNL A   1      38.851  29.703  26.807  1.00  0.00    -0.206 F 
ATOM     74  C   UNL A   1      36.121  29.789  29.189  1.00  0.00     0.006 A 
ENDBRANCH  46  67
BRANCH  58  75
ATOM     75  C   UNL A   1      44.728  32.596  30.499  1.00  0.00     0.057 A 
ATOM     76  C   UNL A   1      44.852  32.956  31.847  1.00  0.00     0.134 A 
ATOM     77  C   UNL A   1      44.896  33.605  29.542  1.00  0.00     0.134 A 
ATOM     78  F   UNL A   1      44.689  32.039  32.812  1.00  0.00    -0.206 F 
ATOM     79  C   UNL A   1      45.112  34.273  32.228  1.00  0.00     0.040 A 
ATOM     80  C   UNL A   1      45.183  34.920  29.910  1.00  0.00     0.040 A 
ATOM     81  F   UNL A   1      44.797  33.327  28.233  1.00  0.00    -0.206 F 
ATOM     82  C   UNL A   1      45.284  35.258  31.258  1.00  0.00     0.006 A 
ENDBRANCH  58  75
ENDBRANCH  32  33
ENDBRANCH  24  27
ENDBRANCH  22  23
ENDBRANCH  21  22
ENDBRANCH   1  21
TORSDOF 13
ENDMDL
MODEL 2
REMARK VINA RESULT:     -11.1      3.597      6.381
REMARK SMILES C[C@@H](C(=O)NCCCNC(=O)c1ccc(-c2c3nc(c(-c4c(F)cccc4F)c4ccc([nH]4)c(-c4c(F)cccc4F)c4nc(c(-c5c(F)cccc5F)c5ccc2[nH]5)C=C4)C=C3)cc1)c1ccc(Cc2ccoc2)cc1F
REMARK SMILES IDX 6 1 5 2 3 3 4 4 2 6 1 7 66 8 67 9 77 10 68 11 76 12 78 13
REMARK SMILES IDX 69 14 70 15 71 16 72 17 75 18 73 19 74 20 7 21 8 22 9 23
REMARK SMILES IDX 10 24 11 26 12 27 13 28 65 29 14 30 64 31 15 32 16 33 17 34
REMARK SMILES IDX 58 35 18 36 63 37 57 38 59 39 19 40 62 41 56 42 55 43 20 45
REMARK SMILES IDX 46 46 29 47 45 48 30 49 33 50 44 51 60 52 31 53 32 54 43 56
REMARK SMILES IDX 61 57 34 58 21 59 22 60 27 61 23 62 24 63 26 64 28 65 25 66
REMARK SMILES IDX 47 67 48 68 53 69 49 70 50 71 52 72 54 73 51 74 35 75 36 76
REMARK SMILES IDX 41 77 37 78 38 79 40 80 42 81 39 82
REMARK H PARENT 5 5 9 25 59 44 33 55
REMARK Flexibility Score: inf
ROOT
ATOM      1  C   UNL A   1      45.154  21.905  24.001  1.00  0.00     0.117 C 
ENDROOT
BRANCH   1   2
ATOM      2  N   UNL A   1      45.682  22.238  25.307  1.00  0.00    -0.356 N 
ATOM      3  C   UNL A   1      46.238  23.385  25.791  1.00  0.00     0.227 C 
ATOM      4  O   UNL A   1      46.799  23.262  26.882  1.00  0.00    -0.274 OA
ATOM      5  H   UNL A   1      45.632  21.505  25.964  1.00  0.00     0.163 HD
BRANCH   3   6
ATOM      6  C   UNL A   1      46.145  24.698  24.994  1.00  0.00     0.108 C 
ATOM      7  C   UNL A   1      47.513  25.071  24.410  1.00  0.00     0.023 C 
BRANCH   6   8
ATOM      8  C   UNL A   1      45.577  25.917  25.727  1.00  0.00    -0.000 A 
ATOM      9  C   UNL A   1      46.319  26.736  26.586  1.00  0.00     0.008 A 
ATOM     10  C   UNL A   1      44.257  26.312  25.460  1.00  0.00     0.127 A 
ATOM     11  C   UNL A   1      45.763  27.887  27.154  1.00  0.00     0.004 A 
ATOM     12  C   UNL A   1      43.692  27.463  26.021  1.00  0.00     0.043 A 
ATOM     13  F   UNL A   1      43.512  25.594  24.606  1.00  0.00    -0.207 F 
ATOM     14  C   UNL A   1      44.445  28.271  26.880  1.00  0.00    -0.041 A 
BRANCH  14  15
ATOM     15  C   UNL A   1      43.889  29.558  27.440  1.00  0.00     0.074 C 
BRANCH  15  16
ATOM     16  C   UNL A   1      45.004  30.544  27.545  1.00  0.00    -0.005 A 
ATOM     17  C   UNL A   1      46.087  30.575  28.476  1.00  0.00     0.046 A 
ATOM     18  C   UNL A   1      45.252  31.594  26.682  1.00  0.00     0.198 A 
ATOM     19  C   UNL A   1      46.886  31.636  28.122  1.00  0.00     0.195 A 
ATOM     20  O   UNL A   1      46.385  32.257  27.027  1.00  0.00    -0.472 OA
ENDBRANCH  15  16
ENDBRANCH  14  15
ENDBRANCH   6   8
ENDBRANCH   3   6
ENDBRANCH   1   2
BRANCH   1  21
ATOM     21  C   UNL A   1      44.818  20.416  23.896  1.00  0.00     0.042 C 
BRANCH  21  22
ATOM     22  C   UNL A   1      44.425  19.752  25.215  1.00  0.00     0.118 C 
BRANCH  22  23
ATOM     23  N   UNL A   1      43.048  19.286  25.227  1.00  0.00    -0.352 N 
ATOM     24  C   UNL A   1      41.945  19.821  25.844  1.00  0.00     0.251 C 
ATOM     25  H   UNL A   1      42.880  18.463  24.715  1.00  0.00     0.163 HD
ATOM     26  O   UNL A   1      40.894  19.178  25.873  1.00  0.00    -0.269 OA
BRANCH  24  27
ATOM     27  C   UNL A   1      42.010  21.145  26.498  1.00  0.00     0.039 A 
ATOM     28  C   UNL A   1      41.962  21.207  27.894  1.00  0.00     0.014 A 
ATOM     29  C   UNL A   1      42.091  22.323  25.751  1.00  0.00     0.014 A 
ATOM     30  C   UNL A   1      42.061  22.442  28.540  1.00  0.00     0.010 A 
ATOM     31  C   UNL A   1      42.262  23.547  26.397  1.00  0.00     0.010 A 
ATOM     32  C   UNL A   1      42.247  23.619  27.798  1.00  0.00    -0.014 A 
BRANCH  32  33
ATOM     33  C   UNL A   1      42.438  24.930  28.472  1.00  0.00     0.031 A 
ATOM     34  C   UNL A   1      43.743  25.259  29.144  1.00  0.00     0.074 A 
ATOM     35  C   UNL A   1      41.415  25.805  28.527  1.00  0.00     0.049 A 
ATOM     36  N   UNL A   1      44.073  26.321  29.834  1.00  0.00    -0.248 NA
ATOM     37  C   UNL A   1      44.810  24.251  29.046  1.00  0.00     0.031 C 
ATOM     38  C   UNL A   1      40.087  25.594  27.948  1.00  0.00     0.029 A 
ATOM     39  N   UNL A   1      41.329  27.047  29.104  1.00  0.00    -0.354 N 
ATOM     40  C   UNL A   1      45.378  26.105  30.260  1.00  0.00     0.074 A 
ATOM     41  C   UNL A   1      45.761  24.789  29.795  1.00  0.00     0.031 C 
ATOM     42  C   UNL A   1      39.330  26.679  28.174  1.00  0.00     0.029 A 
ATOM     43  C   UNL A   1      40.102  27.645  28.950  1.00  0.00     0.049 A 
ATOM     44  H   UNL A   1      42.078  27.472  29.585  1.00  0.00     0.167 HD
ATOM     45  C   UNL A   1      46.191  26.936  30.955  1.00  0.00     0.037 A 
ATOM     46  C   UNL A   1      39.645  28.834  29.389  1.00  0.00     0.037 A 
ATOM     47  C   UNL A   1      45.816  28.253  31.402  1.00  0.00     0.049 A 
ATOM     48  C   UNL A   1      40.561  29.726  30.179  1.00  0.00     0.074 A 
ATOM     49  C   UNL A   1      46.585  29.187  32.073  1.00  0.00     0.029 A 
ATOM     50  N   UNL A   1      44.564  28.820  31.224  1.00  0.00    -0.354 N 
ATOM     51  N   UNL A   1      41.810  29.531  30.527  1.00  0.00    -0.248 NA
ATOM     52  C   UNL A   1      40.004  31.007  30.635  1.00  0.00     0.031 C 
ATOM     53  C   UNL A   1      45.785  30.303  32.340  1.00  0.00     0.029 A 
ATOM     54  C   UNL A   1      44.533  30.084  31.790  1.00  0.00     0.049 A 
ATOM     55  H   UNL A   1      43.807  28.388  30.763  1.00  0.00     0.167 HD
ATOM     56  C   UNL A   1      42.196  30.676  31.214  1.00  0.00     0.074 A 
ATOM     57  C   UNL A   1      41.053  31.565  31.223  1.00  0.00     0.031 C 
ATOM     58  C   UNL A   1      43.391  30.964  31.785  1.00  0.00     0.037 A 
BRANCH  45  59
ATOM     59  C   UNL A   1      47.574  26.447  31.273  1.00  0.00     0.057 A 
ATOM     60  C   UNL A   1      47.857  25.745  32.453  1.00  0.00     0.134 A 
ATOM     61  C   UNL A   1      48.629  26.642  30.372  1.00  0.00     0.134 A 
ATOM     62  F   UNL A   1      46.894  25.533  33.363  1.00  0.00    -0.206 F 
ATOM     63  C   UNL A   1      49.141  25.276  32.736  1.00  0.00     0.040 A 
ATOM     64  C   UNL A   1      49.912  26.154  30.631  1.00  0.00     0.040 A 
ATOM     65  F   UNL A   1      48.429  27.301  29.221  1.00  0.00    -0.206 F 
ATOM     66  C   UNL A   1      50.171  25.474  31.819  1.00  0.00     0.006 A 
ENDBRANCH  45  59
BRANCH  46  67
ATOM     67  C   UNL A   1      38.261  29.264  29.069  1.00  0.00     0.057 A 
ATOM     68  C   UNL A   1      37.251  29.216  30.038  1.00  0.00     0.134 A 
ATOM     69  C   UNL A   1      37.909  29.719  27.793  1.00  0.00     0.134 A 
ATOM     70  F   UNL A   1      37.522  28.771  31.274  1.00  0.00    -0.206 F 
ATOM     71  C   UNL A   1      35.938  29.586  29.745  1.00  0.00     0.040 A 
ATOM     72  C   UNL A   1      36.605  30.117  27.492  1.00  0.00     0.040 A 
ATOM     73  F   UNL A   1      38.832  29.794  26.822  1.00  0.00    -0.206 F 
ATOM     74  C   UNL A   1      35.613  30.043  28.469  1.00  0.00     0.006 A 
ENDBRANCH  46  67
BRANCH  58  75
ATOM     75  C   UNL A   1      43.539  32.310  32.430  1.00  0.00     0.057 A 
ATOM     76  C   UNL A   1      44.007  33.425  31.724  1.00  0.00     0.134 A 
ATOM     77  C   UNL A   1      43.171  32.501  33.769  1.00  0.00     0.134 A 
ATOM     78  F   UNL A   1      44.389  33.306  30.443  1.00  0.00    -0.206 F 
ATOM     79  C   UNL A   1      44.125  34.676  32.331  1.00  0.00     0.040 A 
ATOM     80  C   UNL A   1      43.258  33.752  34.379  1.00  0.00     0.040 A 
ATOM     81  F   UNL A   1      42.706  31.477  34.501  1.00  0.00    -0.206 F 
ATOM     82  C   UNL A   1      43.744  34.843  33.661  1.00  0.00     0.006 A 
ENDBRANCH  58  75
ENDBRANCH  32  33
ENDBRANCH  24  27
ENDBRANCH  22  23
ENDBRANCH  21  22
ENDBRANCH   1  21
TORSDOF 13
ENDMDL
MODEL 3
REMARK VINA RESULT:     -11.1      2.798      7.525
REMARK SMILES C[C@@H](C(=O)NCCCNC(=O)c1ccc(-c2c3nc(c(-c4c(F)cccc4F)c4ccc([nH]4)c(-c4c(F)cccc4F)c4nc(c(-c5c(F)cccc5F)c5ccc2[nH]5)C=C4)C=C3)cc1)c1ccc(Cc2ccoc2)cc1F
REMARK SMILES IDX 6 1 5 2 3 3 4 4 2 6 1 7 66 8 67 9 77 10 68 11 76 12 78 13
REMARK SMILES IDX 69 14 70 15 71 16 72 17 75 18 73 19 74 20 7 21 8 22 9 23
REMARK SMILES IDX 10 24 11 26 12 27 13 28 65 29 14 30 64 31 15 32 16 33 17 34
REMARK SMILES IDX 58 35 18 36 63 37 57 38 59 39 19 40 62 41 56 42 55 43 20 45
REMARK SMILES IDX 46 46 29 47 45 48 30 49 33 50 44 51 60 52 31 53 32 54 43 56
REMARK SMILES IDX 61 57 34 58 21 59 22 60 27 61 23 62 24 63 26 64 28 65 25 66
REMARK SMILES IDX 47 67 48 68 53 69 49 70 50 71 52 72 54 73 51 74 35 75 36 76
REMARK SMILES IDX 41 77 37 78 38 79 40 80 42 81 39 82
REMARK H PARENT 5 5 9 25 59 44 33 55
REMARK Flexibility Score: inf
ROOT
ATOM      1  C   UNL A   1      33.813  26.974  25.457  1.00  0.00     0.117 C 
ENDROOT
BRANCH   1   2
ATOM      2  N   UNL A   1      34.080  26.846  24.039  1.00  0.00    -0.356 N 
ATOM      3  C   UNL A   1      33.429  26.160  23.056  1.00  0.00     0.227 C 
ATOM      4  O   UNL A   1      34.052  26.071  21.996  1.00  0.00    -0.274 OA
ATOM      5  H   UNL A   1      34.872  27.341  23.730  1.00  0.00     0.163 HD
BRANCH   3   6
ATOM      6  C   UNL A   1      32.033  25.563  23.308  1.00  0.00     0.108 C 
ATOM      7  C   UNL A   1      31.757  24.411  22.335  1.00  0.00     0.023 C 
BRANCH   6   8
ATOM      8  C   UNL A   1      30.847  26.531  23.271  1.00  0.00    -0.000 A 
ATOM      9  C   UNL A   1      30.822  27.718  22.529  1.00  0.00     0.008 A 
ATOM     10  C   UNL A   1      29.664  26.177  23.939  1.00  0.00     0.127 A 
ATOM     11  C   UNL A   1      29.672  28.512  22.467  1.00  0.00     0.004 A 
ATOM     12  C   UNL A   1      28.508  26.964  23.881  1.00  0.00     0.043 A 
ATOM     13  F   UNL A   1      29.613  25.026  24.626  1.00  0.00    -0.207 F 
ATOM     14  C   UNL A   1      28.498  28.149  23.137  1.00  0.00    -0.041 A 
BRANCH  14  15
ATOM     15  C   UNL A   1      27.245  28.978  22.994  1.00  0.00     0.074 C 
BRANCH  15  16
ATOM     16  C   UNL A   1      27.645  30.383  22.689  1.00  0.00    -0.005 A 
ATOM     17  C   UNL A   1      27.992  30.962  21.430  1.00  0.00     0.046 A 
ATOM     18  C   UNL A   1      27.669  31.439  23.580  1.00  0.00     0.198 A 
ATOM     19  C   UNL A   1      28.216  32.299  21.654  1.00  0.00     0.195 A 
ATOM     20  O   UNL A   1      28.016  32.596  22.961  1.00  0.00    -0.472 OA
ENDBRANCH  15  16
ENDBRANCH  14  15
ENDBRANCH   6   8
ENDBRANCH   3   6
ENDBRANCH   1   2
BRANCH   1  21
ATOM     21  C   UNL A   1      34.025  28.410  25.938  1.00  0.00     0.042 C 
BRANCH  21  22
ATOM     22  C   UNL A   1      33.715  28.644  27.416  1.00  0.00     0.118 C 
BRANCH  22  23
ATOM     23  N   UNL A   1      33.720  30.051  27.781  1.00  0.00    -0.352 N 
ATOM     24  C   UNL A   1      34.709  30.803  28.363  1.00  0.00     0.251 C 
ATOM     25  H   UNL A   1      32.889  30.539  27.580  1.00  0.00     0.163 HD
ATOM     26  O   UNL A   1      34.455  31.946  28.749  1.00  0.00    -0.269 OA
BRANCH  24  27
ATOM     27  C   UNL A   1      36.066  30.251  28.558  1.00  0.00     0.039 A 
ATOM     28  C   UNL A   1      36.966  30.290  27.489  1.00  0.00     0.014 A 
ATOM     29  C   UNL A   1      36.451  29.676  29.773  1.00  0.00     0.014 A 
ATOM     30  C   UNL A   1      38.267  29.811  27.657  1.00  0.00     0.010 A 
ATOM     31  C   UNL A   1      37.770  29.266  29.961  1.00  0.00     0.010 A 
ATOM     32  C   UNL A   1      38.692  29.328  28.905  1.00  0.00    -0.014 A 
BRANCH  32  33
ATOM     33  C   UNL A   1      40.096  28.893  29.124  1.00  0.00     0.031 A 
ATOM     34  C   UNL A   1      41.091  29.824  29.761  1.00  0.00     0.074 A 
ATOM     35  C   UNL A   1      40.490  27.677  28.698  1.00  0.00     0.049 A 
ATOM     36  N   UNL A   1      42.370  29.646  29.976  1.00  0.00    -0.248 NA
ATOM     37  C   UNL A   1      40.587  31.137  30.194  1.00  0.00     0.031 C 
ATOM     38  C   UNL A   1      39.634  26.694  28.033  1.00  0.00     0.029 A 
ATOM     39  N   UNL A   1      41.717  27.063  28.755  1.00  0.00    -0.354 N 
ATOM     40  C   UNL A   1      42.824  30.823  30.557  1.00  0.00     0.074 A 
ATOM     41  C   UNL A   1      41.696  31.728  30.614  1.00  0.00     0.031 C 
ATOM     42  C   UNL A   1      40.353  25.590  27.771  1.00  0.00     0.029 A 
ATOM     43  C   UNL A   1      41.729  25.803  28.208  1.00  0.00     0.049 A 
ATOM     44  H   UNL A   1      42.514  27.485  29.152  1.00  0.00     0.167 HD
ATOM     45  C   UNL A   1      44.063  31.117  31.021  1.00  0.00     0.037 A 
ATOM     46  C   UNL A   1      42.735  24.919  28.067  1.00  0.00     0.037 A 
ATOM     47  C   UNL A   1      45.181  30.210  30.981  1.00  0.00     0.049 A 
ATOM     48  C   UNL A   1      44.106  25.280  28.569  1.00  0.00     0.074 A 
ATOM     49  C   UNL A   1      46.462  30.399  31.469  1.00  0.00     0.029 A 
ATOM     50  N   UNL A   1      45.150  28.943  30.419  1.00  0.00    -0.354 N 
ATOM     51  N   UNL A   1      44.507  26.376  29.166  1.00  0.00    -0.248 NA
ATOM     52  C   UNL A   1      45.164  24.277  28.382  1.00  0.00     0.031 C 
ATOM     53  C   UNL A   1      47.220  29.264  31.162  1.00  0.00     0.029 A 
ATOM     54  C   UNL A   1      46.397  28.348  30.530  1.00  0.00     0.049 A 
ATOM     55  H   UNL A   1      44.360  28.528  30.002  1.00  0.00     0.167 HD
ATOM     56  C   UNL A   1      45.852  26.182  29.453  1.00  0.00     0.074 A 
ATOM     57  C   UNL A   1      46.196  24.859  28.976  1.00  0.00     0.031 C 
ATOM     58  C   UNL A   1      46.724  27.025  30.058  1.00  0.00     0.037 A 
BRANCH  45  59
ATOM     59  C   UNL A   1      44.274  32.477  31.621  1.00  0.00     0.057 A 
ATOM     60  C   UNL A   1      44.677  33.572  30.844  1.00  0.00     0.134 A 
ATOM     61  C   UNL A   1      44.032  32.706  32.981  1.00  0.00     0.134 A 
ATOM     62  F   UNL A   1      44.936  33.418  29.537  1.00  0.00    -0.206 F 
ATOM     63  C   UNL A   1      44.855  34.839  31.403  1.00  0.00     0.040 A 
ATOM     64  C   UNL A   1      44.180  33.976  33.546  1.00  0.00     0.040 A 
ATOM     65  F   UNL A   1      43.638  31.706  33.782  1.00  0.00    -0.206 F 
ATOM     66  C   UNL A   1      44.599  35.045  32.757  1.00  0.00     0.006 A 
ENDBRANCH  45  59
BRANCH  46  67
ATOM     67  C   UNL A   1      42.483  23.595  27.445  1.00  0.00     0.057 A 
ATOM     68  C   UNL A   1      42.602  23.414  26.062  1.00  0.00     0.134 A 
ATOM     69  C   UNL A   1      42.105  22.485  28.210  1.00  0.00     0.134 A 
ATOM     70  F   UNL A   1      42.942  24.445  25.274  1.00  0.00    -0.206 F 
ATOM     71  C   UNL A   1      42.337  22.184  25.459  1.00  0.00     0.040 A 
ATOM     72  C   UNL A   1      41.862  21.241  27.624  1.00  0.00     0.040 A 
ATOM     73  F   UNL A   1      41.979  22.590  29.542  1.00  0.00    -0.206 F 
ATOM     74  C   UNL A   1      41.970  21.092  26.242  1.00  0.00     0.006 A 
ENDBRANCH  46  67
BRANCH  58  75
ATOM     75  C   UNL A   1      48.123  26.528  30.277  1.00  0.00     0.057 A 
ATOM     76  C   UNL A   1      48.492  25.841  31.440  1.00  0.00     0.134 A 
ATOM     77  C   UNL A   1      49.104  26.708  29.293  1.00  0.00     0.134 A 
ATOM     78  F   UNL A   1      47.604  25.647  32.426  1.00  0.00    -0.206 F 
ATOM     79  C   UNL A   1      49.793  25.369  31.625  1.00  0.00     0.040 A 
ATOM     80  C   UNL A   1      50.400  26.218  29.454  1.00  0.00     0.040 A 
ATOM     81  F   UNL A   1      48.814  27.352  28.151  1.00  0.00    -0.206 F 
ATOM     82  C   UNL A   1      50.749  25.552  30.628  1.00  0.00     0.006 A 
ENDBRANCH  58  75
ENDBRANCH  32  33
ENDBRANCH  24  27
ENDBRANCH  22  23
ENDBRANCH  21  22
ENDBRANCH   1  21
TORSDOF 13
ENDMDL
