MODEL 1
REMARK VINA RESULT:     -13.3      0.000      0.000
REMARK SMILES O=C(NCCCNC(=O)c1cc(S(=O)(=O)ON2C(=O)c3cccc4cccc(c34)C2=O)ccc1Br)c1ccc(-c2c3nc(c(-c4c(F)cccc4F)c4ccc([nH]4)c(-c4c(F)cccc4F)c4nc(c(-c5c(F)cccc5F)c5ccc2[nH]5)C=C4)C=C3)cc1
REMARK SMILES IDX 5 1 4 2 3 3 1 4 2 5 36 7 37 8 89 9 38 10 88 11 39 12 40 13
REMARK SMILES IDX 41 14 82 15 42 16 87 17 81 18 83 19 43 20 86 21 80 22 79 23
REMARK SMILES IDX 44 25 70 26 53 27 69 28 54 29 57 30 68 31 84 32 55 33 56 34
REMARK SMILES IDX 67 36 85 37 58 38 45 39 46 40 51 41 47 42 48 43 50 44 52 45
REMARK SMILES IDX 49 46 71 47 72 48 77 49 73 50 74 51 76 52 78 53 75 54 59 55
REMARK SMILES IDX 60 56 65 57 61 58 62 59 64 60 66 61 63 62 6 63 7 64 8 65
REMARK SMILES IDX 9 67 10 68 11 69 34 70 12 71 33 72 35 73 32 74 13 75 14 76
REMARK SMILES IDX 15 77 16 78 17 79 18 80 30 81 19 82 20 83 28 84 31 85 21 86
REMARK SMILES IDX 29 87 27 88 22 89 24 90 26 91 23 92 25 93
REMARK H PARENT 3 6 83 24 57 35 7 66
REMARK Flexibility Score: inf
ROOT
ATOM      1  C   UNL A   1      33.257  28.715  26.958  1.00  0.00     0.042 C 
ENDROOT
BRANCH   1   2
ATOM      2  C   UNL A   1      34.683  29.023  27.394  1.00  0.00     0.118 C 
BRANCH   2   3
ATOM      3  N   UNL A   1      34.761  30.057  28.417  1.00  0.00    -0.352 N 
ATOM      4  O   UNL A   1      35.626  31.249  30.120  1.00  0.00    -0.269 OA
ATOM      5  C   UNL A   1      35.816  30.456  29.202  1.00  0.00     0.251 C 
ATOM      6  H   UNL A   1      33.923  30.550  28.570  1.00  0.00     0.163 HD
BRANCH   5   7
ATOM      7  C   UNL A   1      37.177  29.926  28.962  1.00  0.00     0.039 A 
ATOM      8  C   UNL A   1      37.752  29.973  27.692  1.00  0.00     0.014 A 
ATOM      9  C   UNL A   1      37.910  29.415  30.039  1.00  0.00     0.014 A 
ATOM     10  C   UNL A   1      38.987  29.379  27.467  1.00  0.00     0.010 A 
ATOM     11  C   UNL A   1      39.196  28.907  29.831  1.00  0.00     0.010 A 
ATOM     12  C   UNL A   1      39.737  28.867  28.537  1.00  0.00    -0.014 A 
BRANCH  12  13
ATOM     13  C   UNL A   1      41.126  28.408  28.286  1.00  0.00     0.031 A 
ATOM     14  C   UNL A   1      41.435  26.975  27.957  1.00  0.00     0.074 A 
ATOM     15  C   UNL A   1      42.115  29.322  28.342  1.00  0.00     0.049 A 
ATOM     16  N   UNL A   1      42.596  26.426  27.700  1.00  0.00    -0.248 NA
ATOM     17  C   UNL A   1      40.305  26.035  27.914  1.00  0.00     0.031 C 
ATOM     18  C   UNL A   1      41.934  30.738  28.677  1.00  0.00     0.029 A 
ATOM     19  N   UNL A   1      43.461  29.209  28.107  1.00  0.00    -0.354 N 
ATOM     20  C   UNL A   1      42.341  25.078  27.486  1.00  0.00     0.074 A 
ATOM     21  C   UNL A   1      40.917  24.885  27.656  1.00  0.00     0.031 C 
ATOM     22  C   UNL A   1      43.113  31.368  28.586  1.00  0.00     0.029 A 
ATOM     23  C   UNL A   1      44.142  30.393  28.253  1.00  0.00     0.049 A 
ATOM     24  H   UNL A   1      43.897  28.362  27.858  1.00  0.00     0.167 HD
ATOM     25  C   UNL A   1      43.221  24.096  27.173  1.00  0.00     0.037 A 
ATOM     26  C   UNL A   1      45.457  30.662  28.158  1.00  0.00     0.037 A 
ATOM     27  C   UNL A   1      44.633  24.302  26.978  1.00  0.00     0.049 A 
ATOM     28  C   UNL A   1      46.404  29.548  27.827  1.00  0.00     0.074 A 
ATOM     29  C   UNL A   1      45.592  23.381  26.590  1.00  0.00     0.029 A 
ATOM     30  N   UNL A   1      45.292  25.509  27.164  1.00  0.00    -0.354 N 
ATOM     31  N   UNL A   1      46.139  28.290  27.573  1.00  0.00    -0.248 NA
ATOM     32  C   UNL A   1      47.832  29.887  27.781  1.00  0.00     0.031 C 
ATOM     33  C   UNL A   1      46.837  24.018  26.590  1.00  0.00     0.029 A 
ATOM     34  C   UNL A   1      46.648  25.346  26.934  1.00  0.00     0.049 A 
ATOM     35  H   UNL A   1      44.859  26.354  27.422  1.00  0.00     0.167 HD
ATOM     36  C   UNL A   1      47.364  27.687  27.331  1.00  0.00     0.074 A 
ATOM     37  C   UNL A   1      48.370  28.725  27.438  1.00  0.00     0.031 C 
ATOM     38  C   UNL A   1      47.635  26.389  27.054  1.00  0.00     0.037 A 
BRANCH  25  39
ATOM     39  C   UNL A   1      42.698  22.697  27.026  1.00  0.00     0.057 A 
ATOM     40  C   UNL A   1      42.382  21.904  28.135  1.00  0.00     0.134 A 
ATOM     41  C   UNL A   1      42.414  22.177  25.755  1.00  0.00     0.134 A 
ATOM     42  F   UNL A   1      42.634  22.341  29.378  1.00  0.00    -0.206 F 
ATOM     43  C   UNL A   1      41.804  20.641  27.986  1.00  0.00     0.040 A 
ATOM     44  C   UNL A   1      41.820  20.925  25.595  1.00  0.00     0.040 A 
ATOM     45  F   UNL A   1      42.685  22.890  24.652  1.00  0.00    -0.206 F 
ATOM     46  C   UNL A   1      41.513  20.152  26.713  1.00  0.00     0.006 A 
ENDBRANCH  25  39
BRANCH  26  47
ATOM     47  C   UNL A   1      45.954  32.036  28.417  1.00  0.00     0.057 A 
ATOM     48  C   UNL A   1      46.317  32.449  29.703  1.00  0.00     0.134 A 
ATOM     49  C   UNL A   1      46.069  32.973  27.382  1.00  0.00     0.134 A 
ATOM     50  F   UNL A   1      46.211  31.603  30.739  1.00  0.00    -0.206 F 
ATOM     51  C   UNL A   1      46.759  33.748  29.956  1.00  0.00     0.040 A 
ATOM     52  C   UNL A   1      46.538  34.265  27.614  1.00  0.00     0.040 A 
ATOM     53  F   UNL A   1      45.744  32.636  26.125  1.00  0.00    -0.206 F 
ATOM     54  C   UNL A   1      46.876  34.659  28.907  1.00  0.00     0.006 A 
ENDBRANCH  26  47
BRANCH  38  55
ATOM     55  C   UNL A   1      49.074  26.029  26.846  1.00  0.00     0.057 A 
ATOM     56  C   UNL A   1      49.863  25.533  27.892  1.00  0.00     0.134 A 
ATOM     57  C   UNL A   1      49.672  26.163  25.587  1.00  0.00     0.134 A 
ATOM     58  F   UNL A   1      49.353  25.400  29.125  1.00  0.00    -0.206 F 
ATOM     59  C   UNL A   1      51.205  25.206  27.697  1.00  0.00     0.040 A 
ATOM     60  C   UNL A   1      51.006  25.814  25.375  1.00  0.00     0.040 A 
ATOM     61  F   UNL A   1      48.967  26.625  24.544  1.00  0.00    -0.206 F 
ATOM     62  C   UNL A   1      51.778  25.341  26.434  1.00  0.00     0.006 A 
ENDBRANCH  38  55
ENDBRANCH  12  13
ENDBRANCH   5   7
ENDBRANCH   2   3
ENDBRANCH   1   2
BRANCH   1  63
ATOM     63  C   UNL A   1      32.648  29.742  26.015  1.00  0.00     0.118 C 
BRANCH  63  64
ATOM     64  N   UNL A   1      33.226  29.701  24.683  1.00  0.00    -0.352 N 
ATOM     65  C   UNL A   1      32.891  28.931  23.601  1.00  0.00     0.252 C 
ATOM     66  H   UNL A   1      33.976  30.322  24.535  1.00  0.00     0.163 HD
ATOM     67  O   UNL A   1      33.548  29.011  22.566  1.00  0.00    -0.269 OA
BRANCH  65  68
ATOM     68  C   UNL A   1      31.800  27.941  23.680  1.00  0.00     0.055 A 
ATOM     69  C   UNL A   1      32.190  26.596  23.647  1.00  0.00     0.038 A 
ATOM     70  C   UNL A   1      30.439  28.266  23.691  1.00  0.00     0.030 A 
ATOM     71  C   UNL A   1      31.221  25.585  23.668  1.00  0.00     0.097 A 
ATOM     72  C   UNL A   1      29.481  27.243  23.775  1.00  0.00     0.018 A 
ATOM     73  Br  UNL A   1      29.796  30.042  23.491  1.00  0.00    -0.050 Br
ATOM     74  C   UNL A   1      29.867  25.898  23.770  1.00  0.00     0.024 A 
BRANCH  71  75
ATOM     75  S   UNL A   1      31.778  23.903  23.538  1.00  0.00     0.318 S 
ATOM     76  O   UNL A   1      30.653  23.141  23.039  1.00  0.00    -0.192 OA
ATOM     77  O   UNL A   1      33.021  23.968  22.788  1.00  0.00    -0.192 OA
BRANCH  75  78
ATOM     78  O   UNL A   1      32.113  23.410  25.067  1.00  0.00    -0.134 OA
BRANCH  78  79
ATOM     79  N   UNL A   1      33.380  22.782  25.143  1.00  0.00    -0.127 N 
ATOM     80  C   UNL A   1      33.402  21.429  24.859  1.00  0.00     0.286 C 
ATOM     81  C   UNL A   1      34.397  23.551  25.673  1.00  0.00     0.286 C 
ATOM     82  O   UNL A   1      32.412  20.763  24.568  1.00  0.00    -0.266 OA
ATOM     83  C   UNL A   1      34.746  20.792  24.955  1.00  0.00     0.051 A 
ATOM     84  C   UNL A   1      35.742  22.952  25.573  1.00  0.00     0.051 A 
ATOM     85  O   UNL A   1      34.248  24.641  26.215  1.00  0.00    -0.266 OA
ATOM     86  C   UNL A   1      34.895  19.421  24.713  1.00  0.00     0.014 A 
ATOM     87  C   UNL A   1      35.864  21.591  25.256  1.00  0.00     0.007 A 
ATOM     88  C   UNL A   1      36.867  23.749  25.811  1.00  0.00     0.014 A 
ATOM     89  C   UNL A   1      36.164  18.844  24.750  1.00  0.00     0.001 A 
ATOM     90  C   UNL A   1      37.154  21.011  25.247  1.00  0.00    -0.017 A 
ATOM     91  C   UNL A   1      38.136  23.185  25.751  1.00  0.00     0.001 A 
ATOM     92  C   UNL A   1      37.286  19.636  25.001  1.00  0.00     0.009 A 
ATOM     93  C   UNL A   1      38.277  21.822  25.486  1.00  0.00     0.009 A 
ENDBRANCH  78  79
ENDBRANCH  75  78
ENDBRANCH  71  75
ENDBRANCH  65  68
ENDBRANCH  63  64
ENDBRANCH   1  63
TORSDOF 13
ENDMDL
MODEL 2
REMARK VINA RESULT:     -13.0      2.161      2.870
REMARK SMILES O=C(NCCCNC(=O)c1cc(S(=O)(=O)ON2C(=O)c3cccc4cccc(c34)C2=O)ccc1Br)c1ccc(-c2c3nc(c(-c4c(F)cccc4F)c4ccc([nH]4)c(-c4c(F)cccc4F)c4nc(c(-c5c(F)cccc5F)c5ccc2[nH]5)C=C4)C=C3)cc1
REMARK SMILES IDX 5 1 4 2 3 3 1 4 2 5 36 7 37 8 89 9 38 10 88 11 39 12 40 13
REMARK SMILES IDX 41 14 82 15 42 16 87 17 81 18 83 19 43 20 86 21 80 22 79 23
REMARK SMILES IDX 44 25 70 26 53 27 69 28 54 29 57 30 68 31 84 32 55 33 56 34
REMARK SMILES IDX 67 36 85 37 58 38 45 39 46 40 51 41 47 42 48 43 50 44 52 45
REMARK SMILES IDX 49 46 71 47 72 48 77 49 73 50 74 51 76 52 78 53 75 54 59 55
REMARK SMILES IDX 60 56 65 57 61 58 62 59 64 60 66 61 63 62 6 63 7 64 8 65
REMARK SMILES IDX 9 67 10 68 11 69 34 70 12 71 33 72 35 73 32 74 13 75 14 76
REMARK SMILES IDX 15 77 16 78 17 79 18 80 30 81 19 82 20 83 28 84 31 85 21 86
REMARK SMILES IDX 29 87 27 88 22 89 24 90 26 91 23 92 25 93
REMARK H PARENT 3 6 83 24 57 35 7 66
REMARK Flexibility Score: inf
ROOT
ATOM      1  C   UNL A   1      34.026  28.156  26.019  1.00  0.00     0.042 C 
ENDROOT
BRANCH   1   2
ATOM      2  C   UNL A   1      33.765  28.473  27.485  1.00  0.00     0.118 C 
BRANCH   2   3
ATOM      3  N   UNL A   1      33.703  29.902  27.763  1.00  0.00    -0.352 N 
ATOM      4  O   UNL A   1      34.330  31.896  28.597  1.00  0.00    -0.269 OA
ATOM      5  C   UNL A   1      34.643  30.747  28.299  1.00  0.00     0.251 C 
ATOM      6  H   UNL A   1      32.848  30.330  27.528  1.00  0.00     0.163 HD
BRANCH   5   7
ATOM      7  C   UNL A   1      36.027  30.280  28.538  1.00  0.00     0.039 A 
ATOM      8  C   UNL A   1      37.031  30.499  27.595  1.00  0.00     0.014 A 
ATOM      9  C   UNL A   1      36.337  29.653  29.751  1.00  0.00     0.014 A 
ATOM     10  C   UNL A   1      38.298  29.964  27.792  1.00  0.00     0.010 A 
ATOM     11  C   UNL A   1      37.638  29.203  29.992  1.00  0.00     0.010 A 
ATOM     12  C   UNL A   1      38.626  29.338  29.005  1.00  0.00    -0.014 A 
BRANCH  12  13
ATOM     13  C   UNL A   1      40.035  28.943  29.252  1.00  0.00     0.031 A 
ATOM     14  C   UNL A   1      40.589  27.642  28.747  1.00  0.00     0.074 A 
ATOM     15  C   UNL A   1      40.823  29.801  29.932  1.00  0.00     0.049 A 
ATOM     16  N   UNL A   1      41.802  27.165  28.873  1.00  0.00    -0.248 NA
ATOM     17  C   UNL A   1      39.670  26.758  28.015  1.00  0.00     0.031 C 
ATOM     18  C   UNL A   1      40.383  31.084  30.490  1.00  0.00     0.029 A 
ATOM     19  N   UNL A   1      42.152  29.737  30.258  1.00  0.00    -0.354 N 
ATOM     20  C   UNL A   1      41.789  25.921  28.256  1.00  0.00     0.074 A 
ATOM     21  C   UNL A   1      40.443  25.707  27.767  1.00  0.00     0.031 C 
ATOM     22  C   UNL A   1      41.431  31.702  31.052  1.00  0.00     0.029 A 
ATOM     23  C   UNL A   1      42.597  30.835  30.954  1.00  0.00     0.049 A 
ATOM     24  H   UNL A   1      42.732  28.979  30.017  1.00  0.00     0.167 HD
ATOM     25  C   UNL A   1      42.811  25.044  28.111  1.00  0.00     0.037 A 
ATOM     26  C   UNL A   1      43.805  31.105  31.482  1.00  0.00     0.037 A 
ATOM     27  C   UNL A   1      44.154  25.277  28.577  1.00  0.00     0.049 A 
ATOM     28  C   UNL A   1      44.909  30.104  31.318  1.00  0.00     0.074 A 
ATOM     29  C   UNL A   1      45.273  24.477  28.415  1.00  0.00     0.029 A 
ATOM     30  N   UNL A   1      44.560  26.387  29.304  1.00  0.00    -0.354 N 
ATOM     31  N   UNL A   1      44.893  28.957  30.683  1.00  0.00    -0.248 NA
ATOM     32  C   UNL A   1      46.193  30.427  31.952  1.00  0.00     0.031 C 
ATOM     33  C   UNL A   1      46.343  25.079  29.085  1.00  0.00     0.029 A 
ATOM     34  C   UNL A   1      45.902  26.274  29.627  1.00  0.00     0.049 A 
ATOM     35  H   UNL A   1      43.979  27.141  29.553  1.00  0.00     0.167 HD
ATOM     36  C   UNL A   1      46.165  28.424  30.835  1.00  0.00     0.074 A 
ATOM     37  C   UNL A   1      46.934  29.387  31.596  1.00  0.00     0.031 C 
ATOM     38  C   UNL A   1      46.649  27.239  30.393  1.00  0.00     0.037 A 
BRANCH  25  39
ATOM     39  C   UNL A   1      42.532  23.737  27.428  1.00  0.00     0.057 A 
ATOM     40  C   UNL A   1      42.692  23.573  26.048  1.00  0.00     0.134 A 
ATOM     41  C   UNL A   1      42.194  22.603  28.180  1.00  0.00     0.134 A 
ATOM     42  F   UNL A   1      43.009  24.619  25.271  1.00  0.00    -0.206 F 
ATOM     43  C   UNL A   1      42.524  22.328  25.437  1.00  0.00     0.040 A 
ATOM     44  C   UNL A   1      42.041  21.351  27.585  1.00  0.00     0.040 A 
ATOM     45  F   UNL A   1      42.033  22.691  29.510  1.00  0.00    -0.206 F 
ATOM     46  C   UNL A   1      42.207  21.210  26.208  1.00  0.00     0.006 A 
ENDBRANCH  25  39
BRANCH  26  47
ATOM     47  C   UNL A   1      44.017  32.359  32.246  1.00  0.00     0.057 A 
ATOM     48  C   UNL A   1      44.524  33.509  31.632  1.00  0.00     0.134 A 
ATOM     49  C   UNL A   1      43.725  32.433  33.614  1.00  0.00     0.134 A 
ATOM     50  F   UNL A   1      44.840  33.495  30.328  1.00  0.00    -0.206 F 
ATOM     51  C   UNL A   1      44.750  34.683  32.353  1.00  0.00     0.040 A 
ATOM     52  C   UNL A   1      43.917  33.607  34.341  1.00  0.00     0.040 A 
ATOM     53  F   UNL A   1      43.228  31.367  34.259  1.00  0.00    -0.206 F 
ATOM     54  C   UNL A   1      44.441  34.735  33.711  1.00  0.00     0.006 A 
ENDBRANCH  26  47
BRANCH  38  55
ATOM     55  C   UNL A   1      48.077  26.929  30.723  1.00  0.00     0.057 A 
ATOM     56  C   UNL A   1      48.423  26.199  31.867  1.00  0.00     0.134 A 
ATOM     57  C   UNL A   1      49.115  27.348  29.881  1.00  0.00     0.134 A 
ATOM     58  F   UNL A   1      47.475  25.785  32.721  1.00  0.00    -0.206 F 
ATOM     59  C   UNL A   1      49.754  25.918  32.176  1.00  0.00     0.040 A 
ATOM     60  C   UNL A   1      50.447  27.051  30.167  1.00  0.00     0.040 A 
ATOM     61  F   UNL A   1      48.848  28.045  28.766  1.00  0.00    -0.206 F 
ATOM     62  C   UNL A   1      50.770  26.340  31.321  1.00  0.00     0.006 A 
ENDBRANCH  38  55
ENDBRANCH  12  13
ENDBRANCH   5   7
ENDBRANCH   2   3
ENDBRANCH   1   2
BRANCH   1  63
ATOM     63  C   UNL A   1      33.420  29.149  25.039  1.00  0.00     0.118 C 
BRANCH  63  64
ATOM     64  N   UNL A   1      33.910  28.978  23.682  1.00  0.00    -0.352 N 
ATOM     65  C   UNL A   1      33.518  28.096  22.709  1.00  0.00     0.252 C 
ATOM     66  H   UNL A   1      34.637  29.588  23.421  1.00  0.00     0.163 HD
ATOM     67  O   UNL A   1      34.103  28.077  21.630  1.00  0.00    -0.269 OA
BRANCH  65  68
ATOM     68  C   UNL A   1      32.452  27.108  22.962  1.00  0.00     0.055 A 
ATOM     69  C   UNL A   1      32.855  25.768  22.996  1.00  0.00     0.038 A 
ATOM     70  C   UNL A   1      31.093  27.424  23.073  1.00  0.00     0.030 A 
ATOM     71  C   UNL A   1      31.906  24.755  23.182  1.00  0.00     0.097 A 
ATOM     72  C   UNL A   1      30.160  26.405  23.321  1.00  0.00     0.018 A 
ATOM     73  Br  UNL A   1      30.410  29.175  22.799  1.00  0.00    -0.050 Br
ATOM     74  C   UNL A   1      30.563  25.066  23.383  1.00  0.00     0.024 A 
BRANCH  71  75
ATOM     75  S   UNL A   1      32.471  23.071  23.128  1.00  0.00     0.318 S 
ATOM     76  O   UNL A   1      31.389  22.298  22.556  1.00  0.00    -0.192 OA
ATOM     77  O   UNL A   1      33.770  23.123  22.479  1.00  0.00    -0.192 OA
BRANCH  75  78
ATOM     78  O   UNL A   1      32.683  22.609  24.689  1.00  0.00    -0.134 OA
BRANCH  78  79
ATOM     79  N   UNL A   1      34.040  22.302  24.959  1.00  0.00    -0.127 N 
ATOM     80  C   UNL A   1      34.427  21.000  24.700  1.00  0.00     0.286 C 
ATOM     81  C   UNL A   1      34.753  23.280  25.621  1.00  0.00     0.286 C 
ATOM     82  O   UNL A   1      33.679  20.122  24.277  1.00  0.00    -0.266 OA
ATOM     83  C   UNL A   1      35.856  20.701  25.000  1.00  0.00     0.051 A 
ATOM     84  C   UNL A   1      36.203  23.024  25.727  1.00  0.00     0.051 A 
ATOM     85  O   UNL A   1      34.269  24.290  26.119  1.00  0.00    -0.266 OA
ATOM     86  C   UNL A   1      36.364  19.412  24.802  1.00  0.00     0.014 A 
ATOM     87  C   UNL A   1      36.693  21.739  25.450  1.00  0.00     0.007 A 
ATOM     88  C   UNL A   1      37.056  24.062  26.116  1.00  0.00     0.014 A 
ATOM     89  C   UNL A   1      37.716  19.156  25.032  1.00  0.00     0.001 A 
ATOM     90  C   UNL A   1      38.072  21.486  25.639  1.00  0.00    -0.017 A 
ATOM     91  C   UNL A   1      38.418  23.821  26.250  1.00  0.00     0.001 A 
ATOM     92  C   UNL A   1      38.565  20.189  25.434  1.00  0.00     0.009 A 
ATOM     93  C   UNL A   1      38.920  22.537  26.028  1.00  0.00     0.009 A 
ENDBRANCH  78  79
ENDBRANCH  75  78
ENDBRANCH  71  75
ENDBRANCH  65  68
ENDBRANCH  63  64
ENDBRANCH   1  63
TORSDOF 13
ENDMDL
MODEL 3
REMARK VINA RESULT:     -12.9      5.296     10.260
REMARK SMILES O=C(NCCCNC(=O)c1cc(S(=O)(=O)ON2C(=O)c3cccc4cccc(c34)C2=O)ccc1Br)c1ccc(-c2c3nc(c(-c4c(F)cccc4F)c4ccc([nH]4)c(-c4c(F)cccc4F)c4nc(c(-c5c(F)cccc5F)c5ccc2[nH]5)C=C4)C=C3)cc1
REMARK SMILES IDX 5 1 4 2 3 3 1 4 2 5 36 7 37 8 89 9 38 10 88 11 39 12 40 13
REMARK SMILES IDX 41 14 82 15 42 16 87 17 81 18 83 19 43 20 86 21 80 22 79 23
REMARK SMILES IDX 44 25 70 26 53 27 69 28 54 29 57 30 68 31 84 32 55 33 56 34
REMARK SMILES IDX 67 36 85 37 58 38 45 39 46 40 51 41 47 42 48 43 50 44 52 45
REMARK SMILES IDX 49 46 71 47 72 48 77 49 73 50 74 51 76 52 78 53 75 54 59 55
REMARK SMILES IDX 60 56 65 57 61 58 62 59 64 60 66 61 63 62 6 63 7 64 8 65
REMARK SMILES IDX 9 67 10 68 11 69 34 70 12 71 33 72 35 73 32 74 13 75 14 76
REMARK SMILES IDX 15 77 16 78 17 79 18 80 30 81 19 82 20 83 28 84 31 85 21 86
REMARK SMILES IDX 29 87 27 88 22 89 24 90 26 91 23 92 25 93
REMARK H PARENT 3 6 83 24 57 35 7 66
REMARK Flexibility Score: inf
ROOT
ATOM      1  C   UNL A   1      37.609  24.054  25.903  1.00  0.00     0.042 C 
ENDROOT
BRANCH   1   2
ATOM      2  C   UNL A   1      38.771  23.545  26.745  1.00  0.00     0.118 C 
BRANCH   2   3
ATOM      3  N   UNL A   1      40.071  23.764  26.124  1.00  0.00    -0.352 N 
ATOM      4  O   UNL A   1      41.945  24.864  25.535  1.00  0.00    -0.269 OA
ATOM      5  C   UNL A   1      40.969  24.792  26.276  1.00  0.00     0.251 C 
ATOM      6  H   UNL A   1      40.351  23.062  25.494  1.00  0.00     0.163 HD
BRANCH   5   7
ATOM      7  C   UNL A   1      40.762  25.826  27.315  1.00  0.00     0.039 A 
ATOM      8  C   UNL A   1      39.977  25.567  28.439  1.00  0.00     0.014 A 
ATOM      9  C   UNL A   1      41.405  27.063  27.186  1.00  0.00     0.014 A 
ATOM     10  C   UNL A   1      39.712  26.582  29.350  1.00  0.00     0.010 A 
ATOM     11  C   UNL A   1      41.219  28.052  28.157  1.00  0.00     0.010 A 
ATOM     12  C   UNL A   1      40.354  27.825  29.238  1.00  0.00    -0.014 A 
BRANCH  12  13
ATOM     13  C   UNL A   1      40.190  28.819  30.327  1.00  0.00     0.031 A 
ATOM     14  C   UNL A   1      39.148  29.898  30.259  1.00  0.00     0.074 A 
ATOM     15  C   UNL A   1      40.995  28.718  31.404  1.00  0.00     0.049 A 
ATOM     16  N   UNL A   1      38.876  30.831  31.137  1.00  0.00    -0.248 NA
ATOM     17  C   UNL A   1      38.306  29.947  29.054  1.00  0.00     0.031 C 
ATOM     18  C   UNL A   1      42.059  27.722  31.567  1.00  0.00     0.029 A 
ATOM     19  N   UNL A   1      41.040  29.442  32.567  1.00  0.00    -0.354 N 
ATOM     20  C   UNL A   1      37.849  31.587  30.586  1.00  0.00     0.074 A 
ATOM     21  C   UNL A   1      37.555  31.016  29.289  1.00  0.00     0.031 C 
ATOM     22  C   UNL A   1      42.623  27.872  32.774  1.00  0.00     0.029 A 
ATOM     23  C   UNL A   1      42.009  29.012  33.441  1.00  0.00     0.049 A 
ATOM     24  H   UNL A   1      40.437  30.197  32.757  1.00  0.00     0.167 HD
ATOM     25  C   UNL A   1      37.214  32.657  31.121  1.00  0.00     0.037 A 
ATOM     26  C   UNL A   1      42.384  29.497  34.638  1.00  0.00     0.037 A 
ATOM     27  C   UNL A   1      37.496  33.202  32.424  1.00  0.00     0.049 A 
ATOM     28  C   UNL A   1      41.670  30.694  35.192  1.00  0.00     0.074 A 
ATOM     29  C   UNL A   1      36.856  34.241  33.079  1.00  0.00     0.029 A 
ATOM     30  N   UNL A   1      38.503  32.759  33.268  1.00  0.00    -0.354 N 
ATOM     31  N   UNL A   1      40.665  31.363  34.681  1.00  0.00    -0.248 NA
ATOM     32  C   UNL A   1      42.149  31.211  36.480  1.00  0.00     0.031 C 
ATOM     33  C   UNL A   1      37.509  34.459  34.297  1.00  0.00     0.029 A 
ATOM     34  C   UNL A   1      38.526  33.528  34.421  1.00  0.00     0.049 A 
ATOM     35  H   UNL A   1      39.112  32.011  33.075  1.00  0.00     0.167 HD
ATOM     36  C   UNL A   1      40.386  32.375  35.587  1.00  0.00     0.074 A 
ATOM     37  C   UNL A   1      41.308  32.214  36.693  1.00  0.00     0.031 C 
ATOM     38  C   UNL A   1      39.456  33.357  35.506  1.00  0.00     0.037 A 
BRANCH  25  39
ATOM     39  C   UNL A   1      36.151  33.331  30.303  1.00  0.00     0.057 A 
ATOM     40  C   UNL A   1      36.461  34.118  29.188  1.00  0.00     0.134 A 
ATOM     41  C   UNL A   1      34.795  33.105  30.579  1.00  0.00     0.134 A 
ATOM     42  F   UNL A   1      37.739  34.378  28.873  1.00  0.00    -0.206 F 
ATOM     43  C   UNL A   1      35.461  34.660  28.377  1.00  0.00     0.040 A 
ATOM     44  C   UNL A   1      33.787  33.624  29.766  1.00  0.00     0.040 A 
ATOM     45  F   UNL A   1      34.431  32.352  31.628  1.00  0.00    -0.206 F 
ATOM     46  C   UNL A   1      34.119  34.405  28.660  1.00  0.00     0.006 A 
ENDBRANCH  25  39
BRANCH  26  47
ATOM     47  C   UNL A   1      43.513  28.874  35.371  1.00  0.00     0.057 A 
ATOM     48  C   UNL A   1      43.312  27.794  36.237  1.00  0.00     0.134 A 
ATOM     49  C   UNL A   1      44.822  29.350  35.228  1.00  0.00     0.134 A 
ATOM     50  F   UNL A   1      42.077  27.304  36.430  1.00  0.00    -0.206 F 
ATOM     51  C   UNL A   1      44.367  27.222  36.949  1.00  0.00     0.040 A 
ATOM     52  C   UNL A   1      45.891  28.769  35.909  1.00  0.00     0.040 A 
ATOM     53  F   UNL A   1      45.083  30.378  34.406  1.00  0.00    -0.206 F 
ATOM     54  C   UNL A   1      45.663  27.707  36.781  1.00  0.00     0.006 A 
ENDBRANCH  26  47
BRANCH  38  55
ATOM     55  C   UNL A   1      39.396  34.324  36.649  1.00  0.00     0.057 A 
ATOM     56  C   UNL A   1      38.691  34.028  37.823  1.00  0.00     0.134 A 
ATOM     57  C   UNL A   1      40.061  35.555  36.584  1.00  0.00     0.134 A 
ATOM     58  F   UNL A   1      38.019  32.873  37.938  1.00  0.00    -0.206 F 
ATOM     59  C   UNL A   1      38.630  34.932  38.882  1.00  0.00     0.040 A 
ATOM     60  C   UNL A   1      40.028  36.457  37.647  1.00  0.00     0.040 A 
ATOM     61  F   UNL A   1      40.759  35.894  35.489  1.00  0.00    -0.206 F 
ATOM     62  C   UNL A   1      39.305  36.149  38.798  1.00  0.00     0.006 A 
ENDBRANCH  38  55
ENDBRANCH  12  13
ENDBRANCH   5   7
ENDBRANCH   2   3
ENDBRANCH   1   2
BRANCH   1  63
ATOM     63  C   UNL A   1      36.546  23.011  25.595  1.00  0.00     0.118 C 
BRANCH  63  64
ATOM     64  N   UNL A   1      35.686  22.725  26.730  1.00  0.00    -0.352 N 
ATOM     65  C   UNL A   1      34.330  22.535  26.782  1.00  0.00     0.252 C 
ATOM     66  H   UNL A   1      36.148  22.660  27.598  1.00  0.00     0.163 HD
ATOM     67  O   UNL A   1      33.779  22.355  27.865  1.00  0.00    -0.269 OA
BRANCH  65  68
ATOM     68  C   UNL A   1      33.502  22.622  25.564  1.00  0.00     0.055 A 
ATOM     69  C   UNL A   1      32.726  23.780  25.433  1.00  0.00     0.038 A 
ATOM     70  C   UNL A   1      33.387  21.602  24.613  1.00  0.00     0.030 A 
ATOM     71  C   UNL A   1      31.872  23.931  24.334  1.00  0.00     0.097 A 
ATOM     72  C   UNL A   1      32.574  21.791  23.484  1.00  0.00     0.018 A 
ATOM     73  Br  UNL A   1      34.202  19.898  24.817  1.00  0.00    -0.050 Br
ATOM     74  C   UNL A   1      31.817  22.960  23.336  1.00  0.00     0.024 A 
BRANCH  71  75
ATOM     75  S   UNL A   1      30.851  25.383  24.272  1.00  0.00     0.318 S 
ATOM     76  O   UNL A   1      29.688  25.029  23.484  1.00  0.00    -0.192 OA
ATOM     77  O   UNL A   1      30.708  25.811  25.653  1.00  0.00    -0.192 OA
BRANCH  75  78
ATOM     78  O   UNL A   1      31.715  26.517  23.458  1.00  0.00    -0.134 OA
BRANCH  78  79
ATOM     79  N   UNL A   1      32.026  27.624  24.286  1.00  0.00    -0.127 N 
ATOM     80  C   UNL A   1      31.119  28.667  24.266  1.00  0.00     0.286 C 
ATOM     81  C   UNL A   1      33.282  27.606  24.858  1.00  0.00     0.286 C 
ATOM     82  O   UNL A   1      30.100  28.690  23.581  1.00  0.00    -0.266 OA
ATOM     83  C   UNL A   1      31.475  29.821  25.138  1.00  0.00     0.051 A 
ATOM     84  C   UNL A   1      33.520  28.664  25.860  1.00  0.00     0.051 A 
ATOM     85  O   UNL A   1      34.173  26.812  24.578  1.00  0.00    -0.266 OA
ATOM     86  C   UNL A   1      30.648  30.950  25.188  1.00  0.00     0.014 A 
ATOM     87  C   UNL A   1      32.632  29.747  25.937  1.00  0.00     0.007 A 
ATOM     88  C   UNL A   1      34.634  28.573  26.701  1.00  0.00     0.014 A 
ATOM     89  C   UNL A   1      30.959  32.001  26.050  1.00  0.00     0.001 A 
ATOM     90  C   UNL A   1      32.919  30.795  26.842  1.00  0.00    -0.017 A 
ATOM     91  C   UNL A   1      34.884  29.582  27.624  1.00  0.00     0.001 A 
ATOM     92  C   UNL A   1      32.078  31.918  26.879  1.00  0.00     0.009 A 
ATOM     93  C   UNL A   1      34.040  30.693  27.683  1.00  0.00     0.009 A 
ENDBRANCH  78  79
ENDBRANCH  75  78
ENDBRANCH  71  75
ENDBRANCH  65  68
ENDBRANCH  63  64
ENDBRANCH   1  63
TORSDOF 13
ENDMDL
