MODEL 1
REMARK VINA RESULT:     -12.6      0.000      0.000
REMARK SMILES COc1ccc(-c2cnc(N)c(C(=O)NCCCNC(=O)c3ccc(-c4c5nc(c(-c6c(F)cccc6F)c6ccc([nH]6)c(-c6c(F)cccc6F)c6nc(c(-c7c(F)cccc7F)c7ccc4[nH]7)C=C6)C=C5)cc3)c2)c(C)c1
REMARK SMILES IDX 17 1 16 2 15 3 13 4 14 5 12 7 7 8 8 9 76 10 9 11 10 12 6 13
REMARK SMILES IDX 3 14 4 15 79 16 5 17 77 18 78 19 2 20 1 21 11 22 18 25 19 26
REMARK SMILES IDX 20 27 21 29 22 30 23 31 75 32 24 33 74 34 25 35 26 36 27 37
REMARK SMILES IDX 68 38 28 39 73 40 67 41 69 42 29 43 72 44 66 45 65 46 30 48
REMARK SMILES IDX 56 49 39 50 55 51 40 52 43 53 54 54 70 55 41 56 42 57 53 59
REMARK SMILES IDX 71 60 44 61 31 62 32 63 37 64 33 65 34 66 36 67 38 68 35 69
REMARK SMILES IDX 57 70 58 71 63 72 59 73 60 74 62 75 64 76 61 77 45 78 46 79
REMARK SMILES IDX 51 80 47 81 48 82 50 83 52 84 49 85
REMARK H PARENT 15 6 11 23 11 24 19 28 69 47 43 58
REMARK Flexibility Score: inf
ROOT
ATOM      1  C   UNL A   1      34.546  31.076  27.529  1.00  0.00     0.042 C 
ENDROOT
BRANCH   1   2
ATOM      2  C   UNL A   1      34.336  29.633  27.121  1.00  0.00     0.118 C 
BRANCH   2   3
ATOM      3  N   UNL A   1      33.081  29.064  27.593  1.00  0.00    -0.352 N 
ATOM      4  C   UNL A   1      32.331  28.055  27.028  1.00  0.00     0.255 C 
ATOM      5  O   UNL A   1      31.281  27.717  27.572  1.00  0.00    -0.269 OA
ATOM      6  H   UNL A   1      32.722  29.451  28.424  1.00  0.00     0.163 HD
BRANCH   4   7
ATOM      7  C   UNL A   1      32.719  27.424  25.744  1.00  0.00     0.082 A 
ATOM      8  C   UNL A   1      33.728  25.529  24.613  1.00  0.00     0.001 A 
ATOM      9  C   UNL A   1      33.247  26.102  23.436  1.00  0.00     0.122 A 
ATOM     10  C   UNL A   1      33.388  26.189  25.797  1.00  0.00     0.028 A 
ATOM     11  N   UNL A   1      32.683  27.325  23.349  1.00  0.00    -0.238 NA
ATOM     12  C   UNL A   1      32.530  28.012  24.493  1.00  0.00     0.136 A 
BRANCH   8  13
ATOM     13  C   UNL A   1      34.717  24.438  24.544  1.00  0.00    -0.014 A 
ATOM     14  C   UNL A   1      36.679  22.405  24.757  1.00  0.00     0.119 A 
ATOM     15  C   UNL A   1      36.733  23.502  25.602  1.00  0.00     0.047 A 
ATOM     16  C   UNL A   1      35.687  22.343  23.777  1.00  0.00     0.050 A 
ATOM     17  C   UNL A   1      35.759  24.488  25.502  1.00  0.00     0.013 A 
ATOM     18  C   UNL A   1      34.697  23.346  23.654  1.00  0.00    -0.040 A 
ATOM     19  C   UNL A   1      33.654  23.151  22.588  1.00  0.00     0.045 C 
BRANCH  14  20
ATOM     20  O   UNL A   1      37.570  21.369  24.799  1.00  0.00    -0.497 OA
ATOM     21  C   UNL A   1      38.678  21.597  25.669  1.00  0.00     0.278 C 
ENDBRANCH  14  20
ENDBRANCH   8  13
BRANCH  12  22
ATOM     22  N   UNL A   1      32.188  29.336  24.294  1.00  0.00    -0.383 N 
ATOM     23  H   UNL A   1      32.060  29.933  25.066  1.00  0.00     0.158 HD
ATOM     24  H   UNL A   1      32.071  29.682  23.379  1.00  0.00     0.158 HD
ENDBRANCH  12  22
ENDBRANCH   4   7
ENDBRANCH   2   3
ENDBRANCH   1   2
BRANCH   1  25
ATOM     25  C   UNL A   1      34.771  31.227  29.025  1.00  0.00     0.118 C 
BRANCH  25  26
ATOM     26  N   UNL A   1      35.980  31.992  29.355  1.00  0.00    -0.352 N 
ATOM     27  C   UNL A   1      37.309  31.599  29.267  1.00  0.00     0.251 C 
ATOM     28  H   UNL A   1      35.828  32.908  29.684  1.00  0.00     0.163 HD
ATOM     29  O   UNL A   1      38.223  32.395  29.373  1.00  0.00    -0.269 OA
BRANCH  27  30
ATOM     30  C   UNL A   1      37.571  30.184  28.933  1.00  0.00     0.039 A 
ATOM     31  C   UNL A   1      37.733  29.302  30.005  1.00  0.00     0.014 A 
ATOM     32  C   UNL A   1      38.062  29.893  27.663  1.00  0.00     0.014 A 
ATOM     33  C   UNL A   1      38.654  28.270  29.877  1.00  0.00     0.010 A 
ATOM     34  C   UNL A   1      39.042  28.922  27.568  1.00  0.00     0.010 A 
ATOM     35  C   UNL A   1      39.409  28.187  28.706  1.00  0.00    -0.014 A 
BRANCH  35  36
ATOM     36  C   UNL A   1      40.711  27.519  28.677  1.00  0.00     0.031 A 
ATOM     37  C   UNL A   1      40.801  26.066  28.431  1.00  0.00     0.074 A 
ATOM     38  C   UNL A   1      41.845  28.242  28.835  1.00  0.00     0.049 A 
ATOM     39  N   UNL A   1      41.776  25.316  28.823  1.00  0.00    -0.248 NA
ATOM     40  C   UNL A   1      39.744  25.330  27.756  1.00  0.00     0.031 C 
ATOM     41  C   UNL A   1      43.219  27.801  28.601  1.00  0.00     0.029 A 
ATOM     42  N   UNL A   1      41.985  29.492  29.460  1.00  0.00    -0.354 N 
ATOM     43  C   UNL A   1      41.618  24.080  28.236  1.00  0.00     0.074 A 
ATOM     44  C   UNL A   1      40.304  24.124  27.637  1.00  0.00     0.031 C 
ATOM     45  C   UNL A   1      44.050  28.580  29.310  1.00  0.00     0.029 A 
ATOM     46  C   UNL A   1      43.230  29.458  30.127  1.00  0.00     0.049 A 
ATOM     47  H   UNL A   1      41.346  30.240  29.439  1.00  0.00     0.167 HD
ATOM     48  C   UNL A   1      42.672  23.211  28.207  1.00  0.00     0.037 A 
ATOM     49  C   UNL A   1      43.325  29.584  31.481  1.00  0.00     0.037 A 
ATOM     50  C   UNL A   1      43.804  23.727  28.976  1.00  0.00     0.049 A 
ATOM     51  C   UNL A   1      43.971  28.402  32.166  1.00  0.00     0.074 A 
ATOM     52  C   UNL A   1      44.967  24.387  28.607  1.00  0.00     0.029 A 
ATOM     53  N   UNL A   1      43.697  23.869  30.357  1.00  0.00    -0.354 N 
ATOM     54  N   UNL A   1      44.139  27.238  31.604  1.00  0.00    -0.248 NA
ATOM     55  C   UNL A   1      44.415  28.421  33.559  1.00  0.00     0.031 C 
ATOM     56  C   UNL A   1      45.525  24.981  29.765  1.00  0.00     0.029 A 
ATOM     57  C   UNL A   1      44.712  24.673  30.843  1.00  0.00     0.049 A 
ATOM     58  H   UNL A   1      42.998  23.454  30.910  1.00  0.00     0.167 HD
ATOM     59  C   UNL A   1      44.618  26.353  32.532  1.00  0.00     0.074 A 
ATOM     60  C   UNL A   1      44.812  27.148  33.730  1.00  0.00     0.031 C 
ATOM     61  C   UNL A   1      44.780  25.028  32.252  1.00  0.00     0.037 A 
BRANCH  48  62
ATOM     62  C   UNL A   1      42.780  22.066  27.215  1.00  0.00     0.057 A 
ATOM     63  C   UNL A   1      41.987  20.908  27.357  1.00  0.00     0.134 A 
ATOM     64  C   UNL A   1      43.697  21.995  26.152  1.00  0.00     0.134 A 
ATOM     65  F   UNL A   1      40.966  20.853  28.222  1.00  0.00    -0.206 F 
ATOM     66  C   UNL A   1      42.196  19.738  26.614  1.00  0.00     0.040 A 
ATOM     67  C   UNL A   1      43.960  20.815  25.439  1.00  0.00     0.040 A 
ATOM     68  F   UNL A   1      44.333  23.081  25.702  1.00  0.00    -0.206 F 
ATOM     69  C   UNL A   1      43.220  19.671  25.683  1.00  0.00     0.006 A 
ENDBRANCH  48  62
BRANCH  49  70
ATOM     70  C   UNL A   1      42.253  30.417  32.083  1.00  0.00     0.057 A 
ATOM     71  C   UNL A   1      42.369  31.817  32.034  1.00  0.00     0.134 A 
ATOM     72  C   UNL A   1      40.994  29.892  32.389  1.00  0.00     0.134 A 
ATOM     73  F   UNL A   1      43.551  32.385  31.747  1.00  0.00    -0.206 F 
ATOM     74  C   UNL A   1      41.262  32.656  32.175  1.00  0.00     0.040 A 
ATOM     75  C   UNL A   1      39.878  30.724  32.543  1.00  0.00     0.040 A 
ATOM     76  F   UNL A   1      40.797  28.568  32.433  1.00  0.00    -0.206 F 
ATOM     77  C   UNL A   1      40.004  32.106  32.399  1.00  0.00     0.006 A 
ENDBRANCH  49  70
BRANCH  61  78
ATOM     78  C   UNL A   1      45.089  23.968  33.272  1.00  0.00     0.057 A 
ATOM     79  C   UNL A   1      44.193  22.953  33.639  1.00  0.00     0.134 A 
ATOM     80  C   UNL A   1      46.382  23.864  33.825  1.00  0.00     0.134 A 
ATOM     81  F   UNL A   1      42.968  22.874  33.100  1.00  0.00    -0.206 F 
ATOM     82  C   UNL A   1      44.537  21.939  34.542  1.00  0.00     0.040 A 
ATOM     83  C   UNL A   1      46.752  22.830  34.691  1.00  0.00     0.040 A 
ATOM     84  F   UNL A   1      47.342  24.753  33.530  1.00  0.00    -0.206 F 
ATOM     85  C   UNL A   1      45.823  21.870  35.065  1.00  0.00     0.006 A 
ENDBRANCH  61  78
ENDBRANCH  35  36
ENDBRANCH  27  30
ENDBRANCH  25  26
ENDBRANCH   1  25
TORSDOF 13
ENDMDL
MODEL 2
REMARK VINA RESULT:     -12.2      3.751      9.486
REMARK SMILES COc1ccc(-c2cnc(N)c(C(=O)NCCCNC(=O)c3ccc(-c4c5nc(c(-c6c(F)cccc6F)c6ccc([nH]6)c(-c6c(F)cccc6F)c6nc(c(-c7c(F)cccc7F)c7ccc4[nH]7)C=C6)C=C5)cc3)c2)c(C)c1
REMARK SMILES IDX 17 1 16 2 15 3 13 4 14 5 12 7 7 8 8 9 76 10 9 11 10 12 6 13
REMARK SMILES IDX 3 14 4 15 79 16 5 17 77 18 78 19 2 20 1 21 11 22 18 25 19 26
REMARK SMILES IDX 20 27 21 29 22 30 23 31 75 32 24 33 74 34 25 35 26 36 27 37
REMARK SMILES IDX 68 38 28 39 73 40 67 41 69 42 29 43 72 44 66 45 65 46 30 48
REMARK SMILES IDX 56 49 39 50 55 51 40 52 43 53 54 54 70 55 41 56 42 57 53 59
REMARK SMILES IDX 71 60 44 61 31 62 32 63 37 64 33 65 34 66 36 67 38 68 35 69
REMARK SMILES IDX 57 70 58 71 63 72 59 73 60 74 62 75 64 76 61 77 45 78 46 79
REMARK SMILES IDX 51 80 47 81 48 82 50 83 52 84 49 85
REMARK H PARENT 15 6 11 23 11 24 19 28 69 47 43 58
REMARK Flexibility Score: inf
ROOT
ATOM      1  C   UNL A   1      38.937  22.294  26.069  1.00  0.00     0.042 C 
ENDROOT
BRANCH   1   2
ATOM      2  C   UNL A   1      37.855  23.274  25.666  1.00  0.00     0.118 C 
BRANCH   2   3
ATOM      3  N   UNL A   1      37.387  23.103  24.297  1.00  0.00    -0.352 N 
ATOM      4  C   UNL A   1      36.097  23.180  23.817  1.00  0.00     0.255 C 
ATOM      5  O   UNL A   1      35.895  22.991  22.619  1.00  0.00    -0.269 OA
ATOM      6  H   UNL A   1      38.082  22.907  23.628  1.00  0.00     0.163 HD
BRANCH   4   7
ATOM      7  C   UNL A   1      34.944  23.407  24.721  1.00  0.00     0.082 A 
ATOM      8  C   UNL A   1      33.333  24.976  25.634  1.00  0.00     0.001 A 
ATOM      9  C   UNL A   1      32.694  23.856  26.167  1.00  0.00     0.122 A 
ATOM     10  C   UNL A   1      34.451  24.719  24.836  1.00  0.00     0.028 A 
ATOM     11  N   UNL A   1      33.193  22.602  26.146  1.00  0.00    -0.238 NA
ATOM     12  C   UNL A   1      34.366  22.420  25.518  1.00  0.00     0.136 A 
BRANCH   8  13
ATOM     13  C   UNL A   1      32.957  26.323  26.100  1.00  0.00    -0.014 A 
ATOM     14  C   UNL A   1      32.553  29.018  26.872  1.00  0.00     0.119 A 
ATOM     15  C   UNL A   1      33.841  28.516  26.787  1.00  0.00     0.047 A 
ATOM     16  C   UNL A   1      31.470  28.174  26.627  1.00  0.00     0.050 A 
ATOM     17  C   UNL A   1      34.033  27.197  26.393  1.00  0.00     0.013 A 
ATOM     18  C   UNL A   1      31.649  26.825  26.239  1.00  0.00    -0.040 A 
ATOM     19  C   UNL A   1      30.408  26.023  25.960  1.00  0.00     0.045 C 
BRANCH  14  20
ATOM     20  O   UNL A   1      32.263  30.309  27.219  1.00  0.00    -0.497 OA
ATOM     21  C   UNL A   1      33.416  31.126  27.415  1.00  0.00     0.278 C 
ENDBRANCH  14  20
ENDBRANCH   8  13
BRANCH  12  22
ATOM     22  N   UNL A   1      34.926  21.180  25.758  1.00  0.00    -0.383 N 
ATOM     23  H   UNL A   1      34.844  20.464  25.087  1.00  0.00     0.158 HD
ATOM     24  H   UNL A   1      35.409  21.011  26.600  1.00  0.00     0.158 HD
ENDBRANCH  12  22
ENDBRANCH   4   7
ENDBRANCH   2   3
ENDBRANCH   1   2
BRANCH   1  25
ATOM     25  C   UNL A   1      39.738  22.777  27.267  1.00  0.00     0.118 C 
BRANCH  25  26
ATOM     26  N   UNL A   1      41.089  23.234  26.915  1.00  0.00    -0.352 N 
ATOM     27  C   UNL A   1      41.562  24.533  26.787  1.00  0.00     0.251 C 
ATOM     28  H   UNL A   1      41.748  22.522  26.746  1.00  0.00     0.163 HD
ATOM     29  O   UNL A   1      42.750  24.779  26.693  1.00  0.00    -0.269 OA
BRANCH  27  30
ATOM     30  C   UNL A   1      40.567  25.623  26.873  1.00  0.00     0.039 A 
ATOM     31  C   UNL A   1      40.865  26.805  26.191  1.00  0.00     0.014 A 
ATOM     32  C   UNL A   1      39.656  25.592  27.925  1.00  0.00     0.014 A 
ATOM     33  C   UNL A   1      40.482  28.011  26.763  1.00  0.00     0.010 A 
ATOM     34  C   UNL A   1      39.354  26.794  28.538  1.00  0.00     0.010 A 
ATOM     35  C   UNL A   1      39.860  27.993  28.012  1.00  0.00    -0.014 A 
BRANCH  35  36
ATOM     36  C   UNL A   1      39.901  29.149  28.908  1.00  0.00     0.031 A 
ATOM     37  C   UNL A   1      38.845  30.179  28.850  1.00  0.00     0.074 A 
ATOM     38  C   UNL A   1      40.890  29.258  29.828  1.00  0.00     0.049 A 
ATOM     39  N   UNL A   1      38.997  31.405  29.223  1.00  0.00    -0.248 NA
ATOM     40  C   UNL A   1      37.527  29.903  28.301  1.00  0.00     0.031 C 
ATOM     41  C   UNL A   1      40.964  30.195  30.947  1.00  0.00     0.029 A 
ATOM     42  N   UNL A   1      42.160  28.657  29.796  1.00  0.00    -0.354 N 
ATOM     43  C   UNL A   1      37.755  32.003  29.221  1.00  0.00     0.074 A 
ATOM     44  C   UNL A   1      36.889  31.043  28.576  1.00  0.00     0.031 C 
ATOM     45  C   UNL A   1      42.248  30.337  31.309  1.00  0.00     0.029 A 
ATOM     46  C   UNL A   1      43.052  29.602  30.348  1.00  0.00     0.049 A 
ATOM     47  H   UNL A   1      42.382  27.760  29.458  1.00  0.00     0.167 HD
ATOM     48  C   UNL A   1      37.576  33.182  29.886  1.00  0.00     0.037 A 
ATOM     49  C   UNL A   1      44.084  30.125  29.625  1.00  0.00     0.037 A 
ATOM     50  C   UNL A   1      38.846  33.701  30.394  1.00  0.00     0.049 A 
ATOM     51  C   UNL A   1      44.036  31.629  29.485  1.00  0.00     0.074 A 
ATOM     52  C   UNL A   1      39.449  33.650  31.642  1.00  0.00     0.029 A 
ATOM     53  N   UNL A   1      39.830  34.120  29.503  1.00  0.00    -0.354 N 
ATOM     54  N   UNL A   1      42.979  32.351  29.733  1.00  0.00    -0.248 NA
ATOM     55  C   UNL A   1      45.156  32.429  28.988  1.00  0.00     0.031 C 
ATOM     56  C   UNL A   1      40.818  33.978  31.485  1.00  0.00     0.029 A 
ATOM     57  C   UNL A   1      41.048  34.244  30.146  1.00  0.00     0.049 A 
ATOM     58  H   UNL A   1      39.680  34.303  28.548  1.00  0.00     0.167 HD
ATOM     59  C   UNL A   1      43.223  33.648  29.372  1.00  0.00     0.074 A 
ATOM     60  C   UNL A   1      44.611  33.657  28.948  1.00  0.00     0.031 C 
ATOM     61  C   UNL A   1      42.251  34.605  29.413  1.00  0.00     0.037 A 
BRANCH  48  62
ATOM     62  C   UNL A   1      36.218  33.678  30.351  1.00  0.00     0.057 A 
ATOM     63  C   UNL A   1      35.278  34.184  29.431  1.00  0.00     0.134 A 
ATOM     64  C   UNL A   1      35.800  33.766  31.691  1.00  0.00     0.134 A 
ATOM     65  F   UNL A   1      35.443  34.053  28.108  1.00  0.00    -0.206 F 
ATOM     66  C   UNL A   1      34.109  34.855  29.816  1.00  0.00     0.040 A 
ATOM     67  C   UNL A   1      34.665  34.485  32.098  1.00  0.00     0.040 A 
ATOM     68  F   UNL A   1      36.429  33.103  32.667  1.00  0.00    -0.206 F 
ATOM     69  C   UNL A   1      33.822  35.052  31.157  1.00  0.00     0.006 A 
ENDBRANCH  48  62
BRANCH  49  70
ATOM     70  C   UNL A   1      44.620  29.204  28.591  1.00  0.00     0.057 A 
ATOM     71  C   UNL A   1      45.496  28.177  28.983  1.00  0.00     0.134 A 
ATOM     72  C   UNL A   1      44.043  29.101  27.323  1.00  0.00     0.134 A 
ATOM     73  F   UNL A   1      46.085  28.216  30.188  1.00  0.00    -0.206 F 
ATOM     74  C   UNL A   1      45.704  27.043  28.195  1.00  0.00     0.040 A 
ATOM     75  C   UNL A   1      44.252  27.973  26.519  1.00  0.00     0.040 A 
ATOM     76  F   UNL A   1      43.181  30.028  26.886  1.00  0.00    -0.206 F 
ATOM     77  C   UNL A   1      45.054  26.925  26.970  1.00  0.00     0.006 A 
ENDBRANCH  49  70
BRANCH  61  78
ATOM     78  C   UNL A   1      42.383  35.985  28.832  1.00  0.00     0.057 A 
ATOM     79  C   UNL A   1      43.061  37.037  29.466  1.00  0.00     0.134 A 
ATOM     80  C   UNL A   1      41.933  36.255  27.523  1.00  0.00     0.134 A 
ATOM     81  F   UNL A   1      43.633  36.876  30.668  1.00  0.00    -0.206 F 
ATOM     82  C   UNL A   1      43.226  38.292  28.866  1.00  0.00     0.040 A 
ATOM     83  C   UNL A   1      42.134  37.489  26.895  1.00  0.00     0.040 A 
ATOM     84  F   UNL A   1      41.299  35.324  26.796  1.00  0.00    -0.206 F 
ATOM     85  C   UNL A   1      42.769  38.519  27.574  1.00  0.00     0.006 A 
ENDBRANCH  61  78
ENDBRANCH  35  36
ENDBRANCH  27  30
ENDBRANCH  25  26
ENDBRANCH   1  25
TORSDOF 13
ENDMDL
MODEL 3
REMARK VINA RESULT:     -12.1      1.820      2.356
REMARK SMILES COc1ccc(-c2cnc(N)c(C(=O)NCCCNC(=O)c3ccc(-c4c5nc(c(-c6c(F)cccc6F)c6ccc([nH]6)c(-c6c(F)cccc6F)c6nc(c(-c7c(F)cccc7F)c7ccc4[nH]7)C=C6)C=C5)cc3)c2)c(C)c1
REMARK SMILES IDX 17 1 16 2 15 3 13 4 14 5 12 7 7 8 8 9 76 10 9 11 10 12 6 13
REMARK SMILES IDX 3 14 4 15 79 16 5 17 77 18 78 19 2 20 1 21 11 22 18 25 19 26
REMARK SMILES IDX 20 27 21 29 22 30 23 31 75 32 24 33 74 34 25 35 26 36 27 37
REMARK SMILES IDX 68 38 28 39 73 40 67 41 69 42 29 43 72 44 66 45 65 46 30 48
REMARK SMILES IDX 56 49 39 50 55 51 40 52 43 53 54 54 70 55 41 56 42 57 53 59
REMARK SMILES IDX 71 60 44 61 31 62 32 63 37 64 33 65 34 66 36 67 38 68 35 69
REMARK SMILES IDX 57 70 58 71 63 72 59 73 60 74 62 75 64 76 61 77 45 78 46 79
REMARK SMILES IDX 51 80 47 81 48 82 50 83 52 84 49 85
REMARK H PARENT 15 6 11 23 11 24 19 28 69 47 43 58
REMARK Flexibility Score: inf
ROOT
ATOM      1  C   UNL A   1      33.181  31.227  27.246  1.00  0.00     0.042 C 
ENDROOT
BRANCH   1   2
ATOM      2  C   UNL A   1      32.533  30.414  26.145  1.00  0.00     0.118 C 
BRANCH   2   3
ATOM      3  N   UNL A   1      31.340  31.033  25.582  1.00  0.00    -0.352 N 
ATOM      4  C   UNL A   1      30.495  30.540  24.611  1.00  0.00     0.255 C 
ATOM      5  O   UNL A   1      29.537  31.222  24.253  1.00  0.00    -0.269 OA
ATOM      6  H   UNL A   1      31.107  31.919  25.943  1.00  0.00     0.163 HD
BRANCH   4   7
ATOM      7  C   UNL A   1      30.760  29.247  23.935  1.00  0.00     0.082 A 
ATOM      8  C   UNL A   1      31.388  26.913  24.150  1.00  0.00     0.001 A 
ATOM      9  C   UNL A   1      31.032  26.796  22.806  1.00  0.00     0.122 A 
ATOM     10  C   UNL A   1      31.177  28.166  24.732  1.00  0.00     0.028 A 
ATOM     11  N   UNL A   1      30.716  27.832  22.001  1.00  0.00    -0.238 NA
ATOM     12  C   UNL A   1      30.694  29.055  22.555  1.00  0.00     0.136 A 
BRANCH   8  13
ATOM     13  C   UNL A   1      32.148  25.830  24.802  1.00  0.00    -0.014 A 
ATOM     14  C   UNL A   1      33.894  23.962  26.021  1.00  0.00     0.119 A 
ATOM     15  C   UNL A   1      34.395  24.872  25.105  1.00  0.00     0.047 A 
ATOM     16  C   UNL A   1      32.524  23.945  26.291  1.00  0.00     0.050 A 
ATOM     17  C   UNL A   1      33.536  25.795  24.522  1.00  0.00     0.013 A 
ATOM     18  C   UNL A   1      31.635  24.870  25.695  1.00  0.00    -0.040 A 
ATOM     19  C   UNL A   1      30.188  24.783  26.094  1.00  0.00     0.045 C 
BRANCH  14  20
ATOM     20  O   UNL A   1      34.662  23.037  26.672  1.00  0.00    -0.497 OA
ATOM     21  C   UNL A   1      34.021  22.447  27.802  1.00  0.00     0.278 C 
ENDBRANCH  14  20
ENDBRANCH   8  13
BRANCH  12  22
ATOM     22  N   UNL A   1      30.614  30.074  21.626  1.00  0.00    -0.383 N 
ATOM     23  H   UNL A   1      30.122  30.899  21.841  1.00  0.00     0.158 HD
ATOM     24  H   UNL A   1      31.051  29.976  20.748  1.00  0.00     0.158 HD
ENDBRANCH  12  22
ENDBRANCH   4   7
ENDBRANCH   2   3
ENDBRANCH   1   2
BRANCH   1  25
ATOM     25  C   UNL A   1      34.309  30.474  27.933  1.00  0.00     0.118 C 
BRANCH  25  26
ATOM     26  N   UNL A   1      35.122  31.323  28.813  1.00  0.00    -0.352 N 
ATOM     27  C   UNL A   1      36.438  31.148  29.220  1.00  0.00     0.251 C 
ATOM     28  H   UNL A   1      34.671  32.127  29.163  1.00  0.00     0.163 HD
ATOM     29  O   UNL A   1      37.060  32.029  29.782  1.00  0.00    -0.269 OA
BRANCH  27  30
ATOM     30  C   UNL A   1      37.092  29.876  28.848  1.00  0.00     0.039 A 
ATOM     31  C   UNL A   1      37.300  28.950  29.873  1.00  0.00     0.014 A 
ATOM     32  C   UNL A   1      37.830  29.842  27.668  1.00  0.00     0.014 A 
ATOM     33  C   UNL A   1      38.457  28.182  29.844  1.00  0.00     0.010 A 
ATOM     34  C   UNL A   1      39.023  29.144  27.686  1.00  0.00     0.010 A 
ATOM     35  C   UNL A   1      39.381  28.401  28.821  1.00  0.00    -0.014 A 
BRANCH  35  36
ATOM     36  C   UNL A   1      40.796  28.064  28.979  1.00  0.00     0.031 A 
ATOM     37  C   UNL A   1      41.337  26.816  28.405  1.00  0.00     0.074 A 
ATOM     38  C   UNL A   1      41.628  28.921  29.618  1.00  0.00     0.049 A 
ATOM     39  N   UNL A   1      42.384  26.202  28.843  1.00  0.00    -0.248 NA
ATOM     40  C   UNL A   1      40.684  26.127  27.303  1.00  0.00     0.031 C 
ATOM     41  C   UNL A   1      43.088  28.873  29.664  1.00  0.00     0.029 A 
ATOM     42  N   UNL A   1      41.285  29.909  30.556  1.00  0.00    -0.354 N 
ATOM     43  C   UNL A   1      42.699  25.211  27.939  1.00  0.00     0.074 A 
ATOM     44  C   UNL A   1      41.571  25.166  27.037  1.00  0.00     0.031 C 
ATOM     45  C   UNL A   1      43.510  29.544  30.747  1.00  0.00     0.029 A 
ATOM     46  C   UNL A   1      42.332  29.927  31.505  1.00  0.00     0.049 A 
ATOM     47  H   UNL A   1      40.480  30.474  30.552  1.00  0.00     0.167 HD
ATOM     48  C   UNL A   1      43.938  24.635  27.978  1.00  0.00     0.037 A 
ATOM     49  C   UNL A   1      42.115  29.636  32.819  1.00  0.00     0.037 A 
ATOM     50  C   UNL A   1      44.704  25.107  29.132  1.00  0.00     0.049 A 
ATOM     51  C   UNL A   1      42.917  28.461  33.329  1.00  0.00     0.074 A 
ATOM     52  C   UNL A   1      45.684  26.076  29.275  1.00  0.00     0.029 A 
ATOM     53  N   UNL A   1      44.289  24.779  30.420  1.00  0.00    -0.354 N 
ATOM     54  N   UNL A   1      43.513  27.596  32.557  1.00  0.00    -0.248 NA
ATOM     55  C   UNL A   1      43.052  28.131  34.748  1.00  0.00     0.031 C 
ATOM     56  C   UNL A   1      45.812  26.378  30.653  1.00  0.00     0.029 A 
ATOM     57  C   UNL A   1      44.920  25.582  31.353  1.00  0.00     0.049 A 
ATOM     58  H   UNL A   1      43.638  24.074  30.637  1.00  0.00     0.167 HD
ATOM     59  C   UNL A   1      44.026  26.584  33.323  1.00  0.00     0.074 A 
ATOM     60  C   UNL A   1      43.747  26.982  34.690  1.00  0.00     0.031 C 
ATOM     61  C   UNL A   1      44.604  25.480  32.769  1.00  0.00     0.037 A 
BRANCH  48  62
ATOM     62  C   UNL A   1      44.557  23.911  26.796  1.00  0.00     0.057 A 
ATOM     63  C   UNL A   1      44.196  22.583  26.491  1.00  0.00     0.134 A 
ATOM     64  C   UNL A   1      45.572  24.424  25.970  1.00  0.00     0.134 A 
ATOM     65  F   UNL A   1      43.153  21.981  27.077  1.00  0.00    -0.206 F 
ATOM     66  C   UNL A   1      44.886  21.793  25.560  1.00  0.00     0.040 A 
ATOM     67  C   UNL A   1      46.312  23.633  25.076  1.00  0.00     0.040 A 
ATOM     68  F   UNL A   1      45.851  25.731  25.932  1.00  0.00    -0.206 F 
ATOM     69  C   UNL A   1      45.982  22.303  24.883  1.00  0.00     0.006 A 
ENDBRANCH  48  62
BRANCH  49  70
ATOM     70  C   UNL A   1      40.756  29.992  33.298  1.00  0.00     0.057 A 
ATOM     71  C   UNL A   1      40.463  31.339  33.576  1.00  0.00     0.134 A 
ATOM     72  C   UNL A   1      39.673  29.120  33.163  1.00  0.00     0.134 A 
ATOM     73  F   UNL A   1      41.457  32.229  33.719  1.00  0.00    -0.206 F 
ATOM     74  C   UNL A   1      39.152  31.818  33.612  1.00  0.00     0.040 A 
ATOM     75  C   UNL A   1      38.353  29.587  33.207  1.00  0.00     0.040 A 
ATOM     76  F   UNL A   1      39.868  27.826  32.875  1.00  0.00    -0.206 F 
ATOM     77  C   UNL A   1      38.092  30.944  33.395  1.00  0.00     0.006 A 
ENDBRANCH  49  70
BRANCH  61  78
ATOM     78  C   UNL A   1      44.988  24.242  33.530  1.00  0.00     0.057 A 
ATOM     79  C   UNL A   1      44.202  23.081  33.579  1.00  0.00     0.134 A 
ATOM     80  C   UNL A   1      46.257  24.140  34.136  1.00  0.00     0.134 A 
ATOM     81  F   UNL A   1      43.020  23.010  32.948  1.00  0.00    -0.206 F 
ATOM     82  C   UNL A   1      44.620  21.919  34.240  1.00  0.00     0.040 A 
ATOM     83  C   UNL A   1      46.706  22.970  34.757  1.00  0.00     0.040 A 
ATOM     84  F   UNL A   1      47.119  25.167  34.131  1.00  0.00    -0.206 F 
ATOM     85  C   UNL A   1      45.879  21.858  34.825  1.00  0.00     0.006 A 
ENDBRANCH  61  78
ENDBRANCH  35  36
ENDBRANCH  27  30
ENDBRANCH  25  26
ENDBRANCH   1  25
TORSDOF 13
ENDMDL
