MODEL 1
REMARK VINA RESULT:     -11.8      0.000      0.000
REMARK SMILES C[C@H]1CC[C@@](NC(=O)N[C@H]2CCOC2)(C(=O)NCCCNC(=O)c2ccc(-c3c4nc(c(-c5c(F)cccc5F)c5ccc([nH]5)c(-c5c(F)cccc5F)c5nc(c(-c6c(F)cccc6F)c6ccc3[nH]6)C=C5)C=C4)cc2)CC1
REMARK SMILES IDX 19 1 18 2 17 3 15 4 16 5 5 7 1 8 2 9 79 10 3 11 78 12 4 13
REMARK SMILES IDX 6 14 7 15 8 17 9 18 10 20 11 21 14 22 12 23 13 24 20 25
REMARK SMILES IDX 21 26 22 27 23 29 24 30 25 31 77 32 26 33 76 34 27 35 28 36
REMARK SMILES IDX 29 37 70 38 30 39 75 40 69 41 71 42 31 43 74 44 68 45 67 46
REMARK SMILES IDX 32 48 58 49 41 50 57 51 42 52 45 53 56 54 72 55 43 56 44 57
REMARK SMILES IDX 55 59 73 60 46 61 33 62 34 63 39 64 35 65 36 66 38 67 40 68
REMARK SMILES IDX 37 69 59 70 60 71 65 72 61 73 62 74 64 75 66 76 63 77 47 78
REMARK SMILES IDX 48 79 53 80 49 81 50 82 52 83 54 84 51 85
REMARK H PARENT 17 6 6 16 9 19 21 28 71 47 45 58
REMARK Flexibility Score: inf
ROOT
ATOM      1  C   UNL A   1      32.414  28.454  26.471  1.00  0.00     0.042 C 
ENDROOT
BRANCH   1   2
ATOM      2  C   UNL A   1      31.912  27.060  26.785  1.00  0.00     0.117 C 
BRANCH   2   3
ATOM      3  N   UNL A   1      32.804  26.047  26.248  1.00  0.00    -0.354 N 
ATOM      4  C   UNL A   1      32.577  25.100  25.295  1.00  0.00     0.245 C 
ATOM      5  O   UNL A   1      33.560  24.436  24.956  1.00  0.00    -0.272 OA
ATOM      6  H   UNL A   1      33.712  26.044  26.632  1.00  0.00     0.163 HD
BRANCH   4   7
ATOM      7  C   UNL A   1      31.136  24.794  24.797  1.00  0.00     0.120 C 
ATOM      8  C   UNL A   1      32.903  26.530  21.348  1.00  0.00     0.007 C 
ATOM      9  C   UNL A   1      31.738  25.782  22.010  1.00  0.00    -0.014 C 
ATOM     10  C   UNL A   1      31.085  26.698  23.060  1.00  0.00     0.006 C 
ATOM     11  C   UNL A   1      32.225  24.415  22.518  1.00  0.00     0.006 C 
ATOM     12  C   UNL A   1      30.365  25.980  24.199  1.00  0.00     0.039 C 
ATOM     13  C   UNL A   1      31.338  23.806  23.609  1.00  0.00     0.039 C 
BRANCH   7  14
ATOM     14  N   UNL A   1      30.305  24.158  25.848  1.00  0.00    -0.324 N 
ATOM     15  C   UNL A   1      30.433  23.166  26.735  1.00  0.00     0.315 C 
ATOM     16  H   UNL A   1      29.417  24.581  25.908  1.00  0.00     0.166 HD
ATOM     17  O   UNL A   1      29.580  23.113  27.626  1.00  0.00    -0.249 OA
ATOM     18  N   UNL A   1      31.358  22.203  26.731  1.00  0.00    -0.333 N 
ATOM     19  H   UNL A   1      31.293  21.629  27.528  1.00  0.00     0.165 HD
BRANCH  18  20
ATOM     20  C   UNL A   1      32.432  21.787  25.853  1.00  0.00     0.112 C 
ATOM     21  C   UNL A   1      33.706  21.370  26.549  1.00  0.00     0.056 C 
ATOM     22  C   UNL A   1      32.153  20.548  25.001  1.00  0.00     0.185 C 
ATOM     23  C   UNL A   1      34.440  20.716  25.398  1.00  0.00     0.162 C 
ATOM     24  O   UNL A   1      33.442  20.007  24.645  1.00  0.00    -0.379 OA
ENDBRANCH  18  20
ENDBRANCH   7  14
ENDBRANCH   4   7
ENDBRANCH   2   3
ENDBRANCH   1   2
BRANCH   1  25
ATOM     25  C   UNL A   1      33.666  28.814  27.251  1.00  0.00     0.118 C 
BRANCH  25  26
ATOM     26  N   UNL A   1      33.638  30.167  27.788  1.00  0.00    -0.352 N 
ATOM     27  C   UNL A   1      34.670  30.828  28.414  1.00  0.00     0.251 C 
ATOM     28  H   UNL A   1      32.792  30.660  27.691  1.00  0.00     0.163 HD
ATOM     29  O   UNL A   1      34.509  31.930  28.924  1.00  0.00    -0.269 OA
BRANCH  27  30
ATOM     30  C   UNL A   1      35.975  30.143  28.495  1.00  0.00     0.039 A 
ATOM     31  C   UNL A   1      36.818  30.163  27.383  1.00  0.00     0.014 A 
ATOM     32  C   UNL A   1      36.407  29.618  29.717  1.00  0.00     0.014 A 
ATOM     33  C   UNL A   1      38.130  29.711  27.516  1.00  0.00     0.010 A 
ATOM     34  C   UNL A   1      37.738  29.251  29.866  1.00  0.00     0.010 A 
ATOM     35  C   UNL A   1      38.611  29.287  28.767  1.00  0.00    -0.014 A 
BRANCH  35  36
ATOM     36  C   UNL A   1      40.018  28.850  28.942  1.00  0.00     0.031 A 
ATOM     37  C   UNL A   1      41.026  29.812  29.507  1.00  0.00     0.074 A 
ATOM     38  C   UNL A   1      40.403  27.623  28.543  1.00  0.00     0.049 A 
ATOM     39  N   UNL A   1      42.314  29.658  29.674  1.00  0.00    -0.248 NA
ATOM     40  C   UNL A   1      40.524  31.137  29.907  1.00  0.00     0.031 C 
ATOM     41  C   UNL A   1      39.534  26.616  27.930  1.00  0.00     0.029 A 
ATOM     42  N   UNL A   1      41.633  27.015  28.583  1.00  0.00    -0.354 N 
ATOM     43  C   UNL A   1      42.774  30.866  30.181  1.00  0.00     0.074 A 
ATOM     44  C   UNL A   1      41.642  31.764  30.235  1.00  0.00     0.031 C 
ATOM     45  C   UNL A   1      40.252  25.511  27.675  1.00  0.00     0.029 A 
ATOM     46  C   UNL A   1      41.638  25.740  28.072  1.00  0.00     0.049 A 
ATOM     47  H   UNL A   1      42.438  27.453  28.945  1.00  0.00     0.167 HD
ATOM     48  C   UNL A   1      44.020  31.191  30.595  1.00  0.00     0.037 A 
ATOM     49  C   UNL A   1      42.647  24.858  27.939  1.00  0.00     0.037 A 
ATOM     50  C   UNL A   1      45.139  30.288  30.573  1.00  0.00     0.049 A 
ATOM     51  C   UNL A   1      44.023  25.239  28.414  1.00  0.00     0.074 A 
ATOM     52  C   UNL A   1      46.430  30.502  31.020  1.00  0.00     0.029 A 
ATOM     53  N   UNL A   1      45.094  28.993  30.078  1.00  0.00    -0.354 N 
ATOM     54  N   UNL A   1      44.429  26.364  28.952  1.00  0.00    -0.248 NA
ATOM     55  C   UNL A   1      45.079  24.227  28.270  1.00  0.00     0.031 C 
ATOM     56  C   UNL A   1      47.177  29.349  30.764  1.00  0.00     0.029 A 
ATOM     57  C   UNL A   1      46.340  28.401  30.197  1.00  0.00     0.049 A 
ATOM     58  H   UNL A   1      44.296  28.560  29.699  1.00  0.00     0.167 HD
ATOM     59  C   UNL A   1      45.776  26.184  29.238  1.00  0.00     0.074 A 
ATOM     60  C   UNL A   1      46.116  24.838  28.825  1.00  0.00     0.031 C 
ATOM     61  C   UNL A   1      46.654  27.055  29.794  1.00  0.00     0.037 A 
BRANCH  48  62
ATOM     62  C   UNL A   1      44.231  32.581  31.121  1.00  0.00     0.057 A 
ATOM     63  C   UNL A   1      44.107  32.880  32.484  1.00  0.00     0.134 A 
ATOM     64  C   UNL A   1      44.580  33.627  30.258  1.00  0.00     0.134 A 
ATOM     65  F   UNL A   1      43.757  31.926  33.360  1.00  0.00    -0.206 F 
ATOM     66  C   UNL A   1      44.295  34.175  32.967  1.00  0.00     0.040 A 
ATOM     67  C   UNL A   1      44.800  34.921  30.734  1.00  0.00     0.040 A 
ATOM     68  F   UNL A   1      44.719  33.409  28.942  1.00  0.00    -0.206 F 
ATOM     69  C   UNL A   1      44.650  35.199  32.092  1.00  0.00     0.006 A 
ENDBRANCH  48  62
BRANCH  49  70
ATOM     70  C   UNL A   1      42.395  23.518  27.352  1.00  0.00     0.057 A 
ATOM     71  C   UNL A   1      42.061  22.425  28.161  1.00  0.00     0.134 A 
ATOM     72  C   UNL A   1      42.500  23.291  25.974  1.00  0.00     0.134 A 
ATOM     73  F   UNL A   1      41.963  22.576  29.490  1.00  0.00    -0.206 F 
ATOM     74  C   UNL A   1      41.861  21.152  27.626  1.00  0.00     0.040 A 
ATOM     75  C   UNL A   1      42.281  22.027  25.423  1.00  0.00     0.040 A 
ATOM     76  F   UNL A   1      42.811  24.296  25.144  1.00  0.00    -0.206 F 
ATOM     77  C   UNL A   1      41.967  20.951  26.251  1.00  0.00     0.006 A 
ENDBRANCH  49  70
BRANCH  61  78
ATOM     78  C   UNL A   1      48.053  26.567  30.024  1.00  0.00     0.057 A 
ATOM     79  C   UNL A   1      48.428  25.930  31.213  1.00  0.00     0.134 A 
ATOM     80  C   UNL A   1      49.023  26.693  29.022  1.00  0.00     0.134 A 
ATOM     81  F   UNL A   1      47.547  25.789  32.216  1.00  0.00    -0.206 F 
ATOM     82  C   UNL A   1      49.724  25.451  31.405  1.00  0.00     0.040 A 
ATOM     83  C   UNL A   1      50.316  26.197  29.192  1.00  0.00     0.040 A 
ATOM     84  F   UNL A   1      48.726  27.286  27.855  1.00  0.00    -0.206 F 
ATOM     85  C   UNL A   1      50.670  25.578  30.389  1.00  0.00     0.006 A 
ENDBRANCH  61  78
ENDBRANCH  35  36
ENDBRANCH  27  30
ENDBRANCH  25  26
ENDBRANCH   1  25
TORSDOF 12
ENDMDL
MODEL 2
REMARK VINA RESULT:     -11.7      2.845      7.921
REMARK SMILES C[C@H]1CC[C@@](NC(=O)N[C@H]2CCOC2)(C(=O)NCCCNC(=O)c2ccc(-c3c4nc(c(-c5c(F)cccc5F)c5ccc([nH]5)c(-c5c(F)cccc5F)c5nc(c(-c6c(F)cccc6F)c6ccc3[nH]6)C=C5)C=C4)cc2)CC1
REMARK SMILES IDX 19 1 18 2 17 3 15 4 16 5 5 7 1 8 2 9 79 10 3 11 78 12 4 13
REMARK SMILES IDX 6 14 7 15 8 17 9 18 10 20 11 21 14 22 12 23 13 24 20 25
REMARK SMILES IDX 21 26 22 27 23 29 24 30 25 31 77 32 26 33 76 34 27 35 28 36
REMARK SMILES IDX 29 37 70 38 30 39 75 40 69 41 71 42 31 43 74 44 68 45 67 46
REMARK SMILES IDX 32 48 58 49 41 50 57 51 42 52 45 53 56 54 72 55 43 56 44 57
REMARK SMILES IDX 55 59 73 60 46 61 33 62 34 63 39 64 35 65 36 66 38 67 40 68
REMARK SMILES IDX 37 69 59 70 60 71 65 72 61 73 62 74 64 75 66 76 63 77 47 78
REMARK SMILES IDX 48 79 53 80 49 81 50 82 52 83 54 84 51 85
REMARK H PARENT 17 6 6 16 9 19 21 28 71 47 45 58
REMARK Flexibility Score: inf
ROOT
ATOM      1  C   UNL A   1      36.749  22.967  23.649  1.00  0.00     0.042 C 
ENDROOT
BRANCH   1   2
ATOM      2  C   UNL A   1      35.253  23.094  23.447  1.00  0.00     0.117 C 
BRANCH   2   3
ATOM      3  N   UNL A   1      34.736  24.292  24.087  1.00  0.00    -0.354 N 
ATOM      4  C   UNL A   1      33.462  24.770  24.145  1.00  0.00     0.245 C 
ATOM      5  O   UNL A   1      33.295  25.764  24.857  1.00  0.00    -0.272 OA
ATOM      6  H   UNL A   1      35.411  24.842  24.549  1.00  0.00     0.163 HD
BRANCH   4   7
ATOM      7  C   UNL A   1      32.341  24.177  23.245  1.00  0.00     0.120 C 
ATOM      8  C   UNL A   1      31.221  22.754  27.086  1.00  0.00     0.007 C 
ATOM      9  C   UNL A   1      30.899  22.957  25.599  1.00  0.00    -0.014 C 
ATOM     10  C   UNL A   1      31.890  22.137  24.754  1.00  0.00     0.006 C 
ATOM     11  C   UNL A   1      30.833  24.461  25.287  1.00  0.00     0.006 C 
ATOM     12  C   UNL A   1      32.135  22.658  23.341  1.00  0.00     0.039 C 
ATOM     13  C   UNL A   1      31.025  24.796  23.804  1.00  0.00     0.039 C 
BRANCH   7  14
ATOM     14  N   UNL A   1      32.511  24.552  21.820  1.00  0.00    -0.324 N 
ATOM     15  C   UNL A   1      32.597  25.679  21.106  1.00  0.00     0.315 C 
ATOM     16  H   UNL A   1      32.578  23.756  21.245  1.00  0.00     0.166 HD
ATOM     17  O   UNL A   1      33.000  25.563  19.944  1.00  0.00    -0.249 OA
ATOM     18  N   UNL A   1      32.250  26.906  21.501  1.00  0.00    -0.333 N 
ATOM     19  H   UNL A   1      32.474  27.586  20.825  1.00  0.00     0.165 HD
BRANCH  18  20
ATOM     20  C   UNL A   1      31.628  27.493  22.669  1.00  0.00     0.112 C 
ATOM     21  C   UNL A   1      32.400  28.623  23.308  1.00  0.00     0.056 C 
ATOM     22  C   UNL A   1      30.275  28.167  22.436  1.00  0.00     0.185 C 
ATOM     23  C   UNL A   1      31.343  29.178  24.240  1.00  0.00     0.162 C 
ATOM     24  O   UNL A   1      30.102  29.106  23.517  1.00  0.00    -0.379 OA
ENDBRANCH  18  20
ENDBRANCH   7  14
ENDBRANCH   4   7
ENDBRANCH   2   3
ENDBRANCH   1   2
BRANCH   1  25
ATOM     25  C   UNL A   1      37.167  23.225  25.085  1.00  0.00     0.118 C 
BRANCH  25  26
ATOM     26  N   UNL A   1      38.177  22.293  25.564  1.00  0.00    -0.352 N 
ATOM     27  C   UNL A   1      39.290  22.595  26.315  1.00  0.00     0.251 C 
ATOM     28  H   UNL A   1      38.048  21.346  25.328  1.00  0.00     0.163 HD
ATOM     29  O   UNL A   1      40.135  21.747  26.577  1.00  0.00    -0.269 OA
BRANCH  27  30
ATOM     30  C   UNL A   1      39.461  23.992  26.756  1.00  0.00     0.039 A 
ATOM     31  C   UNL A   1      39.121  24.333  28.066  1.00  0.00     0.014 A 
ATOM     32  C   UNL A   1      40.094  24.913  25.915  1.00  0.00     0.014 A 
ATOM     33  C   UNL A   1      39.478  25.588  28.557  1.00  0.00     0.010 A 
ATOM     34  C   UNL A   1      40.523  26.126  26.434  1.00  0.00     0.010 A 
ATOM     35  C   UNL A   1      40.214  26.480  27.758  1.00  0.00    -0.014 A 
BRANCH  35  36
ATOM     36  C   UNL A   1      40.647  27.800  28.278  1.00  0.00     0.031 A 
ATOM     37  C   UNL A   1      42.114  28.083  28.447  1.00  0.00     0.074 A 
ATOM     38  C   UNL A   1      39.733  28.716  28.652  1.00  0.00     0.049 A 
ATOM     39  N   UNL A   1      42.701  29.139  28.949  1.00  0.00    -0.248 NA
ATOM     40  C   UNL A   1      43.045  27.023  28.025  1.00  0.00     0.031 C 
ATOM     41  C   UNL A   1      38.281  28.543  28.588  1.00  0.00     0.029 A 
ATOM     42  N   UNL A   1      39.893  29.976  29.171  1.00  0.00    -0.354 N 
ATOM     43  C   UNL A   1      44.062  28.862  28.918  1.00  0.00     0.074 A 
ATOM     44  C   UNL A   1      44.211  27.518  28.407  1.00  0.00     0.031 C 
ATOM     45  C   UNL A   1      37.684  29.663  29.029  1.00  0.00     0.029 A 
ATOM     46  C   UNL A   1      38.708  30.620  29.437  1.00  0.00     0.049 A 
ATOM     47  H   UNL A   1      40.774  30.382  29.338  1.00  0.00     0.167 HD
ATOM     48  C   UNL A   1      45.097  29.666  29.253  1.00  0.00     0.037 A 
ATOM     49  C   UNL A   1      38.477  31.842  29.954  1.00  0.00     0.037 A 
ATOM     50  C   UNL A   1      44.950  31.014  29.729  1.00  0.00     0.049 A 
ATOM     51  C   UNL A   1      39.644  32.721  30.312  1.00  0.00     0.074 A 
ATOM     52  C   UNL A   1      45.936  31.930  30.045  1.00  0.00     0.029 A 
ATOM     53  N   UNL A   1      43.732  31.641  29.954  1.00  0.00    -0.354 N 
ATOM     54  N   UNL A   1      40.928  32.470  30.215  1.00  0.00    -0.248 NA
ATOM     55  C   UNL A   1      39.333  34.054  30.844  1.00  0.00     0.031 C 
ATOM     56  C   UNL A   1      45.317  33.101  30.495  1.00  0.00     0.029 A 
ATOM     57  C   UNL A   1      43.945  32.928  30.417  1.00  0.00     0.049 A 
ATOM     58  H   UNL A   1      42.851  31.231  29.805  1.00  0.00     0.167 HD
ATOM     59  C   UNL A   1      41.574  33.622  30.644  1.00  0.00     0.074 A 
ATOM     60  C   UNL A   1      40.542  34.576  30.991  1.00  0.00     0.031 C 
ATOM     61  C   UNL A   1      42.904  33.868  30.742  1.00  0.00     0.037 A 
BRANCH  48  62
ATOM     62  C   UNL A   1      46.481  29.105  29.102  1.00  0.00     0.057 A 
ATOM     63  C   UNL A   1      47.198  29.229  27.904  1.00  0.00     0.134 A 
ATOM     64  C   UNL A   1      47.110  28.454  30.169  1.00  0.00     0.134 A 
ATOM     65  F   UNL A   1      46.644  29.827  26.839  1.00  0.00    -0.206 F 
ATOM     66  C   UNL A   1      48.481  28.699  27.764  1.00  0.00     0.040 A 
ATOM     67  C   UNL A   1      48.405  27.945  30.050  1.00  0.00     0.040 A 
ATOM     68  F   UNL A   1      46.482  28.304  31.344  1.00  0.00    -0.206 F 
ATOM     69  C   UNL A   1      49.091  28.061  28.842  1.00  0.00     0.006 A 
ENDBRANCH  48  62
BRANCH  49  70
ATOM     70  C   UNL A   1      37.085  32.321  30.143  1.00  0.00     0.057 A 
ATOM     71  C   UNL A   1      36.445  33.089  29.163  1.00  0.00     0.134 A 
ATOM     72  C   UNL A   1      36.366  32.042  31.313  1.00  0.00     0.134 A 
ATOM     73  F   UNL A   1      37.087  33.406  28.029  1.00  0.00    -0.206 F 
ATOM     74  C   UNL A   1      35.151  33.580  29.346  1.00  0.00     0.040 A 
ATOM     75  C   UNL A   1      35.063  32.507  31.499  1.00  0.00     0.040 A 
ATOM     76  F   UNL A   1      36.920  31.306  32.287  1.00  0.00    -0.206 F 
ATOM     77  C   UNL A   1      34.455  33.285  30.516  1.00  0.00     0.006 A 
ENDBRANCH  49  70
BRANCH  61  78
ATOM     78  C   UNL A   1      43.318  35.233  31.204  1.00  0.00     0.057 A 
ATOM     79  C   UNL A   1      43.530  35.524  32.557  1.00  0.00     0.134 A 
ATOM     80  C   UNL A   1      43.556  36.255  30.276  1.00  0.00     0.134 A 
ATOM     81  F   UNL A   1      43.308  34.592  33.496  1.00  0.00    -0.206 F 
ATOM     82  C   UNL A   1      43.945  36.790  32.973  1.00  0.00     0.040 A 
ATOM     83  C   UNL A   1      43.995  37.517  30.677  1.00  0.00     0.040 A 
ATOM     84  F   UNL A   1      43.380  36.038  28.963  1.00  0.00    -0.206 F 
ATOM     85  C   UNL A   1      44.186  37.788  32.030  1.00  0.00     0.006 A 
ENDBRANCH  61  78
ENDBRANCH  35  36
ENDBRANCH  27  30
ENDBRANCH  25  26
ENDBRANCH   1  25
TORSDOF 12
ENDMDL
MODEL 3
REMARK VINA RESULT:     -11.7      2.037      2.568
REMARK SMILES C[C@H]1CC[C@@](NC(=O)N[C@H]2CCOC2)(C(=O)NCCCNC(=O)c2ccc(-c3c4nc(c(-c5c(F)cccc5F)c5ccc([nH]5)c(-c5c(F)cccc5F)c5nc(c(-c6c(F)cccc6F)c6ccc3[nH]6)C=C5)C=C4)cc2)CC1
REMARK SMILES IDX 19 1 18 2 17 3 15 4 16 5 5 7 1 8 2 9 79 10 3 11 78 12 4 13
REMARK SMILES IDX 6 14 7 15 8 17 9 18 10 20 11 21 14 22 12 23 13 24 20 25
REMARK SMILES IDX 21 26 22 27 23 29 24 30 25 31 77 32 26 33 76 34 27 35 28 36
REMARK SMILES IDX 29 37 70 38 30 39 75 40 69 41 71 42 31 43 74 44 68 45 67 46
REMARK SMILES IDX 32 48 58 49 41 50 57 51 42 52 45 53 56 54 72 55 43 56 44 57
REMARK SMILES IDX 55 59 73 60 46 61 33 62 34 63 39 64 35 65 36 66 38 67 40 68
REMARK SMILES IDX 37 69 59 70 60 71 65 72 61 73 62 74 64 75 66 76 63 77 47 78
REMARK SMILES IDX 48 79 53 80 49 81 50 82 52 83 54 84 51 85
REMARK H PARENT 17 6 6 16 9 19 21 28 71 47 45 58
REMARK Flexibility Score: inf
ROOT
ATOM      1  C   UNL A   1      31.971  28.458  27.616  1.00  0.00     0.042 C 
ENDROOT
BRANCH   1   2
ATOM      2  C   UNL A   1      31.428  27.296  26.810  1.00  0.00     0.117 C 
BRANCH   2   3
ATOM      3  N   UNL A   1      32.491  26.383  26.425  1.00  0.00    -0.354 N 
ATOM      4  C   UNL A   1      32.483  25.370  25.514  1.00  0.00     0.245 C 
ATOM      5  O   UNL A   1      33.572  24.824  25.313  1.00  0.00    -0.272 OA
ATOM      6  H   UNL A   1      33.346  26.517  26.895  1.00  0.00     0.163 HD
BRANCH   4   7
ATOM      7  C   UNL A   1      31.152  24.855  24.898  1.00  0.00     0.120 C 
ATOM      8  C   UNL A   1      33.032  26.650  21.541  1.00  0.00     0.007 C 
ATOM      9  C   UNL A   1      31.908  25.786  22.129  1.00  0.00    -0.014 C 
ATOM     10  C   UNL A   1      31.040  26.655  23.057  1.00  0.00     0.006 C 
ATOM     11  C   UNL A   1      32.509  24.519  22.760  1.00  0.00     0.006 C 
ATOM     12  C   UNL A   1      30.303  25.901  24.161  1.00  0.00     0.039 C 
ATOM     13  C   UNL A   1      31.598  23.850  23.795  1.00  0.00     0.039 C 
BRANCH   7  14
ATOM     14  N   UNL A   1      30.303  24.163  25.899  1.00  0.00    -0.324 N 
ATOM     15  C   UNL A   1      30.433  23.153  26.766  1.00  0.00     0.315 C 
ATOM     16  H   UNL A   1      29.400  24.554  25.935  1.00  0.00     0.166 HD
ATOM     17  O   UNL A   1      29.549  23.047  27.620  1.00  0.00    -0.249 OA
ATOM     18  N   UNL A   1      31.390  22.222  26.773  1.00  0.00    -0.333 N 
ATOM     19  H   UNL A   1      31.315  21.626  27.552  1.00  0.00     0.165 HD
BRANCH  18  20
ATOM     20  C   UNL A   1      32.511  21.866  25.928  1.00  0.00     0.112 C 
ATOM     21  C   UNL A   1      33.800  21.577  26.659  1.00  0.00     0.056 C 
ATOM     22  C   UNL A   1      32.350  20.582  25.115  1.00  0.00     0.185 C 
ATOM     23  C   UNL A   1      34.608  20.949  25.544  1.00  0.00     0.162 C 
ATOM     24  O   UNL A   1      33.684  20.136  24.799  1.00  0.00    -0.379 OA
ENDBRANCH  18  20
ENDBRANCH   7  14
ENDBRANCH   4   7
ENDBRANCH   2   3
ENDBRANCH   1   2
BRANCH   1  25
ATOM     25  C   UNL A   1      33.266  29.009  27.047  1.00  0.00     0.118 C 
BRANCH  25  26
ATOM     26  N   UNL A   1      33.392  30.452  27.201  1.00  0.00    -0.352 N 
ATOM     27  C   UNL A   1      34.454  31.133  27.749  1.00  0.00     0.251 C 
ATOM     28  H   UNL A   1      32.638  30.996  26.878  1.00  0.00     0.163 HD
ATOM     29  O   UNL A   1      34.414  32.345  27.928  1.00  0.00    -0.269 OA
BRANCH  27  30
ATOM     30  C   UNL A   1      35.633  30.349  28.163  1.00  0.00     0.039 A 
ATOM     31  C   UNL A   1      36.747  30.312  27.323  1.00  0.00     0.014 A 
ATOM     32  C   UNL A   1      35.676  29.784  29.441  1.00  0.00     0.014 A 
ATOM     33  C   UNL A   1      37.937  29.758  27.796  1.00  0.00     0.010 A 
ATOM     34  C   UNL A   1      36.885  29.313  29.937  1.00  0.00     0.010 A 
ATOM     35  C   UNL A   1      38.025  29.289  29.118  1.00  0.00    -0.014 A 
BRANCH  35  36
ATOM     36  C   UNL A   1      39.295  28.743  29.657  1.00  0.00     0.031 A 
ATOM     37  C   UNL A   1      39.916  29.376  30.871  1.00  0.00     0.074 A 
ATOM     38  C   UNL A   1      39.919  27.727  29.028  1.00  0.00     0.049 A 
ATOM     39  N   UNL A   1      41.052  29.101  31.458  1.00  0.00    -0.248 NA
ATOM     40  C   UNL A   1      39.175  30.488  31.489  1.00  0.00     0.031 C 
ATOM     41  C   UNL A   1      39.448  27.064  27.811  1.00  0.00     0.029 A 
ATOM     42  N   UNL A   1      41.093  27.082  29.323  1.00  0.00    -0.354 N 
ATOM     43  C   UNL A   1      41.167  30.014  32.499  1.00  0.00     0.074 A 
ATOM     44  C   UNL A   1      40.019  30.890  32.425  1.00  0.00     0.031 C 
ATOM     45  C   UNL A   1      40.312  26.090  27.478  1.00  0.00     0.029 A 
ATOM     46  C   UNL A   1      41.414  26.083  28.435  1.00  0.00     0.049 A 
ATOM     47  H   UNL A   1      41.654  27.313  30.099  1.00  0.00     0.167 HD
ATOM     48  C   UNL A   1      42.125  30.097  33.450  1.00  0.00     0.037 A 
ATOM     49  C   UNL A   1      42.478  25.258  28.399  1.00  0.00     0.037 A 
ATOM     50  C   UNL A   1      43.249  29.205  33.543  1.00  0.00     0.049 A 
ATOM     51  C   UNL A   1      43.526  25.364  29.473  1.00  0.00     0.074 A 
ATOM     52  C   UNL A   1      44.247  29.171  34.500  1.00  0.00     0.029 A 
ATOM     53  N   UNL A   1      43.520  28.185  32.642  1.00  0.00    -0.354 N 
ATOM     54  N   UNL A   1      43.588  26.190  30.489  1.00  0.00    -0.248 NA
ATOM     55  C   UNL A   1      44.649  24.419  29.399  1.00  0.00     0.031 C 
ATOM     56  C   UNL A   1      45.142  28.152  34.161  1.00  0.00     0.029 A 
ATOM     57  C   UNL A   1      44.678  27.525  33.016  1.00  0.00     0.049 A 
ATOM     58  H   UNL A   1      42.972  27.965  31.856  1.00  0.00     0.167 HD
ATOM     59  C   UNL A   1      44.735  25.846  31.190  1.00  0.00     0.074 A 
ATOM     60  C   UNL A   1      45.334  24.728  30.491  1.00  0.00     0.031 C 
ATOM     61  C   UNL A   1      45.250  26.405  32.314  1.00  0.00     0.037 A 
BRANCH  48  62
ATOM     62  C   UNL A   1      41.986  31.185  34.474  1.00  0.00     0.057 A 
ATOM     63  C   UNL A   1      42.563  32.449  34.289  1.00  0.00     0.134 A 
ATOM     64  C   UNL A   1      41.252  30.975  35.647  1.00  0.00     0.134 A 
ATOM     65  F   UNL A   1      43.293  32.709  33.194  1.00  0.00    -0.206 F 
ATOM     66  C   UNL A   1      42.438  33.455  35.247  1.00  0.00     0.040 A 
ATOM     67  C   UNL A   1      41.096  31.983  36.600  1.00  0.00     0.040 A 
ATOM     68  F   UNL A   1      40.671  29.789  35.886  1.00  0.00    -0.206 F 
ATOM     69  C   UNL A   1      41.697  33.226  36.404  1.00  0.00     0.006 A 
ENDBRANCH  48  62
BRANCH  49  70
ATOM     70  C   UNL A   1      42.597  24.241  27.324  1.00  0.00     0.057 A 
ATOM     71  C   UNL A   1      42.137  22.932  27.512  1.00  0.00     0.134 A 
ATOM     72  C   UNL A   1      43.190  24.544  26.092  1.00  0.00     0.134 A 
ATOM     73  F   UNL A   1      41.577  22.576  28.678  1.00  0.00    -0.206 F 
ATOM     74  C   UNL A   1      42.280  21.956  26.525  1.00  0.00     0.040 A 
ATOM     75  C   UNL A   1      43.318  23.583  25.087  1.00  0.00     0.040 A 
ATOM     76  F   UNL A   1      43.645  25.781  25.846  1.00  0.00    -0.206 F 
ATOM     77  C   UNL A   1      42.869  22.283  25.305  1.00  0.00     0.006 A 
ENDBRANCH  49  70
BRANCH  61  78
ATOM     78  C   UNL A   1      46.496  25.791  32.879  1.00  0.00     0.057 A 
ATOM     79  C   UNL A   1      46.450  24.760  33.825  1.00  0.00     0.134 A 
ATOM     80  C   UNL A   1      47.756  26.204  32.430  1.00  0.00     0.134 A 
ATOM     81  F   UNL A   1      45.273  24.328  34.302  1.00  0.00    -0.206 F 
ATOM     82  C   UNL A   1      47.615  24.175  34.321  1.00  0.00     0.040 A 
ATOM     83  C   UNL A   1      48.928  25.610  32.900  1.00  0.00     0.040 A 
ATOM     84  F   UNL A   1      47.869  27.182  31.517  1.00  0.00    -0.206 F 
ATOM     85  C   UNL A   1      48.859  24.595  33.851  1.00  0.00     0.006 A 
ENDBRANCH  61  78
ENDBRANCH  35  36
ENDBRANCH  27  30
ENDBRANCH  25  26
ENDBRANCH   1  25
TORSDOF 12
ENDMDL
