MODEL 1
REMARK VINA RESULT:     -12.3      0.000      0.000
REMARK SMILES CCOc1cccc(C(=O)Nc2ccc(Cl)c(C(=O)NCCCNC(=O)c3ccc(-c4c5nc(c(-c6c(F)cccc6F)c6ccc([nH]6)c(-c6c(F)cccc6F)c6nc(c(-c7c(F)cccc7F)c7ccc4[nH]7)C=C6)C=C5)cc3)c2)c1
REMARK SMILES IDX 21 1 20 2 18 3 19 4 17 6 12 7 13 8 81 9 14 10 15 11 16 12
REMARK SMILES IDX 11 13 9 14 10 15 8 17 4 18 5 19 82 20 6 21 7 22 3 23 2 24
REMARK SMILES IDX 1 25 22 26 23 27 24 28 25 29 26 31 27 32 28 33 80 34 29 35
REMARK SMILES IDX 79 36 30 37 31 38 32 39 73 40 33 41 78 42 72 43 74 44 34 45
REMARK SMILES IDX 77 46 71 47 70 48 35 50 61 51 44 52 60 53 45 54 48 55 59 56
REMARK SMILES IDX 75 57 46 58 47 59 58 61 76 62 49 63 36 64 37 65 42 66 38 67
REMARK SMILES IDX 39 68 41 69 43 70 40 71 62 72 63 73 68 74 64 75 65 76 67 77
REMARK SMILES IDX 69 78 66 79 50 80 51 81 56 82 52 83 53 84 55 85 57 86 54 87
REMARK H PARENT 20 5 11 16 24 30 74 49 48 60
REMARK Flexibility Score: inf
ROOT
ATOM      1  C   UNL A   1      31.387  30.732  26.484  1.00  0.00     0.118 C 
ENDROOT
BRANCH   1   2
ATOM      2  N   UNL A   1      32.248  30.373  25.378  1.00  0.00    -0.352 N 
ATOM      3  C   UNL A   1      32.345  29.257  24.583  1.00  0.00     0.252 C 
ATOM      4  O   UNL A   1      33.327  29.223  23.843  1.00  0.00    -0.269 OA
ATOM      5  H   UNL A   1      32.899  31.073  25.147  1.00  0.00     0.163 HD
BRANCH   3   6
ATOM      6  C   UNL A   1      31.342  28.143  24.565  1.00  0.00     0.060 A 
ATOM      7  C   UNL A   1      30.406  26.083  25.505  1.00  0.00     0.042 A 
ATOM      8  C   UNL A   1      29.424  26.061  24.522  1.00  0.00     0.028 A 
ATOM      9  C   UNL A   1      31.411  27.056  25.457  1.00  0.00     0.041 A 
ATOM     10  C   UNL A   1      29.356  27.099  23.599  1.00  0.00     0.023 A 
ATOM     11  C   UNL A   1      30.280  28.155  23.638  1.00  0.00     0.053 A 
ATOM     12  Cl  UNL A   1      29.948  29.455  22.542  1.00  0.00    -0.083 Cl
BRANCH   7  13
ATOM     13  N   UNL A   1      30.324  25.125  26.525  1.00  0.00    -0.322 N 
ATOM     14  C   UNL A   1      30.854  23.853  26.630  1.00  0.00     0.255 C 
ATOM     15  O   UNL A   1      30.407  23.108  27.505  1.00  0.00    -0.269 OA
ATOM     16  H   UNL A   1      29.795  25.409  27.305  1.00  0.00     0.170 HD
BRANCH  14  17
ATOM     17  C   UNL A   1      32.014  23.373  25.812  1.00  0.00     0.043 A 
ATOM     18  C   UNL A   1      34.308  23.494  25.027  1.00  0.00     0.120 A 
ATOM     19  C   UNL A   1      34.053  22.471  24.114  1.00  0.00     0.046 A 
ATOM     20  C   UNL A   1      33.311  23.896  25.920  1.00  0.00     0.060 A 
ATOM     21  C   UNL A   1      32.804  21.853  24.084  1.00  0.00     0.005 A 
ATOM     22  C   UNL A   1      31.783  22.317  24.916  1.00  0.00     0.014 A 
BRANCH  18  23
ATOM     23  O   UNL A   1      35.463  24.193  24.811  1.00  0.00    -0.494 OA
BRANCH  23  24
ATOM     24  C   UNL A   1      36.695  23.476  24.850  1.00  0.00     0.226 C 
ATOM     25  C   UNL A   1      37.524  23.806  26.079  1.00  0.00     0.049 C 
ENDBRANCH  23  24
ENDBRANCH  18  23
ENDBRANCH  14  17
ENDBRANCH   7  13
ENDBRANCH   3   6
ENDBRANCH   1   2
BRANCH   1  26
ATOM     26  C   UNL A   1      31.324  32.247  26.651  1.00  0.00     0.042 C 
BRANCH  26  27
ATOM     27  C   UNL A   1      32.668  32.826  27.058  1.00  0.00     0.118 C 
BRANCH  27  28
ATOM     28  N   UNL A   1      32.518  34.130  27.689  1.00  0.00    -0.352 N 
ATOM     29  C   UNL A   1      33.179  34.652  28.767  1.00  0.00     0.251 C 
ATOM     30  H   UNL A   1      31.846  34.721  27.281  1.00  0.00     0.163 HD
ATOM     31  O   UNL A   1      32.767  35.693  29.288  1.00  0.00    -0.269 OA
BRANCH  29  32
ATOM     32  C   UNL A   1      34.365  33.970  29.325  1.00  0.00     0.039 A 
ATOM     33  C   UNL A   1      34.175  32.926  30.234  1.00  0.00     0.014 A 
ATOM     34  C   UNL A   1      35.660  34.366  28.976  1.00  0.00     0.014 A 
ATOM     35  C   UNL A   1      35.281  32.258  30.761  1.00  0.00     0.010 A 
ATOM     36  C   UNL A   1      36.756  33.640  29.428  1.00  0.00     0.010 A 
ATOM     37  C   UNL A   1      36.580  32.594  30.344  1.00  0.00    -0.014 A 
BRANCH  37  38
ATOM     38  C   UNL A   1      37.763  31.882  30.886  1.00  0.00     0.031 A 
ATOM     39  C   UNL A   1      38.264  32.196  32.269  1.00  0.00     0.074 A 
ATOM     40  C   UNL A   1      38.411  30.988  30.116  1.00  0.00     0.049 A 
ATOM     41  N   UNL A   1      39.292  31.698  32.909  1.00  0.00    -0.248 NA
ATOM     42  C   UNL A   1      37.532  33.225  33.025  1.00  0.00     0.031 C 
ATOM     43  C   UNL A   1      38.059  30.646  28.735  1.00  0.00     0.029 A 
ATOM     44  N   UNL A   1      39.503  30.203  30.383  1.00  0.00    -0.354 N 
ATOM     45  C   UNL A   1      39.339  32.367  34.127  1.00  0.00     0.074 A 
ATOM     46  C   UNL A   1      38.275  33.345  34.114  1.00  0.00     0.031 C 
ATOM     47  C   UNL A   1      38.898  29.697  28.290  1.00  0.00     0.029 A 
ATOM     48  C   UNL A   1      39.863  29.386  29.340  1.00  0.00     0.049 A 
ATOM     49  H   UNL A   1      39.984  30.224  31.242  1.00  0.00     0.167 HD
ATOM     50  C   UNL A   1      40.175  32.165  35.173  1.00  0.00     0.037 A 
ATOM     51  C   UNL A   1      40.856  28.482  29.246  1.00  0.00     0.037 A 
ATOM     52  C   UNL A   1      41.211  31.166  35.193  1.00  0.00     0.049 A 
ATOM     53  C   UNL A   1      41.747  28.250  30.433  1.00  0.00     0.074 A 
ATOM     54  C   UNL A   1      42.075  30.839  36.223  1.00  0.00     0.029 A 
ATOM     55  N   UNL A   1      41.520  30.329  34.130  1.00  0.00    -0.354 N 
ATOM     56  N   UNL A   1      41.735  28.839  31.604  1.00  0.00    -0.248 NA
ATOM     57  C   UNL A   1      42.781  27.215  30.290  1.00  0.00     0.031 C 
ATOM     58  C   UNL A   1      42.930  29.827  35.770  1.00  0.00     0.029 A 
ATOM     59  C   UNL A   1      42.567  29.493  34.475  1.00  0.00     0.049 A 
ATOM     60  H   UNL A   1      41.060  30.330  33.259  1.00  0.00     0.167 HD
ATOM     61  C   UNL A   1      42.734  28.226  32.349  1.00  0.00     0.074 A 
ATOM     62  C   UNL A   1      43.322  27.210  31.500  1.00  0.00     0.031 C 
ATOM     63  C   UNL A   1      43.131  28.480  33.620  1.00  0.00     0.037 A 
BRANCH  50  64
ATOM     64  C   UNL A   1      39.993  33.035  36.382  1.00  0.00     0.057 A 
ATOM     65  C   UNL A   1      39.080  32.713  37.396  1.00  0.00     0.134 A 
ATOM     66  C   UNL A   1      40.758  34.197  36.550  1.00  0.00     0.134 A 
ATOM     67  F   UNL A   1      38.305  31.623  37.290  1.00  0.00    -0.206 F 
ATOM     68  C   UNL A   1      38.913  33.529  38.516  1.00  0.00     0.040 A 
ATOM     69  C   UNL A   1      40.621  35.004  37.681  1.00  0.00     0.040 A 
ATOM     70  F   UNL A   1      41.655  34.563  35.622  1.00  0.00    -0.206 F 
ATOM     71  C   UNL A   1      39.690  34.674  38.664  1.00  0.00     0.006 A 
ENDBRANCH  50  64
BRANCH  51  72
ATOM     72  C   UNL A   1      41.029  27.697  27.997  1.00  0.00     0.057 A 
ATOM     73  C   UNL A   1      41.811  28.182  26.942  1.00  0.00     0.134 A 
ATOM     74  C   UNL A   1      40.419  26.449  27.826  1.00  0.00     0.134 A 
ATOM     75  F   UNL A   1      42.410  29.379  27.040  1.00  0.00    -0.206 F 
ATOM     76  C   UNL A   1      41.961  27.466  25.753  1.00  0.00     0.040 A 
ATOM     77  C   UNL A   1      40.581  25.711  26.653  1.00  0.00     0.040 A 
ATOM     78  F   UNL A   1      39.666  25.924  28.805  1.00  0.00    -0.206 F 
ATOM     79  C   UNL A   1      41.348  26.224  25.609  1.00  0.00     0.006 A 
ENDBRANCH  51  72
BRANCH  63  80
ATOM     80  C   UNL A   1      44.220  27.614  34.180  1.00  0.00     0.057 A 
ATOM     81  C   UNL A   1      43.948  26.390  34.805  1.00  0.00     0.134 A 
ATOM     82  C   UNL A   1      45.561  28.004  34.073  1.00  0.00     0.134 A 
ATOM     83  F   UNL A   1      42.683  25.966  34.949  1.00  0.00    -0.206 F 
ATOM     84  C   UNL A   1      44.970  25.600  35.332  1.00  0.00     0.040 A 
ATOM     85  C   UNL A   1      46.593  27.209  34.572  1.00  0.00     0.040 A 
ATOM     86  F   UNL A   1      45.890  29.159  33.477  1.00  0.00    -0.206 F 
ATOM     87  C   UNL A   1      46.297  26.006  35.211  1.00  0.00     0.006 A 
ENDBRANCH  63  80
ENDBRANCH  37  38
ENDBRANCH  29  32
ENDBRANCH  27  28
ENDBRANCH  26  27
ENDBRANCH   1  26
TORSDOF 14
ENDMDL
MODEL 2
REMARK VINA RESULT:     -12.2      0.797      1.888
REMARK SMILES CCOc1cccc(C(=O)Nc2ccc(Cl)c(C(=O)NCCCNC(=O)c3ccc(-c4c5nc(c(-c6c(F)cccc6F)c6ccc([nH]6)c(-c6c(F)cccc6F)c6nc(c(-c7c(F)cccc7F)c7ccc4[nH]7)C=C6)C=C5)cc3)c2)c1
REMARK SMILES IDX 21 1 20 2 18 3 19 4 17 6 12 7 13 8 81 9 14 10 15 11 16 12
REMARK SMILES IDX 11 13 9 14 10 15 8 17 4 18 5 19 82 20 6 21 7 22 3 23 2 24
REMARK SMILES IDX 1 25 22 26 23 27 24 28 25 29 26 31 27 32 28 33 80 34 29 35
REMARK SMILES IDX 79 36 30 37 31 38 32 39 73 40 33 41 78 42 72 43 74 44 34 45
REMARK SMILES IDX 77 46 71 47 70 48 35 50 61 51 44 52 60 53 45 54 48 55 59 56
REMARK SMILES IDX 75 57 46 58 47 59 58 61 76 62 49 63 36 64 37 65 42 66 38 67
REMARK SMILES IDX 39 68 41 69 43 70 40 71 62 72 63 73 68 74 64 75 65 76 67 77
REMARK SMILES IDX 69 78 66 79 50 80 51 81 56 82 52 83 53 84 55 85 57 86 54 87
REMARK H PARENT 20 5 11 16 24 30 74 49 48 60
REMARK Flexibility Score: inf
ROOT
ATOM      1  C   UNL A   1      31.375  30.759  26.384  1.00  0.00     0.118 C 
ENDROOT
BRANCH   1   2
ATOM      2  N   UNL A   1      32.332  30.325  25.389  1.00  0.00    -0.352 N 
ATOM      3  C   UNL A   1      32.473  29.172  24.657  1.00  0.00     0.252 C 
ATOM      4  O   UNL A   1      33.524  29.077  24.023  1.00  0.00    -0.269 OA
ATOM      5  H   UNL A   1      33.025  30.996  25.195  1.00  0.00     0.163 HD
BRANCH   3   6
ATOM      6  C   UNL A   1      31.443  28.085  24.585  1.00  0.00     0.060 A 
ATOM      7  C   UNL A   1      30.386  26.067  25.487  1.00  0.00     0.042 A 
ATOM      8  C   UNL A   1      29.474  26.055  24.440  1.00  0.00     0.028 A 
ATOM      9  C   UNL A   1      31.419  27.011  25.496  1.00  0.00     0.041 A 
ATOM     10  C   UNL A   1      29.500  27.080  23.499  1.00  0.00     0.023 A 
ATOM     11  C   UNL A   1      30.449  28.111  23.587  1.00  0.00     0.053 A 
ATOM     12  Cl  UNL A   1      30.230  29.401  22.451  1.00  0.00    -0.083 Cl
BRANCH   7  13
ATOM     13  N   UNL A   1      30.207  25.129  26.513  1.00  0.00    -0.322 N 
ATOM     14  C   UNL A   1      30.571  23.799  26.611  1.00  0.00     0.255 C 
ATOM     15  O   UNL A   1      30.053  23.119  27.499  1.00  0.00    -0.269 OA
ATOM     16  H   UNL A   1      29.738  25.479  27.305  1.00  0.00     0.170 HD
BRANCH  14  17
ATOM     17  C   UNL A   1      31.639  23.173  25.768  1.00  0.00     0.043 A 
ATOM     18  C   UNL A   1      32.424  21.658  24.040  1.00  0.00     0.120 A 
ATOM     19  C   UNL A   1      33.744  21.962  24.369  1.00  0.00     0.046 A 
ATOM     20  C   UNL A   1      31.375  22.314  24.691  1.00  0.00     0.060 A 
ATOM     21  C   UNL A   1      34.022  22.911  25.351  1.00  0.00     0.005 A 
ATOM     22  C   UNL A   1      32.973  23.498  26.061  1.00  0.00     0.014 A 
BRANCH  18  23
ATOM     23  O   UNL A   1      32.258  20.552  23.254  1.00  0.00    -0.494 OA
BRANCH  23  24
ATOM     24  C   UNL A   1      32.636  19.287  23.795  1.00  0.00     0.226 C 
ATOM     25  C   UNL A   1      32.525  18.162  22.780  1.00  0.00     0.049 C 
ENDBRANCH  23  24
ENDBRANCH  18  23
ENDBRANCH  14  17
ENDBRANCH   7  13
ENDBRANCH   3   6
ENDBRANCH   1   2
BRANCH   1  26
ATOM     26  C   UNL A   1      31.365  32.279  26.499  1.00  0.00     0.042 C 
BRANCH  26  27
ATOM     27  C   UNL A   1      32.694  32.817  27.001  1.00  0.00     0.118 C 
BRANCH  27  28
ATOM     28  N   UNL A   1      32.540  34.123  27.627  1.00  0.00    -0.352 N 
ATOM     29  C   UNL A   1      33.185  34.644  28.715  1.00  0.00     0.251 C 
ATOM     30  H   UNL A   1      31.877  34.716  27.205  1.00  0.00     0.163 HD
ATOM     31  O   UNL A   1      32.769  35.688  29.227  1.00  0.00    -0.269 OA
BRANCH  29  32
ATOM     32  C   UNL A   1      34.358  33.958  29.294  1.00  0.00     0.039 A 
ATOM     33  C   UNL A   1      34.150  32.976  30.266  1.00  0.00     0.014 A 
ATOM     34  C   UNL A   1      35.658  34.289  28.903  1.00  0.00     0.014 A 
ATOM     35  C   UNL A   1      35.243  32.304  30.816  1.00  0.00     0.010 A 
ATOM     36  C   UNL A   1      36.738  33.557  29.381  1.00  0.00     0.010 A 
ATOM     37  C   UNL A   1      36.544  32.572  30.360  1.00  0.00    -0.014 A 
BRANCH  37  38
ATOM     38  C   UNL A   1      37.713  31.855  30.925  1.00  0.00     0.031 A 
ATOM     39  C   UNL A   1      38.196  32.176  32.313  1.00  0.00     0.074 A 
ATOM     40  C   UNL A   1      38.365  30.949  30.172  1.00  0.00     0.049 A 
ATOM     41  N   UNL A   1      39.210  31.675  32.973  1.00  0.00    -0.248 NA
ATOM     42  C   UNL A   1      37.461  33.217  33.050  1.00  0.00     0.031 C 
ATOM     43  C   UNL A   1      38.031  30.599  28.790  1.00  0.00     0.029 A 
ATOM     44  N   UNL A   1      39.447  30.158  30.462  1.00  0.00    -0.354 N 
ATOM     45  C   UNL A   1      39.244  32.353  34.186  1.00  0.00     0.074 A 
ATOM     46  C   UNL A   1      38.189  33.340  34.149  1.00  0.00     0.031 C 
ATOM     47  C   UNL A   1      38.869  29.640  28.365  1.00  0.00     0.029 A 
ATOM     48  C   UNL A   1      39.815  29.329  29.431  1.00  0.00     0.049 A 
ATOM     49  H   UNL A   1      39.914  30.182  31.329  1.00  0.00     0.167 HD
ATOM     50  C   UNL A   1      40.062  32.153  35.246  1.00  0.00     0.037 A 
ATOM     51  C   UNL A   1      40.802  28.416  29.359  1.00  0.00     0.037 A 
ATOM     52  C   UNL A   1      41.090  31.146  35.290  1.00  0.00     0.049 A 
ATOM     53  C   UNL A   1      41.673  28.187  30.562  1.00  0.00     0.074 A 
ATOM     54  C   UNL A   1      41.935  30.820  36.335  1.00  0.00     0.029 A 
ATOM     55  N   UNL A   1      41.407  30.298  34.238  1.00  0.00    -0.354 N 
ATOM     56  N   UNL A   1      41.649  28.785  31.728  1.00  0.00    -0.248 NA
ATOM     57  C   UNL A   1      42.701  27.142  30.443  1.00  0.00     0.031 C 
ATOM     58  C   UNL A   1      42.789  29.798  35.904  1.00  0.00     0.029 A 
ATOM     59  C   UNL A   1      42.442  29.456  34.606  1.00  0.00     0.049 A 
ATOM     60  H   UNL A   1      40.961  30.296  33.361  1.00  0.00     0.167 HD
ATOM     61  C   UNL A   1      42.631  28.170  32.493  1.00  0.00     0.074 A 
ATOM     62  C   UNL A   1      43.224  27.143  31.661  1.00  0.00     0.031 C 
ATOM     63  C   UNL A   1      43.011  28.432  33.768  1.00  0.00     0.037 A 
BRANCH  50  64
ATOM     64  C   UNL A   1      39.870  33.035  36.445  1.00  0.00     0.057 A 
ATOM     65  C   UNL A   1      40.618  34.206  36.630  1.00  0.00     0.134 A 
ATOM     66  C   UNL A   1      38.908  32.726  37.416  1.00  0.00     0.134 A 
ATOM     67  F   UNL A   1      41.566  34.553  35.746  1.00  0.00    -0.206 F 
ATOM     68  C   UNL A   1      40.437  35.021  37.749  1.00  0.00     0.040 A 
ATOM     69  C   UNL A   1      38.698  33.549  38.524  1.00  0.00     0.040 A 
ATOM     70  F   UNL A   1      38.154  31.623  37.300  1.00  0.00    -0.206 F 
ATOM     71  C   UNL A   1      39.470  34.696  38.696  1.00  0.00     0.006 A 
ENDBRANCH  50  64
BRANCH  51  72
ATOM     72  C   UNL A   1      40.988  27.619  28.120  1.00  0.00     0.057 A 
ATOM     73  C   UNL A   1      41.805  28.081  27.081  1.00  0.00     0.134 A 
ATOM     74  C   UNL A   1      40.354  26.384  27.942  1.00  0.00     0.134 A 
ATOM     75  F   UNL A   1      42.426  29.265  27.186  1.00  0.00    -0.206 F 
ATOM     76  C   UNL A   1      41.967  27.355  25.901  1.00  0.00     0.040 A 
ATOM     77  C   UNL A   1      40.528  25.635  26.778  1.00  0.00     0.040 A 
ATOM     78  F   UNL A   1      39.568  25.882  28.906  1.00  0.00    -0.206 F 
ATOM     79  C   UNL A   1      41.331  26.124  25.749  1.00  0.00     0.006 A 
ENDBRANCH  51  72
BRANCH  63  80
ATOM     80  C   UNL A   1      44.084  27.561  34.352  1.00  0.00     0.057 A 
ATOM     81  C   UNL A   1      45.437  27.922  34.311  1.00  0.00     0.134 A 
ATOM     82  C   UNL A   1      43.753  26.355  34.981  1.00  0.00     0.134 A 
ATOM     83  F   UNL A   1      45.820  29.060  33.712  1.00  0.00    -0.206 F 
ATOM     84  C   UNL A   1      46.425  27.097  34.848  1.00  0.00     0.040 A 
ATOM     85  C   UNL A   1      44.731  25.535  35.547  1.00  0.00     0.040 A 
ATOM     86  F   UNL A   1      42.475  25.956  35.064  1.00  0.00    -0.206 F 
ATOM     87  C   UNL A   1      46.073  25.902  35.472  1.00  0.00     0.006 A 
ENDBRANCH  63  80
ENDBRANCH  37  38
ENDBRANCH  29  32
ENDBRANCH  27  28
ENDBRANCH  26  27
ENDBRANCH   1  26
TORSDOF 14
ENDMDL
MODEL 3
REMARK VINA RESULT:     -12.0      1.195      6.294
REMARK SMILES CCOc1cccc(C(=O)Nc2ccc(Cl)c(C(=O)NCCCNC(=O)c3ccc(-c4c5nc(c(-c6c(F)cccc6F)c6ccc([nH]6)c(-c6c(F)cccc6F)c6nc(c(-c7c(F)cccc7F)c7ccc4[nH]7)C=C6)C=C5)cc3)c2)c1
REMARK SMILES IDX 21 1 20 2 18 3 19 4 17 6 12 7 13 8 81 9 14 10 15 11 16 12
REMARK SMILES IDX 11 13 9 14 10 15 8 17 4 18 5 19 82 20 6 21 7 22 3 23 2 24
REMARK SMILES IDX 1 25 22 26 23 27 24 28 25 29 26 31 27 32 28 33 80 34 29 35
REMARK SMILES IDX 79 36 30 37 31 38 32 39 73 40 33 41 78 42 72 43 74 44 34 45
REMARK SMILES IDX 77 46 71 47 70 48 35 50 61 51 44 52 60 53 45 54 48 55 59 56
REMARK SMILES IDX 75 57 46 58 47 59 58 61 76 62 49 63 36 64 37 65 42 66 38 67
REMARK SMILES IDX 39 68 41 69 43 70 40 71 62 72 63 73 68 74 64 75 65 76 67 77
REMARK SMILES IDX 69 78 66 79 50 80 51 81 56 82 52 83 53 84 55 85 57 86 54 87
REMARK H PARENT 20 5 11 16 24 30 74 49 48 60
REMARK Flexibility Score: inf
ROOT
ATOM      1  C   UNL A   1      31.406  30.814  26.374  1.00  0.00     0.118 C 
ENDROOT
BRANCH   1   2
ATOM      2  N   UNL A   1      31.029  30.404  25.039  1.00  0.00    -0.352 N 
ATOM      3  C   UNL A   1      31.316  29.299  24.276  1.00  0.00     0.252 C 
ATOM      4  O   UNL A   1      30.963  29.367  23.100  1.00  0.00    -0.269 OA
ATOM      5  H   UNL A   1      30.444  31.051  24.583  1.00  0.00     0.163 HD
BRANCH   3   6
ATOM      6  C   UNL A   1      31.990  28.065  24.797  1.00  0.00     0.060 A 
ATOM      7  C   UNL A   1      31.969  26.007  26.126  1.00  0.00     0.042 A 
ATOM      8  C   UNL A   1      33.277  25.731  25.751  1.00  0.00     0.028 A 
ATOM      9  C   UNL A   1      31.376  27.213  25.735  1.00  0.00     0.041 A 
ATOM     10  C   UNL A   1      33.926  26.578  24.857  1.00  0.00     0.023 A 
ATOM     11  C   UNL A   1      33.280  27.716  24.351  1.00  0.00     0.053 A 
ATOM     12  Cl  UNL A   1      34.153  28.560  23.115  1.00  0.00    -0.083 Cl
BRANCH   7  13
ATOM     13  N   UNL A   1      31.289  25.034  26.872  1.00  0.00    -0.322 N 
ATOM     14  C   UNL A   1      30.868  23.759  26.545  1.00  0.00     0.255 C 
ATOM     15  O   UNL A   1      30.047  23.212  27.284  1.00  0.00    -0.269 OA
ATOM     16  H   UNL A   1      31.074  25.308  27.793  1.00  0.00     0.170 HD
BRANCH  14  17
ATOM     17  C   UNL A   1      31.435  22.971  25.405  1.00  0.00     0.043 A 
ATOM     18  C   UNL A   1      32.911  21.293  24.454  1.00  0.00     0.120 A 
ATOM     19  C   UNL A   1      32.526  21.679  23.170  1.00  0.00     0.046 A 
ATOM     20  C   UNL A   1      32.315  21.891  25.569  1.00  0.00     0.060 A 
ATOM     21  C   UNL A   1      31.556  22.663  22.994  1.00  0.00     0.005 A 
ATOM     22  C   UNL A   1      31.028  23.321  24.107  1.00  0.00     0.014 A 
BRANCH  18  23
ATOM     23  O   UNL A   1      34.030  20.511  24.518  1.00  0.00    -0.494 OA
BRANCH  23  24
ATOM     24  C   UNL A   1      35.188  21.054  25.150  1.00  0.00     0.226 C 
ATOM     25  C   UNL A   1      35.827  22.168  24.339  1.00  0.00     0.049 C 
ENDBRANCH  23  24
ENDBRANCH  18  23
ENDBRANCH  14  17
ENDBRANCH   7  13
ENDBRANCH   3   6
ENDBRANCH   1   2
BRANCH   1  26
ATOM     26  C   UNL A   1      31.400  32.335  26.496  1.00  0.00     0.042 C 
BRANCH  26  27
ATOM     27  C   UNL A   1      32.696  32.859  27.088  1.00  0.00     0.118 C 
BRANCH  27  28
ATOM     28  N   UNL A   1      32.533  34.203  27.626  1.00  0.00    -0.352 N 
ATOM     29  C   UNL A   1      33.141  34.784  28.705  1.00  0.00     0.251 C 
ATOM     30  H   UNL A   1      31.893  34.775  27.144  1.00  0.00     0.163 HD
ATOM     31  O   UNL A   1      32.717  35.861  29.136  1.00  0.00    -0.269 OA
BRANCH  29  32
ATOM     32  C   UNL A   1      34.284  34.125  29.370  1.00  0.00     0.039 A 
ATOM     33  C   UNL A   1      34.028  33.200  30.386  1.00  0.00     0.014 A 
ATOM     34  C   UNL A   1      35.602  34.427  29.015  1.00  0.00     0.014 A 
ATOM     35  C   UNL A   1      35.092  32.554  31.017  1.00  0.00     0.010 A 
ATOM     36  C   UNL A   1      36.655  33.716  29.578  1.00  0.00     0.010 A 
ATOM     37  C   UNL A   1      36.414  32.789  30.601  1.00  0.00    -0.014 A 
BRANCH  37  38
ATOM     38  C   UNL A   1      37.553  32.098  31.254  1.00  0.00     0.031 A 
ATOM     39  C   UNL A   1      38.303  31.020  30.519  1.00  0.00     0.074 A 
ATOM     40  C   UNL A   1      37.881  32.409  32.522  1.00  0.00     0.049 A 
ATOM     41  N   UNL A   1      39.308  30.288  30.925  1.00  0.00    -0.248 NA
ATOM     42  C   UNL A   1      37.845  30.703  29.156  1.00  0.00     0.031 C 
ATOM     43  C   UNL A   1      37.188  33.390  33.360  1.00  0.00     0.029 A 
ATOM     44  N   UNL A   1      38.881  31.931  33.329  1.00  0.00    -0.354 N 
ATOM     45  C   UNL A   1      39.587  29.415  29.880  1.00  0.00     0.074 A 
ATOM     46  C   UNL A   1      38.610  29.667  28.846  1.00  0.00     0.031 C 
ATOM     47  C   UNL A   1      37.804  33.465  34.550  1.00  0.00     0.029 A 
ATOM     48  C   UNL A   1      38.915  32.519  34.570  1.00  0.00     0.049 A 
ATOM     49  H   UNL A   1      39.514  31.233  33.045  1.00  0.00     0.167 HD
ATOM     50  C   UNL A   1      40.585  28.505  29.780  1.00  0.00     0.037 A 
ATOM     51  C   UNL A   1      39.754  32.319  35.604  1.00  0.00     0.037 A 
ATOM     52  C   UNL A   1      41.575  28.282  30.799  1.00  0.00     0.049 A 
ATOM     53  C   UNL A   1      40.874  31.330  35.454  1.00  0.00     0.074 A 
ATOM     54  C   UNL A   1      42.662  27.426  30.775  1.00  0.00     0.029 A 
ATOM     55  N   UNL A   1      41.600  28.925  32.028  1.00  0.00    -0.354 N 
ATOM     56  N   UNL A   1      41.170  30.562  34.433  1.00  0.00    -0.248 NA
ATOM     57  C   UNL A   1      41.790  31.191  36.596  1.00  0.00     0.031 C 
ATOM     58  C   UNL A   1      43.325  27.526  32.004  1.00  0.00     0.029 A 
ATOM     59  C   UNL A   1      42.677  28.479  32.774  1.00  0.00     0.049 A 
ATOM     60  H   UNL A   1      40.948  29.600  32.325  1.00  0.00     0.167 HD
ATOM     61  C   UNL A   1      42.321  29.874  34.794  1.00  0.00     0.074 A 
ATOM     62  C   UNL A   1      42.677  30.327  36.124  1.00  0.00     0.031 C 
ATOM     63  C   UNL A   1      43.021  28.951  34.091  1.00  0.00     0.037 A 
BRANCH  50  64
ATOM     64  C   UNL A   1      40.656  27.692  28.520  1.00  0.00     0.057 A 
ATOM     65  C   UNL A   1      39.986  26.467  28.390  1.00  0.00     0.134 A 
ATOM     66  C   UNL A   1      41.380  28.149  27.411  1.00  0.00     0.134 A 
ATOM     67  F   UNL A   1      39.286  25.964  29.419  1.00  0.00    -0.206 F 
ATOM     68  C   UNL A   1      40.058  25.714  27.217  1.00  0.00     0.040 A 
ATOM     69  C   UNL A   1      41.436  27.419  26.223  1.00  0.00     0.040 A 
ATOM     70  F   UNL A   1      42.041  29.316  27.463  1.00  0.00    -0.206 F 
ATOM     71  C   UNL A   1      40.779  26.193  26.127  1.00  0.00     0.006 A 
ENDBRANCH  50  64
BRANCH  51  72
ATOM     72  C   UNL A   1      39.593  33.106  36.853  1.00  0.00     0.057 A 
ATOM     73  C   UNL A   1      40.324  34.280  37.065  1.00  0.00     0.134 A 
ATOM     74  C   UNL A   1      38.711  32.704  37.862  1.00  0.00     0.134 A 
ATOM     75  F   UNL A   1      41.198  34.708  36.141  1.00  0.00    -0.206 F 
ATOM     76  C   UNL A   1      40.203  35.015  38.246  1.00  0.00     0.040 A 
ATOM     77  C   UNL A   1      38.560  33.443  39.037  1.00  0.00     0.040 A 
ATOM     78  F   UNL A   1      37.972  31.594  37.714  1.00  0.00    -0.206 F 
ATOM     79  C   UNL A   1      39.313  34.598  39.234  1.00  0.00     0.006 A 
ENDBRANCH  51  72
BRANCH  63  80
ATOM     80  C   UNL A   1      44.265  28.407  34.730  1.00  0.00     0.057 A 
ATOM     81  C   UNL A   1      45.509  29.032  34.582  1.00  0.00     0.134 A 
ATOM     82  C   UNL A   1      44.209  27.252  35.520  1.00  0.00     0.134 A 
ATOM     83  F   UNL A   1      45.631  30.135  33.828  1.00  0.00    -0.206 F 
ATOM     84  C   UNL A   1      46.661  28.509  35.172  1.00  0.00     0.040 A 
ATOM     85  C   UNL A   1      45.348  26.736  36.138  1.00  0.00     0.040 A 
ATOM     86  F   UNL A   1      43.046  26.611  35.711  1.00  0.00    -0.206 F 
ATOM     87  C   UNL A   1      46.581  27.360  35.956  1.00  0.00     0.006 A 
ENDBRANCH  63  80
ENDBRANCH  37  38
ENDBRANCH  29  32
ENDBRANCH  27  28
ENDBRANCH  26  27
ENDBRANCH   1  26
TORSDOF 14
ENDMDL
