MODEL 1
REMARK VINA RESULT:     -13.2      0.000      0.000
REMARK SMILES COc1ccccc1[C@@H]1C[N@@H+](Cc2cc3c(cc2C)OCO3)C[C@H]1C(=O)NCCCNC(=O)c1ccc(-c2c3nc(c(-c4c(F)cccc4F)c4ccc([nH]4)c(-c4c(F)cccc4F)c4nc(c(-c5c(F)cccc5F)c5ccc2[nH]5)C=C4)C=C3)cc1
REMARK SMILES IDX 29 1 28 2 27 3 25 4 26 5 24 7 9 8 10 9 11 10 23 11 8 13 3 14
REMARK SMILES IDX 4 15 5 16 7 17 6 18 2 19 1 20 12 21 13 22 14 23 18 24 15 25
REMARK SMILES IDX 17 26 19 27 16 28 22 29 20 30 21 31 30 32 31 33 32 34 33 36
REMARK SMILES IDX 34 37 35 38 87 39 36 40 86 41 37 42 38 43 39 44 80 45 40 46
REMARK SMILES IDX 85 47 79 48 81 49 41 50 84 51 78 52 77 53 42 55 68 56 51 57
REMARK SMILES IDX 67 58 52 59 55 60 66 61 82 62 53 63 54 64 65 66 83 67 56 68
REMARK SMILES IDX 43 69 44 70 49 71 45 72 46 73 48 74 50 75 47 76 69 77 70 78
REMARK SMILES IDX 75 79 71 80 72 81 74 82 76 83 73 84 57 85 58 86 63 87 59 88
REMARK SMILES IDX 60 89 62 90 64 91 61 92
REMARK H PARENT 27 6 11 12 31 35 81 54 55 65
REMARK Flexibility Score: inf
ROOT
ATOM      1  C   UNL A   1      38.123  23.692  25.739  1.00  0.00     0.042 C 
ENDROOT
BRANCH   1   2
ATOM      2  C   UNL A   1      36.607  23.280  25.691  1.00  0.00     0.117 C 
BRANCH   2   3
ATOM      3  N   UNL A   1      36.111  22.507  24.521  1.00  0.00    -0.356 N 
ATOM      4  C   UNL A   1      35.562  22.972  23.347  1.00  0.00     0.229 C 
ATOM      5  O   UNL A   1      36.390  23.045  22.421  1.00  0.00    -0.275 OA
ATOM      6  H   UNL A   1      36.188  21.528  24.595  1.00  0.00     0.163 HD
BRANCH   4   7
ATOM      7  C   UNL A   1      34.043  23.146  22.949  1.00  0.00     0.146 C 
ATOM      8  C   UNL A   1      33.033  22.434  23.874  1.00  0.00     0.096 C 
ATOM      9  C   UNL A   1      31.678  23.103  23.580  1.00  0.00     0.272 C 
ATOM     10  N   UNL A   1      31.975  24.494  23.253  1.00  0.00    -0.330 N 
ATOM     11  C   UNL A   1      33.316  24.469  22.619  1.00  0.00     0.276 C 
ATOM     12  H   UNL A   1      31.374  24.937  22.558  1.00  0.00     0.348 HD
BRANCH   8  13
ATOM     13  C   UNL A   1      32.882  20.920  23.872  1.00  0.00     0.004 A 
ATOM     14  C   UNL A   1      33.516  20.036  24.766  1.00  0.00     0.122 A 
ATOM     15  C   UNL A   1      33.522  18.656  24.530  1.00  0.00     0.047 A 
ATOM     16  C   UNL A   1      32.882  18.129  23.412  1.00  0.00     0.004 A 
ATOM     17  C   UNL A   1      32.213  20.355  22.767  1.00  0.00     0.008 A 
ATOM     18  C   UNL A   1      32.222  18.979  22.533  1.00  0.00     0.001 A 
BRANCH  14  19
ATOM     19  O   UNL A   1      34.336  20.473  25.773  1.00  0.00    -0.496 OA
ATOM     20  C   UNL A   1      33.623  21.069  26.851  1.00  0.00     0.278 C 
ENDBRANCH  14  19
ENDBRANCH   8  13
BRANCH  10  21
ATOM     21  C   UNL A   1      31.637  25.415  24.357  1.00  0.00     0.299 C 
BRANCH  21  22
ATOM     22  C   UNL A   1      31.441  26.862  23.951  1.00  0.00     0.013 A 
ATOM     23  C   UNL A   1      30.699  27.218  22.795  1.00  0.00     0.060 A 
ATOM     24  C   UNL A   1      31.834  27.867  24.843  1.00  0.00    -0.038 A 
ATOM     25  C   UNL A   1      30.207  28.506  22.692  1.00  0.00     0.166 A 
ATOM     26  C   UNL A   1      31.153  29.082  24.787  1.00  0.00     0.054 A 
ATOM     27  C   UNL A   1      32.946  27.652  25.829  1.00  0.00     0.045 C 
ATOM     28  C   UNL A   1      30.355  29.383  23.722  1.00  0.00     0.166 A 
ATOM     29  O   UNL A   1      29.485  29.053  21.678  1.00  0.00    -0.454 OA
ATOM     30  O   UNL A   1      29.682  30.549  23.554  1.00  0.00    -0.454 OA
ATOM     31  C   UNL A   1      29.290  30.401  22.179  1.00  0.00     0.468 C 
ENDBRANCH  21  22
ENDBRANCH  10  21
ENDBRANCH   4   7
ENDBRANCH   2   3
ENDBRANCH   1   2
BRANCH   1  32
ATOM     32  C   UNL A   1      39.169  22.881  26.555  1.00  0.00     0.118 C 
BRANCH  32  33
ATOM     33  N   UNL A   1      40.509  23.442  26.303  1.00  0.00    -0.352 N 
ATOM     34  C   UNL A   1      41.104  24.676  26.429  1.00  0.00     0.251 C 
ATOM     35  H   UNL A   1      41.135  22.764  25.959  1.00  0.00     0.163 HD
ATOM     36  O   UNL A   1      42.099  24.875  25.730  1.00  0.00    -0.269 OA
BRANCH  34  37
ATOM     37  C   UNL A   1      40.707  25.755  27.384  1.00  0.00     0.039 A 
ATOM     38  C   UNL A   1      41.530  26.898  27.451  1.00  0.00     0.014 A 
ATOM     39  C   UNL A   1      39.724  25.599  28.360  1.00  0.00     0.014 A 
ATOM     40  C   UNL A   1      41.383  27.853  28.473  1.00  0.00     0.010 A 
ATOM     41  C   UNL A   1      39.558  26.572  29.371  1.00  0.00     0.010 A 
ATOM     42  C   UNL A   1      40.395  27.701  29.454  1.00  0.00    -0.014 A 
BRANCH  42  43
ATOM     43  C   UNL A   1      40.259  28.698  30.565  1.00  0.00     0.031 A 
ATOM     44  C   UNL A   1      39.228  29.802  30.504  1.00  0.00     0.074 A 
ATOM     45  C   UNL A   1      41.070  28.633  31.642  1.00  0.00     0.049 A 
ATOM     46  N   UNL A   1      39.006  30.782  31.349  1.00  0.00    -0.248 NA
ATOM     47  C   UNL A   1      38.339  29.813  29.334  1.00  0.00     0.031 C 
ATOM     48  C   UNL A   1      42.115  27.632  31.854  1.00  0.00     0.029 A 
ATOM     49  N   UNL A   1      41.146  29.432  32.762  1.00  0.00    -0.354 N 
ATOM     50  C   UNL A   1      37.973  31.537  30.802  1.00  0.00     0.074 A 
ATOM     51  C   UNL A   1      37.630  30.915  29.540  1.00  0.00     0.031 C 
ATOM     52  C   UNL A   1      42.719  27.867  33.029  1.00  0.00     0.029 A 
ATOM     53  C   UNL A   1      42.128  29.052  33.647  1.00  0.00     0.049 A 
ATOM     54  H   UNL A   1      40.552  30.202  32.914  1.00  0.00     0.167 HD
ATOM     55  C   UNL A   1      37.356  32.637  31.304  1.00  0.00     0.037 A 
ATOM     56  C   UNL A   1      42.519  29.595  34.818  1.00  0.00     0.037 A 
ATOM     57  C   UNL A   1      37.655  33.242  32.578  1.00  0.00     0.049 A 
ATOM     58  C   UNL A   1      41.827  30.822  35.347  1.00  0.00     0.074 A 
ATOM     59  C   UNL A   1      37.027  34.314  33.193  1.00  0.00     0.029 A 
ATOM     60  N   UNL A   1      38.664  32.829  33.434  1.00  0.00    -0.354 N 
ATOM     61  N   UNL A   1      40.823  31.491  34.836  1.00  0.00    -0.248 NA
ATOM     62  C   UNL A   1      42.327  31.372  36.619  1.00  0.00     0.031 C 
ATOM     63  C   UNL A   1      37.681  34.575  34.402  1.00  0.00     0.029 A 
ATOM     64  C   UNL A   1      38.693  33.642  34.557  1.00  0.00     0.049 A 
ATOM     65  H   UNL A   1      39.270  32.072  33.269  1.00  0.00     0.167 HD
ATOM     66  C   UNL A   1      40.560  32.524  35.729  1.00  0.00     0.074 A 
ATOM     67  C   UNL A   1      41.497  32.384  36.823  1.00  0.00     0.031 C 
ATOM     68  C   UNL A   1      39.626  33.501  35.644  1.00  0.00     0.037 A 
BRANCH  55  69
ATOM     69  C   UNL A   1      36.280  33.275  30.472  1.00  0.00     0.057 A 
ATOM     70  C   UNL A   1      36.579  34.078  29.364  1.00  0.00     0.134 A 
ATOM     71  C   UNL A   1      34.927  33.029  30.744  1.00  0.00     0.134 A 
ATOM     72  F   UNL A   1      37.854  34.353  29.050  1.00  0.00    -0.206 F 
ATOM     73  C   UNL A   1      35.573  34.632  28.570  1.00  0.00     0.040 A 
ATOM     74  C   UNL A   1      33.912  33.559  29.944  1.00  0.00     0.040 A 
ATOM     75  F   UNL A   1      34.570  32.255  31.780  1.00  0.00    -0.206 F 
ATOM     76  C   UNL A   1      34.234  34.368  28.857  1.00  0.00     0.006 A 
ENDBRANCH  55  69
BRANCH  56  77
ATOM     77  C   UNL A   1      43.629  28.979  35.590  1.00  0.00     0.057 A 
ATOM     78  C   UNL A   1      44.958  29.357  35.366  1.00  0.00     0.134 A 
ATOM     79  C   UNL A   1      43.392  27.984  36.546  1.00  0.00     0.134 A 
ATOM     80  F   UNL A   1      45.250  30.285  34.443  1.00  0.00    -0.206 F 
ATOM     81  C   UNL A   1      46.014  28.758  36.056  1.00  0.00     0.040 A 
ATOM     82  C   UNL A   1      44.436  27.393  37.258  1.00  0.00     0.040 A 
ATOM     83  F   UNL A   1      42.140  27.576  36.801  1.00  0.00    -0.206 F 
ATOM     84  C   UNL A   1      45.752  27.775  37.009  1.00  0.00     0.006 A 
ENDBRANCH  56  77
BRANCH  68  85
ATOM     85  C   UNL A   1      39.558  34.490  36.771  1.00  0.00     0.057 A 
ATOM     86  C   UNL A   1      38.866  34.208  37.955  1.00  0.00     0.134 A 
ATOM     87  C   UNL A   1      40.217  35.723  36.684  1.00  0.00     0.134 A 
ATOM     88  F   UNL A   1      38.202  33.050  38.096  1.00  0.00    -0.206 F 
ATOM     89  C   UNL A   1      38.818  35.125  39.008  1.00  0.00     0.040 A 
ATOM     90  C   UNL A   1      40.193  36.639  37.739  1.00  0.00     0.040 A 
ATOM     91  F   UNL A   1      40.903  36.054  35.581  1.00  0.00    -0.206 F 
ATOM     92  C   UNL A   1      39.488  36.342  38.903  1.00  0.00     0.006 A 
ENDBRANCH  68  85
ENDBRANCH  42  43
ENDBRANCH  34  37
ENDBRANCH  32  33
ENDBRANCH   1  32
TORSDOF 14
ENDMDL
MODEL 2
REMARK VINA RESULT:     -13.2      1.579      4.453
REMARK SMILES COc1ccccc1[C@@H]1C[N@@H+](Cc2cc3c(cc2C)OCO3)C[C@H]1C(=O)NCCCNC(=O)c1ccc(-c2c3nc(c(-c4c(F)cccc4F)c4ccc([nH]4)c(-c4c(F)cccc4F)c4nc(c(-c5c(F)cccc5F)c5ccc2[nH]5)C=C4)C=C3)cc1
REMARK SMILES IDX 29 1 28 2 27 3 25 4 26 5 24 7 9 8 10 9 11 10 23 11 8 13 3 14
REMARK SMILES IDX 4 15 5 16 7 17 6 18 2 19 1 20 12 21 13 22 14 23 18 24 15 25
REMARK SMILES IDX 17 26 19 27 16 28 22 29 20 30 21 31 30 32 31 33 32 34 33 36
REMARK SMILES IDX 34 37 35 38 87 39 36 40 86 41 37 42 38 43 39 44 80 45 40 46
REMARK SMILES IDX 85 47 79 48 81 49 41 50 84 51 78 52 77 53 42 55 68 56 51 57
REMARK SMILES IDX 67 58 52 59 55 60 66 61 82 62 53 63 54 64 65 66 83 67 56 68
REMARK SMILES IDX 43 69 44 70 49 71 45 72 46 73 48 74 50 75 47 76 69 77 70 78
REMARK SMILES IDX 75 79 71 80 72 81 74 82 76 83 73 84 57 85 58 86 63 87 59 88
REMARK SMILES IDX 60 89 62 90 64 91 61 92
REMARK H PARENT 27 6 11 12 31 35 81 54 55 65
REMARK Flexibility Score: inf
ROOT
ATOM      1  C   UNL A   1      39.284  22.210  26.377  1.00  0.00     0.042 C 
ENDROOT
BRANCH   1   2
ATOM      2  C   UNL A   1      38.216  23.206  25.794  1.00  0.00     0.117 C 
BRANCH   2   3
ATOM      3  N   UNL A   1      36.956  22.654  25.226  1.00  0.00    -0.356 N 
ATOM      4  C   UNL A   1      35.801  23.318  24.880  1.00  0.00     0.229 C 
ATOM      5  O   UNL A   1      35.741  23.583  23.665  1.00  0.00    -0.275 OA
ATOM      6  H   UNL A   1      36.948  21.680  25.078  1.00  0.00     0.163 HD
BRANCH   4   7
ATOM      7  C   UNL A   1      34.474  23.527  25.711  1.00  0.00     0.146 C 
ATOM      8  C   UNL A   1      33.337  24.260  24.967  1.00  0.00     0.096 C 
ATOM      9  C   UNL A   1      32.062  23.940  25.768  1.00  0.00     0.272 C 
ATOM     10  N   UNL A   1      32.245  22.595  26.304  1.00  0.00    -0.330 N 
ATOM     11  C   UNL A   1      33.706  22.456  26.519  1.00  0.00     0.276 C 
ATOM     12  H   UNL A   1      31.835  22.409  27.219  1.00  0.00     0.348 HD
BRANCH   8  13
ATOM     13  C   UNL A   1      33.412  25.750  24.671  1.00  0.00     0.004 A 
ATOM     14  C   UNL A   1      33.552  26.321  23.391  1.00  0.00     0.122 A 
ATOM     15  C   UNL A   1      33.867  27.677  23.240  1.00  0.00     0.047 A 
ATOM     16  C   UNL A   1      34.029  28.493  24.356  1.00  0.00     0.004 A 
ATOM     17  C   UNL A   1      33.547  26.607  25.782  1.00  0.00     0.008 A 
ATOM     18  C   UNL A   1      33.863  27.958  25.628  1.00  0.00     0.001 A 
BRANCH  14  19
ATOM     19  O   UNL A   1      33.611  25.564  22.252  1.00  0.00    -0.496 OA
ATOM     20  C   UNL A   1      32.502  25.776  21.386  1.00  0.00     0.278 C 
ENDBRANCH  14  19
ENDBRANCH   8  13
BRANCH  10  21
ATOM     21  C   UNL A   1      31.452  21.586  25.573  1.00  0.00     0.299 C 
BRANCH  21  22
ATOM     22  C   UNL A   1      32.264  20.539  24.836  1.00  0.00     0.013 A 
ATOM     23  C   UNL A   1      32.811  19.414  25.504  1.00  0.00     0.060 A 
ATOM     24  C   UNL A   1      32.305  20.587  23.437  1.00  0.00    -0.038 A 
ATOM     25  C   UNL A   1      33.174  18.309  24.755  1.00  0.00     0.166 A 
ATOM     26  C   UNL A   1      32.497  19.387  22.756  1.00  0.00     0.054 A 
ATOM     27  C   UNL A   1      32.147  21.880  22.690  1.00  0.00     0.045 C 
ATOM     28  C   UNL A   1      32.925  18.272  23.417  1.00  0.00     0.166 A 
ATOM     29  O   UNL A   1      33.718  17.141  25.187  1.00  0.00    -0.454 OA
ATOM     30  O   UNL A   1      33.177  17.071  22.842  1.00  0.00    -0.454 OA
ATOM     31  C   UNL A   1      33.853  16.422  23.934  1.00  0.00     0.468 C 
ENDBRANCH  21  22
ENDBRANCH  10  21
ENDBRANCH   4   7
ENDBRANCH   2   3
ENDBRANCH   1   2
BRANCH   1  32
ATOM     32  C   UNL A   1      40.545  22.711  27.137  1.00  0.00     0.118 C 
BRANCH  32  33
ATOM     33  N   UNL A   1      41.251  23.693  26.294  1.00  0.00    -0.352 N 
ATOM     34  C   UNL A   1      41.204  25.056  26.114  1.00  0.00     0.251 C 
ATOM     35  H   UNL A   1      41.925  23.267  25.716  1.00  0.00     0.163 HD
ATOM     36  O   UNL A   1      41.626  25.477  25.035  1.00  0.00    -0.269 OA
BRANCH  34  37
ATOM     37  C   UNL A   1      40.769  26.067  27.124  1.00  0.00     0.039 A 
ATOM     38  C   UNL A   1      41.494  27.275  27.188  1.00  0.00     0.014 A 
ATOM     39  C   UNL A   1      39.857  25.797  28.143  1.00  0.00     0.014 A 
ATOM     40  C   UNL A   1      41.322  28.182  28.249  1.00  0.00     0.010 A 
ATOM     41  C   UNL A   1      39.664  26.721  29.194  1.00  0.00     0.010 A 
ATOM     42  C   UNL A   1      40.405  27.916  29.274  1.00  0.00    -0.014 A 
BRANCH  42  43
ATOM     43  C   UNL A   1      40.245  28.863  30.425  1.00  0.00     0.031 A 
ATOM     44  C   UNL A   1      39.194  29.950  30.403  1.00  0.00     0.074 A 
ATOM     45  C   UNL A   1      41.051  28.768  31.503  1.00  0.00     0.049 A 
ATOM     46  N   UNL A   1      38.951  30.890  31.287  1.00  0.00    -0.248 NA
ATOM     47  C   UNL A   1      38.312  29.994  29.229  1.00  0.00     0.031 C 
ATOM     48  C   UNL A   1      42.113  27.777  31.679  1.00  0.00     0.029 A 
ATOM     49  N   UNL A   1      41.107  29.520  32.655  1.00  0.00    -0.354 N 
ATOM     50  C   UNL A   1      37.907  31.648  30.765  1.00  0.00     0.074 A 
ATOM     51  C   UNL A   1      37.582  31.074  29.476  1.00  0.00     0.031 C 
ATOM     52  C   UNL A   1      42.706  27.974  32.867  1.00  0.00     0.029 A 
ATOM     53  C   UNL A   1      42.091  29.122  33.530  1.00  0.00     0.049 A 
ATOM     54  H   UNL A   1      40.499  30.273  32.836  1.00  0.00     0.167 HD
ATOM     55  C   UNL A   1      37.268  32.715  31.309  1.00  0.00     0.037 A 
ATOM     56  C   UNL A   1      42.465  29.622  34.725  1.00  0.00     0.037 A 
ATOM     57  C   UNL A   1      37.549  33.272  32.608  1.00  0.00     0.049 A 
ATOM     58  C   UNL A   1      41.749  30.814  35.300  1.00  0.00     0.074 A 
ATOM     59  C   UNL A   1      36.898  34.306  33.263  1.00  0.00     0.029 A 
ATOM     60  N   UNL A   1      38.560  32.842  33.453  1.00  0.00    -0.354 N 
ATOM     61  N   UNL A   1      40.736  31.486  34.811  1.00  0.00    -0.248 NA
ATOM     62  C   UNL A   1      42.231  31.319  36.596  1.00  0.00     0.031 C 
ATOM     63  C   UNL A   1      37.541  34.528  34.486  1.00  0.00     0.029 A 
ATOM     64  C   UNL A   1      38.569  33.608  34.609  1.00  0.00     0.049 A 
ATOM     65  H   UNL A   1      39.180  32.103  33.260  1.00  0.00     0.167 HD
ATOM     66  C   UNL A   1      40.450  32.475  35.745  1.00  0.00     0.074 A 
ATOM     67  C   UNL A   1      41.383  32.306  36.838  1.00  0.00     0.031 C 
ATOM     68  C   UNL A   1      39.498  33.438  35.695  1.00  0.00     0.037 A 
BRANCH  55  69
ATOM     69  C   UNL A   1      36.184  33.368  30.497  1.00  0.00     0.057 A 
ATOM     70  C   UNL A   1      36.475  34.191  29.401  1.00  0.00     0.134 A 
ATOM     71  C   UNL A   1      34.834  33.117  30.775  1.00  0.00     0.134 A 
ATOM     72  F   UNL A   1      37.746  34.472  29.082  1.00  0.00    -0.206 F 
ATOM     73  C   UNL A   1      35.462  34.759  28.626  1.00  0.00     0.040 A 
ATOM     74  C   UNL A   1      33.813  33.661  29.993  1.00  0.00     0.040 A 
ATOM     75  F   UNL A   1      34.486  32.325  31.801  1.00  0.00    -0.206 F 
ATOM     76  C   UNL A   1      34.126  34.489  28.919  1.00  0.00     0.006 A 
ENDBRANCH  55  69
BRANCH  56  77
ATOM     77  C   UNL A   1      43.582  28.994  35.477  1.00  0.00     0.057 A 
ATOM     78  C   UNL A   1      44.908  29.385  35.257  1.00  0.00     0.134 A 
ATOM     79  C   UNL A   1      43.354  27.976  36.411  1.00  0.00     0.134 A 
ATOM     80  F   UNL A   1      45.191  30.335  34.354  1.00  0.00    -0.206 F 
ATOM     81  C   UNL A   1      45.971  28.775  35.927  1.00  0.00     0.040 A 
ATOM     82  C   UNL A   1      44.405  27.375  37.105  1.00  0.00     0.040 A 
ATOM     83  F   UNL A   1      42.106  27.556  36.662  1.00  0.00    -0.206 F 
ATOM     84  C   UNL A   1      45.718  27.770  36.859  1.00  0.00     0.006 A 
ENDBRANCH  56  77
BRANCH  68  85
ATOM     85  C   UNL A   1      39.406  34.378  36.861  1.00  0.00     0.057 A 
ATOM     86  C   UNL A   1      38.726  34.029  38.034  1.00  0.00     0.134 A 
ATOM     87  C   UNL A   1      40.030  35.631  36.823  1.00  0.00     0.134 A 
ATOM     88  F   UNL A   1      38.095  32.849  38.128  1.00  0.00    -0.206 F 
ATOM     89  C   UNL A   1      38.655  34.900  39.123  1.00  0.00     0.040 A 
ATOM     90  C   UNL A   1      39.985  36.503  37.914  1.00  0.00     0.040 A 
ATOM     91  F   UNL A   1      40.703  36.026  35.733  1.00  0.00    -0.206 F 
ATOM     92  C   UNL A   1      39.291  36.139  39.067  1.00  0.00     0.006 A 
ENDBRANCH  68  85
ENDBRANCH  42  43
ENDBRANCH  34  37
ENDBRANCH  32  33
ENDBRANCH   1  32
TORSDOF 14
ENDMDL
MODEL 3
REMARK VINA RESULT:     -13.2      2.677      7.020
REMARK SMILES COc1ccccc1[C@@H]1C[N@@H+](Cc2cc3c(cc2C)OCO3)C[C@H]1C(=O)NCCCNC(=O)c1ccc(-c2c3nc(c(-c4c(F)cccc4F)c4ccc([nH]4)c(-c4c(F)cccc4F)c4nc(c(-c5c(F)cccc5F)c5ccc2[nH]5)C=C4)C=C3)cc1
REMARK SMILES IDX 29 1 28 2 27 3 25 4 26 5 24 7 9 8 10 9 11 10 23 11 8 13 3 14
REMARK SMILES IDX 4 15 5 16 7 17 6 18 2 19 1 20 12 21 13 22 14 23 18 24 15 25
REMARK SMILES IDX 17 26 19 27 16 28 22 29 20 30 21 31 30 32 31 33 32 34 33 36
REMARK SMILES IDX 34 37 35 38 87 39 36 40 86 41 37 42 38 43 39 44 80 45 40 46
REMARK SMILES IDX 85 47 79 48 81 49 41 50 84 51 78 52 77 53 42 55 68 56 51 57
REMARK SMILES IDX 67 58 52 59 55 60 66 61 82 62 53 63 54 64 65 66 83 67 56 68
REMARK SMILES IDX 43 69 44 70 49 71 45 72 46 73 48 74 50 75 47 76 69 77 70 78
REMARK SMILES IDX 75 79 71 80 72 81 74 82 76 83 73 84 57 85 58 86 63 87 59 88
REMARK SMILES IDX 60 89 62 90 64 91 61 92
REMARK H PARENT 27 6 11 12 31 35 81 54 55 65
REMARK Flexibility Score: inf
ROOT
ATOM      1  C   UNL A   1      31.526  29.493  27.068  1.00  0.00     0.042 C 
ENDROOT
BRANCH   1   2
ATOM      2  C   UNL A   1      31.252  27.952  26.920  1.00  0.00     0.117 C 
BRANCH   2   3
ATOM      3  N   UNL A   1      32.393  27.048  26.614  1.00  0.00    -0.356 N 
ATOM      4  C   UNL A   1      33.501  27.288  25.833  1.00  0.00     0.229 C 
ATOM      5  O   UNL A   1      34.495  27.634  26.498  1.00  0.00    -0.275 OA
ATOM      6  H   UNL A   1      32.350  26.155  27.027  1.00  0.00     0.163 HD
BRANCH   4   7
ATOM      7  C   UNL A   1      33.759  26.929  24.317  1.00  0.00     0.146 C 
ATOM      8  C   UNL A   1      33.375  25.490  23.906  1.00  0.00     0.096 C 
ATOM      9  C   UNL A   1      33.277  25.525  22.370  1.00  0.00     0.272 C 
ATOM     10  N   UNL A   1      32.799  26.860  22.024  1.00  0.00    -0.330 N 
ATOM     11  C   UNL A   1      33.332  27.752  23.082  1.00  0.00     0.276 C 
ATOM     12  H   UNL A   1      33.152  27.259  21.154  1.00  0.00     0.348 HD
BRANCH   8  13
ATOM     13  C   UNL A   1      34.195  24.290  24.353  1.00  0.00     0.004 A 
ATOM     14  C   UNL A   1      34.117  23.674  25.617  1.00  0.00     0.122 A 
ATOM     15  C   UNL A   1      35.083  22.746  26.025  1.00  0.00     0.047 A 
ATOM     16  C   UNL A   1      36.131  22.399  25.177  1.00  0.00     0.004 A 
ATOM     17  C   UNL A   1      35.247  23.894  23.502  1.00  0.00     0.008 A 
ATOM     18  C   UNL A   1      36.210  22.969  23.913  1.00  0.00     0.001 A 
BRANCH  14  19
ATOM     19  O   UNL A   1      33.248  24.097  26.587  1.00  0.00    -0.496 OA
ATOM     20  C   UNL A   1      32.020  23.378  26.585  1.00  0.00     0.278 C 
ENDBRANCH  14  19
ENDBRANCH   8  13
BRANCH  10  21
ATOM     21  C   UNL A   1      31.376  26.863  21.627  1.00  0.00     0.299 C 
BRANCH  21  22
ATOM     22  C   UNL A   1      30.501  27.847  22.376  1.00  0.00     0.013 A 
ATOM     23  C   UNL A   1      30.463  29.223  22.033  1.00  0.00     0.060 A 
ATOM     24  C   UNL A   1      29.568  27.349  23.294  1.00  0.00    -0.038 A 
ATOM     25  C   UNL A   1      29.383  29.982  22.447  1.00  0.00     0.166 A 
ATOM     26  C   UNL A   1      28.415  28.100  23.514  1.00  0.00     0.054 A 
ATOM     27  C   UNL A   1      29.792  26.053  24.018  1.00  0.00     0.045 C 
ATOM     28  C   UNL A   1      28.338  29.396  23.091  1.00  0.00     0.166 A 
ATOM     29  O   UNL A   1      29.154  31.304  22.236  1.00  0.00    -0.454 OA
ATOM     30  O   UNL A   1      27.280  30.221  23.289  1.00  0.00    -0.454 OA
ATOM     31  C   UNL A   1      27.881  31.472  22.911  1.00  0.00     0.468 C 
ENDBRANCH  21  22
ENDBRANCH  10  21
ENDBRANCH   4   7
ENDBRANCH   2   3
ENDBRANCH   1   2
BRANCH   1  32
ATOM     32  C   UNL A   1      31.770  30.406  25.833  1.00  0.00     0.118 C 
BRANCH  32  33
ATOM     33  N   UNL A   1      31.893  31.802  26.289  1.00  0.00    -0.352 N 
ATOM     34  C   UNL A   1      32.655  32.476  27.216  1.00  0.00     0.251 C 
ATOM     35  H   UNL A   1      31.276  32.403  25.811  1.00  0.00     0.163 HD
ATOM     36  O   UNL A   1      32.194  33.543  27.626  1.00  0.00    -0.269 OA
BRANCH  34  37
ATOM     37  C   UNL A   1      34.009  32.078  27.704  1.00  0.00     0.039 A 
ATOM     38  C   UNL A   1      34.205  30.724  28.045  1.00  0.00     0.014 A 
ATOM     39  C   UNL A   1      35.002  32.992  28.058  1.00  0.00     0.014 A 
ATOM     40  C   UNL A   1      35.355  30.296  28.732  1.00  0.00     0.010 A 
ATOM     41  C   UNL A   1      36.170  32.557  28.724  1.00  0.00     0.010 A 
ATOM     42  C   UNL A   1      36.356  31.210  29.087  1.00  0.00    -0.014 A 
BRANCH  42  43
ATOM     43  C   UNL A   1      37.566  30.763  29.852  1.00  0.00     0.031 A 
ATOM     44  C   UNL A   1      38.585  29.836  29.230  1.00  0.00     0.074 A 
ATOM     45  C   UNL A   1      37.760  31.175  31.122  1.00  0.00     0.049 A 
ATOM     46  N   UNL A   1      39.662  29.307  29.762  1.00  0.00    -0.248 NA
ATOM     47  C   UNL A   1      38.357  29.444  27.832  1.00  0.00     0.031 C 
ATOM     48  C   UNL A   1      36.871  32.068  31.865  1.00  0.00     0.029 A 
ATOM     49  N   UNL A   1      38.767  30.891  32.017  1.00  0.00    -0.354 N 
ATOM     50  C   UNL A   1      40.224  28.502  28.775  1.00  0.00     0.074 A 
ATOM     51  C   UNL A   1      39.354  28.594  27.621  1.00  0.00     0.031 C 
ATOM     52  C   UNL A   1      37.374  32.266  33.094  1.00  0.00     0.029 A 
ATOM     53  C   UNL A   1      38.606  31.495  33.242  1.00  0.00     0.049 A 
ATOM     54  H   UNL A   1      39.532  30.311  31.799  1.00  0.00     0.167 HD
ATOM     55  C   UNL A   1      41.363  27.764  28.816  1.00  0.00     0.037 A 
ATOM     56  C   UNL A   1      39.356  31.434  34.362  1.00  0.00     0.037 A 
ATOM     57  C   UNL A   1      42.263  27.697  29.940  1.00  0.00     0.049 A 
ATOM     58  C   UNL A   1      40.607  30.598  34.386  1.00  0.00     0.074 A 
ATOM     59  C   UNL A   1      43.475  27.031  30.036  1.00  0.00     0.029 A 
ATOM     60  N   UNL A   1      42.053  28.316  31.161  1.00  0.00    -0.354 N 
ATOM     61  N   UNL A   1      41.143  29.883  33.428  1.00  0.00    -0.248 NA
ATOM     62  C   UNL A   1      41.358  30.560  35.652  1.00  0.00     0.031 C 
ATOM     63  C   UNL A   1      43.978  27.215  31.328  1.00  0.00     0.029 A 
ATOM     64  C   UNL A   1      43.098  28.025  32.025  1.00  0.00     0.049 A 
ATOM     65  H   UNL A   1      41.277  28.879  31.383  1.00  0.00     0.167 HD
ATOM     66  C   UNL A   1      42.298  29.329  33.967  1.00  0.00     0.074 A 
ATOM     67  C   UNL A   1      42.396  29.804  35.331  1.00  0.00     0.031 C 
ATOM     68  C   UNL A   1      43.193  28.499  33.381  1.00  0.00     0.037 A 
BRANCH  55  69
ATOM     69  C   UNL A   1      41.715  26.955  27.599  1.00  0.00     0.057 A 
ATOM     70  C   UNL A   1      42.461  27.494  26.543  1.00  0.00     0.134 A 
ATOM     71  C   UNL A   1      41.360  25.602  27.514  1.00  0.00     0.134 A 
ATOM     72  F   UNL A   1      42.832  28.782  26.562  1.00  0.00    -0.206 F 
ATOM     73  C   UNL A   1      42.821  26.723  25.435  1.00  0.00     0.040 A 
ATOM     74  C   UNL A   1      41.733  24.816  26.422  1.00  0.00     0.040 A 
ATOM     75  F   UNL A   1      40.659  25.019  28.498  1.00  0.00    -0.206 F 
ATOM     76  C   UNL A   1      42.461  25.378  25.376  1.00  0.00     0.006 A 
ENDBRANCH  55  69
BRANCH  56  77
ATOM     77  C   UNL A   1      38.949  32.195  35.571  1.00  0.00     0.057 A 
ATOM     78  C   UNL A   1      38.172  31.597  36.571  1.00  0.00     0.134 A 
ATOM     79  C   UNL A   1      39.303  33.538  35.744  1.00  0.00     0.134 A 
ATOM     80  F   UNL A   1      37.778  30.321  36.448  1.00  0.00    -0.206 F 
ATOM     81  C   UNL A   1      37.749  32.312  37.693  1.00  0.00     0.040 A 
ATOM     82  C   UNL A   1      38.907  34.257  36.873  1.00  0.00     0.040 A 
ATOM     83  F   UNL A   1      40.042  34.167  34.819  1.00  0.00    -0.206 F 
ATOM     84  C   UNL A   1      38.122  33.646  37.848  1.00  0.00     0.006 A 
ENDBRANCH  56  77
BRANCH  68  85
ATOM     85  C   UNL A   1      44.368  28.059  34.205  1.00  0.00     0.057 A 
ATOM     86  C   UNL A   1      44.340  26.876  34.953  1.00  0.00     0.134 A 
ATOM     87  C   UNL A   1      45.551  28.809  34.226  1.00  0.00     0.134 A 
ATOM     88  F   UNL A   1      43.231  26.119  34.987  1.00  0.00    -0.206 F 
ATOM     89  C   UNL A   1      45.440  26.461  35.706  1.00  0.00     0.040 A 
ATOM     90  C   UNL A   1      46.666  28.394  34.958  1.00  0.00     0.040 A 
ATOM     91  F   UNL A   1      45.648  29.949  33.528  1.00  0.00    -0.206 F 
ATOM     92  C   UNL A   1      46.610  27.218  35.705  1.00  0.00     0.006 A 
ENDBRANCH  68  85
ENDBRANCH  42  43
ENDBRANCH  34  37
ENDBRANCH  32  33
ENDBRANCH   1  32
TORSDOF 14
ENDMDL
