MODEL 1
REMARK VINA RESULT:     -11.9      0.000      0.000
REMARK SMILES Cn1ccc(NS(=O)(=O)c2ccc(C(=O)NCCCNC(=O)c3ccc(-c4c5nc(c(-c6c(F)cccc6F)c6ccc([nH]6)c(-c6c(F)cccc6F)c6nc(c(-c7c(F)cccc7F)c7ccc4[nH]7)C=C6)C=C5)cc3)cc2F)n1
REMARK SMILES IDX 17 1 16 2 14 3 15 4 13 6 10 7 11 8 78 9 12 10 77 11 79 12
REMARK SMILES IDX 7 13 8 14 9 15 6 16 5 18 1 19 2 20 3 21 80 22 4 23 18 24
REMARK SMILES IDX 19 25 20 26 21 27 22 29 23 30 24 31 76 32 25 33 75 34 26 35
REMARK SMILES IDX 27 36 28 37 69 38 29 39 74 40 68 41 70 42 30 43 73 44 67 45
REMARK SMILES IDX 66 46 31 48 57 49 40 50 56 51 41 52 44 53 55 54 71 55 42 56
REMARK SMILES IDX 43 57 54 59 72 60 45 61 32 62 33 63 38 64 34 65 35 66 37 67
REMARK SMILES IDX 39 68 36 69 58 70 59 71 64 72 60 73 61 74 63 75 65 76 62 77
REMARK SMILES IDX 46 78 47 79 52 80 48 81 49 82 51 83 53 84 50 85
REMARK H PARENT 16 5 6 17 20 28 70 47 44 58
REMARK Flexibility Score: inf
ROOT
ATOM      1  C   UNL A   1      31.672  30.599  26.889  1.00  0.00     0.118 C 
ENDROOT
BRANCH   1   2
ATOM      2  N   UNL A   1      32.980  30.283  27.428  1.00  0.00    -0.352 N 
ATOM      3  C   UNL A   1      33.911  29.308  27.190  1.00  0.00     0.251 C 
ATOM      4  O   UNL A   1      34.862  29.275  27.977  1.00  0.00    -0.269 OA
ATOM      5  H   UNL A   1      33.264  30.915  28.128  1.00  0.00     0.163 HD
BRANCH   3   6
ATOM      6  C   UNL A   1      33.898  28.339  26.051  1.00  0.00     0.042 A 
ATOM      7  C   UNL A   1      33.401  26.822  23.723  1.00  0.00     0.123 A 
ATOM      8  C   UNL A   1      33.860  28.132  23.603  1.00  0.00     0.026 A 
ATOM      9  C   UNL A   1      33.365  26.237  24.981  1.00  0.00     0.144 A 
ATOM     10  C   UNL A   1      34.065  28.890  24.764  1.00  0.00     0.015 A 
ATOM     11  C   UNL A   1      33.635  26.976  26.132  1.00  0.00     0.054 A 
ATOM     12  F   UNL A   1      33.050  24.943  25.128  1.00  0.00    -0.205 F 
BRANCH   7  13
ATOM     13  S   UNL A   1      32.697  25.893  22.398  1.00  0.00     0.266 S 
ATOM     14  O   UNL A   1      32.135  24.679  22.949  1.00  0.00    -0.201 OA
ATOM     15  O   UNL A   1      33.710  25.841  21.373  1.00  0.00    -0.201 OA
BRANCH  13  16
ATOM     16  N   UNL A   1      31.450  26.747  21.699  1.00  0.00    -0.262 N 
ATOM     17  H   UNL A   1      31.371  26.664  20.722  1.00  0.00     0.182 HD
BRANCH  16  18
ATOM     18  C   UNL A   1      30.510  27.555  22.310  1.00  0.00     0.161 A 
ATOM     19  C   UNL A   1      28.238  30.147  22.011  1.00  0.00     0.173 C 
ATOM     20  N   UNL A   1      29.050  29.062  22.512  1.00  0.00    -0.274 N 
ATOM     21  C   UNL A   1      28.679  28.114  23.419  1.00  0.00     0.110 A 
ATOM     22  N   UNL A   1      30.226  28.792  21.919  1.00  0.00    -0.155 NA
ATOM     23  C   UNL A   1      29.619  27.116  23.310  1.00  0.00     0.069 A 
ENDBRANCH  16  18
ENDBRANCH  13  16
ENDBRANCH   7  13
ENDBRANCH   3   6
ENDBRANCH   1   2
BRANCH   1  24
ATOM     24  C   UNL A   1      31.433  32.105  26.856  1.00  0.00     0.042 C 
BRANCH  24  25
ATOM     25  C   UNL A   1      32.739  32.901  26.910  1.00  0.00     0.118 C 
BRANCH  25  26
ATOM     26  N   UNL A   1      32.567  34.164  27.620  1.00  0.00    -0.352 N 
ATOM     27  C   UNL A   1      33.157  34.611  28.775  1.00  0.00     0.251 C 
ATOM     28  H   UNL A   1      31.930  34.791  27.208  1.00  0.00     0.163 HD
ATOM     29  O   UNL A   1      32.692  35.583  29.362  1.00  0.00    -0.269 OA
BRANCH  27  30
ATOM     30  C   UNL A   1      34.354  33.933  29.311  1.00  0.00     0.039 A 
ATOM     31  C   UNL A   1      35.619  34.404  28.949  1.00  0.00     0.014 A 
ATOM     32  C   UNL A   1      34.229  32.799  30.120  1.00  0.00     0.014 A 
ATOM     33  C   UNL A   1      36.762  33.774  29.445  1.00  0.00     0.010 A 
ATOM     34  C   UNL A   1      35.366  32.204  30.656  1.00  0.00     0.010 A 
ATOM     35  C   UNL A   1      36.641  32.684  30.323  1.00  0.00    -0.014 A 
BRANCH  35  36
ATOM     36  C   UNL A   1      37.835  32.034  30.915  1.00  0.00     0.031 A 
ATOM     37  C   UNL A   1      38.560  30.957  30.161  1.00  0.00     0.074 A 
ATOM     38  C   UNL A   1      38.218  32.365  32.164  1.00  0.00     0.049 A 
ATOM     39  N   UNL A   1      39.545  30.192  30.557  1.00  0.00    -0.248 NA
ATOM     40  C   UNL A   1      38.102  30.688  28.788  1.00  0.00     0.031 C 
ATOM     41  C   UNL A   1      37.574  33.376  33.004  1.00  0.00     0.029 A 
ATOM     42  N   UNL A   1      39.230  31.873  32.948  1.00  0.00    -0.354 N 
ATOM     43  C   UNL A   1      39.813  29.342  29.493  1.00  0.00     0.074 A 
ATOM     44  C   UNL A   1      38.864  29.659  28.447  1.00  0.00     0.031 C 
ATOM     45  C   UNL A   1      38.218  33.442  34.180  1.00  0.00     0.029 A 
ATOM     46  C   UNL A   1      39.292  32.451  34.192  1.00  0.00     0.049 A 
ATOM     47  H   UNL A   1      39.853  31.172  32.648  1.00  0.00     0.167 HD
ATOM     48  C   UNL A   1      40.774  28.393  29.395  1.00  0.00     0.037 A 
ATOM     49  C   UNL A   1      40.112  32.203  35.229  1.00  0.00     0.037 A 
ATOM     50  C   UNL A   1      41.735  28.104  30.426  1.00  0.00     0.049 A 
ATOM     51  C   UNL A   1      41.164  31.140  35.098  1.00  0.00     0.074 A 
ATOM     52  C   UNL A   1      42.782  27.199  30.397  1.00  0.00     0.029 A 
ATOM     53  N   UNL A   1      41.767  28.718  31.668  1.00  0.00    -0.354 N 
ATOM     54  N   UNL A   1      41.427  30.365  34.075  1.00  0.00    -0.248 NA
ATOM     55  C   UNL A   1      42.030  30.913  36.265  1.00  0.00     0.031 C 
ATOM     56  C   UNL A   1      43.429  27.243  31.635  1.00  0.00     0.029 A 
ATOM     57  C   UNL A   1      42.808  28.201  32.421  1.00  0.00     0.049 A 
ATOM     58  H   UNL A   1      41.144  29.418  31.970  1.00  0.00     0.167 HD
ATOM     59  C   UNL A   1      42.498  29.572  34.464  1.00  0.00     0.074 A 
ATOM     60  C   UNL A   1      42.843  29.965  35.816  1.00  0.00     0.031 C 
ATOM     61  C   UNL A   1      43.138  28.607  33.763  1.00  0.00     0.037 A 
BRANCH  48  62
ATOM     62  C   UNL A   1      40.845  27.604  28.122  1.00  0.00     0.057 A 
ATOM     63  C   UNL A   1      40.196  26.368  28.010  1.00  0.00     0.134 A 
ATOM     64  C   UNL A   1      41.604  28.039  27.030  1.00  0.00     0.134 A 
ATOM     65  F   UNL A   1      39.458  25.890  29.023  1.00  0.00    -0.206 F 
ATOM     66  C   UNL A   1      40.308  25.588  26.857  1.00  0.00     0.040 A 
ATOM     67  C   UNL A   1      41.705  27.279  25.863  1.00  0.00     0.040 A 
ATOM     68  F   UNL A   1      42.241  29.219  27.071  1.00  0.00    -0.206 F 
ATOM     69  C   UNL A   1      41.062  26.045  25.778  1.00  0.00     0.006 A 
ENDBRANCH  48  62
BRANCH  49  70
ATOM     70  C   UNL A   1      39.979  32.999  36.473  1.00  0.00     0.057 A 
ATOM     71  C   UNL A   1      39.039  32.673  37.457  1.00  0.00     0.134 A 
ATOM     72  C   UNL A   1      40.771  34.133  36.686  1.00  0.00     0.134 A 
ATOM     73  F   UNL A   1      38.246  31.603  37.307  1.00  0.00    -0.206 F 
ATOM     74  C   UNL A   1      38.881  33.455  38.602  1.00  0.00     0.040 A 
ATOM     75  C   UNL A   1      40.637  34.913  37.834  1.00  0.00     0.040 A 
ATOM     76  F   UNL A   1      41.699  34.485  35.784  1.00  0.00    -0.206 F 
ATOM     77  C   UNL A   1      39.683  34.579  38.794  1.00  0.00     0.006 A 
ENDBRANCH  49  70
BRANCH  61  78
ATOM     78  C   UNL A   1      44.287  27.914  34.428  1.00  0.00     0.057 A 
ATOM     79  C   UNL A   1      45.589  28.416  34.308  1.00  0.00     0.134 A 
ATOM     80  C   UNL A   1      44.117  26.705  35.113  1.00  0.00     0.134 A 
ATOM     81  F   UNL A   1      45.818  29.565  33.654  1.00  0.00    -0.206 F 
ATOM     82  C   UNL A   1      46.685  27.731  34.833  1.00  0.00     0.040 A 
ATOM     83  C   UNL A   1      45.202  26.021  35.659  1.00  0.00     0.040 A 
ATOM     84  F   UNL A   1      42.892  26.181  35.270  1.00  0.00    -0.206 F 
ATOM     85  C   UNL A   1      46.492  26.528  35.511  1.00  0.00     0.006 A 
ENDBRANCH  61  78
ENDBRANCH  35  36
ENDBRANCH  27  30
ENDBRANCH  25  26
ENDBRANCH  24  25
ENDBRANCH   1  24
TORSDOF 13
ENDMDL
MODEL 2
REMARK VINA RESULT:     -11.8      4.741      7.799
REMARK SMILES Cn1ccc(NS(=O)(=O)c2ccc(C(=O)NCCCNC(=O)c3ccc(-c4c5nc(c(-c6c(F)cccc6F)c6ccc([nH]6)c(-c6c(F)cccc6F)c6nc(c(-c7c(F)cccc7F)c7ccc4[nH]7)C=C6)C=C5)cc3)cc2F)n1
REMARK SMILES IDX 17 1 16 2 14 3 15 4 13 6 10 7 11 8 78 9 12 10 77 11 79 12
REMARK SMILES IDX 7 13 8 14 9 15 6 16 5 18 1 19 2 20 3 21 80 22 4 23 18 24
REMARK SMILES IDX 19 25 20 26 21 27 22 29 23 30 24 31 76 32 25 33 75 34 26 35
REMARK SMILES IDX 27 36 28 37 69 38 29 39 74 40 68 41 70 42 30 43 73 44 67 45
REMARK SMILES IDX 66 46 31 48 57 49 40 50 56 51 41 52 44 53 55 54 71 55 42 56
REMARK SMILES IDX 43 57 54 59 72 60 45 61 32 62 33 63 38 64 34 65 35 66 37 67
REMARK SMILES IDX 39 68 36 69 58 70 59 71 64 72 60 73 61 74 63 75 65 76 62 77
REMARK SMILES IDX 46 78 47 79 52 80 48 81 49 82 51 83 53 84 50 85
REMARK H PARENT 16 5 6 17 20 28 70 47 44 58
REMARK Flexibility Score: inf
ROOT
ATOM      1  C   UNL A   1      35.117  35.211  32.716  1.00  0.00     0.118 C 
ENDROOT
BRANCH   1   2
ATOM      2  N   UNL A   1      35.241  34.853  34.115  1.00  0.00    -0.352 N 
ATOM      3  C   UNL A   1      35.943  33.906  34.810  1.00  0.00     0.251 C 
ATOM      4  O   UNL A   1      35.665  33.808  36.009  1.00  0.00    -0.269 OA
ATOM      5  H   UNL A   1      34.693  35.424  34.702  1.00  0.00     0.163 HD
BRANCH   3   6
ATOM      6  C   UNL A   1      37.030  33.038  34.260  1.00  0.00     0.042 A 
ATOM      7  C   UNL A   1      38.828  30.980  33.553  1.00  0.00     0.123 A 
ATOM      8  C   UNL A   1      37.507  30.917  33.114  1.00  0.00     0.026 A 
ATOM      9  C   UNL A   1      39.272  32.136  34.179  1.00  0.00     0.144 A 
ATOM     10  C   UNL A   1      36.612  31.923  33.504  1.00  0.00     0.015 A 
ATOM     11  C   UNL A   1      38.392  33.167  34.506  1.00  0.00     0.054 A 
ATOM     12  F   UNL A   1      40.563  32.287  34.505  1.00  0.00    -0.205 F 
BRANCH   7  13
ATOM     13  S   UNL A   1      39.949  29.618  33.519  1.00  0.00     0.266 S 
ATOM     14  O   UNL A   1      40.960  29.893  32.522  1.00  0.00    -0.201 OA
ATOM     15  O   UNL A   1      39.127  28.435  33.433  1.00  0.00    -0.201 OA
BRANCH  13  16
ATOM     16  N   UNL A   1      40.722  29.475  34.987  1.00  0.00    -0.262 N 
ATOM     17  H   UNL A   1      40.708  30.278  35.556  1.00  0.00     0.182 HD
BRANCH  16  18
ATOM     18  C   UNL A   1      41.377  28.378  35.513  1.00  0.00     0.161 A 
ATOM     19  C   UNL A   1      41.189  25.472  37.380  1.00  0.00     0.173 C 
ATOM     20  N   UNL A   1      41.650  26.572  36.564  1.00  0.00    -0.274 N 
ATOM     21  C   UNL A   1      42.570  26.516  35.559  1.00  0.00     0.110 A 
ATOM     22  N   UNL A   1      41.003  27.749  36.621  1.00  0.00    -0.155 NA
ATOM     23  C   UNL A   1      42.415  27.687  34.856  1.00  0.00     0.069 A 
ENDBRANCH  16  18
ENDBRANCH  13  16
ENDBRANCH   7  13
ENDBRANCH   3   6
ENDBRANCH   1   2
BRANCH   1  24
ATOM     24  C   UNL A   1      33.658  35.219  32.271  1.00  0.00     0.042 C 
BRANCH  24  25
ATOM     25  C   UNL A   1      33.449  36.014  30.981  1.00  0.00     0.118 C 
BRANCH  25  26
ATOM     26  N   UNL A   1      32.751  35.225  29.972  1.00  0.00    -0.352 N 
ATOM     27  C   UNL A   1      33.242  34.315  29.072  1.00  0.00     0.251 C 
ATOM     28  H   UNL A   1      31.778  35.369  29.931  1.00  0.00     0.163 HD
ATOM     29  O   UNL A   1      32.548  33.951  28.128  1.00  0.00    -0.269 OA
BRANCH  27  30
ATOM     30  C   UNL A   1      34.602  33.764  29.237  1.00  0.00     0.039 A 
ATOM     31  C   UNL A   1      35.649  34.307  28.486  1.00  0.00     0.014 A 
ATOM     32  C   UNL A   1      34.833  32.678  30.087  1.00  0.00     0.014 A 
ATOM     33  C   UNL A   1      36.941  33.797  28.629  1.00  0.00     0.010 A 
ATOM     34  C   UNL A   1      36.129  32.205  30.268  1.00  0.00     0.010 A 
ATOM     35  C   UNL A   1      37.193  32.759  29.541  1.00  0.00    -0.014 A 
BRANCH  35  36
ATOM     36  C   UNL A   1      38.565  32.240  29.761  1.00  0.00     0.031 A 
ATOM     37  C   UNL A   1      38.945  30.877  29.259  1.00  0.00     0.074 A 
ATOM     38  C   UNL A   1      39.442  32.970  30.477  1.00  0.00     0.049 A 
ATOM     39  N   UNL A   1      40.050  30.204  29.456  1.00  0.00    -0.248 NA
ATOM     40  C   UNL A   1      37.942  30.166  28.451  1.00  0.00     0.031 C 
ATOM     41  C   UNL A   1      39.177  34.296  31.038  1.00  0.00     0.029 A 
ATOM     42  N   UNL A   1      40.726  32.691  30.868  1.00  0.00    -0.354 N 
ATOM     43  C   UNL A   1      39.869  28.987  28.812  1.00  0.00     0.074 A 
ATOM     44  C   UNL A   1      38.536  28.998  28.250  1.00  0.00     0.031 C 
ATOM     45  C   UNL A   1      40.272  34.722  31.687  1.00  0.00     0.029 A 
ATOM     46  C   UNL A   1      41.299  33.686  31.622  1.00  0.00     0.049 A 
ATOM     47  H   UNL A   1      41.194  31.858  30.631  1.00  0.00     0.167 HD
ATOM     48  C   UNL A   1      40.744  27.961  28.690  1.00  0.00     0.037 A 
ATOM     49  C   UNL A   1      42.509  33.751  32.206  1.00  0.00     0.037 A 
ATOM     50  C   UNL A   1      42.080  27.969  29.223  1.00  0.00     0.049 A 
ATOM     51  C   UNL A   1      43.459  32.596  32.063  1.00  0.00     0.074 A 
ATOM     52  C   UNL A   1      43.060  26.999  29.103  1.00  0.00     0.029 A 
ATOM     53  N   UNL A   1      42.624  28.999  29.975  1.00  0.00    -0.354 N 
ATOM     54  N   UNL A   1      43.288  31.465  31.425  1.00  0.00    -0.248 NA
ATOM     55  C   UNL A   1      44.766  32.724  32.723  1.00  0.00     0.031 C 
ATOM     56  C   UNL A   1      44.187  27.428  29.809  1.00  0.00     0.029 A 
ATOM     57  C   UNL A   1      43.922  28.682  30.339  1.00  0.00     0.049 A 
ATOM     58  H   UNL A   1      42.157  29.832  30.214  1.00  0.00     0.167 HD
ATOM     59  C   UNL A   1      44.468  30.753  31.589  1.00  0.00     0.074 A 
ATOM     60  C   UNL A   1      45.353  31.583  32.381  1.00  0.00     0.031 C 
ATOM     61  C   UNL A   1      44.789  29.522  31.123  1.00  0.00     0.037 A 
BRANCH  48  62
ATOM     62  C   UNL A   1      40.291  26.746  27.938  1.00  0.00     0.057 A 
ATOM     63  C   UNL A   1      39.471  25.790  28.552  1.00  0.00     0.134 A 
ATOM     64  C   UNL A   1      40.715  26.492  26.629  1.00  0.00     0.134 A 
ATOM     65  F   UNL A   1      39.036  25.969  29.808  1.00  0.00    -0.206 F 
ATOM     66  C   UNL A   1      39.096  24.619  27.889  1.00  0.00     0.040 A 
ATOM     67  C   UNL A   1      40.327  25.336  25.948  1.00  0.00     0.040 A 
ATOM     68  F   UNL A   1      41.492  27.374  25.983  1.00  0.00    -0.206 F 
ATOM     69  C   UNL A   1      39.522  24.392  26.582  1.00  0.00     0.006 A 
ENDBRANCH  48  62
BRANCH  49  70
ATOM     70  C   UNL A   1      42.895  34.969  32.958  1.00  0.00     0.057 A 
ATOM     71  C   UNL A   1      43.402  36.102  32.312  1.00  0.00     0.134 A 
ATOM     72  C   UNL A   1      42.796  35.010  34.353  1.00  0.00     0.134 A 
ATOM     73  F   UNL A   1      43.528  36.120  30.977  1.00  0.00    -0.206 F 
ATOM     74  C   UNL A   1      43.814  37.227  33.028  1.00  0.00     0.040 A 
ATOM     75  C   UNL A   1      43.185  36.134  35.081  1.00  0.00     0.040 A 
ATOM     76  F   UNL A   1      42.302  33.959  35.025  1.00  0.00    -0.206 F 
ATOM     77  C   UNL A   1      43.704  37.246  34.418  1.00  0.00     0.006 A 
ENDBRANCH  49  70
BRANCH  61  78
ATOM     78  C   UNL A   1      46.155  28.997  31.439  1.00  0.00     0.057 A 
ATOM     79  C   UNL A   1      47.222  29.211  30.556  1.00  0.00     0.134 A 
ATOM     80  C   UNL A   1      46.395  28.209  32.570  1.00  0.00     0.134 A 
ATOM     81  F   UNL A   1      47.053  29.950  29.449  1.00  0.00    -0.206 F 
ATOM     82  C   UNL A   1      48.477  28.644  30.780  1.00  0.00     0.040 A 
ATOM     83  C   UNL A   1      47.649  27.652  32.815  1.00  0.00     0.040 A 
ATOM     84  F   UNL A   1      45.414  27.979  33.456  1.00  0.00    -0.206 F 
ATOM     85  C   UNL A   1      48.693  27.861  31.914  1.00  0.00     0.006 A 
ENDBRANCH  61  78
ENDBRANCH  35  36
ENDBRANCH  27  30
ENDBRANCH  25  26
ENDBRANCH  24  25
ENDBRANCH   1  24
TORSDOF 13
ENDMDL
MODEL 3
REMARK VINA RESULT:     -11.8      5.299      9.971
REMARK SMILES Cn1ccc(NS(=O)(=O)c2ccc(C(=O)NCCCNC(=O)c3ccc(-c4c5nc(c(-c6c(F)cccc6F)c6ccc([nH]6)c(-c6c(F)cccc6F)c6nc(c(-c7c(F)cccc7F)c7ccc4[nH]7)C=C6)C=C5)cc3)cc2F)n1
REMARK SMILES IDX 17 1 16 2 14 3 15 4 13 6 10 7 11 8 78 9 12 10 77 11 79 12
REMARK SMILES IDX 7 13 8 14 9 15 6 16 5 18 1 19 2 20 3 21 80 22 4 23 18 24
REMARK SMILES IDX 19 25 20 26 21 27 22 29 23 30 24 31 76 32 25 33 75 34 26 35
REMARK SMILES IDX 27 36 28 37 69 38 29 39 74 40 68 41 70 42 30 43 73 44 67 45
REMARK SMILES IDX 66 46 31 48 57 49 40 50 56 51 41 52 44 53 55 54 71 55 42 56
REMARK SMILES IDX 43 57 54 59 72 60 45 61 32 62 33 63 38 64 34 65 35 66 37 67
REMARK SMILES IDX 39 68 36 69 58 70 59 71 64 72 60 73 61 74 63 75 65 76 62 77
REMARK SMILES IDX 46 78 47 79 52 80 48 81 49 82 51 83 53 84 50 85
REMARK H PARENT 16 5 6 17 20 28 70 47 44 58
REMARK Flexibility Score: inf
ROOT
ATOM      1  C   UNL A   1      36.843  20.599  24.951  1.00  0.00     0.118 C 
ENDROOT
BRANCH   1   2
ATOM      2  N   UNL A   1      37.121  21.663  24.007  1.00  0.00    -0.352 N 
ATOM      3  C   UNL A   1      36.406  22.715  23.500  1.00  0.00     0.251 C 
ATOM      4  O   UNL A   1      36.945  23.330  22.575  1.00  0.00    -0.269 OA
ATOM      5  H   UNL A   1      38.036  21.618  23.645  1.00  0.00     0.163 HD
BRANCH   3   6
ATOM      6  C   UNL A   1      35.082  23.199  24.000  1.00  0.00     0.042 A 
ATOM      7  C   UNL A   1      32.662  23.701  25.362  1.00  0.00     0.123 A 
ATOM      8  C   UNL A   1      33.871  24.025  25.972  1.00  0.00     0.026 A 
ATOM      9  C   UNL A   1      32.667  23.301  24.033  1.00  0.00     0.144 A 
ATOM     10  C   UNL A   1      35.069  23.735  25.305  1.00  0.00     0.015 A 
ATOM     11  C   UNL A   1      33.861  23.078  23.348  1.00  0.00     0.054 A 
ATOM     12  F   UNL A   1      31.519  23.100  23.372  1.00  0.00    -0.205 F 
BRANCH   7  13
ATOM     13  S   UNL A   1      31.118  23.600  26.212  1.00  0.00     0.266 S 
ATOM     14  O   UNL A   1      31.365  23.826  27.619  1.00  0.00    -0.201 OA
ATOM     15  O   UNL A   1      30.498  22.381  25.755  1.00  0.00    -0.201 OA
BRANCH  13  16
ATOM     16  N   UNL A   1      30.095  24.804  25.686  1.00  0.00    -0.262 N 
ATOM     17  H   UNL A   1      29.141  24.671  25.888  1.00  0.00     0.182 HD
BRANCH  16  18
ATOM     18  C   UNL A   1      30.408  25.964  25.004  1.00  0.00     0.161 A 
ATOM     19  C   UNL A   1      29.386  28.444  22.819  1.00  0.00     0.173 C 
ATOM     20  N   UNL A   1      30.147  27.628  23.736  1.00  0.00    -0.274 N 
ATOM     21  C   UNL A   1      31.027  28.063  24.683  1.00  0.00     0.110 A 
ATOM     22  N   UNL A   1      29.858  26.319  23.849  1.00  0.00    -0.155 NA
ATOM     23  C   UNL A   1      31.218  26.994  25.526  1.00  0.00     0.069 A 
ENDBRANCH  16  18
ENDBRANCH  13  16
ENDBRANCH   7  13
ENDBRANCH   3   6
ENDBRANCH   1   2
BRANCH   1  24
ATOM     24  C   UNL A   1      37.983  19.587  25.001  1.00  0.00     0.042 C 
BRANCH  24  25
ATOM     25  C   UNL A   1      39.077  19.993  25.991  1.00  0.00     0.118 C 
BRANCH  25  26
ATOM     26  N   UNL A   1      40.179  19.037  25.993  1.00  0.00    -0.352 N 
ATOM     27  C   UNL A   1      41.533  19.255  26.023  1.00  0.00     0.251 C 
ATOM     28  H   UNL A   1      39.910  18.090  25.967  1.00  0.00     0.163 HD
ATOM     29  O   UNL A   1      42.306  18.343  25.750  1.00  0.00    -0.269 OA
BRANCH  27  30
ATOM     30  C   UNL A   1      42.064  20.583  26.391  1.00  0.00     0.039 A 
ATOM     31  C   UNL A   1      42.442  21.466  25.376  1.00  0.00     0.014 A 
ATOM     32  C   UNL A   1      42.244  20.933  27.733  1.00  0.00     0.014 A 
ATOM     33  C   UNL A   1      42.948  22.725  25.705  1.00  0.00     0.010 A 
ATOM     34  C   UNL A   1      42.698  22.206  28.060  1.00  0.00     0.010 A 
ATOM     35  C   UNL A   1      43.055  23.112  27.051  1.00  0.00    -0.014 A 
BRANCH  35  36
ATOM     36  C   UNL A   1      43.529  24.465  27.430  1.00  0.00     0.031 A 
ATOM     37  C   UNL A   1      42.548  25.512  27.871  1.00  0.00     0.074 A 
ATOM     38  C   UNL A   1      44.836  24.768  27.303  1.00  0.00     0.049 A 
ATOM     39  N   UNL A   1      42.753  26.779  28.127  1.00  0.00    -0.248 NA
ATOM     40  C   UNL A   1      41.148  25.085  28.023  1.00  0.00     0.031 C 
ATOM     41  C   UNL A   1      45.878  23.842  26.858  1.00  0.00     0.029 A 
ATOM     42  N   UNL A   1      45.505  25.945  27.522  1.00  0.00    -0.354 N 
ATOM     43  C   UNL A   1      41.508  27.303  28.451  1.00  0.00     0.074 A 
ATOM     44  C   UNL A   1      40.548  26.228  28.325  1.00  0.00     0.031 C 
ATOM     45  C   UNL A   1      47.059  24.482  26.853  1.00  0.00     0.029 A 
ATOM     46  C   UNL A   1      46.851  25.870  27.255  1.00  0.00     0.049 A 
ATOM     47  H   UNL A   1      45.064  26.766  27.841  1.00  0.00     0.167 HD
ATOM     48  C   UNL A   1      41.200  28.565  28.834  1.00  0.00     0.037 A 
ATOM     49  C   UNL A   1      47.805  26.816  27.315  1.00  0.00     0.037 A 
ATOM     50  C   UNL A   1      42.163  29.623  28.988  1.00  0.00     0.049 A 
ATOM     51  C   UNL A   1      47.436  28.210  27.734  1.00  0.00     0.074 A 
ATOM     52  C   UNL A   1      41.955  30.919  29.426  1.00  0.00     0.029 A 
ATOM     53  N   UNL A   1      43.517  29.503  28.714  1.00  0.00    -0.354 N 
ATOM     54  N   UNL A   1      46.262  28.685  28.068  1.00  0.00    -0.248 NA
ATOM     55  C   UNL A   1      48.522  29.201  27.779  1.00  0.00     0.031 C 
ATOM     56  C   UNL A   1      43.178  31.594  29.385  1.00  0.00     0.029 A 
ATOM     57  C   UNL A   1      44.154  30.708  28.959  1.00  0.00     0.049 A 
ATOM     58  H   UNL A   1      43.959  28.683  28.395  1.00  0.00     0.167 HD
ATOM     59  C   UNL A   1      46.467  30.021  28.382  1.00  0.00     0.074 A 
ATOM     60  C   UNL A   1      47.881  30.282  28.206  1.00  0.00     0.031 C 
ATOM     61  C   UNL A   1      45.563  30.947  28.782  1.00  0.00     0.037 A 
BRANCH  48  62
ATOM     62  C   UNL A   1      39.762  28.872  29.126  1.00  0.00     0.057 A 
ATOM     63  C   UNL A   1      39.247  28.719  30.420  1.00  0.00     0.134 A 
ATOM     64  C   UNL A   1      38.874  29.259  28.116  1.00  0.00     0.134 A 
ATOM     65  F   UNL A   1      40.044  28.344  31.432  1.00  0.00    -0.206 F 
ATOM     66  C   UNL A   1      37.895  28.934  30.696  1.00  0.00     0.040 A 
ATOM     67  C   UNL A   1      37.524  29.499  28.384  1.00  0.00     0.040 A 
ATOM     68  F   UNL A   1      39.307  29.432  26.859  1.00  0.00    -0.206 F 
ATOM     69  C   UNL A   1      37.030  29.328  29.676  1.00  0.00     0.006 A 
ENDBRANCH  48  62
BRANCH  49  70
ATOM     70  C   UNL A   1      49.208  26.461  26.990  1.00  0.00     0.057 A 
ATOM     71  C   UNL A   1      49.713  26.576  25.691  1.00  0.00     0.134 A 
ATOM     72  C   UNL A   1      50.065  25.959  27.976  1.00  0.00     0.134 A 
ATOM     73  F   UNL A   1      48.937  27.043  24.702  1.00  0.00    -0.206 F 
ATOM     74  C   UNL A   1      51.018  26.191  25.378  1.00  0.00     0.040 A 
ATOM     75  C   UNL A   1      51.377  25.588  27.683  1.00  0.00     0.040 A 
ATOM     76  F   UNL A   1      49.641  25.841  29.242  1.00  0.00    -0.206 F 
ATOM     77  C   UNL A   1      51.855  25.696  26.377  1.00  0.00     0.006 A 
ENDBRANCH  49  70
BRANCH  61  78
ATOM     78  C   UNL A   1      46.069  32.327  29.074  1.00  0.00     0.057 A 
ATOM     79  C   UNL A   1      46.176  33.278  28.051  1.00  0.00     0.134 A 
ATOM     80  C   UNL A   1      46.530  32.684  30.346  1.00  0.00     0.134 A 
ATOM     81  F   UNL A   1      45.760  32.991  26.808  1.00  0.00    -0.206 F 
ATOM     82  C   UNL A   1      46.740  34.533  28.280  1.00  0.00     0.040 A 
ATOM     83  C   UNL A   1      47.078  33.943  30.592  1.00  0.00     0.040 A 
ATOM     84  F   UNL A   1      46.443  31.819  31.367  1.00  0.00    -0.206 F 
ATOM     85  C   UNL A   1      47.193  34.868  29.556  1.00  0.00     0.006 A 
ENDBRANCH  61  78
ENDBRANCH  35  36
ENDBRANCH  27  30
ENDBRANCH  25  26
ENDBRANCH  24  25
ENDBRANCH   1  24
TORSDOF 13
ENDMDL
