MODEL 1
REMARK VINA RESULT:     -11.1      0.000      0.000
REMARK SMILES CCOc1cccc(OCC)c1-c1ccc([C@@H](C)C(=O)NCCCNC(=O)c2ccc(-c3c4nc(c(-c5c(F)cccc5F)c5ccc([nH]5)c(-c5c(F)cccc5F)c5nc(c(-c6c(F)cccc6F)c6ccc3[nH]6)C=C5)C=C4)cc2)cc1F
REMARK SMILES IDX 22 1 21 2 19 3 20 4 17 6 18 7 16 8 13 9 14 10 83 11 15 12
REMARK SMILES IDX 82 13 84 14 12 15 4 16 5 17 6 18 8 19 7 20 3 21 2 22 1 23
REMARK SMILES IDX 9 24 10 25 11 26 23 27 24 28 25 29 26 30 27 32 28 33 29 34
REMARK SMILES IDX 81 35 30 36 80 37 31 38 32 39 33 40 74 41 34 42 79 43 73 44
REMARK SMILES IDX 75 45 35 46 78 47 72 48 71 49 36 51 62 52 45 53 61 54 46 55
REMARK SMILES IDX 49 56 60 57 76 58 47 59 48 60 59 62 77 63 50 64 37 65 38 66
REMARK SMILES IDX 43 67 39 68 40 69 42 70 44 71 41 72 63 73 64 74 69 75 65 76
REMARK SMILES IDX 66 77 68 78 70 79 67 80 51 81 52 82 57 83 53 84 54 85 56 86
REMARK SMILES IDX 58 87 55 88
REMARK H PARENT 21 5 25 31 75 50 49 61
REMARK Flexibility Score: inf
ROOT
ATOM      1  C   UNL A   1      37.079  19.921  24.537  1.00  0.00     0.117 C 
ENDROOT
BRANCH   1   2
ATOM      2  N   UNL A   1      36.141  20.477  25.500  1.00  0.00    -0.356 N 
ATOM      3  C   UNL A   1      35.791  21.743  25.863  1.00  0.00     0.227 C 
ATOM      4  O   UNL A   1      34.972  21.814  26.791  1.00  0.00    -0.274 OA
ATOM      5  H   UNL A   1      35.652  19.786  26.003  1.00  0.00     0.163 HD
BRANCH   3   6
ATOM      6  C   UNL A   1      36.335  23.047  25.235  1.00  0.00     0.105 C 
ATOM      7  C   UNL A   1      37.383  23.780  26.065  1.00  0.00     0.023 C 
BRANCH   6   8
ATOM      8  C   UNL A   1      35.244  23.950  24.686  1.00  0.00    -0.033 A 
ATOM      9  C   UNL A   1      32.976  25.481  23.896  1.00  0.00     0.025 A 
ATOM     10  C   UNL A   1      33.636  25.712  25.102  1.00  0.00     0.012 A 
ATOM     11  C   UNL A   1      33.496  24.471  23.074  1.00  0.00     0.131 A 
ATOM     12  C   UNL A   1      34.813  25.048  25.418  1.00  0.00     0.005 A 
ATOM     13  C   UNL A   1      34.586  23.685  23.478  1.00  0.00     0.044 A 
ATOM     14  F   UNL A   1      32.919  24.193  21.895  1.00  0.00    -0.206 F 
BRANCH   9  15
ATOM     15  C   UNL A   1      31.721  26.203  23.624  1.00  0.00     0.069 A 
ATOM     16  C   UNL A   1      30.522  25.625  24.132  1.00  0.00     0.130 A 
ATOM     17  C   UNL A   1      29.277  26.251  24.022  1.00  0.00     0.047 A 
ATOM     18  C   UNL A   1      29.195  27.495  23.422  1.00  0.00     0.008 A 
ATOM     19  C   UNL A   1      31.616  27.467  22.998  1.00  0.00     0.130 A 
ATOM     20  C   UNL A   1      30.350  28.085  22.911  1.00  0.00     0.047 A 
BRANCH  16  21
ATOM     21  O   UNL A   1      30.559  24.363  24.679  1.00  0.00    -0.493 OA
BRANCH  21  22
ATOM     22  C   UNL A   1      30.400  24.357  26.101  1.00  0.00     0.226 C 
ATOM     23  C   UNL A   1      31.372  23.349  26.692  1.00  0.00     0.049 C 
ENDBRANCH  21  22
ENDBRANCH  16  21
BRANCH  19  24
ATOM     24  O   UNL A   1      32.544  28.260  22.378  1.00  0.00    -0.493 OA
BRANCH  24  25
ATOM     25  C   UNL A   1      33.624  28.912  23.024  1.00  0.00     0.226 C 
ATOM     26  C   UNL A   1      33.233  29.307  24.443  1.00  0.00     0.049 C 
ENDBRANCH  24  25
ENDBRANCH  19  24
ENDBRANCH   9  15
ENDBRANCH   6   8
ENDBRANCH   3   6
ENDBRANCH   1   2
BRANCH   1  27
ATOM     27  C   UNL A   1      38.199  19.119  25.211  1.00  0.00     0.042 C 
BRANCH  27  28
ATOM     28  C   UNL A   1      39.346  19.940  25.779  1.00  0.00     0.118 C 
BRANCH  28  29
ATOM     29  N   UNL A   1      40.585  19.181  25.851  1.00  0.00    -0.352 N 
ATOM     30  C   UNL A   1      41.872  19.573  26.105  1.00  0.00     0.251 C 
ATOM     31  H   UNL A   1      40.479  18.216  25.690  1.00  0.00     0.163 HD
ATOM     32  O   UNL A   1      42.774  18.752  25.916  1.00  0.00    -0.269 OA
BRANCH  30  33
ATOM     33  C   UNL A   1      42.225  20.933  26.587  1.00  0.00     0.039 A 
ATOM     34  C   UNL A   1      42.179  21.175  27.968  1.00  0.00     0.014 A 
ATOM     35  C   UNL A   1      42.503  21.998  25.725  1.00  0.00     0.014 A 
ATOM     36  C   UNL A   1      42.425  22.455  28.475  1.00  0.00     0.010 A 
ATOM     37  C   UNL A   1      42.834  23.256  26.237  1.00  0.00     0.010 A 
ATOM     38  C   UNL A   1      42.769  23.508  27.614  1.00  0.00    -0.014 A 
BRANCH  38  39
ATOM     39  C   UNL A   1      43.006  24.879  28.140  1.00  0.00     0.031 A 
ATOM     40  C   UNL A   1      44.398  25.323  28.509  1.00  0.00     0.074 A 
ATOM     41  C   UNL A   1      41.970  25.721  28.318  1.00  0.00     0.049 A 
ATOM     42  N   UNL A   1      44.801  26.469  28.998  1.00  0.00    -0.248 NA
ATOM     43  C   UNL A   1      45.478  24.339  28.329  1.00  0.00     0.031 C 
ATOM     44  C   UNL A   1      40.566  25.402  28.054  1.00  0.00     0.029 A 
ATOM     45  N   UNL A   1      41.937  27.017  28.769  1.00  0.00    -0.354 N 
ATOM     46  C   UNL A   1      46.168  26.335  29.207  1.00  0.00     0.074 A 
ATOM     47  C   UNL A   1      46.519  24.981  28.837  1.00  0.00     0.031 C 
ATOM     48  C   UNL A   1      39.812  26.480  28.324  1.00  0.00     0.029 A 
ATOM     49  C   UNL A   1      40.674  27.557  28.804  1.00  0.00     0.049 A 
ATOM     50  H   UNL A   1      42.743  27.514  29.040  1.00  0.00     0.167 HD
ATOM     51  C   UNL A   1      47.058  27.259  29.644  1.00  0.00     0.037 A 
ATOM     52  C   UNL A   1      40.256  28.781  29.177  1.00  0.00     0.037 A 
ATOM     53  C   UNL A   1      46.719  28.619  29.971  1.00  0.00     0.049 A 
ATOM     54  C   UNL A   1      41.266  29.804  29.618  1.00  0.00     0.074 A 
ATOM     55  C   UNL A   1      47.561  29.651  30.348  1.00  0.00     0.029 A 
ATOM     56  N   UNL A   1      45.433  29.137  29.958  1.00  0.00    -0.354 N 
ATOM     57  N   UNL A   1      42.566  29.684  29.736  1.00  0.00    -0.248 NA
ATOM     58  C   UNL A   1      40.751  31.137  29.961  1.00  0.00     0.031 C 
ATOM     59  C   UNL A   1      46.778  30.784  30.598  1.00  0.00     0.029 A 
ATOM     60  C   UNL A   1      45.455  30.468  30.336  1.00  0.00     0.049 A 
ATOM     61  H   UNL A   1      44.623  28.632  29.714  1.00  0.00     0.167 HD
ATOM     62  C   UNL A   1      43.027  30.927  30.146  1.00  0.00     0.074 A 
ATOM     63  C   UNL A   1      41.869  31.794  30.239  1.00  0.00     0.031 C 
ATOM     64  C   UNL A   1      44.295  31.319  30.422  1.00  0.00     0.037 A 
BRANCH  51  65
ATOM     65  C   UNL A   1      48.489  26.827  29.790  1.00  0.00     0.057 A 
ATOM     66  C   UNL A   1      49.435  27.045  28.779  1.00  0.00     0.134 A 
ATOM     67  C   UNL A   1      48.933  26.208  30.965  1.00  0.00     0.134 A 
ATOM     68  F   UNL A   1      49.074  27.622  27.622  1.00  0.00    -0.206 F 
ATOM     69  C   UNL A   1      50.762  26.635  28.920  1.00  0.00     0.040 A 
ATOM     70  C   UNL A   1      50.263  25.818  31.129  1.00  0.00     0.040 A 
ATOM     71  F   UNL A   1      48.081  25.976  31.976  1.00  0.00    -0.206 F 
ATOM     72  C   UNL A   1      51.181  26.024  30.100  1.00  0.00     0.006 A 
ENDBRANCH  51  65
BRANCH  52  73
ATOM     73  C   UNL A   1      38.812  29.119  29.113  1.00  0.00     0.057 A 
ATOM     74  C   UNL A   1      38.219  29.535  27.916  1.00  0.00     0.134 A 
ATOM     75  C   UNL A   1      37.991  29.025  30.244  1.00  0.00     0.134 A 
ATOM     76  F   UNL A   1      38.960  29.661  26.806  1.00  0.00    -0.206 F 
ATOM     77  C   UNL A   1      36.864  29.862  27.847  1.00  0.00     0.040 A 
ATOM     78  C   UNL A   1      36.630  29.326  30.183  1.00  0.00     0.040 A 
ATOM     79  F   UNL A   1      38.498  28.623  31.418  1.00  0.00    -0.206 F 
ATOM     80  C   UNL A   1      36.064  29.752  28.983  1.00  0.00     0.006 A 
ENDBRANCH  52  73
BRANCH  64  81
ATOM     81  C   UNL A   1      44.499  32.749  30.822  1.00  0.00     0.057 A 
ATOM     82  C   UNL A   1      44.482  33.149  32.165  1.00  0.00     0.134 A 
ATOM     83  C   UNL A   1      44.745  33.732  29.856  1.00  0.00     0.134 A 
ATOM     84  F   UNL A   1      44.239  32.257  33.136  1.00  0.00    -0.206 F 
ATOM     85  C   UNL A   1      44.677  34.482  32.529  1.00  0.00     0.040 A 
ATOM     86  C   UNL A   1      44.966  35.065  30.210  1.00  0.00     0.040 A 
ATOM     87  F   UNL A   1      44.783  33.413  28.553  1.00  0.00    -0.206 F 
ATOM     88  C   UNL A   1      44.926  35.443  31.550  1.00  0.00     0.006 A 
ENDBRANCH  64  81
ENDBRANCH  38  39
ENDBRANCH  30  33
ENDBRANCH  28  29
ENDBRANCH  27  28
ENDBRANCH   1  27
TORSDOF 16
ENDMDL
MODEL 2
REMARK VINA RESULT:     -11.0      4.318      8.067
REMARK SMILES CCOc1cccc(OCC)c1-c1ccc([C@@H](C)C(=O)NCCCNC(=O)c2ccc(-c3c4nc(c(-c5c(F)cccc5F)c5ccc([nH]5)c(-c5c(F)cccc5F)c5nc(c(-c6c(F)cccc6F)c6ccc3[nH]6)C=C5)C=C4)cc2)cc1F
REMARK SMILES IDX 22 1 21 2 19 3 20 4 17 6 18 7 16 8 13 9 14 10 83 11 15 12
REMARK SMILES IDX 82 13 84 14 12 15 4 16 5 17 6 18 8 19 7 20 3 21 2 22 1 23
REMARK SMILES IDX 9 24 10 25 11 26 23 27 24 28 25 29 26 30 27 32 28 33 29 34
REMARK SMILES IDX 81 35 30 36 80 37 31 38 32 39 33 40 74 41 34 42 79 43 73 44
REMARK SMILES IDX 75 45 35 46 78 47 72 48 71 49 36 51 62 52 45 53 61 54 46 55
REMARK SMILES IDX 49 56 60 57 76 58 47 59 48 60 59 62 77 63 50 64 37 65 38 66
REMARK SMILES IDX 43 67 39 68 40 69 42 70 44 71 41 72 63 73 64 74 69 75 65 76
REMARK SMILES IDX 66 77 68 78 70 79 67 80 51 81 52 82 57 83 53 84 54 85 56 86
REMARK SMILES IDX 58 87 55 88
REMARK H PARENT 21 5 25 31 75 50 49 61
REMARK Flexibility Score: inf
ROOT
ATOM      1  C   UNL A   1      37.923  22.883  25.790  1.00  0.00     0.117 C 
ENDROOT
BRANCH   1   2
ATOM      2  N   UNL A   1      36.909  21.972  25.283  1.00  0.00    -0.356 N 
ATOM      3  C   UNL A   1      35.606  21.726  25.603  1.00  0.00     0.227 C 
ATOM      4  O   UNL A   1      35.075  20.806  24.964  1.00  0.00    -0.274 OA
ATOM      5  H   UNL A   1      37.235  21.406  24.546  1.00  0.00     0.163 HD
BRANCH   3   6
ATOM      6  C   UNL A   1      34.783  22.474  26.677  1.00  0.00     0.105 C 
ATOM      7  C   UNL A   1      33.999  21.581  27.633  1.00  0.00     0.023 C 
BRANCH   6   8
ATOM      8  C   UNL A   1      33.974  23.631  26.115  1.00  0.00    -0.033 A 
ATOM      9  C   UNL A   1      32.638  26.009  25.298  1.00  0.00     0.025 A 
ATOM     10  C   UNL A   1      33.963  25.752  24.949  1.00  0.00     0.012 A 
ATOM     11  C   UNL A   1      31.982  25.028  26.054  1.00  0.00     0.131 A 
ATOM     12  C   UNL A   1      34.563  24.536  25.243  1.00  0.00     0.005 A 
ATOM     13  C   UNL A   1      32.648  23.875  26.496  1.00  0.00     0.044 A 
ATOM     14  F   UNL A   1      30.704  25.201  26.425  1.00  0.00    -0.206 F 
BRANCH   9  15
ATOM     15  C   UNL A   1      32.062  27.326  24.974  1.00  0.00     0.069 A 
ATOM     16  C   UNL A   1      31.209  27.393  23.834  1.00  0.00     0.130 A 
ATOM     17  C   UNL A   1      30.529  28.558  23.468  1.00  0.00     0.047 A 
ATOM     18  C   UNL A   1      30.659  29.692  24.251  1.00  0.00     0.008 A 
ATOM     19  C   UNL A   1      32.197  28.499  25.751  1.00  0.00     0.130 A 
ATOM     20  C   UNL A   1      31.489  29.659  25.369  1.00  0.00     0.047 A 
BRANCH  16  21
ATOM     21  O   UNL A   1      31.106  26.302  23.002  1.00  0.00    -0.493 OA
BRANCH  21  22
ATOM     22  C   UNL A   1      31.575  26.555  21.674  1.00  0.00     0.226 C 
ATOM     23  C   UNL A   1      32.876  25.796  21.468  1.00  0.00     0.049 C 
ENDBRANCH  21  22
ENDBRANCH  16  21
BRANCH  19  24
ATOM     24  O   UNL A   1      32.954  28.781  26.857  1.00  0.00    -0.493 OA
BRANCH  24  25
ATOM     25  C   UNL A   1      34.366  28.901  26.871  1.00  0.00     0.226 C 
ATOM     26  C   UNL A   1      34.787  30.143  27.645  1.00  0.00     0.049 C 
ENDBRANCH  24  25
ENDBRANCH  19  24
ENDBRANCH   9  15
ENDBRANCH   6   8
ENDBRANCH   3   6
ENDBRANCH   1   2
BRANCH   1  27
ATOM     27  C   UNL A   1      39.185  22.147  26.258  1.00  0.00     0.042 C 
BRANCH  27  28
ATOM     28  C   UNL A   1      40.214  23.000  26.982  1.00  0.00     0.118 C 
BRANCH  28  29
ATOM     29  N   UNL A   1      41.071  23.730  26.061  1.00  0.00    -0.352 N 
ATOM     30  C   UNL A   1      41.438  25.049  26.017  1.00  0.00     0.251 C 
ATOM     31  H   UNL A   1      41.457  23.178  25.343  1.00  0.00     0.163 HD
ATOM     32  O   UNL A   1      42.027  25.451  25.011  1.00  0.00    -0.269 OA
BRANCH  30  33
ATOM     33  C   UNL A   1      41.154  26.005  27.118  1.00  0.00     0.039 A 
ATOM     34  C   UNL A   1      41.926  27.174  27.191  1.00  0.00     0.014 A 
ATOM     35  C   UNL A   1      40.225  25.746  28.131  1.00  0.00     0.014 A 
ATOM     36  C   UNL A   1      41.756  28.073  28.249  1.00  0.00     0.010 A 
ATOM     37  C   UNL A   1      39.995  26.687  29.139  1.00  0.00     0.010 A 
ATOM     38  C   UNL A   1      40.779  27.845  29.229  1.00  0.00    -0.014 A 
BRANCH  38  39
ATOM     39  C   UNL A   1      40.609  28.781  30.372  1.00  0.00     0.031 A 
ATOM     40  C   UNL A   1      39.525  29.828  30.345  1.00  0.00     0.074 A 
ATOM     41  C   UNL A   1      41.446  28.716  31.426  1.00  0.00     0.049 A 
ATOM     42  N   UNL A   1      39.233  30.742  31.236  1.00  0.00    -0.248 NA
ATOM     43  C   UNL A   1      38.673  29.871  29.145  1.00  0.00     0.031 C 
ATOM     44  C   UNL A   1      42.570  27.789  31.556  1.00  0.00     0.029 A 
ATOM     45  N   UNL A   1      41.482  29.449  32.586  1.00  0.00    -0.354 N 
ATOM     46  C   UNL A   1      38.186  31.480  30.695  1.00  0.00     0.074 A 
ATOM     47  C   UNL A   1      37.926  30.938  29.380  1.00  0.00     0.031 C 
ATOM     48  C   UNL A   1      43.172  27.992  32.740  1.00  0.00     0.029 A 
ATOM     49  C   UNL A   1      42.493  29.079  33.440  1.00  0.00     0.049 A 
ATOM     50  H   UNL A   1      40.844  30.171  32.787  1.00  0.00     0.167 HD
ATOM     51  C   UNL A   1      37.487  32.499  31.251  1.00  0.00     0.037 A 
ATOM     52  C   UNL A   1      42.833  29.557  34.651  1.00  0.00     0.037 A 
ATOM     53  C   UNL A   1      37.715  33.012  32.576  1.00  0.00     0.049 A 
ATOM     54  C   UNL A   1      42.017  30.660  35.266  1.00  0.00     0.074 A 
ATOM     55  C   UNL A   1      37.011  33.989  33.257  1.00  0.00     0.029 A 
ATOM     56  N   UNL A   1      38.725  32.583  33.424  1.00  0.00    -0.354 N 
ATOM     57  N   UNL A   1      40.982  31.295  34.773  1.00  0.00    -0.248 NA
ATOM     58  C   UNL A   1      42.408  31.101  36.612  1.00  0.00     0.031 C 
ATOM     59  C   UNL A   1      37.618  34.178  34.504  1.00  0.00     0.029 A 
ATOM     60  C   UNL A   1      38.674  33.288  34.615  1.00  0.00     0.049 A 
ATOM     61  H   UNL A   1      39.382  31.881  33.212  1.00  0.00     0.167 HD
ATOM     62  C   UNL A   1      40.584  32.194  35.753  1.00  0.00     0.074 A 
ATOM     63  C   UNL A   1      41.479  32.010  36.878  1.00  0.00     0.031 C 
ATOM     64  C   UNL A   1      39.570  33.093  35.726  1.00  0.00     0.037 A 
BRANCH  51  65
ATOM     65  C   UNL A   1      36.405  33.128  30.421  1.00  0.00     0.057 A 
ATOM     66  C   UNL A   1      36.693  34.020  29.380  1.00  0.00     0.134 A 
ATOM     67  C   UNL A   1      35.058  32.816  30.647  1.00  0.00     0.134 A 
ATOM     68  F   UNL A   1      37.962  34.371  29.117  1.00  0.00    -0.206 F 
ATOM     69  C   UNL A   1      35.681  34.605  28.617  1.00  0.00     0.040 A 
ATOM     70  C   UNL A   1      34.038  33.373  29.874  1.00  0.00     0.040 A 
ATOM     71  F   UNL A   1      34.711  31.963  31.623  1.00  0.00    -0.206 F 
ATOM     72  C   UNL A   1      34.349  34.277  28.859  1.00  0.00     0.006 A 
ENDBRANCH  51  65
BRANCH  52  73
ATOM     73  C   UNL A   1      43.983  28.967  35.381  1.00  0.00     0.057 A 
ATOM     74  C   UNL A   1      45.271  29.499  35.252  1.00  0.00     0.134 A 
ATOM     75  C   UNL A   1      43.820  27.866  36.231  1.00  0.00     0.134 A 
ATOM     76  F   UNL A   1      45.490  30.543  34.440  1.00  0.00    -0.206 F 
ATOM     77  C   UNL A   1      46.360  28.948  35.929  1.00  0.00     0.040 A 
ATOM     78  C   UNL A   1      44.897  27.319  36.930  1.00  0.00     0.040 A 
ATOM     79  F   UNL A   1      42.609  27.316  36.403  1.00  0.00    -0.206 F 
ATOM     80  C   UNL A   1      46.173  27.857  36.775  1.00  0.00     0.006 A 
ENDBRANCH  52  73
BRANCH  64  81
ATOM     81  C   UNL A   1      39.357  33.923  36.956  1.00  0.00     0.057 A 
ATOM     82  C   UNL A   1      39.895  35.211  37.079  1.00  0.00     0.134 A 
ATOM     83  C   UNL A   1      38.581  33.441  38.018  1.00  0.00     0.134 A 
ATOM     84  F   UNL A   1      40.657  35.725  36.102  1.00  0.00    -0.206 F 
ATOM     85  C   UNL A   1      39.688  35.980  38.226  1.00  0.00     0.040 A 
ATOM     86  C   UNL A   1      38.348  34.210  39.159  1.00  0.00     0.040 A 
ATOM     87  F   UNL A   1      38.031  32.219  37.959  1.00  0.00    -0.206 F 
ATOM     88  C   UNL A   1      38.907  35.482  39.267  1.00  0.00     0.006 A 
ENDBRANCH  64  81
ENDBRANCH  38  39
ENDBRANCH  30  33
ENDBRANCH  28  29
ENDBRANCH  27  28
ENDBRANCH   1  27
TORSDOF 16
ENDMDL
MODEL 3
REMARK VINA RESULT:     -11.0      4.211      9.161
REMARK SMILES CCOc1cccc(OCC)c1-c1ccc([C@@H](C)C(=O)NCCCNC(=O)c2ccc(-c3c4nc(c(-c5c(F)cccc5F)c5ccc([nH]5)c(-c5c(F)cccc5F)c5nc(c(-c6c(F)cccc6F)c6ccc3[nH]6)C=C5)C=C4)cc2)cc1F
REMARK SMILES IDX 22 1 21 2 19 3 20 4 17 6 18 7 16 8 13 9 14 10 83 11 15 12
REMARK SMILES IDX 82 13 84 14 12 15 4 16 5 17 6 18 8 19 7 20 3 21 2 22 1 23
REMARK SMILES IDX 9 24 10 25 11 26 23 27 24 28 25 29 26 30 27 32 28 33 29 34
REMARK SMILES IDX 81 35 30 36 80 37 31 38 32 39 33 40 74 41 34 42 79 43 73 44
REMARK SMILES IDX 75 45 35 46 78 47 72 48 71 49 36 51 62 52 45 53 61 54 46 55
REMARK SMILES IDX 49 56 60 57 76 58 47 59 48 60 59 62 77 63 50 64 37 65 38 66
REMARK SMILES IDX 43 67 39 68 40 69 42 70 44 71 41 72 63 73 64 74 69 75 65 76
REMARK SMILES IDX 66 77 68 78 70 79 67 80 51 81 52 82 57 83 53 84 54 85 56 86
REMARK SMILES IDX 58 87 55 88
REMARK H PARENT 21 5 25 31 75 50 49 61
REMARK Flexibility Score: inf
ROOT
ATOM      1  C   UNL A   1      33.033  29.991  26.880  1.00  0.00     0.117 C 
ENDROOT
BRANCH   1   2
ATOM      2  N   UNL A   1      32.088  29.427  25.929  1.00  0.00    -0.356 N 
ATOM      3  C   UNL A   1      32.213  28.703  24.780  1.00  0.00     0.227 C 
ATOM      4  O   UNL A   1      31.146  28.450  24.202  1.00  0.00    -0.274 OA
ATOM      5  H   UNL A   1      31.150  29.609  26.165  1.00  0.00     0.163 HD
BRANCH   3   6
ATOM      6  C   UNL A   1      33.543  28.211  24.162  1.00  0.00     0.105 C 
ATOM      7  C   UNL A   1      33.836  28.724  22.757  1.00  0.00     0.023 C 
BRANCH   6   8
ATOM      8  C   UNL A   1      33.765  26.718  24.329  1.00  0.00    -0.033 A 
ATOM      9  C   UNL A   1      33.823  23.884  24.603  1.00  0.00     0.025 A 
ATOM     10  C   UNL A   1      33.609  24.499  23.371  1.00  0.00     0.012 A 
ATOM     11  C   UNL A   1      34.032  24.726  25.703  1.00  0.00     0.131 A 
ATOM     12  C   UNL A   1      33.710  25.876  23.227  1.00  0.00     0.005 A 
ATOM     13  C   UNL A   1      33.961  26.122  25.582  1.00  0.00     0.044 A 
ATOM     14  F   UNL A   1      34.249  24.208  26.923  1.00  0.00    -0.206 F 
BRANCH   9  15
ATOM     15  C   UNL A   1      33.685  22.420  24.698  1.00  0.00     0.069 A 
ATOM     16  C   UNL A   1      34.885  21.654  24.639  1.00  0.00     0.130 A 
ATOM     17  C   UNL A   1      34.904  20.266  24.805  1.00  0.00     0.047 A 
ATOM     18  C   UNL A   1      33.720  19.599  25.065  1.00  0.00     0.008 A 
ATOM     19  C   UNL A   1      32.482  21.719  24.947  1.00  0.00     0.130 A 
ATOM     20  C   UNL A   1      32.529  20.319  25.125  1.00  0.00     0.047 A 
BRANCH  16  21
ATOM     21  O   UNL A   1      36.070  22.278  24.322  1.00  0.00    -0.493 OA
BRANCH  21  22
ATOM     22  C   UNL A   1      37.046  22.205  25.365  1.00  0.00     0.226 C 
ATOM     23  C   UNL A   1      37.495  23.617  25.706  1.00  0.00     0.049 C 
ENDBRANCH  21  22
ENDBRANCH  16  21
BRANCH  19  24
ATOM     24  O   UNL A   1      31.179  22.135  25.019  1.00  0.00    -0.493 OA
BRANCH  24  25
ATOM     25  C   UNL A   1      30.522  22.559  26.201  1.00  0.00     0.226 C 
ATOM     26  C   UNL A   1      30.565  24.077  26.318  1.00  0.00     0.049 C 
ENDBRANCH  24  25
ENDBRANCH  19  24
ENDBRANCH   9  15
ENDBRANCH   6   8
ENDBRANCH   3   6
ENDBRANCH   1   2
BRANCH   1  27
ATOM     27  C   UNL A   1      33.136  31.517  26.763  1.00  0.00     0.042 C 
BRANCH  27  28
ATOM     28  C   UNL A   1      31.906  32.295  27.201  1.00  0.00     0.118 C 
BRANCH  28  29
ATOM     29  N   UNL A   1      32.205  33.692  27.471  1.00  0.00    -0.352 N 
ATOM     30  C   UNL A   1      33.215  34.280  28.185  1.00  0.00     0.251 C 
ATOM     31  H   UNL A   1      31.569  34.328  27.069  1.00  0.00     0.163 HD
ATOM     32  O   UNL A   1      33.128  35.488  28.421  1.00  0.00    -0.269 OA
BRANCH  30  33
ATOM     33  C   UNL A   1      34.396  33.531  28.685  1.00  0.00     0.039 A 
ATOM     34  C   UNL A   1      34.217  32.674  29.780  1.00  0.00     0.014 A 
ATOM     35  C   UNL A   1      35.686  33.717  28.177  1.00  0.00     0.014 A 
ATOM     36  C   UNL A   1      35.307  32.002  30.344  1.00  0.00     0.010 A 
ATOM     37  C   UNL A   1      36.759  32.979  28.684  1.00  0.00     0.010 A 
ATOM     38  C   UNL A   1      36.590  32.137  29.792  1.00  0.00    -0.014 A 
BRANCH  38  39
ATOM     39  C   UNL A   1      37.759  31.449  30.400  1.00  0.00     0.031 A 
ATOM     40  C   UNL A   1      38.176  31.760  31.814  1.00  0.00     0.074 A 
ATOM     41  C   UNL A   1      38.471  30.564  29.676  1.00  0.00     0.049 A 
ATOM     42  N   UNL A   1      39.176  31.278  32.510  1.00  0.00    -0.248 NA
ATOM     43  C   UNL A   1      37.380  32.768  32.534  1.00  0.00     0.031 C 
ATOM     44  C   UNL A   1      38.211  30.210  28.280  1.00  0.00     0.029 A 
ATOM     45  N   UNL A   1      39.563  29.803  30.014  1.00  0.00    -0.354 N 
ATOM     46  C   UNL A   1      39.143  31.938  33.732  1.00  0.00     0.074 A 
ATOM     47  C   UNL A   1      38.055  32.890  33.667  1.00  0.00     0.031 C 
ATOM     48  C   UNL A   1      39.103  29.285  27.888  1.00  0.00     0.029 A 
ATOM     49  C   UNL A   1      40.012  28.999  28.994  1.00  0.00     0.049 A 
ATOM     50  H   UNL A   1      39.985  29.831  30.903  1.00  0.00     0.167 HD
ATOM     51  C   UNL A   1      39.929  31.755  34.820  1.00  0.00     0.037 A 
ATOM     52  C   UNL A   1      41.037  28.127  28.955  1.00  0.00     0.037 A 
ATOM     53  C   UNL A   1      40.984  30.779  34.904  1.00  0.00     0.049 A 
ATOM     54  C   UNL A   1      41.869  27.909  30.187  1.00  0.00     0.074 A 
ATOM     55  C   UNL A   1      41.785  30.465  35.988  1.00  0.00     0.029 A 
ATOM     56  N   UNL A   1      41.382  29.957  33.860  1.00  0.00    -0.354 N 
ATOM     57  N   UNL A   1      41.776  28.487  31.360  1.00  0.00    -0.248 NA
ATOM     58  C   UNL A   1      42.939  26.906  30.094  1.00  0.00     0.031 C 
ATOM     59  C   UNL A   1      42.693  29.477  35.588  1.00  0.00     0.029 A 
ATOM     60  C   UNL A   1      42.428  29.148  34.269  1.00  0.00     0.049 A 
ATOM     61  H   UNL A   1      40.980  29.950  32.961  1.00  0.00     0.167 HD
ATOM     62  C   UNL A   1      42.758  27.905  32.150  1.00  0.00     0.074 A 
ATOM     63  C   UNL A   1      43.424  26.915  31.329  1.00  0.00     0.031 C 
ATOM     64  C   UNL A   1      43.080  28.166  33.441  1.00  0.00     0.037 A 
BRANCH  51  65
ATOM     65  C   UNL A   1      39.673  32.631  36.013  1.00  0.00     0.057 A 
ATOM     66  C   UNL A   1      38.742  32.284  37.001  1.00  0.00     0.134 A 
ATOM     67  C   UNL A   1      40.387  33.823  36.192  1.00  0.00     0.134 A 
ATOM     68  F   UNL A   1      38.015  31.161  36.886  1.00  0.00    -0.206 F 
ATOM     69  C   UNL A   1      38.505  33.106  38.104  1.00  0.00     0.040 A 
ATOM     70  C   UNL A   1      40.179  34.641  37.304  1.00  0.00     0.040 A 
ATOM     71  F   UNL A   1      41.300  34.212  35.288  1.00  0.00    -0.206 F 
ATOM     72  C   UNL A   1      39.229  34.286  38.261  1.00  0.00     0.006 A 
ENDBRANCH  51  65
BRANCH  52  73
ATOM     73  C   UNL A   1      41.310  27.366  27.710  1.00  0.00     0.057 A 
ATOM     74  C   UNL A   1      42.163  27.873  26.724  1.00  0.00     0.134 A 
ATOM     75  C   UNL A   1      40.732  26.110  27.482  1.00  0.00     0.134 A 
ATOM     76  F   UNL A   1      42.730  29.078  26.880  1.00  0.00    -0.206 F 
ATOM     77  C   UNL A   1      42.421  27.169  25.547  1.00  0.00     0.040 A 
ATOM     78  C   UNL A   1      41.000  25.385  26.320  1.00  0.00     0.040 A 
ATOM     79  F   UNL A   1      39.913  25.566  28.393  1.00  0.00    -0.206 F 
ATOM     80  C   UNL A   1      41.842  25.917  25.346  1.00  0.00     0.006 A 
ENDBRANCH  52  73
BRANCH  64  81
ATOM     81  C   UNL A   1      44.182  27.351  34.050  1.00  0.00     0.057 A 
ATOM     82  C   UNL A   1      45.513  27.790  34.045  1.00  0.00     0.134 A 
ATOM     83  C   UNL A   1      43.905  26.129  34.674  1.00  0.00     0.134 A 
ATOM     84  F   UNL A   1      45.846  28.946  33.452  1.00  0.00    -0.206 F 
ATOM     85  C   UNL A   1      46.532  27.027  34.619  1.00  0.00     0.040 A 
ATOM     86  C   UNL A   1      44.911  25.369  35.272  1.00  0.00     0.040 A 
ATOM     87  F   UNL A   1      42.650  25.657  34.720  1.00  0.00    -0.206 F 
ATOM     88  C   UNL A   1      46.231  25.816  35.240  1.00  0.00     0.006 A 
ENDBRANCH  64  81
ENDBRANCH  38  39
ENDBRANCH  30  33
ENDBRANCH  28  29
ENDBRANCH  27  28
ENDBRANCH   1  27
TORSDOF 16
ENDMDL
