MODEL 1
REMARK VINA RESULT:     -12.6      0.000      0.000
REMARK SMILES O=C(CCCN1C(=O)C(=O)/C(=C(/[O-])c2ccc(Cl)cc2)[C@@H]1c1ccccc1[N+](=O)[O-])NCCCNC(=O)c1ccc(-c2c3nc(c(-c4c(F)cccc4F)c4ccc([nH]4)c(-c4c(F)cccc4F)c4nc(c(-c5c(F)cccc5F)c5ccc2[nH]5)C=C4)C=C3)cc1
REMARK SMILES IDX 1 1 2 2 31 3 3 5 4 6 5 7 6 8 7 9 21 10 8 11 9 12 11 13 10 14
REMARK SMILES IDX 12 15 13 16 22 17 23 18 27 19 24 20 26 21 25 22 28 23 29 24
REMARK SMILES IDX 30 25 14 26 15 27 20 28 16 29 19 30 17 31 18 32 32 33 33 34
REMARK SMILES IDX 34 35 35 36 36 37 37 39 38 40 39 41 91 42 40 43 90 44 41 45
REMARK SMILES IDX 42 46 43 47 84 48 44 49 89 50 83 51 85 52 45 53 88 54 82 55
REMARK SMILES IDX 81 56 46 58 72 59 55 60 71 61 56 62 59 63 70 64 86 65 57 66
REMARK SMILES IDX 58 67 69 69 87 70 60 71 47 72 48 73 53 74 49 75 50 76 52 77
REMARK SMILES IDX 54 78 51 79 73 80 74 81 79 82 75 83 76 84 78 85 80 86 77 87
REMARK SMILES IDX 61 88 62 89 67 90 63 91 64 92 66 93 68 94 65 95
REMARK H PARENT 31 4 35 38 85 57 59 68
REMARK Flexibility Score: inf
ROOT
ATOM      1  O   UNL A   1      30.080  29.255  22.718  1.00  0.00    -0.275 OA
ATOM      2  C   UNL A   1      30.225  28.638  23.768  1.00  0.00     0.220 C 
ATOM      3  N   UNL A   1      30.775  29.177  24.904  1.00  0.00    -0.356 N 
ATOM      4  H   UNL A   1      30.822  28.604  25.703  1.00  0.00     0.163 HD
ENDROOT
BRANCH   2   5
ATOM      5  C   UNL A   1      29.824  27.173  23.910  1.00  0.00     0.102 C 
BRANCH   5   6
ATOM      6  C   UNL A   1      30.410  26.461  25.137  1.00  0.00     0.031 C 
BRANCH   6   7
ATOM      7  C   UNL A   1      30.594  24.937  25.086  1.00  0.00     0.121 C 
BRANCH   7   8
ATOM      8  N   UNL A   1      31.955  24.388  25.142  1.00  0.00    -0.324 N 
ATOM      9  C   UNL A   1      32.487  23.764  26.257  1.00  0.00     0.295 C 
ATOM     10  C   UNL A   1      32.970  24.598  24.096  1.00  0.00     0.157 C 
ATOM     11  O   UNL A   1      31.947  23.355  27.256  1.00  0.00    -0.265 OA
ATOM     12  C   UNL A   1      33.977  23.619  26.040  1.00  0.00     0.248 C 
ATOM     13  C   UNL A   1      34.192  23.837  24.595  1.00  0.00     0.025 C 
ATOM     14  O   UNL A   1      34.773  23.398  26.921  1.00  0.00    -0.283 OA
ATOM     15  C   UNL A   1      35.242  23.307  23.944  1.00  0.00    -0.092 C 
ATOM     16  O   UNL A   1      35.403  23.401  22.580  1.00  0.00    -0.872 OA
BRANCH  10  17
ATOM     17  C   UNL A   1      33.302  26.033  23.663  1.00  0.00     0.057 A 
ATOM     18  C   UNL A   1      33.797  26.895  24.670  1.00  0.00     0.013 A 
ATOM     19  C   UNL A   1      33.140  26.630  22.393  1.00  0.00     0.275 A 
ATOM     20  C   UNL A   1      34.098  28.243  24.434  1.00  0.00     0.001 A 
ATOM     21  C   UNL A   1      33.483  27.972  22.135  1.00  0.00     0.086 A 
ATOM     22  C   UNL A   1      33.954  28.779  23.162  1.00  0.00     0.007 A 
BRANCH  19  23
ATOM     23  N   UNL A   1      32.551  25.930  21.274  1.00  0.00     0.063 N 
ATOM     24  O   UNL A   1      33.278  25.152  20.641  1.00  0.00    -0.258 OA
ATOM     25  O   UNL A   1      31.361  26.158  21.039  1.00  0.00    -0.258 OA
ENDBRANCH  19  23
ENDBRANCH  10  17
BRANCH  15  26
ATOM     26  C   UNL A   1      36.358  22.612  24.610  1.00  0.00    -0.033 A 
ATOM     27  C   UNL A   1      37.407  23.326  25.208  1.00  0.00     0.009 A 
ATOM     28  C   UNL A   1      36.402  21.211  24.599  1.00  0.00     0.009 A 
ATOM     29  C   UNL A   1      38.500  22.648  25.758  1.00  0.00     0.021 A 
ATOM     30  C   UNL A   1      37.491  20.533  25.154  1.00  0.00     0.021 A 
ATOM     31  C   UNL A   1      38.539  21.255  25.724  1.00  0.00     0.041 A 
ATOM     32  Cl  UNL A   1      39.891  20.420  26.384  1.00  0.00    -0.084 Cl
ENDBRANCH  15  26
ENDBRANCH   7   8
ENDBRANCH   6   7
ENDBRANCH   5   6
ENDBRANCH   2   5
BRANCH   3  33
ATOM     33  C   UNL A   1      31.290  30.525  25.015  1.00  0.00     0.117 C 
BRANCH  33  34
ATOM     34  C   UNL A   1      31.403  30.989  26.470  1.00  0.00     0.042 C 
BRANCH  34  35
ATOM     35  C   UNL A   1      32.635  31.828  26.813  1.00  0.00     0.118 C 
BRANCH  35  36
ATOM     36  N   UNL A   1      32.319  33.177  27.256  1.00  0.00    -0.352 N 
ATOM     37  C   UNL A   1      32.986  33.998  28.133  1.00  0.00     0.251 C 
ATOM     38  H   UNL A   1      31.501  33.561  26.867  1.00  0.00     0.163 HD
ATOM     39  O   UNL A   1      32.554  35.124  28.368  1.00  0.00    -0.269 OA
BRANCH  37  40
ATOM     40  C   UNL A   1      34.198  33.527  28.842  1.00  0.00     0.039 A 
ATOM     41  C   UNL A   1      34.029  32.703  29.959  1.00  0.00     0.014 A 
ATOM     42  C   UNL A   1      35.483  33.904  28.444  1.00  0.00     0.014 A 
ATOM     43  C   UNL A   1      35.145  32.194  30.629  1.00  0.00     0.010 A 
ATOM     44  C   UNL A   1      36.598  33.353  29.082  1.00  0.00     0.010 A 
ATOM     45  C   UNL A   1      36.441  32.482  30.172  1.00  0.00    -0.014 A 
BRANCH  45  46
ATOM     46  C   UNL A   1      37.629  31.845  30.801  1.00  0.00     0.031 A 
ATOM     47  C   UNL A   1      38.411  30.786  30.076  1.00  0.00     0.074 A 
ATOM     48  C   UNL A   1      37.978  32.187  32.058  1.00  0.00     0.049 A 
ATOM     49  N   UNL A   1      39.443  30.092  30.490  1.00  0.00    -0.248 NA
ATOM     50  C   UNL A   1      37.967  30.450  28.715  1.00  0.00     0.031 C 
ATOM     51  C   UNL A   1      37.284  33.174  32.887  1.00  0.00     0.029 A 
ATOM     52  N   UNL A   1      38.995  31.735  32.861  1.00  0.00    -0.354 N 
ATOM     53  C   UNL A   1      39.764  29.232  29.447  1.00  0.00     0.074 A 
ATOM     54  C   UNL A   1      38.794  29.463  28.397  1.00  0.00     0.031 C 
ATOM     55  C   UNL A   1      37.903  33.261  34.077  1.00  0.00     0.029 A 
ATOM     56  C   UNL A   1      39.013  32.313  34.107  1.00  0.00     0.049 A 
ATOM     57  H   UNL A   1      39.650  31.059  32.572  1.00  0.00     0.167 HD
ATOM     58  C   UNL A   1      40.784  28.343  29.364  1.00  0.00     0.037 A 
ATOM     59  C   UNL A   1      39.820  32.096  35.164  1.00  0.00     0.037 A 
ATOM     60  C   UNL A   1      41.756  28.116  30.402  1.00  0.00     0.049 A 
ATOM     61  C   UNL A   1      40.925  31.084  35.056  1.00  0.00     0.074 A 
ATOM     62  C   UNL A   1      42.860  27.279  30.382  1.00  0.00     0.029 A 
ATOM     63  N   UNL A   1      41.738  28.720  31.650  1.00  0.00    -0.354 N 
ATOM     64  N   UNL A   1      41.261  30.332  34.037  1.00  0.00    -0.248 NA
ATOM     65  C   UNL A   1      41.766  30.892  36.247  1.00  0.00     0.031 C 
ATOM     66  C   UNL A   1      43.482  27.344  31.634  1.00  0.00     0.029 A 
ATOM     67  C   UNL A   1      42.794  28.255  32.417  1.00  0.00     0.049 A 
ATOM     68  H   UNL A   1      41.072  29.382  31.947  1.00  0.00     0.167 HD
ATOM     69  C   UNL A   1      42.362  29.595  34.454  1.00  0.00     0.074 A 
ATOM     70  C   UNL A   1      42.648  30.003  35.814  1.00  0.00     0.031 C 
ATOM     71  C   UNL A   1      43.071  28.666  33.770  1.00  0.00     0.037 A 
BRANCH  58  72
ATOM     72  C   UNL A   1      40.899  27.541  28.101  1.00  0.00     0.057 A 
ATOM     73  C   UNL A   1      41.664  27.984  27.014  1.00  0.00     0.134 A 
ATOM     74  C   UNL A   1      40.275  26.293  27.985  1.00  0.00     0.134 A 
ATOM     75  F   UNL A   1      42.282  29.175  27.059  1.00  0.00    -0.206 F 
ATOM     76  C   UNL A   1      41.784  27.227  25.848  1.00  0.00     0.040 A 
ATOM     77  C   UNL A   1      40.406  25.515  26.833  1.00  0.00     0.040 A 
ATOM     78  F   UNL A   1      39.538  25.802  28.993  1.00  0.00    -0.206 F 
ATOM     79  C   UNL A   1      41.158  25.985  25.758  1.00  0.00     0.006 A 
ENDBRANCH  58  72
BRANCH  59  80
ATOM     80  C   UNL A   1      39.619  32.862  36.419  1.00  0.00     0.057 A 
ATOM     81  C   UNL A   1      38.684  32.448  37.375  1.00  0.00     0.134 A 
ATOM     82  C   UNL A   1      40.344  34.028  36.689  1.00  0.00     0.134 A 
ATOM     83  F   UNL A   1      37.942  31.350  37.162  1.00  0.00    -0.206 F 
ATOM     84  C   UNL A   1      38.467  33.173  38.547  1.00  0.00     0.040 A 
ATOM     85  C   UNL A   1      40.154  34.751  37.868  1.00  0.00     0.040 A 
ATOM     86  F   UNL A   1      41.257  34.476  35.813  1.00  0.00    -0.206 F 
ATOM     87  C   UNL A   1      39.207  34.327  38.798  1.00  0.00     0.006 A 
ENDBRANCH  59  80
BRANCH  71  88
ATOM     88  C   UNL A   1      44.242  28.040  34.471  1.00  0.00     0.057 A 
ATOM     89  C   UNL A   1      45.515  28.623  34.444  1.00  0.00     0.134 A 
ATOM     90  C   UNL A   1      44.084  26.860  35.209  1.00  0.00     0.134 A 
ATOM     91  F   UNL A   1      45.735  29.745  33.744  1.00  0.00    -0.206 F 
ATOM     92  C   UNL A   1      46.595  28.043  35.112  1.00  0.00     0.040 A 
ATOM     93  C   UNL A   1      45.151  26.284  35.900  1.00  0.00     0.040 A 
ATOM     94  F   UNL A   1      42.890  26.254  35.279  1.00  0.00    -0.206 F 
ATOM     95  C   UNL A   1      46.414  26.874  35.848  1.00  0.00     0.006 A 
ENDBRANCH  71  88
ENDBRANCH  45  46
ENDBRANCH  37  40
ENDBRANCH  35  36
ENDBRANCH  34  35
ENDBRANCH  33  34
ENDBRANCH   3  33
TORSDOF 16
ENDMDL
MODEL 2
REMARK VINA RESULT:     -12.4      0.403      5.882
REMARK SMILES O=C(CCCN1C(=O)C(=O)/C(=C(/[O-])c2ccc(Cl)cc2)[C@@H]1c1ccccc1[N+](=O)[O-])NCCCNC(=O)c1ccc(-c2c3nc(c(-c4c(F)cccc4F)c4ccc([nH]4)c(-c4c(F)cccc4F)c4nc(c(-c5c(F)cccc5F)c5ccc2[nH]5)C=C4)C=C3)cc1
REMARK SMILES IDX 1 1 2 2 31 3 3 5 4 6 5 7 6 8 7 9 21 10 8 11 9 12 11 13 10 14
REMARK SMILES IDX 12 15 13 16 22 17 23 18 27 19 24 20 26 21 25 22 28 23 29 24
REMARK SMILES IDX 30 25 14 26 15 27 20 28 16 29 19 30 17 31 18 32 32 33 33 34
REMARK SMILES IDX 34 35 35 36 36 37 37 39 38 40 39 41 91 42 40 43 90 44 41 45
REMARK SMILES IDX 42 46 43 47 84 48 44 49 89 50 83 51 85 52 45 53 88 54 82 55
REMARK SMILES IDX 81 56 46 58 72 59 55 60 71 61 56 62 59 63 70 64 86 65 57 66
REMARK SMILES IDX 58 67 69 69 87 70 60 71 47 72 48 73 53 74 49 75 50 76 52 77
REMARK SMILES IDX 54 78 51 79 73 80 74 81 79 82 75 83 76 84 78 85 80 86 77 87
REMARK SMILES IDX 61 88 62 89 67 90 63 91 64 92 66 93 68 94 65 95
REMARK H PARENT 31 4 35 38 85 57 59 68
REMARK Flexibility Score: inf
ROOT
ATOM      1  O   UNL A   1      30.142  29.188  22.687  1.00  0.00    -0.275 OA
ATOM      2  C   UNL A   1      30.229  28.576  23.747  1.00  0.00     0.220 C 
ATOM      3  N   UNL A   1      30.738  29.114  24.903  1.00  0.00    -0.356 N 
ATOM      4  H   UNL A   1      30.738  28.546  25.707  1.00  0.00     0.163 HD
ENDROOT
BRANCH   2   5
ATOM      5  C   UNL A   1      29.793  27.121  23.882  1.00  0.00     0.102 C 
BRANCH   5   6
ATOM      6  C   UNL A   1      30.388  26.378  25.086  1.00  0.00     0.031 C 
BRANCH   6   7
ATOM      7  C   UNL A   1      30.624  24.865  24.975  1.00  0.00     0.121 C 
BRANCH   7   8
ATOM      8  N   UNL A   1      31.999  24.357  25.064  1.00  0.00    -0.324 N 
ATOM      9  C   UNL A   1      32.522  23.749  26.192  1.00  0.00     0.295 C 
ATOM     10  C   UNL A   1      33.032  24.596  24.043  1.00  0.00     0.157 C 
ATOM     11  O   UNL A   1      31.971  23.325  27.178  1.00  0.00    -0.265 OA
ATOM     12  C   UNL A   1      34.020  23.648  26.011  1.00  0.00     0.248 C 
ATOM     13  C   UNL A   1      34.264  23.872  24.571  1.00  0.00     0.025 C 
ATOM     14  O   UNL A   1      34.801  23.451  26.911  1.00  0.00    -0.283 OA
ATOM     15  C   UNL A   1      35.345  23.374  23.946  1.00  0.00    -0.092 C 
ATOM     16  O   UNL A   1      35.535  23.472  22.587  1.00  0.00    -0.872 OA
BRANCH  10  17
ATOM     17  C   UNL A   1      33.332  26.041  23.616  1.00  0.00     0.057 A 
ATOM     18  C   UNL A   1      33.815  26.907  24.626  1.00  0.00     0.013 A 
ATOM     19  C   UNL A   1      33.150  26.642  22.352  1.00  0.00     0.275 A 
ATOM     20  C   UNL A   1      34.087  28.262  24.396  1.00  0.00     0.001 A 
ATOM     21  C   UNL A   1      33.464  27.993  22.100  1.00  0.00     0.086 A 
ATOM     22  C   UNL A   1      33.924  28.803  23.129  1.00  0.00     0.007 A 
BRANCH  19  23
ATOM     23  N   UNL A   1      32.569  25.937  21.231  1.00  0.00     0.063 N 
ATOM     24  O   UNL A   1      33.278  25.102  20.653  1.00  0.00    -0.258 OA
ATOM     25  O   UNL A   1      31.403  26.219  20.941  1.00  0.00    -0.258 OA
ENDBRANCH  19  23
ENDBRANCH  10  17
BRANCH  15  26
ATOM     26  C   UNL A   1      36.464  22.712  24.639  1.00  0.00    -0.033 A 
ATOM     27  C   UNL A   1      37.425  23.453  25.342  1.00  0.00     0.009 A 
ATOM     28  C   UNL A   1      36.603  21.320  24.551  1.00  0.00     0.009 A 
ATOM     29  C   UNL A   1      38.528  22.814  25.918  1.00  0.00     0.021 A 
ATOM     30  C   UNL A   1      37.702  20.681  25.133  1.00  0.00     0.021 A 
ATOM     31  C   UNL A   1      38.664  21.432  25.807  1.00  0.00     0.041 A 
ATOM     32  Cl  UNL A   1      40.028  20.646  26.501  1.00  0.00    -0.084 Cl
ENDBRANCH  15  26
ENDBRANCH   7   8
ENDBRANCH   6   7
ENDBRANCH   5   6
ENDBRANCH   2   5
BRANCH   3  33
ATOM     33  C   UNL A   1      31.274  30.453  25.027  1.00  0.00     0.117 C 
BRANCH  33  34
ATOM     34  C   UNL A   1      31.403  30.896  26.487  1.00  0.00     0.042 C 
BRANCH  34  35
ATOM     35  C   UNL A   1      32.697  31.623  26.856  1.00  0.00     0.118 C 
BRANCH  35  36
ATOM     36  N   UNL A   1      32.498  33.009  27.251  1.00  0.00    -0.352 N 
ATOM     37  C   UNL A   1      33.253  33.811  28.072  1.00  0.00     0.251 C 
ATOM     38  H   UNL A   1      31.698  33.438  26.870  1.00  0.00     0.163 HD
ATOM     39  O   UNL A   1      32.915  34.976  28.271  1.00  0.00    -0.269 OA
BRANCH  37  40
ATOM     40  C   UNL A   1      34.449  33.279  28.763  1.00  0.00     0.039 A 
ATOM     41  C   UNL A   1      34.257  32.517  29.920  1.00  0.00     0.014 A 
ATOM     42  C   UNL A   1      35.745  33.539  28.309  1.00  0.00     0.014 A 
ATOM     43  C   UNL A   1      35.353  31.952  30.577  1.00  0.00     0.010 A 
ATOM     44  C   UNL A   1      36.837  32.931  28.936  1.00  0.00     0.010 A 
ATOM     45  C   UNL A   1      36.651  32.120  30.068  1.00  0.00    -0.014 A 
BRANCH  45  46
ATOM     46  C   UNL A   1      37.809  31.421  30.687  1.00  0.00     0.031 A 
ATOM     47  C   UNL A   1      38.265  31.765  32.078  1.00  0.00     0.074 A 
ATOM     48  C   UNL A   1      38.489  30.503  29.971  1.00  0.00     0.049 A 
ATOM     49  N   UNL A   1      39.281  31.290  32.755  1.00  0.00    -0.248 NA
ATOM     50  C   UNL A   1      37.487  32.785  32.796  1.00  0.00     0.031 C 
ATOM     51  C   UNL A   1      38.176  30.100  28.599  1.00  0.00     0.029 A 
ATOM     52  N   UNL A   1      39.592  29.750  30.294  1.00  0.00    -0.354 N 
ATOM     53  C   UNL A   1      39.273  31.961  33.971  1.00  0.00     0.074 A 
ATOM     54  C   UNL A   1      38.173  32.903  33.924  1.00  0.00     0.031 C 
ATOM     55  C   UNL A   1      39.057  29.168  28.202  1.00  0.00     0.029 A 
ATOM     56  C   UNL A   1      40.018  28.931  29.277  1.00  0.00     0.049 A 
ATOM     57  H   UNL A   1      40.035  29.794  31.172  1.00  0.00     0.167 HD
ATOM     58  C   UNL A   1      40.094  31.796  35.037  1.00  0.00     0.037 A 
ATOM     59  C   UNL A   1      41.070  28.094  29.207  1.00  0.00     0.037 A 
ATOM     60  C   UNL A   1      41.182  30.854  35.092  1.00  0.00     0.049 A 
ATOM     61  C   UNL A   1      41.983  27.951  30.392  1.00  0.00     0.074 A 
ATOM     62  C   UNL A   1      42.029  30.575  36.152  1.00  0.00     0.029 A 
ATOM     63  N   UNL A   1      41.582  30.044  34.039  1.00  0.00    -0.354 N 
ATOM     64  N   UNL A   1      41.917  28.538  31.562  1.00  0.00    -0.248 NA
ATOM     65  C   UNL A   1      43.116  27.025  30.248  1.00  0.00     0.031 C 
ATOM     66  C   UNL A   1      42.968  29.629  35.726  1.00  0.00     0.029 A 
ATOM     67  C   UNL A   1      42.678  29.285  34.416  1.00  0.00     0.049 A 
ATOM     68  H   UNL A   1      41.149  30.013  33.155  1.00  0.00     0.167 HD
ATOM     69  C   UNL A   1      42.983  28.038  32.299  1.00  0.00     0.074 A 
ATOM     70  C   UNL A   1      43.671  27.088  31.450  1.00  0.00     0.031 C 
ATOM     71  C   UNL A   1      43.357  28.341  33.565  1.00  0.00     0.037 A 
BRANCH  58  72
ATOM     72  C   UNL A   1      39.847  32.660  36.239  1.00  0.00     0.057 A 
ATOM     73  C   UNL A   1      40.564  33.845  36.454  1.00  0.00     0.134 A 
ATOM     74  C   UNL A   1      38.854  32.329  37.168  1.00  0.00     0.134 A 
ATOM     75  F   UNL A   1      41.534  34.216  35.604  1.00  0.00    -0.206 F 
ATOM     76  C   UNL A   1      40.317  34.656  37.563  1.00  0.00     0.040 A 
ATOM     77  C   UNL A   1      38.582  33.143  38.269  1.00  0.00     0.040 A 
ATOM     78  F   UNL A   1      38.121  31.215  37.016  1.00  0.00    -0.206 F 
ATOM     79  C   UNL A   1      39.320  34.309  38.471  1.00  0.00     0.006 A 
ENDBRANCH  58  72
BRANCH  59  80
ATOM     80  C   UNL A   1      41.317  27.315  27.968  1.00  0.00     0.057 A 
ATOM     81  C   UNL A   1      42.097  27.838  26.930  1.00  0.00     0.134 A 
ATOM     82  C   UNL A   1      40.772  26.039  27.785  1.00  0.00     0.134 A 
ATOM     83  F   UNL A   1      42.627  29.066  27.037  1.00  0.00    -0.206 F 
ATOM     84  C   UNL A   1      42.314  27.127  25.749  1.00  0.00     0.040 A 
ATOM     85  C   UNL A   1      41.000  25.307  26.619  1.00  0.00     0.040 A 
ATOM     86  F   UNL A   1      40.017  25.481  28.744  1.00  0.00    -0.206 F 
ATOM     87  C   UNL A   1      41.768  25.855  25.593  1.00  0.00     0.006 A 
ENDBRANCH  59  80
BRANCH  71  88
ATOM     88  C   UNL A   1      44.550  27.621  34.121  1.00  0.00     0.057 A 
ATOM     89  C   UNL A   1      44.432  26.379  34.757  1.00  0.00     0.134 A 
ATOM     90  C   UNL A   1      45.836  28.162  33.988  1.00  0.00     0.134 A 
ATOM     91  F   UNL A   1      43.228  25.815  34.930  1.00  0.00    -0.206 F 
ATOM     92  C   UNL A   1      45.549  25.709  35.258  1.00  0.00     0.040 A 
ATOM     93  C   UNL A   1      46.963  27.489  34.463  1.00  0.00     0.040 A 
ATOM     94  F   UNL A   1      46.019  29.345  33.384  1.00  0.00    -0.206 F 
ATOM     95  C   UNL A   1      46.820  26.260  35.106  1.00  0.00     0.006 A 
ENDBRANCH  71  88
ENDBRANCH  45  46
ENDBRANCH  37  40
ENDBRANCH  35  36
ENDBRANCH  34  35
ENDBRANCH  33  34
ENDBRANCH   3  33
TORSDOF 16
ENDMDL
MODEL 3
REMARK VINA RESULT:     -12.4      1.398      6.201
REMARK SMILES O=C(CCCN1C(=O)C(=O)/C(=C(/[O-])c2ccc(Cl)cc2)[C@@H]1c1ccccc1[N+](=O)[O-])NCCCNC(=O)c1ccc(-c2c3nc(c(-c4c(F)cccc4F)c4ccc([nH]4)c(-c4c(F)cccc4F)c4nc(c(-c5c(F)cccc5F)c5ccc2[nH]5)C=C4)C=C3)cc1
REMARK SMILES IDX 1 1 2 2 31 3 3 5 4 6 5 7 6 8 7 9 21 10 8 11 9 12 11 13 10 14
REMARK SMILES IDX 12 15 13 16 22 17 23 18 27 19 24 20 26 21 25 22 28 23 29 24
REMARK SMILES IDX 30 25 14 26 15 27 20 28 16 29 19 30 17 31 18 32 32 33 33 34
REMARK SMILES IDX 34 35 35 36 36 37 37 39 38 40 39 41 91 42 40 43 90 44 41 45
REMARK SMILES IDX 42 46 43 47 84 48 44 49 89 50 83 51 85 52 45 53 88 54 82 55
REMARK SMILES IDX 81 56 46 58 72 59 55 60 71 61 56 62 59 63 70 64 86 65 57 66
REMARK SMILES IDX 58 67 69 69 87 70 60 71 47 72 48 73 53 74 49 75 50 76 52 77
REMARK SMILES IDX 54 78 51 79 73 80 74 81 79 82 75 83 76 84 78 85 80 86 77 87
REMARK SMILES IDX 61 88 62 89 67 90 63 91 64 92 66 93 68 94 65 95
REMARK H PARENT 31 4 35 38 85 57 59 68
REMARK Flexibility Score: inf
ROOT
ATOM      1  O   UNL A   1      29.322  30.120  23.345  1.00  0.00    -0.275 OA
ATOM      2  C   UNL A   1      30.462  29.809  23.674  1.00  0.00     0.220 C 
ATOM      3  N   UNL A   1      31.155  30.405  24.698  1.00  0.00    -0.356 N 
ATOM      4  H   UNL A   1      32.055  30.062  24.898  1.00  0.00     0.163 HD
ENDROOT
BRANCH   2   5
ATOM      5  C   UNL A   1      31.248  28.722  22.947  1.00  0.00     0.102 C 
BRANCH   5   6
ATOM      6  C   UNL A   1      32.773  28.842  23.064  1.00  0.00     0.031 C 
BRANCH   6   7
ATOM      7  C   UNL A   1      33.650  27.773  22.396  1.00  0.00     0.121 C 
BRANCH   7   8
ATOM      8  N   UNL A   1      33.604  26.398  22.912  1.00  0.00    -0.324 N 
ATOM      9  C   UNL A   1      33.152  25.316  22.177  1.00  0.00     0.295 C 
ATOM     10  C   UNL A   1      33.854  26.039  24.317  1.00  0.00     0.157 C 
ATOM     11  O   UNL A   1      32.934  25.210  20.995  1.00  0.00    -0.265 OA
ATOM     12  C   UNL A   1      32.967  24.155  23.129  1.00  0.00     0.248 C 
ATOM     13  C   UNL A   1      33.705  24.524  24.355  1.00  0.00     0.025 C 
ATOM     14  O   UNL A   1      32.313  23.171  22.881  1.00  0.00    -0.283 OA
ATOM     15  C   UNL A   1      34.200  23.597  25.193  1.00  0.00    -0.092 C 
ATOM     16  O   UNL A   1      34.985  23.912  26.279  1.00  0.00    -0.872 OA
BRANCH  10  17
ATOM     17  C   UNL A   1      33.045  26.742  25.417  1.00  0.00     0.057 A 
ATOM     18  C   UNL A   1      33.748  27.681  26.211  1.00  0.00     0.013 A 
ATOM     19  C   UNL A   1      31.694  26.549  25.777  1.00  0.00     0.275 A 
ATOM     20  C   UNL A   1      33.153  28.363  27.281  1.00  0.00     0.001 A 
ATOM     21  C   UNL A   1      31.075  27.265  26.822  1.00  0.00     0.086 A 
ATOM     22  C   UNL A   1      31.812  28.166  27.579  1.00  0.00     0.007 A 
BRANCH  19  23
ATOM     23  N   UNL A   1      30.854  25.557  25.144  1.00  0.00     0.063 N 
ATOM     24  O   UNL A   1      30.331  25.858  24.062  1.00  0.00    -0.258 OA
ATOM     25  O   UNL A   1      30.729  24.478  25.731  1.00  0.00    -0.258 OA
ENDBRANCH  19  23
ENDBRANCH  10  17
BRANCH  15  26
ATOM     26  C   UNL A   1      33.925  22.154  25.080  1.00  0.00    -0.033 A 
ATOM     27  C   UNL A   1      32.676  21.621  25.432  1.00  0.00     0.009 A 
ATOM     28  C   UNL A   1      34.946  21.289  24.665  1.00  0.00     0.009 A 
ATOM     29  C   UNL A   1      32.464  20.239  25.401  1.00  0.00     0.021 A 
ATOM     30  C   UNL A   1      34.731  19.908  24.628  1.00  0.00     0.021 A 
ATOM     31  C   UNL A   1      33.493  19.388  25.004  1.00  0.00     0.041 A 
ATOM     32  Cl  UNL A   1      33.239  17.687  24.981  1.00  0.00    -0.084 Cl
ENDBRANCH  15  26
ENDBRANCH   7   8
ENDBRANCH   6   7
ENDBRANCH   5   6
ENDBRANCH   2   5
BRANCH   3  33
ATOM     33  C   UNL A   1      30.659  31.501  25.504  1.00  0.00     0.117 C 
BRANCH  33  34
ATOM     34  C   UNL A   1      31.362  31.589  26.862  1.00  0.00     0.042 C 
BRANCH  34  35
ATOM     35  C   UNL A   1      32.621  32.456  26.911  1.00  0.00     0.118 C 
BRANCH  35  36
ATOM     36  N   UNL A   1      32.393  33.791  27.444  1.00  0.00    -0.352 N 
ATOM     37  C   UNL A   1      33.105  34.503  28.378  1.00  0.00     0.251 C 
ATOM     38  H   UNL A   1      31.605  34.254  27.079  1.00  0.00     0.163 HD
ATOM     39  O   UNL A   1      32.748  35.637  28.687  1.00  0.00    -0.269 OA
BRANCH  37  40
ATOM     40  C   UNL A   1      34.278  33.905  29.057  1.00  0.00     0.039 A 
ATOM     41  C   UNL A   1      34.047  32.928  30.030  1.00  0.00     0.014 A 
ATOM     42  C   UNL A   1      35.584  34.308  28.771  1.00  0.00     0.014 A 
ATOM     43  C   UNL A   1      35.124  32.300  30.661  1.00  0.00     0.010 A 
ATOM     44  C   UNL A   1      36.662  33.643  29.364  1.00  0.00     0.010 A 
ATOM     45  C   UNL A   1      36.444  32.623  30.305  1.00  0.00    -0.014 A 
BRANCH  45  46
ATOM     46  C   UNL A   1      37.593  31.873  30.879  1.00  0.00     0.031 A 
ATOM     47  C   UNL A   1      38.101  32.179  32.260  1.00  0.00     0.074 A 
ATOM     48  C   UNL A   1      38.219  30.944  30.130  1.00  0.00     0.049 A 
ATOM     49  N   UNL A   1      39.120  31.658  32.900  1.00  0.00    -0.248 NA
ATOM     50  C   UNL A   1      37.383  33.215  33.016  1.00  0.00     0.031 C 
ATOM     51  C   UNL A   1      37.851  30.574  28.762  1.00  0.00     0.029 A 
ATOM     52  N   UNL A   1      39.302  30.147  30.408  1.00  0.00    -0.354 N 
ATOM     53  C   UNL A   1      39.171  32.310  34.125  1.00  0.00     0.074 A 
ATOM     54  C   UNL A   1      38.105  33.291  34.125  1.00  0.00     0.031 C 
ATOM     55  C   UNL A   1      38.686  29.617  28.325  1.00  0.00     0.029 A 
ATOM     56  C   UNL A   1      39.668  29.330  29.366  1.00  0.00     0.049 A 
ATOM     57  H   UNL A   1      39.773  30.161  31.273  1.00  0.00     0.167 HD
ATOM     58  C   UNL A   1      40.017  32.099  35.164  1.00  0.00     0.037 A 
ATOM     59  C   UNL A   1      40.688  28.457  29.253  1.00  0.00     0.037 A 
ATOM     60  C   UNL A   1      41.071  31.118  35.172  1.00  0.00     0.049 A 
ATOM     61  C   UNL A   1      41.629  28.263  30.408  1.00  0.00     0.074 A 
ATOM     62  C   UNL A   1      41.938  30.793  36.202  1.00  0.00     0.029 A 
ATOM     63  N   UNL A   1      41.411  30.312  34.096  1.00  0.00    -0.354 N 
ATOM     64  N   UNL A   1      41.618  28.833  31.588  1.00  0.00    -0.248 NA
ATOM     65  C   UNL A   1      42.724  27.300  30.216  1.00  0.00     0.031 C 
ATOM     66  C   UNL A   1      42.830  29.821  35.735  1.00  0.00     0.029 A 
ATOM     67  C   UNL A   1      42.490  29.509  34.429  1.00  0.00     0.049 A 
ATOM     68  H   UNL A   1      40.952  30.310  33.225  1.00  0.00     0.167 HD
ATOM     69  C   UNL A   1      42.687  28.285  32.285  1.00  0.00     0.074 A 
ATOM     70  C   UNL A   1      43.315  27.324  31.402  1.00  0.00     0.031 C 
ATOM     71  C   UNL A   1      43.109  28.554  33.544  1.00  0.00     0.037 A 
BRANCH  58  72
ATOM     72  C   UNL A   1      39.836  32.953  36.385  1.00  0.00     0.057 A 
ATOM     73  C   UNL A   1      40.553  34.143  36.563  1.00  0.00     0.134 A 
ATOM     74  C   UNL A   1      38.907  32.604  37.372  1.00  0.00     0.134 A 
ATOM     75  F   UNL A   1      41.464  34.531  35.657  1.00  0.00    -0.206 F 
ATOM     76  C   UNL A   1      40.368  34.944  37.691  1.00  0.00     0.040 A 
ATOM     77  C   UNL A   1      38.696  33.408  38.493  1.00  0.00     0.040 A 
ATOM     78  F   UNL A   1      38.178  31.483  37.258  1.00  0.00    -0.206 F 
ATOM     79  C   UNL A   1      39.433  34.580  38.658  1.00  0.00     0.006 A 
ENDBRANCH  58  72
BRANCH  59  80
ATOM     80  C   UNL A   1      40.870  27.689  27.996  1.00  0.00     0.057 A 
ATOM     81  C   UNL A   1      40.299  26.420  27.837  1.00  0.00     0.134 A 
ATOM     82  C   UNL A   1      41.624  28.196  26.931  1.00  0.00     0.134 A 
ATOM     83  F   UNL A   1      39.585  25.872  28.831  1.00  0.00    -0.206 F 
ATOM     84  C   UNL A   1      40.485  25.676  26.671  1.00  0.00     0.040 A 
ATOM     85  C   UNL A   1      41.798  27.472  25.750  1.00  0.00     0.040 A 
ATOM     86  F   UNL A   1      42.194  29.406  27.021  1.00  0.00    -0.206 F 
ATOM     87  C   UNL A   1      41.233  26.205  25.621  1.00  0.00     0.006 A 
ENDBRANCH  59  80
BRANCH  71  88
ATOM     88  C   UNL A   1      44.291  27.784  34.053  1.00  0.00     0.057 A 
ATOM     89  C   UNL A   1      45.595  28.287  33.961  1.00  0.00     0.134 A 
ATOM     90  C   UNL A   1      44.120  26.539  34.674  1.00  0.00     0.134 A 
ATOM     91  F   UNL A   1      45.829  29.465  33.366  1.00  0.00    -0.206 F 
ATOM     92  C   UNL A   1      46.688  27.571  34.452  1.00  0.00     0.040 A 
ATOM     93  C   UNL A   1      45.202  25.825  35.189  1.00  0.00     0.040 A 
ATOM     94  F   UNL A   1      42.896  26.003  34.799  1.00  0.00    -0.206 F 
ATOM     95  C   UNL A   1      46.493  26.340  35.074  1.00  0.00     0.006 A 
ENDBRANCH  71  88
ENDBRANCH  45  46
ENDBRANCH  37  40
ENDBRANCH  35  36
ENDBRANCH  34  35
ENDBRANCH  33  34
ENDBRANCH   3  33
TORSDOF 16
ENDMDL
