MODEL 1
REMARK VINA RESULT:     -11.0      0.000      0.000
REMARK SMILES C[N@H+]1Cc2ccccc2C[C@@H]1C(=O)NCCC(=O)NCC(=O)NCCCNC(=O)c1ccc(-c2c3nc(c(-c4c(F)cccc4F)c4ccc([nH]4)c(-c4c(F)cccc4F)c4nc(c(-c5c(F)cccc5F)c5ccc2[nH]5)C=C4)C=C3)cc1
REMARK SMILES IDX 21 1 22 2 23 3 20 5 19 6 17 7 18 8 16 10 15 11 14 12 12 13
REMARK SMILES IDX 13 14 11 16 1 17 2 18 3 19 4 21 10 22 5 23 9 24 6 25 8 26
REMARK SMILES IDX 7 27 24 28 25 29 26 30 27 31 28 32 29 34 30 35 31 36 83 37
REMARK SMILES IDX 32 38 82 39 33 40 34 41 35 42 76 43 36 44 81 45 75 46 77 47
REMARK SMILES IDX 37 48 80 49 74 50 73 51 38 53 64 54 47 55 63 56 48 57 51 58
REMARK SMILES IDX 62 59 78 60 49 61 50 62 61 64 79 65 52 66 39 67 40 68 45 69
REMARK SMILES IDX 41 70 42 71 44 72 46 73 43 74 65 75 66 76 71 77 67 78 68 79
REMARK SMILES IDX 70 80 72 81 69 82 53 83 54 84 59 85 55 86 56 87 58 88 60 89
REMARK SMILES IDX 57 90
REMARK H PARENT 23 4 19 9 14 15 2 20 27 33 77 52 51 63
REMARK Flexibility Score: inf
ROOT
ATOM      1  C   UNL A   1      33.277  36.349  29.001  1.00  0.00     0.239 C 
ATOM      2  O   UNL A   1      33.349  37.560  28.762  1.00  0.00    -0.273 OA
ATOM      3  N   UNL A   1      33.714  35.516  28.015  1.00  0.00    -0.355 N 
ATOM      4  H   UNL A   1      34.002  35.992  27.203  1.00  0.00     0.163 HD
ENDROOT
BRANCH   1   5
ATOM      5  C   UNL A   1      32.889  35.871  30.414  1.00  0.00     0.216 C 
BRANCH   5   6
ATOM      6  N   UNL A   1      33.317  36.703  31.524  1.00  0.00    -0.347 N 
ATOM      7  C   UNL A   1      33.839  36.364  32.734  1.00  0.00     0.222 C 
ATOM      8  O   UNL A   1      34.028  37.264  33.555  1.00  0.00    -0.275 OA
ATOM      9  H   UNL A   1      33.212  37.671  31.377  1.00  0.00     0.164 HD
BRANCH   7  10
ATOM     10  C   UNL A   1      34.132  34.920  33.086  1.00  0.00     0.121 C 
BRANCH  10  11
ATOM     11  C   UNL A   1      35.296  34.763  34.070  1.00  0.00     0.126 C 
BRANCH  11  12
ATOM     12  N   UNL A   1      35.804  33.396  34.107  1.00  0.00    -0.350 N 
ATOM     13  C   UNL A   1      36.438  32.681  33.142  1.00  0.00     0.278 C 
ATOM     14  O   UNL A   1      35.903  31.605  32.846  1.00  0.00    -0.268 OA
ATOM     15  H   UNL A   1      35.668  32.920  34.958  1.00  0.00     0.163 HD
BRANCH  13  16
ATOM     16  C   UNL A   1      37.830  33.056  32.592  1.00  0.00     0.278 C 
ATOM     17  C   UNL A   1      38.620  33.109  34.951  1.00  0.00     0.333 C 
ATOM     18  N   UNL A   1      38.673  33.739  33.628  1.00  0.00    -0.323 N 
ATOM     19  C   UNL A   1      40.080  33.742  33.167  1.00  0.00     0.299 C 
ATOM     20  H   UNL A   1      38.298  34.682  33.735  1.00  0.00     0.348 HD
ATOM     21  C   UNL A   1      40.265  34.243  31.752  1.00  0.00     0.010 A 
ATOM     22  C   UNL A   1      37.798  33.952  31.347  1.00  0.00     0.111 C 
ATOM     23  C   UNL A   1      41.547  34.560  31.285  1.00  0.00     0.010 A 
ATOM     24  C   UNL A   1      39.176  34.332  30.872  1.00  0.00    -0.033 A 
ATOM     25  C   UNL A   1      41.733  34.996  29.973  1.00  0.00     0.001 A 
ATOM     26  C   UNL A   1      39.364  34.801  29.566  1.00  0.00     0.004 A 
ATOM     27  C   UNL A   1      40.642  35.127  29.118  1.00  0.00     0.000 A 
ENDBRANCH  13  16
ENDBRANCH  11  12
ENDBRANCH  10  11
ENDBRANCH   7  10
ENDBRANCH   5   6
ENDBRANCH   1   5
BRANCH   3  28
ATOM     28  C   UNL A   1      33.843  34.071  27.908  1.00  0.00     0.117 C 
BRANCH  28  29
ATOM     29  C   UNL A   1      35.099  33.532  28.560  1.00  0.00     0.042 C 
BRANCH  29  30
ATOM     30  C   UNL A   1      34.816  32.348  29.470  1.00  0.00     0.118 C 
BRANCH  30  31
ATOM     31  N   UNL A   1      34.278  31.194  28.752  1.00  0.00    -0.352 N 
ATOM     32  C   UNL A   1      34.905  30.095  28.216  1.00  0.00     0.251 C 
ATOM     33  H   UNL A   1      33.300  31.207  28.633  1.00  0.00     0.163 HD
ATOM     34  O   UNL A   1      34.273  29.319  27.505  1.00  0.00    -0.269 OA
BRANCH  32  35
ATOM     35  C   UNL A   1      36.344  29.859  28.459  1.00  0.00     0.039 A 
ATOM     36  C   UNL A   1      36.753  29.328  29.685  1.00  0.00     0.014 A 
ATOM     37  C   UNL A   1      37.291  30.148  27.478  1.00  0.00     0.014 A 
ATOM     38  C   UNL A   1      38.093  28.991  29.881  1.00  0.00     0.010 A 
ATOM     39  C   UNL A   1      38.595  29.699  27.625  1.00  0.00     0.010 A 
ATOM     40  C   UNL A   1      39.015  29.117  28.830  1.00  0.00    -0.014 A 
BRANCH  40  41
ATOM     41  C   UNL A   1      40.423  28.662  28.953  1.00  0.00     0.031 A 
ATOM     42  C   UNL A   1      41.484  29.626  29.414  1.00  0.00     0.074 A 
ATOM     43  C   UNL A   1      40.766  27.423  28.550  1.00  0.00     0.049 A 
ATOM     44  N   UNL A   1      42.784  29.479  29.435  1.00  0.00    -0.248 NA
ATOM     45  C   UNL A   1      41.024  30.949  29.867  1.00  0.00     0.031 C 
ATOM     46  C   UNL A   1      39.845  26.414  28.020  1.00  0.00     0.029 A 
ATOM     47  N   UNL A   1      41.991  26.806  28.505  1.00  0.00    -0.354 N 
ATOM     48  C   UNL A   1      43.294  30.696  29.867  1.00  0.00     0.074 A 
ATOM     49  C   UNL A   1      42.170  31.589  30.042  1.00  0.00     0.031 C 
ATOM     50  C   UNL A   1      40.533  25.300  27.726  1.00  0.00     0.029 A 
ATOM     51  C   UNL A   1      41.947  25.526  28.006  1.00  0.00     0.049 A 
ATOM     52  H   UNL A   1      42.824  27.240  28.802  1.00  0.00     0.167 HD
ATOM     53  C   UNL A   1      44.579  31.034  30.124  1.00  0.00     0.037 A 
ATOM     54  C   UNL A   1      42.936  24.640  27.788  1.00  0.00     0.037 A 
ATOM     55  C   UNL A   1      45.690  30.129  30.004  1.00  0.00     0.049 A 
ATOM     56  C   UNL A   1      44.351  25.023  28.121  1.00  0.00     0.074 A 
ATOM     57  C   UNL A   1      47.021  30.350  30.309  1.00  0.00     0.029 A 
ATOM     58  N   UNL A   1      45.594  28.822  29.551  1.00  0.00    -0.354 N 
ATOM     59  N   UNL A   1      44.811  26.161  28.581  1.00  0.00    -0.248 NA
ATOM     60  C   UNL A   1      45.382  23.999  27.907  1.00  0.00     0.031 C 
ATOM     61  C   UNL A   1      47.735  29.183  30.015  1.00  0.00     0.029 A 
ATOM     62  C   UNL A   1      46.843  28.226  29.561  1.00  0.00     0.049 A 
ATOM     63  H   UNL A   1      44.760  28.382  29.264  1.00  0.00     0.167 HD
ATOM     64  C   UNL A   1      46.180  25.984  28.733  1.00  0.00     0.074 A 
ATOM     65  C   UNL A   1      46.473  24.624  28.329  1.00  0.00     0.031 C 
ATOM     66  C   UNL A   1      47.111  26.869  29.164  1.00  0.00     0.037 A 
BRANCH  53  67
ATOM     67  C   UNL A   1      44.844  32.438  30.583  1.00  0.00     0.057 A 
ATOM     68  C   UNL A   1      44.829  32.785  31.941  1.00  0.00     0.134 A 
ATOM     69  C   UNL A   1      45.135  33.450  29.660  1.00  0.00     0.134 A 
ATOM     70  F   UNL A   1      44.542  31.865  32.874  1.00  0.00    -0.206 F 
ATOM     71  C   UNL A   1      45.063  34.094  32.362  1.00  0.00     0.040 A 
ATOM     72  C   UNL A   1      45.398  34.758  30.072  1.00  0.00     0.040 A 
ATOM     73  F   UNL A   1      45.171  33.185  28.346  1.00  0.00    -0.206 F 
ATOM     74  C   UNL A   1      45.355  35.085  31.427  1.00  0.00     0.006 A 
ENDBRANCH  53  67
BRANCH  54  75
ATOM     75  C   UNL A   1      42.621  23.293  27.253  1.00  0.00     0.057 A 
ATOM     76  C   UNL A   1      42.277  22.241  28.109  1.00  0.00     0.134 A 
ATOM     77  C   UNL A   1      42.655  23.023  25.879  1.00  0.00     0.134 A 
ATOM     78  F   UNL A   1      42.244  22.435  29.435  1.00  0.00    -0.206 F 
ATOM     79  C   UNL A   1      41.994  20.964  27.622  1.00  0.00     0.040 A 
ATOM     80  C   UNL A   1      42.354  21.757  25.376  1.00  0.00     0.040 A 
ATOM     81  F   UNL A   1      42.970  23.992  25.006  1.00  0.00    -0.206 F 
ATOM     82  C   UNL A   1      42.029  20.720  26.250  1.00  0.00     0.006 A 
ENDBRANCH  54  75
BRANCH  66  83
ATOM     83  C   UNL A   1      48.526  26.383  29.251  1.00  0.00     0.057 A 
ATOM     84  C   UNL A   1      49.430  26.555  28.195  1.00  0.00     0.134 A 
ATOM     85  C   UNL A   1      49.000  25.776  30.422  1.00  0.00     0.134 A 
ATOM     86  F   UNL A   1      49.031  27.118  27.045  1.00  0.00    -0.206 F 
ATOM     87  C   UNL A   1      50.753  26.125  28.295  1.00  0.00     0.040 A 
ATOM     88  C   UNL A   1      50.327  25.362  30.540  1.00  0.00     0.040 A 
ATOM     89  F   UNL A   1      48.185  25.589  31.470  1.00  0.00    -0.206 F 
ATOM     90  C   UNL A   1      51.207  25.533  29.473  1.00  0.00     0.006 A 
ENDBRANCH  66  83
ENDBRANCH  40  41
ENDBRANCH  32  35
ENDBRANCH  30  31
ENDBRANCH  29  30
ENDBRANCH  28  29
ENDBRANCH   3  28
TORSDOF 15
ENDMDL
MODEL 2
REMARK VINA RESULT:     -10.8      1.710      2.415
REMARK SMILES C[N@H+]1Cc2ccccc2C[C@@H]1C(=O)NCCC(=O)NCC(=O)NCCCNC(=O)c1ccc(-c2c3nc(c(-c4c(F)cccc4F)c4ccc([nH]4)c(-c4c(F)cccc4F)c4nc(c(-c5c(F)cccc5F)c5ccc2[nH]5)C=C4)C=C3)cc1
REMARK SMILES IDX 21 1 22 2 23 3 20 5 19 6 17 7 18 8 16 10 15 11 14 12 12 13
REMARK SMILES IDX 13 14 11 16 1 17 2 18 3 19 4 21 10 22 5 23 9 24 6 25 8 26
REMARK SMILES IDX 7 27 24 28 25 29 26 30 27 31 28 32 29 34 30 35 31 36 83 37
REMARK SMILES IDX 32 38 82 39 33 40 34 41 35 42 76 43 36 44 81 45 75 46 77 47
REMARK SMILES IDX 37 48 80 49 74 50 73 51 38 53 64 54 47 55 63 56 48 57 51 58
REMARK SMILES IDX 62 59 78 60 49 61 50 62 61 64 79 65 52 66 39 67 40 68 45 69
REMARK SMILES IDX 41 70 42 71 44 72 46 73 43 74 65 75 66 76 71 77 67 78 68 79
REMARK SMILES IDX 70 80 72 81 69 82 53 83 54 84 59 85 55 86 56 87 58 88 60 89
REMARK SMILES IDX 57 90
REMARK H PARENT 23 4 19 9 14 15 2 20 27 33 77 52 51 63
REMARK Flexibility Score: inf
ROOT
ATOM      1  C   UNL A   1      33.989  36.121  28.377  1.00  0.00     0.239 C 
ATOM      2  O   UNL A   1      34.241  37.199  27.828  1.00  0.00    -0.273 OA
ATOM      3  N   UNL A   1      34.420  35.002  27.730  1.00  0.00    -0.355 N 
ATOM      4  H   UNL A   1      34.853  35.194  26.867  1.00  0.00     0.163 HD
ENDROOT
BRANCH   1   5
ATOM      5  C   UNL A   1      33.392  36.107  29.798  1.00  0.00     0.216 C 
BRANCH   5   6
ATOM      6  N   UNL A   1      33.446  37.355  30.539  1.00  0.00    -0.347 N 
ATOM      7  C   UNL A   1      33.221  37.612  31.856  1.00  0.00     0.222 C 
ATOM      8  O   UNL A   1      33.229  38.787  32.226  1.00  0.00    -0.275 OA
ATOM      9  H   UNL A   1      33.684  38.144  30.000  1.00  0.00     0.164 HD
BRANCH   7  10
ATOM     10  C   UNL A   1      32.918  36.495  32.834  1.00  0.00     0.121 C 
BRANCH  10  11
ATOM     11  C   UNL A   1      34.119  36.111  33.704  1.00  0.00     0.126 C 
BRANCH  11  12
ATOM     12  N   UNL A   1      34.175  34.677  33.962  1.00  0.00    -0.350 N 
ATOM     13  C   UNL A   1      34.607  33.669  33.162  1.00  0.00     0.278 C 
ATOM     14  O   UNL A   1      33.782  32.770  32.954  1.00  0.00    -0.268 OA
ATOM     15  H   UNL A   1      33.851  34.398  34.849  1.00  0.00     0.163 HD
BRANCH  13  16
ATOM     16  C   UNL A   1      36.075  33.523  32.708  1.00  0.00     0.278 C 
ATOM     17  C   UNL A   1      36.694  33.473  35.118  1.00  0.00     0.333 C 
ATOM     18  N   UNL A   1      37.034  33.958  33.777  1.00  0.00    -0.323 N 
ATOM     19  C   UNL A   1      38.386  33.462  33.429  1.00  0.00     0.299 C 
ATOM     20  H   UNL A   1      36.991  34.976  33.811  1.00  0.00     0.348 HD
ATOM     21  C   UNL A   1      38.812  33.776  32.013  1.00  0.00     0.010 A 
ATOM     22  C   UNL A   1      36.420  34.291  31.426  1.00  0.00     0.111 C 
ATOM     23  C   UNL A   1      40.152  33.617  31.636  1.00  0.00     0.010 A 
ATOM     24  C   UNL A   1      37.871  34.160  31.046  1.00  0.00    -0.033 A 
ATOM     25  C   UNL A   1      40.552  33.875  30.324  1.00  0.00     0.001 A 
ATOM     26  C   UNL A   1      38.284  34.449  29.740  1.00  0.00     0.004 A 
ATOM     27  C   UNL A   1      39.622  34.301  29.380  1.00  0.00     0.000 A 
ENDBRANCH  13  16
ENDBRANCH  11  12
ENDBRANCH  10  11
ENDBRANCH   7  10
ENDBRANCH   5   6
ENDBRANCH   1   5
BRANCH   3  28
ATOM     28  C   UNL A   1      34.374  33.582  28.042  1.00  0.00     0.117 C 
BRANCH  28  29
ATOM     29  C   UNL A   1      35.739  32.925  28.048  1.00  0.00     0.042 C 
BRANCH  29  30
ATOM     30  C   UNL A   1      35.663  31.436  28.339  1.00  0.00     0.118 C 
BRANCH  30  31
ATOM     31  N   UNL A   1      35.490  31.142  29.760  1.00  0.00    -0.352 N 
ATOM     32  C   UNL A   1      36.354  30.594  30.679  1.00  0.00     0.251 C 
ATOM     33  H   UNL A   1      34.604  31.377  30.121  1.00  0.00     0.163 HD
ATOM     34  O   UNL A   1      35.943  30.281  31.792  1.00  0.00    -0.269 OA
BRANCH  32  35
ATOM     35  C   UNL A   1      37.767  30.345  30.323  1.00  0.00     0.039 A 
ATOM     36  C   UNL A   1      38.686  30.049  31.333  1.00  0.00     0.014 A 
ATOM     37  C   UNL A   1      38.187  30.389  28.994  1.00  0.00     0.014 A 
ATOM     38  C   UNL A   1      39.994  29.696  30.998  1.00  0.00     0.010 A 
ATOM     39  C   UNL A   1      39.447  29.918  28.654  1.00  0.00     0.010 A 
ATOM     40  C   UNL A   1      40.368  29.568  29.651  1.00  0.00    -0.014 A 
BRANCH  40  41
ATOM     41  C   UNL A   1      41.712  29.081  29.246  1.00  0.00     0.031 A 
ATOM     42  C   UNL A   1      42.868  30.044  29.179  1.00  0.00     0.074 A 
ATOM     43  C   UNL A   1      41.869  27.808  28.836  1.00  0.00     0.049 A 
ATOM     44  N   UNL A   1      44.072  29.861  28.700  1.00  0.00    -0.248 NA
ATOM     45  C   UNL A   1      42.622  31.409  29.674  1.00  0.00     0.031 C 
ATOM     46  C   UNL A   1      40.815  26.792  28.788  1.00  0.00     0.029 A 
ATOM     47  N   UNL A   1      42.978  27.154  28.361  1.00  0.00    -0.354 N 
ATOM     48  C   UNL A   1      44.709  31.090  28.804  1.00  0.00     0.074 A 
ATOM     49  C   UNL A   1      43.744  32.025  29.337  1.00  0.00     0.031 C 
ATOM     50  C   UNL A   1      41.333  25.640  28.333  1.00  0.00     0.029 A 
ATOM     51  C   UNL A   1      42.742  25.844  28.018  1.00  0.00     0.049 A 
ATOM     52  H   UNL A   1      43.861  27.583  28.274  1.00  0.00     0.167 HD
ATOM     53  C   UNL A   1      45.992  31.407  28.510  1.00  0.00     0.037 A 
ATOM     54  C   UNL A   1      43.567  24.916  27.497  1.00  0.00     0.037 A 
ATOM     55  C   UNL A   1      46.967  30.464  28.032  1.00  0.00     0.049 A 
ATOM     56  C   UNL A   1      44.998  25.280  27.218  1.00  0.00     0.074 A 
ATOM     57  C   UNL A   1      48.310  30.667  27.773  1.00  0.00     0.029 A 
ATOM     58  N   UNL A   1      46.701  29.131  27.754  1.00  0.00    -0.354 N 
ATOM     59  N   UNL A   1      45.601  26.433  27.373  1.00  0.00    -0.248 NA
ATOM     60  C   UNL A   1      45.862  24.214  26.695  1.00  0.00     0.031 C 
ATOM     61  C   UNL A   1      48.852  29.462  27.311  1.00  0.00     0.029 A 
ATOM     62  C   UNL A   1      47.854  28.502  27.318  1.00  0.00     0.049 A 
ATOM     63  H   UNL A   1      45.822  28.698  27.851  1.00  0.00     0.167 HD
ATOM     64  C   UNL A   1      46.919  26.227  26.989  1.00  0.00     0.074 A 
ATOM     65  C   UNL A   1      47.031  24.834  26.607  1.00  0.00     0.031 C 
ATOM     66  C   UNL A   1      47.945  27.112  26.952  1.00  0.00     0.037 A 
BRANCH  53  67
ATOM     67  C   UNL A   1      46.415  32.831  28.720  1.00  0.00     0.057 A 
ATOM     68  C   UNL A   1      46.922  33.277  29.948  1.00  0.00     0.134 A 
ATOM     69  C   UNL A   1      46.333  33.764  27.678  1.00  0.00     0.134 A 
ATOM     70  F   UNL A   1      47.011  32.436  30.990  1.00  0.00    -0.206 F 
ATOM     71  C   UNL A   1      47.302  34.604  30.143  1.00  0.00     0.040 A 
ATOM     72  C   UNL A   1      46.736  35.089  27.853  1.00  0.00     0.040 A 
ATOM     73  F   UNL A   1      45.863  33.404  26.475  1.00  0.00    -0.206 F 
ATOM     74  C   UNL A   1      47.216  35.514  29.092  1.00  0.00     0.006 A 
ENDBRANCH  53  67
BRANCH  54  75
ATOM     75  C   UNL A   1      43.067  23.545  27.232  1.00  0.00     0.057 A 
ATOM     76  C   UNL A   1      42.687  23.154  25.943  1.00  0.00     0.134 A 
ATOM     77  C   UNL A   1      42.954  22.595  28.255  1.00  0.00     0.134 A 
ATOM     78  F   UNL A   1      42.757  24.026  24.927  1.00  0.00    -0.206 F 
ATOM     79  C   UNL A   1      42.198  21.873  25.681  1.00  0.00     0.040 A 
ATOM     80  C   UNL A   1      42.486  21.304  28.003  1.00  0.00     0.040 A 
ATOM     81  F   UNL A   1      43.309  22.906  29.510  1.00  0.00    -0.206 F 
ATOM     82  C   UNL A   1      42.100  20.943  26.714  1.00  0.00     0.006 A 
ENDBRANCH  54  75
BRANCH  66  83
ATOM     83  C   UNL A   1      49.280  26.593  26.513  1.00  0.00     0.057 A 
ATOM     84  C   UNL A   1      50.134  25.919  27.395  1.00  0.00     0.134 A 
ATOM     85  C   UNL A   1      49.695  26.729  25.182  1.00  0.00     0.134 A 
ATOM     86  F   UNL A   1      49.797  25.768  28.685  1.00  0.00    -0.206 F 
ATOM     87  C   UNL A   1      51.364  25.413  26.972  1.00  0.00     0.040 A 
ATOM     88  C   UNL A   1      50.912  26.209  24.742  1.00  0.00     0.040 A 
ATOM     89  F   UNL A   1      48.918  27.358  24.288  1.00  0.00    -0.206 F 
ATOM     90  C   UNL A   1      51.752  25.551  25.640  1.00  0.00     0.006 A 
ENDBRANCH  66  83
ENDBRANCH  40  41
ENDBRANCH  32  35
ENDBRANCH  30  31
ENDBRANCH  29  30
ENDBRANCH  28  29
ENDBRANCH   3  28
TORSDOF 15
ENDMDL
MODEL 3
REMARK VINA RESULT:     -10.7      4.264      8.216
REMARK SMILES C[N@H+]1Cc2ccccc2C[C@@H]1C(=O)NCCC(=O)NCC(=O)NCCCNC(=O)c1ccc(-c2c3nc(c(-c4c(F)cccc4F)c4ccc([nH]4)c(-c4c(F)cccc4F)c4nc(c(-c5c(F)cccc5F)c5ccc2[nH]5)C=C4)C=C3)cc1
REMARK SMILES IDX 21 1 22 2 23 3 20 5 19 6 17 7 18 8 16 10 15 11 14 12 12 13
REMARK SMILES IDX 13 14 11 16 1 17 2 18 3 19 4 21 10 22 5 23 9 24 6 25 8 26
REMARK SMILES IDX 7 27 24 28 25 29 26 30 27 31 28 32 29 34 30 35 31 36 83 37
REMARK SMILES IDX 32 38 82 39 33 40 34 41 35 42 76 43 36 44 81 45 75 46 77 47
REMARK SMILES IDX 37 48 80 49 74 50 73 51 38 53 64 54 47 55 63 56 48 57 51 58
REMARK SMILES IDX 62 59 78 60 49 61 50 62 61 64 79 65 52 66 39 67 40 68 45 69
REMARK SMILES IDX 41 70 42 71 44 72 46 73 43 74 65 75 66 76 71 77 67 78 68 79
REMARK SMILES IDX 70 80 72 81 69 82 53 83 54 84 59 85 55 86 56 87 58 88 60 89
REMARK SMILES IDX 57 90
REMARK H PARENT 23 4 19 9 14 15 2 20 27 33 77 52 51 63
REMARK Flexibility Score: inf
ROOT
ATOM      1  C   UNL A   1      33.246  28.848  23.332  1.00  0.00     0.239 C 
ATOM      2  O   UNL A   1      34.238  29.100  22.639  1.00  0.00    -0.273 OA
ATOM      3  N   UNL A   1      33.119  29.568  24.482  1.00  0.00    -0.355 N 
ATOM      4  H   UNL A   1      33.871  30.184  24.640  1.00  0.00     0.163 HD
ENDROOT
BRANCH   1   5
ATOM      5  C   UNL A   1      32.152  27.908  22.789  1.00  0.00     0.216 C 
BRANCH   5   6
ATOM      6  N   UNL A   1      32.471  27.167  21.582  1.00  0.00    -0.347 N 
ATOM      7  C   UNL A   1      32.702  25.839  21.393  1.00  0.00     0.222 C 
ATOM      8  O   UNL A   1      33.059  25.467  20.274  1.00  0.00    -0.275 OA
ATOM      9  H   UNL A   1      32.528  27.715  20.765  1.00  0.00     0.164 HD
BRANCH   7  10
ATOM     10  C   UNL A   1      32.578  24.851  22.535  1.00  0.00     0.121 C 
BRANCH  10  11
ATOM     11  C   UNL A   1      33.901  24.605  23.267  1.00  0.00     0.126 C 
BRANCH  11  12
ATOM     12  N   UNL A   1      33.700  24.320  24.684  1.00  0.00    -0.350 N 
ATOM     13  C   UNL A   1      33.007  23.314  25.275  1.00  0.00     0.278 C 
ATOM     14  O   UNL A   1      32.122  23.675  26.062  1.00  0.00    -0.268 OA
ATOM     15  H   UNL A   1      34.132  24.952  25.303  1.00  0.00     0.163 HD
BRANCH  13  16
ATOM     16  C   UNL A   1      33.411  21.829  25.158  1.00  0.00     0.278 C 
ATOM     17  C   UNL A   1      35.679  22.505  25.927  1.00  0.00     0.333 C 
ATOM     18  N   UNL A   1      34.896  21.665  25.015  1.00  0.00    -0.323 N 
ATOM     19  C   UNL A   1      35.242  20.248  25.270  1.00  0.00     0.299 C 
ATOM     20  H   UNL A   1      35.132  21.958  24.067  1.00  0.00     0.348 HD
ATOM     21  C   UNL A   1      34.406  19.259  24.489  1.00  0.00     0.010 A 
ATOM     22  C   UNL A   1      32.743  21.082  23.996  1.00  0.00     0.111 C 
ATOM     23  C   UNL A   1      34.798  17.916  24.418  1.00  0.00     0.010 A 
ATOM     24  C   UNL A   1      33.200  19.651  23.889  1.00  0.00    -0.033 A 
ATOM     25  C   UNL A   1      34.019  16.988  23.725  1.00  0.00     0.001 A 
ATOM     26  C   UNL A   1      32.439  18.723  23.168  1.00  0.00     0.004 A 
ATOM     27  C   UNL A   1      32.848  17.393  23.092  1.00  0.00     0.000 A 
ENDBRANCH  13  16
ENDBRANCH  11  12
ENDBRANCH  10  11
ENDBRANCH   7  10
ENDBRANCH   5   6
ENDBRANCH   1   5
BRANCH   3  28
ATOM     28  C   UNL A   1      32.109  29.618  25.527  1.00  0.00     0.117 C 
BRANCH  28  29
ATOM     29  C   UNL A   1      32.322  28.588  26.617  1.00  0.00     0.042 C 
BRANCH  29  30
ATOM     30  C   UNL A   1      33.607  28.825  27.393  1.00  0.00     0.118 C 
BRANCH  30  31
ATOM     31  N   UNL A   1      33.727  30.194  27.890  1.00  0.00    -0.352 N 
ATOM     32  C   UNL A   1      34.774  30.842  28.502  1.00  0.00     0.251 C 
ATOM     33  H   UNL A   1      32.921  30.747  27.764  1.00  0.00     0.163 HD
ATOM     34  O   UNL A   1      34.602  31.955  28.990  1.00  0.00    -0.269 OA
BRANCH  32  35
ATOM     35  C   UNL A   1      36.098  30.192  28.608  1.00  0.00     0.039 A 
ATOM     36  C   UNL A   1      36.971  30.235  27.518  1.00  0.00     0.014 A 
ATOM     37  C   UNL A   1      36.487  29.552  29.784  1.00  0.00     0.014 A 
ATOM     38  C   UNL A   1      38.266  29.730  27.648  1.00  0.00     0.010 A 
ATOM     39  C   UNL A   1      37.808  29.165  29.954  1.00  0.00     0.010 A 
ATOM     40  C   UNL A   1      38.715  29.246  28.888  1.00  0.00    -0.014 A 
BRANCH  40  41
ATOM     41  C   UNL A   1      40.118  28.808  29.105  1.00  0.00     0.031 A 
ATOM     42  C   UNL A   1      41.122  29.772  29.677  1.00  0.00     0.074 A 
ATOM     43  C   UNL A   1      40.512  27.589  28.688  1.00  0.00     0.049 A 
ATOM     44  N   UNL A   1      42.420  29.645  29.794  1.00  0.00    -0.248 NA
ATOM     45  C   UNL A   1      40.605  31.072  30.136  1.00  0.00     0.031 C 
ATOM     46  C   UNL A   1      39.654  26.585  28.056  1.00  0.00     0.029 A 
ATOM     47  N   UNL A   1      41.748  26.993  28.718  1.00  0.00    -0.354 N 
ATOM     48  C   UNL A   1      42.872  30.855  30.303  1.00  0.00     0.074 A 
ATOM     49  C   UNL A   1      41.722  31.724  30.420  1.00  0.00     0.031 C 
ATOM     50  C   UNL A   1      40.382  25.492  27.781  1.00  0.00     0.029 A 
ATOM     51  C   UNL A   1      41.766  25.731  28.176  1.00  0.00     0.049 A 
ATOM     52  H   UNL A   1      42.548  27.430  29.093  1.00  0.00     0.167 HD
ATOM     53  C   UNL A   1      44.128  31.203  30.670  1.00  0.00     0.037 A 
ATOM     54  C   UNL A   1      42.785  24.868  28.007  1.00  0.00     0.037 A 
ATOM     55  C   UNL A   1      45.261  30.320  30.606  1.00  0.00     0.049 A 
ATOM     56  C   UNL A   1      44.162  25.261  28.459  1.00  0.00     0.074 A 
ATOM     57  C   UNL A   1      46.560  30.552  31.020  1.00  0.00     0.029 A 
ATOM     58  N   UNL A   1      45.223  29.028  30.105  1.00  0.00    -0.354 N 
ATOM     59  N   UNL A   1      44.565  26.390  28.991  1.00  0.00    -0.248 NA
ATOM     60  C   UNL A   1      45.225  24.261  28.292  1.00  0.00     0.031 C 
ATOM     61  C   UNL A   1      47.316  29.407  30.744  1.00  0.00     0.029 A 
ATOM     62  C   UNL A   1      46.479  28.452  30.192  1.00  0.00     0.049 A 
ATOM     63  H   UNL A   1      44.422  28.586  29.740  1.00  0.00     0.167 HD
ATOM     64  C   UNL A   1      45.921  26.229  29.242  1.00  0.00     0.074 A 
ATOM     65  C   UNL A   1      46.269  24.888  28.818  1.00  0.00     0.031 C 
ATOM     66  C   UNL A   1      46.801  27.113  29.773  1.00  0.00     0.037 A 
BRANCH  53  67
ATOM     67  C   UNL A   1      44.331  32.595  31.193  1.00  0.00     0.057 A 
ATOM     68  C   UNL A   1      44.652  33.663  30.344  1.00  0.00     0.134 A 
ATOM     69  C   UNL A   1      44.186  32.875  32.558  1.00  0.00     0.134 A 
ATOM     70  F   UNL A   1      44.820  33.457  29.029  1.00  0.00    -0.206 F 
ATOM     71  C   UNL A   1      44.853  34.952  30.836  1.00  0.00     0.040 A 
ATOM     72  C   UNL A   1      44.358  34.167  33.058  1.00  0.00     0.040 A 
ATOM     73  F   UNL A   1      43.875  31.901  33.425  1.00  0.00    -0.206 F 
ATOM     74  C   UNL A   1      44.700  35.209  32.197  1.00  0.00     0.006 A 
ENDBRANCH  53  67
BRANCH  54  75
ATOM     75  C   UNL A   1      42.535  23.535  27.405  1.00  0.00     0.057 A 
ATOM     76  C   UNL A   1      42.242  22.426  28.207  1.00  0.00     0.134 A 
ATOM     77  C   UNL A   1      42.584  23.335  26.019  1.00  0.00     0.134 A 
ATOM     78  F   UNL A   1      42.200  22.553  29.541  1.00  0.00    -0.206 F 
ATOM     79  C   UNL A   1      42.023  21.163  27.657  1.00  0.00     0.040 A 
ATOM     80  C   UNL A   1      42.345  22.082  25.454  1.00  0.00     0.040 A 
ATOM     81  F   UNL A   1      42.852  24.360  25.196  1.00  0.00    -0.206 F 
ATOM     82  C   UNL A   1      42.071  20.989  26.275  1.00  0.00     0.006 A 
ENDBRANCH  54  75
BRANCH  66  83
ATOM     83  C   UNL A   1      48.213  26.646  29.952  1.00  0.00     0.057 A 
ATOM     84  C   UNL A   1      48.622  25.961  31.103  1.00  0.00     0.134 A 
ATOM     85  C   UNL A   1      49.163  26.846  28.942  1.00  0.00     0.134 A 
ATOM     86  F   UNL A   1      47.761  25.750  32.110  1.00  0.00    -0.206 F 
ATOM     87  C   UNL A   1      49.932  25.505  31.251  1.00  0.00     0.040 A 
ATOM     88  C   UNL A   1      50.470  26.376  29.069  1.00  0.00     0.040 A 
ATOM     89  F   UNL A   1      48.832  27.489  27.813  1.00  0.00    -0.206 F 
ATOM     90  C   UNL A   1      50.859  25.706  30.228  1.00  0.00     0.006 A 
ENDBRANCH  66  83
ENDBRANCH  40  41
ENDBRANCH  32  35
ENDBRANCH  30  31
ENDBRANCH  29  30
ENDBRANCH  28  29
ENDBRANCH   3  28
TORSDOF 15
ENDMDL
