MODEL 1
REMARK VINA RESULT:     -12.1      0.000      0.000
REMARK SMILES O=C(NCCCNC(=O)c1ccc(-c2c3nc(c(-c4c(F)cccc4F)c4ccc([nH]4)c(-c4c(F)cccc4F)c4nc(c(-c5c(F)cccc5F)c5ccc2[nH]5)C=C4)C=C3)cc1)C1=Cc2cc(Cl)cc(Cl)c2O[C@@H]1C(F)(F)F
REMARK SMILES IDX 5 1 4 2 3 3 1 4 2 5 64 7 65 8 75 9 66 10 74 11 67 12 73 13
REMARK SMILES IDX 68 14 71 15 69 16 70 17 72 18 76 19 77 20 78 21 79 22 6 23
REMARK SMILES IDX 7 24 8 25 9 27 10 28 11 29 63 30 12 31 62 32 13 33 14 34
REMARK SMILES IDX 15 35 56 36 16 37 61 38 55 39 57 40 17 41 60 42 54 43 53 44
REMARK SMILES IDX 18 46 44 47 27 48 43 49 28 50 31 51 42 52 58 53 29 54 30 55
REMARK SMILES IDX 41 57 59 58 32 59 19 60 20 61 25 62 21 63 22 64 24 65 26 66
REMARK SMILES IDX 23 67 45 68 46 69 51 70 47 71 48 72 50 73 52 74 49 75 33 76
REMARK SMILES IDX 34 77 39 78 35 79 36 80 38 81 40 82 37 83
REMARK H PARENT 3 6 7 26 57 45 31 56
REMARK Flexibility Score: inf
ROOT
ATOM      1  C   UNL A   1      31.794  29.938  26.910  1.00  0.00     0.042 C 
ENDROOT
BRANCH   1   2
ATOM      2  C   UNL A   1      32.223  28.657  27.619  1.00  0.00     0.118 C 
BRANCH   2   3
ATOM      3  N   UNL A   1      31.394  27.498  27.284  1.00  0.00    -0.352 N 
ATOM      4  O   UNL A   1      30.929  25.439  26.476  1.00  0.00    -0.270 OA
ATOM      5  C   UNL A   1      31.628  26.443  26.432  1.00  0.00     0.251 C 
ATOM      6  H   UNL A   1      30.525  27.467  27.747  1.00  0.00     0.163 HD
BRANCH   5   7
ATOM      7  C   UNL A   1      32.823  26.509  25.564  1.00  0.00     0.067 C 
ATOM      8  C   UNL A   1      34.025  26.069  25.964  1.00  0.00     0.025 C 
ATOM      9  C   UNL A   1      32.582  26.799  24.117  1.00  0.00     0.314 C 
ATOM     10  C   UNL A   1      34.512  25.001  25.064  1.00  0.00     0.020 A 
ATOM     11  O   UNL A   1      33.002  25.706  23.271  1.00  0.00    -0.474 OA
ATOM     12  C   UNL A   1      35.282  23.963  25.614  1.00  0.00     0.032 A 
ATOM     13  C   UNL A   1      33.912  24.815  23.798  1.00  0.00     0.146 A 
ATOM     14  C   UNL A   1      35.420  22.754  24.927  1.00  0.00     0.043 A 
ATOM     15  C   UNL A   1      34.084  23.603  23.112  1.00  0.00     0.085 A 
ATOM     16  Cl  UNL A   1      36.248  21.440  25.673  1.00  0.00    -0.084 Cl
ATOM     17  C   UNL A   1      34.823  22.567  23.682  1.00  0.00     0.045 A 
ATOM     18  Cl  UNL A   1      33.266  23.299  21.621  1.00  0.00    -0.080 Cl
BRANCH   9  19
ATOM     19  C   UNL A   1      33.281  28.111  23.708  1.00  0.00     0.429 C 
ATOM     20  F   UNL A   1      34.049  27.936  22.606  1.00  0.00    -0.167 F 
ATOM     21  F   UNL A   1      32.392  29.090  23.415  1.00  0.00    -0.167 F 
ATOM     22  F   UNL A   1      34.090  28.589  24.685  1.00  0.00    -0.167 F 
ENDBRANCH   9  19
ENDBRANCH   5   7
ENDBRANCH   2   3
ENDBRANCH   1   2
BRANCH   1  23
ATOM     23  C   UNL A   1      32.895  30.993  26.882  1.00  0.00     0.118 C 
BRANCH  23  24
ATOM     24  N   UNL A   1      32.423  32.343  27.180  1.00  0.00    -0.352 N 
ATOM     25  C   UNL A   1      32.970  33.376  27.920  1.00  0.00     0.251 C 
ATOM     26  H   UNL A   1      31.550  32.558  26.779  1.00  0.00     0.163 HD
ATOM     27  O   UNL A   1      32.315  34.381  28.119  1.00  0.00    -0.269 OA
BRANCH  25  28
ATOM     28  C   UNL A   1      34.323  33.249  28.518  1.00  0.00     0.039 A 
ATOM     29  C   UNL A   1      34.450  32.651  29.776  1.00  0.00     0.014 A 
ATOM     30  C   UNL A   1      35.461  33.690  27.849  1.00  0.00     0.014 A 
ATOM     31  C   UNL A   1      35.721  32.368  30.288  1.00  0.00     0.010 A 
ATOM     32  C   UNL A   1      36.718  33.298  28.296  1.00  0.00     0.010 A 
ATOM     33  C   UNL A   1      36.864  32.610  29.509  1.00  0.00    -0.014 A 
BRANCH  33  34
ATOM     34  C   UNL A   1      38.210  32.113  29.900  1.00  0.00     0.031 A 
ATOM     35  C   UNL A   1      38.711  30.793  29.379  1.00  0.00     0.074 A 
ATOM     36  C   UNL A   1      38.923  32.783  30.829  1.00  0.00     0.049 A 
ATOM     37  N   UNL A   1      39.756  30.097  29.754  1.00  0.00    -0.248 NA
ATOM     38  C   UNL A   1      37.907  30.148  28.329  1.00  0.00     0.031 C 
ATOM     39  C   UNL A   1      38.526  34.042  31.463  1.00  0.00     0.029 A 
ATOM     40  N   UNL A   1      40.126  32.484  31.422  1.00  0.00    -0.354 N 
ATOM     41  C   UNL A   1      39.712  28.923  29.014  1.00  0.00     0.074 A 
ATOM     42  C   UNL A   1      38.513  28.976  28.205  1.00  0.00     0.031 C 
ATOM     43  C   UNL A   1      39.476  34.420  32.333  1.00  0.00     0.029 A 
ATOM     44  C   UNL A   1      40.521  33.406  32.363  1.00  0.00     0.049 A 
ATOM     45  H   UNL A   1      40.655  31.686  31.196  1.00  0.00     0.167 HD
ATOM     46  C   UNL A   1      40.601  27.902  28.993  1.00  0.00     0.037 A 
ATOM     47  C   UNL A   1      41.594  33.422  33.177  1.00  0.00     0.037 A 
ATOM     48  C   UNL A   1      41.820  27.875  29.756  1.00  0.00     0.049 A 
ATOM     49  C   UNL A   1      42.571  32.282  33.126  1.00  0.00     0.074 A 
ATOM     50  C   UNL A   1      42.831  26.930  29.734  1.00  0.00     0.029 A 
ATOM     51  N   UNL A   1      42.196  28.843  30.675  1.00  0.00    -0.354 N 
ATOM     52  N   UNL A   1      42.545  31.206  32.378  1.00  0.00    -0.248 NA
ATOM     53  C   UNL A   1      43.720  32.354  34.039  1.00  0.00     0.031 C 
ATOM     54  C   UNL A   1      43.802  27.307  30.667  1.00  0.00     0.029 A 
ATOM     55  C   UNL A   1      43.414  28.506  31.243  1.00  0.00     0.049 A 
ATOM     56  H   UNL A   1      41.675  29.650  30.891  1.00  0.00     0.167 HD
ATOM     57  C   UNL A   1      43.678  30.481  32.719  1.00  0.00     0.074 A 
ATOM     58  C   UNL A   1      44.382  31.249  33.724  1.00  0.00     0.031 C 
ATOM     59  C   UNL A   1      44.096  29.282  32.245  1.00  0.00     0.037 A 
BRANCH  46  60
ATOM     60  C   UNL A   1      40.296  26.734  28.099  1.00  0.00     0.057 A 
ATOM     61  C   UNL A   1      40.856  26.618  26.820  1.00  0.00     0.134 A 
ATOM     62  C   UNL A   1      39.464  25.696  28.537  1.00  0.00     0.134 A 
ATOM     63  F   UNL A   1      41.652  27.583  26.337  1.00  0.00    -0.206 F 
ATOM     64  C   UNL A   1      40.578  25.525  25.998  1.00  0.00     0.040 A 
ATOM     65  C   UNL A   1      39.199  24.586  27.734  1.00  0.00     0.040 A 
ATOM     66  F   UNL A   1      38.900  25.741  29.754  1.00  0.00    -0.206 F 
ATOM     67  C   UNL A   1      39.752  24.501  26.458  1.00  0.00     0.006 A 
ENDBRANCH  46  60
BRANCH  47  68
ATOM     68  C   UNL A   1      41.806  34.559  34.108  1.00  0.00     0.057 A 
ATOM     69  C   UNL A   1      41.320  34.512  35.419  1.00  0.00     0.134 A 
ATOM     70  C   UNL A   1      42.486  35.717  33.713  1.00  0.00     0.134 A 
ATOM     71  F   UNL A   1      40.642  33.437  35.849  1.00  0.00    -0.206 F 
ATOM     72  C   UNL A   1      41.485  35.581  36.301  1.00  0.00     0.040 A 
ATOM     73  C   UNL A   1      42.682  36.785  34.592  1.00  0.00     0.040 A 
ATOM     74  F   UNL A   1      42.983  35.821  32.472  1.00  0.00    -0.206 F 
ATOM     75  C   UNL A   1      42.174  36.721  35.888  1.00  0.00     0.006 A 
ENDBRANCH  47  68
BRANCH  59  76
ATOM     76  C   UNL A   1      45.376  28.736  32.802  1.00  0.00     0.057 A 
ATOM     77  C   UNL A   1      45.385  27.869  33.901  1.00  0.00     0.134 A 
ATOM     78  C   UNL A   1      46.605  29.048  32.209  1.00  0.00     0.134 A 
ATOM     79  F   UNL A   1      44.240  27.546  34.522  1.00  0.00    -0.206 F 
ATOM     80  C   UNL A   1      46.577  27.342  34.402  1.00  0.00     0.040 A 
ATOM     81  C   UNL A   1      47.801  28.508  32.685  1.00  0.00     0.040 A 
ATOM     82  F   UNL A   1      46.663  29.867  31.149  1.00  0.00    -0.206 F 
ATOM     83  C   UNL A   1      47.787  27.656  33.788  1.00  0.00     0.006 A 
ENDBRANCH  59  76
ENDBRANCH  33  34
ENDBRANCH  25  28
ENDBRANCH  23  24
ENDBRANCH   1  23
TORSDOF 11
ENDMDL
MODEL 2
REMARK VINA RESULT:     -12.0      3.788      8.396
REMARK SMILES O=C(NCCCNC(=O)c1ccc(-c2c3nc(c(-c4c(F)cccc4F)c4ccc([nH]4)c(-c4c(F)cccc4F)c4nc(c(-c5c(F)cccc5F)c5ccc2[nH]5)C=C4)C=C3)cc1)C1=Cc2cc(Cl)cc(Cl)c2O[C@@H]1C(F)(F)F
REMARK SMILES IDX 5 1 4 2 3 3 1 4 2 5 64 7 65 8 75 9 66 10 74 11 67 12 73 13
REMARK SMILES IDX 68 14 71 15 69 16 70 17 72 18 76 19 77 20 78 21 79 22 6 23
REMARK SMILES IDX 7 24 8 25 9 27 10 28 11 29 63 30 12 31 62 32 13 33 14 34
REMARK SMILES IDX 15 35 56 36 16 37 61 38 55 39 57 40 17 41 60 42 54 43 53 44
REMARK SMILES IDX 18 46 44 47 27 48 43 49 28 50 31 51 42 52 58 53 29 54 30 55
REMARK SMILES IDX 41 57 59 58 32 59 19 60 20 61 25 62 21 63 22 64 24 65 26 66
REMARK SMILES IDX 23 67 45 68 46 69 51 70 47 71 48 72 50 73 52 74 49 75 33 76
REMARK SMILES IDX 34 77 39 78 35 79 36 80 38 81 40 82 37 83
REMARK H PARENT 3 6 7 26 57 45 31 56
REMARK Flexibility Score: inf
ROOT
ATOM      1  C   UNL A   1      37.309  21.353  24.516  1.00  0.00     0.042 C 
ENDROOT
BRANCH   1   2
ATOM      2  C   UNL A   1      37.074  22.802  24.100  1.00  0.00     0.118 C 
BRANCH   2   3
ATOM      3  N   UNL A   1      35.921  22.976  23.215  1.00  0.00    -0.352 N 
ATOM      4  O   UNL A   1      33.939  23.817  22.525  1.00  0.00    -0.270 OA
ATOM      5  C   UNL A   1      34.682  23.526  23.453  1.00  0.00     0.251 C 
ATOM      6  H   UNL A   1      36.055  22.648  22.296  1.00  0.00     0.163 HD
BRANCH   5   7
ATOM      7  C   UNL A   1      34.338  23.873  24.848  1.00  0.00     0.067 C 
ATOM      8  C   UNL A   1      34.791  24.986  25.443  1.00  0.00     0.025 C 
ATOM      9  C   UNL A   1      33.220  23.099  25.473  1.00  0.00     0.314 C 
ATOM     10  C   UNL A   1      33.662  25.836  25.880  1.00  0.00     0.020 A 
ATOM     11  O   UNL A   1      32.105  23.948  25.821  1.00  0.00    -0.474 OA
ATOM     12  C   UNL A   1      33.821  27.231  25.840  1.00  0.00     0.032 A 
ATOM     13  C   UNL A   1      32.359  25.296  25.958  1.00  0.00     0.146 A 
ATOM     14  C   UNL A   1      32.700  28.065  25.845  1.00  0.00     0.043 A 
ATOM     15  C   UNL A   1      31.246  26.151  25.987  1.00  0.00     0.085 A 
ATOM     16  Cl  UNL A   1      32.902  29.766  25.655  1.00  0.00    -0.084 Cl
ATOM     17  C   UNL A   1      31.414  27.533  25.914  1.00  0.00     0.045 A 
ATOM     18  Cl  UNL A   1      29.637  25.521  25.960  1.00  0.00    -0.080 Cl
BRANCH   9  19
ATOM     19  C   UNL A   1      33.727  22.323  26.706  1.00  0.00     0.429 C 
ATOM     20  F   UNL A   1      33.264  22.871  27.855  1.00  0.00    -0.167 F 
ATOM     21  F   UNL A   1      33.320  21.032  26.695  1.00  0.00    -0.167 F 
ATOM     22  F   UNL A   1      35.081  22.313  26.787  1.00  0.00    -0.167 F 
ENDBRANCH   9  19
ENDBRANCH   5   7
ENDBRANCH   2   3
ENDBRANCH   1   2
BRANCH   1  23
ATOM     23  C   UNL A   1      38.247  21.229  25.712  1.00  0.00     0.118 C 
BRANCH  23  24
ATOM     24  N   UNL A   1      39.166  20.096  25.624  1.00  0.00    -0.352 N 
ATOM     25  C   UNL A   1      40.504  19.959  25.945  1.00  0.00     0.251 C 
ATOM     26  H   UNL A   1      38.754  19.276  25.267  1.00  0.00     0.163 HD
ATOM     27  O   UNL A   1      41.083  18.927  25.664  1.00  0.00    -0.269 OA
BRANCH  25  28
ATOM     28  C   UNL A   1      41.252  21.074  26.577  1.00  0.00     0.039 A 
ATOM     29  C   UNL A   1      41.859  22.030  25.756  1.00  0.00     0.014 A 
ATOM     30  C   UNL A   1      41.343  21.200  27.960  1.00  0.00     0.014 A 
ATOM     31  C   UNL A   1      42.425  23.178  26.323  1.00  0.00     0.010 A 
ATOM     32  C   UNL A   1      41.792  22.394  28.516  1.00  0.00     0.010 A 
ATOM     33  C   UNL A   1      42.316  23.408  27.703  1.00  0.00    -0.014 A 
BRANCH  33  34
ATOM     34  C   UNL A   1      42.684  24.711  28.320  1.00  0.00     0.031 A 
ATOM     35  C   UNL A   1      41.638  25.773  28.528  1.00  0.00     0.074 A 
ATOM     36  C   UNL A   1      43.981  24.988  28.568  1.00  0.00     0.049 A 
ATOM     37  N   UNL A   1      41.789  27.032  28.859  1.00  0.00    -0.248 NA
ATOM     38  C   UNL A   1      40.240  25.382  28.288  1.00  0.00     0.031 C 
ATOM     39  C   UNL A   1      45.103  24.071  28.354  1.00  0.00     0.029 A 
ATOM     40  N   UNL A   1      44.579  26.134  29.034  1.00  0.00    -0.354 N 
ATOM     41  C   UNL A   1      40.516  27.585  28.831  1.00  0.00     0.074 A 
ATOM     42  C   UNL A   1      39.610  26.542  28.403  1.00  0.00     0.031 C 
ATOM     43  C   UNL A   1      46.246  24.678  28.711  1.00  0.00     0.029 A 
ATOM     44  C   UNL A   1      45.948  26.043  29.124  1.00  0.00     0.049 A 
ATOM     45  H   UNL A   1      44.076  26.943  29.279  1.00  0.00     0.167 HD
ATOM     46  C   UNL A   1      40.132  28.843  29.154  1.00  0.00     0.037 A 
ATOM     47  C   UNL A   1      46.865  26.963  29.479  1.00  0.00     0.037 A 
ATOM     48  C   UNL A   1      41.027  29.864  29.631  1.00  0.00     0.049 A 
ATOM     49  C   UNL A   1      46.412  28.349  29.843  1.00  0.00     0.074 A 
ATOM     50  C   UNL A   1      40.722  31.140  30.072  1.00  0.00     0.029 A 
ATOM     51  N   UNL A   1      42.402  29.721  29.736  1.00  0.00    -0.354 N 
ATOM     52  N   UNL A   1      45.198  28.840  29.867  1.00  0.00    -0.248 NA
ATOM     53  C   UNL A   1      47.458  29.310  30.218  1.00  0.00     0.031 C 
ATOM     54  C   UNL A   1      41.918  31.782  30.409  1.00  0.00     0.029 A 
ATOM     55  C   UNL A   1      42.963  30.894  30.213  1.00  0.00     0.049 A 
ATOM     56  H   UNL A   1      42.905  28.906  29.505  1.00  0.00     0.167 HD
ATOM     57  C   UNL A   1      45.331  30.160  30.273  1.00  0.00     0.074 A 
ATOM     58  C   UNL A   1      46.741  30.388  30.505  1.00  0.00     0.031 C 
ATOM     59  C   UNL A   1      44.370  31.102  30.434  1.00  0.00     0.037 A 
BRANCH  46  60
ATOM     60  C   UNL A   1      38.676  29.180  29.019  1.00  0.00     0.057 A 
ATOM     61  C   UNL A   1      37.807  29.151  30.117  1.00  0.00     0.134 A 
ATOM     62  C   UNL A   1      38.144  29.576  27.784  1.00  0.00     0.134 A 
ATOM     63  F   UNL A   1      38.250  28.771  31.324  1.00  0.00    -0.206 F 
ATOM     64  C   UNL A   1      36.456  29.477  29.988  1.00  0.00     0.040 A 
ATOM     65  C   UNL A   1      36.801  29.928  27.648  1.00  0.00     0.040 A 
ATOM     66  F   UNL A   1      38.923  29.631  26.693  1.00  0.00    -0.206 F 
ATOM     67  C   UNL A   1      35.951  29.874  28.751  1.00  0.00     0.006 A 
ENDBRANCH  46  60
BRANCH  47  68
ATOM     68  C   UNL A   1      48.306  26.606  29.512  1.00  0.00     0.057 A 
ATOM     69  C   UNL A   1      49.134  26.862  28.414  1.00  0.00     0.134 A 
ATOM     70  C   UNL A   1      48.887  25.995  30.630  1.00  0.00     0.134 A 
ATOM     71  F   UNL A   1      48.630  27.426  27.306  1.00  0.00    -0.206 F 
ATOM     72  C   UNL A   1      50.484  26.508  28.416  1.00  0.00     0.040 A 
ATOM     73  C   UNL A   1      50.242  25.658  30.656  1.00  0.00     0.040 A 
ATOM     74  F   UNL A   1      48.149  25.730  31.718  1.00  0.00    -0.206 F 
ATOM     75  C   UNL A   1      51.043  25.908  29.544  1.00  0.00     0.006 A 
ENDBRANCH  47  68
BRANCH  59  76
ATOM     76  C   UNL A   1      44.814  32.459  30.892  1.00  0.00     0.057 A 
ATOM     77  C   UNL A   1      44.939  32.767  32.252  1.00  0.00     0.134 A 
ATOM     78  C   UNL A   1      45.158  33.450  29.965  1.00  0.00     0.134 A 
ATOM     79  F   UNL A   1      44.610  31.864  33.188  1.00  0.00    -0.206 F 
ATOM     80  C   UNL A   1      45.378  34.023  32.675  1.00  0.00     0.040 A 
ATOM     81  C   UNL A   1      45.620  34.701  30.376  1.00  0.00     0.040 A 
ATOM     82  F   UNL A   1      45.065  33.214  28.648  1.00  0.00    -0.206 F 
ATOM     83  C   UNL A   1      45.726  34.990  31.735  1.00  0.00     0.006 A 
ENDBRANCH  59  76
ENDBRANCH  33  34
ENDBRANCH  25  28
ENDBRANCH  23  24
ENDBRANCH   1  23
TORSDOF 11
ENDMDL
MODEL 3
REMARK VINA RESULT:     -12.0      3.045      7.414
REMARK SMILES O=C(NCCCNC(=O)c1ccc(-c2c3nc(c(-c4c(F)cccc4F)c4ccc([nH]4)c(-c4c(F)cccc4F)c4nc(c(-c5c(F)cccc5F)c5ccc2[nH]5)C=C4)C=C3)cc1)C1=Cc2cc(Cl)cc(Cl)c2O[C@@H]1C(F)(F)F
REMARK SMILES IDX 5 1 4 2 3 3 1 4 2 5 64 7 65 8 75 9 66 10 74 11 67 12 73 13
REMARK SMILES IDX 68 14 71 15 69 16 70 17 72 18 76 19 77 20 78 21 79 22 6 23
REMARK SMILES IDX 7 24 8 25 9 27 10 28 11 29 63 30 12 31 62 32 13 33 14 34
REMARK SMILES IDX 15 35 56 36 16 37 61 38 55 39 57 40 17 41 60 42 54 43 53 44
REMARK SMILES IDX 18 46 44 47 27 48 43 49 28 50 31 51 42 52 58 53 29 54 30 55
REMARK SMILES IDX 41 57 59 58 32 59 19 60 20 61 25 62 21 63 22 64 24 65 26 66
REMARK SMILES IDX 23 67 45 68 46 69 51 70 47 71 48 72 50 73 52 74 49 75 33 76
REMARK SMILES IDX 34 77 39 78 35 79 36 80 38 81 40 82 37 83
REMARK H PARENT 3 6 7 26 57 45 31 56
REMARK Flexibility Score: inf
ROOT
ATOM      1  C   UNL A   1      31.988  28.708  27.026  1.00  0.00     0.042 C 
ENDROOT
BRANCH   1   2
ATOM      2  C   UNL A   1      31.755  27.481  26.150  1.00  0.00     0.118 C 
BRANCH   2   3
ATOM      3  N   UNL A   1      31.431  26.273  26.910  1.00  0.00    -0.352 N 
ATOM      4  O   UNL A   1      31.629  24.123  27.580  1.00  0.00    -0.270 OA
ATOM      5  C   UNL A   1      31.779  24.958  26.698  1.00  0.00     0.251 C 
ATOM      6  H   UNL A   1      30.872  26.426  27.707  1.00  0.00     0.163 HD
BRANCH   5   7
ATOM      7  C   UNL A   1      32.458  24.620  25.430  1.00  0.00     0.067 C 
ATOM      8  C   UNL A   1      33.710  25.017  25.158  1.00  0.00     0.025 C 
ATOM      9  C   UNL A   1      31.815  23.563  24.589  1.00  0.00     0.314 C 
ATOM     10  C   UNL A   1      34.584  23.848  24.919  1.00  0.00     0.020 A 
ATOM     11  O   UNL A   1      32.666  22.406  24.435  1.00  0.00    -0.474 OA
ATOM     12  C   UNL A   1      35.927  23.924  25.323  1.00  0.00     0.032 A 
ATOM     13  C   UNL A   1      34.015  22.581  24.660  1.00  0.00     0.146 A 
ATOM     14  C   UNL A   1      36.673  22.755  25.496  1.00  0.00     0.043 A 
ATOM     15  C   UNL A   1      34.789  21.421  24.815  1.00  0.00     0.085 A 
ATOM     16  Cl  UNL A   1      38.274  22.852  26.127  1.00  0.00    -0.084 Cl
ATOM     17  C   UNL A   1      36.111  21.505  25.249  1.00  0.00     0.045 A 
ATOM     18  Cl  UNL A   1      34.090  19.852  24.625  1.00  0.00    -0.080 Cl
BRANCH   9  19
ATOM     19  C   UNL A   1      31.415  24.138  23.215  1.00  0.00     0.429 C 
ATOM     20  F   UNL A   1      30.282  23.559  22.752  1.00  0.00    -0.167 F 
ATOM     21  F   UNL A   1      31.182  25.470  23.271  1.00  0.00    -0.167 F 
ATOM     22  F   UNL A   1      32.375  23.942  22.277  1.00  0.00    -0.167 F 
ENDBRANCH   9  19
ENDBRANCH   5   7
ENDBRANCH   2   3
ENDBRANCH   1   2
BRANCH   1  23
ATOM     23  C   UNL A   1      33.468  29.035  27.200  1.00  0.00     0.118 C 
BRANCH  23  24
ATOM     24  N   UNL A   1      33.715  30.325  27.838  1.00  0.00    -0.352 N 
ATOM     25  C   UNL A   1      34.820  30.845  28.485  1.00  0.00     0.251 C 
ATOM     26  H   UNL A   1      32.947  30.941  27.802  1.00  0.00     0.163 HD
ATOM     27  O   UNL A   1      34.734  31.921  29.046  1.00  0.00    -0.269 OA
BRANCH  25  28
ATOM     28  C   UNL A   1      36.091  30.081  28.551  1.00  0.00     0.039 A 
ATOM     29  C   UNL A   1      36.935  30.079  27.435  1.00  0.00     0.014 A 
ATOM     30  C   UNL A   1      36.469  29.389  29.698  1.00  0.00     0.014 A 
ATOM     31  C   UNL A   1      38.210  29.509  27.526  1.00  0.00     0.010 A 
ATOM     32  C   UNL A   1      37.776  28.935  29.830  1.00  0.00     0.010 A 
ATOM     33  C   UNL A   1      38.672  29.011  28.754  1.00  0.00    -0.014 A 
BRANCH  33  34
ATOM     34  C   UNL A   1      40.091  28.616  28.966  1.00  0.00     0.031 A 
ATOM     35  C   UNL A   1      41.089  29.622  29.473  1.00  0.00     0.074 A 
ATOM     36  C   UNL A   1      40.508  27.395  28.574  1.00  0.00     0.049 A 
ATOM     37  N   UNL A   1      42.395  29.536  29.533  1.00  0.00    -0.248 NA
ATOM     38  C   UNL A   1      40.553  30.913  29.933  1.00  0.00     0.031 C 
ATOM     39  C   UNL A   1      39.657  26.346  28.007  1.00  0.00     0.029 A 
ATOM     40  N   UNL A   1      41.763  26.835  28.569  1.00  0.00    -0.354 N 
ATOM     41  C   UNL A   1      42.833  30.768  30.000  1.00  0.00     0.074 A 
ATOM     42  C   UNL A   1      41.662  31.601  30.162  1.00  0.00     0.031 C 
ATOM     43  C   UNL A   1      40.406  25.265  27.736  1.00  0.00     0.029 A 
ATOM     44  C   UNL A   1      41.797  25.561  28.054  1.00  0.00     0.049 A 
ATOM     45  H   UNL A   1      42.562  27.303  28.904  1.00  0.00     0.167 HD
ATOM     46  C   UNL A   1      44.096  31.163  30.291  1.00  0.00     0.037 A 
ATOM     47  C   UNL A   1      42.835  24.730  27.840  1.00  0.00     0.037 A 
ATOM     48  C   UNL A   1      45.253  30.315  30.182  1.00  0.00     0.049 A 
ATOM     49  C   UNL A   1      44.224  25.189  28.180  1.00  0.00     0.074 A 
ATOM     50  C   UNL A   1      46.561  30.592  30.539  1.00  0.00     0.029 A 
ATOM     51  N   UNL A   1      45.239  29.021  29.683  1.00  0.00    -0.354 N 
ATOM     52  N   UNL A   1      44.616  26.337  28.676  1.00  0.00    -0.248 NA
ATOM     53  C   UNL A   1      45.316  24.240  27.922  1.00  0.00     0.031 C 
ATOM     54  C   UNL A   1      47.346  29.478  30.223  1.00  0.00     0.029 A 
ATOM     55  C   UNL A   1      46.520  28.494  29.702  1.00  0.00     0.049 A 
ATOM     56  H   UNL A   1      44.437  28.548  29.363  1.00  0.00     0.167 HD
ATOM     57  C   UNL A   1      45.995  26.245  28.802  1.00  0.00     0.074 A 
ATOM     58  C   UNL A   1      46.370  24.921  28.352  1.00  0.00     0.031 C 
ATOM     59  C   UNL A   1      46.873  27.176  29.247  1.00  0.00     0.037 A 
BRANCH  46  60
ATOM     60  C   UNL A   1      44.289  32.571  30.772  1.00  0.00     0.057 A 
ATOM     61  C   UNL A   1      44.277  32.893  32.136  1.00  0.00     0.134 A 
ATOM     62  C   UNL A   1      44.528  33.611  29.865  1.00  0.00     0.134 A 
ATOM     63  F   UNL A   1      44.043  31.945  33.055  1.00  0.00    -0.206 F 
ATOM     64  C   UNL A   1      44.469  34.203  32.579  1.00  0.00     0.040 A 
ATOM     65  C   UNL A   1      44.746  34.921  30.297  1.00  0.00     0.040 A 
ATOM     66  F   UNL A   1      44.558  33.372  28.545  1.00  0.00    -0.206 F 
ATOM     67  C   UNL A   1      44.711  35.220  31.658  1.00  0.00     0.006 A 
ENDBRANCH  46  60
BRANCH  47  68
ATOM     68  C   UNL A   1      42.602  23.376  27.278  1.00  0.00     0.057 A 
ATOM     69  C   UNL A   1      42.298  22.295  28.114  1.00  0.00     0.134 A 
ATOM     70  C   UNL A   1      42.685  23.124  25.903  1.00  0.00     0.134 A 
ATOM     71  F   UNL A   1      42.225  22.470  29.442  1.00  0.00    -0.206 F 
ATOM     72  C   UNL A   1      42.103  21.010  27.607  1.00  0.00     0.040 A 
ATOM     73  C   UNL A   1      42.468  21.849  25.380  1.00  0.00     0.040 A 
ATOM     74  F   UNL A   1      42.965  24.119  25.048  1.00  0.00    -0.206 F 
ATOM     75  C   UNL A   1      42.183  20.785  26.234  1.00  0.00     0.006 A 
ENDBRANCH  47  68
BRANCH  59  76
ATOM     76  C   UNL A   1      48.321  26.789  29.276  1.00  0.00     0.057 A 
ATOM     77  C   UNL A   1      49.189  27.121  28.228  1.00  0.00     0.134 A 
ATOM     78  C   UNL A   1      48.860  26.116  30.379  1.00  0.00     0.134 A 
ATOM     79  F   UNL A   1      48.728  27.752  27.137  1.00  0.00    -0.206 F 
ATOM     80  C   UNL A   1      50.542  26.782  28.271  1.00  0.00     0.040 A 
ATOM     81  C   UNL A   1      50.216  25.793  30.443  1.00  0.00     0.040 A 
ATOM     82  F   UNL A   1      48.082  25.776  31.417  1.00  0.00    -0.206 F 
ATOM     83  C   UNL A   1      51.059  26.123  29.383  1.00  0.00     0.006 A 
ENDBRANCH  59  76
ENDBRANCH  33  34
ENDBRANCH  25  28
ENDBRANCH  23  24
ENDBRANCH   1  23
TORSDOF 11
ENDMDL
