MODEL 1
REMARK VINA RESULT:     -12.1      0.000      0.000
REMARK SMILES O=C(NCCCNC(=O)[C@H]1C[N@H+](Cc2ccc(Cl)c(Cl)c2)CC12CCCCC2)c1ccc(-c2c3nc(c(-c4c(F)cccc4F)c4ccc([nH]4)c(-c4c(F)cccc4F)c4nc(c(-c5c(F)cccc5F)c5ccc2[nH]5)C=C4)C=C3)cc1
REMARK SMILES IDX 5 1 4 2 3 3 1 4 2 5 29 7 30 8 82 9 31 10 81 11 32 12 33 13
REMARK SMILES IDX 34 14 75 15 35 16 80 17 74 18 76 19 36 20 79 21 73 22 72 23
REMARK SMILES IDX 37 25 63 26 46 27 62 28 47 29 50 30 61 31 77 32 48 33 49 34
REMARK SMILES IDX 60 36 78 37 51 38 38 39 39 40 44 41 40 42 41 43 43 44 45 45
REMARK SMILES IDX 42 46 64 47 65 48 70 49 66 50 67 51 69 52 71 53 68 54 52 55
REMARK SMILES IDX 53 56 58 57 54 58 55 59 57 60 59 61 56 62 6 63 7 64 8 65
REMARK SMILES IDX 9 67 10 68 11 69 23 70 12 71 22 72 24 73 28 74 25 76 27 77
REMARK SMILES IDX 26 78 13 79 14 80 15 81 21 82 16 83 19 84 17 85 20 86 18 87
REMARK H PARENT 3 6 76 24 50 35 7 66 12 75
REMARK Flexibility Score: inf
ROOT
ATOM      1  C   UNL A   1      38.191  19.496  24.978  1.00  0.00     0.042 C 
ENDROOT
BRANCH   1   2
ATOM      2  C   UNL A   1      39.231  19.944  25.990  1.00  0.00     0.118 C 
BRANCH   2   3
ATOM      3  N   UNL A   1      40.471  19.182  25.874  1.00  0.00    -0.352 N 
ATOM      4  O   UNL A   1      42.683  18.859  25.576  1.00  0.00    -0.269 OA
ATOM      5  C   UNL A   1      41.777  19.595  25.961  1.00  0.00     0.251 C 
ATOM      6  H   UNL A   1      40.351  18.218  25.708  1.00  0.00     0.163 HD
BRANCH   5   7
ATOM      7  C   UNL A   1      42.090  20.929  26.509  1.00  0.00     0.039 A 
ATOM      8  C   UNL A   1      42.121  21.117  27.889  1.00  0.00     0.014 A 
ATOM      9  C   UNL A   1      42.380  21.997  25.653  1.00  0.00     0.014 A 
ATOM     10  C   UNL A   1      42.230  22.394  28.407  1.00  0.00     0.010 A 
ATOM     11  C   UNL A   1      42.645  23.262  26.187  1.00  0.00     0.010 A 
ATOM     12  C   UNL A   1      42.547  23.475  27.569  1.00  0.00    -0.014 A 
BRANCH  12  13
ATOM     13  C   UNL A   1      42.873  24.770  28.214  1.00  0.00     0.031 A 
ATOM     14  C   UNL A   1      44.285  25.162  28.536  1.00  0.00     0.074 A 
ATOM     15  C   UNL A   1      41.856  25.633  28.423  1.00  0.00     0.049 A 
ATOM     16  N   UNL A   1      44.727  26.293  29.026  1.00  0.00    -0.248 NA
ATOM     17  C   UNL A   1      45.336  24.165  28.288  1.00  0.00     0.031 C 
ATOM     18  C   UNL A   1      40.441  25.343  28.162  1.00  0.00     0.029 A 
ATOM     19  N   UNL A   1      41.850  26.936  28.844  1.00  0.00    -0.354 N 
ATOM     20  C   UNL A   1      46.099  26.138  29.164  1.00  0.00     0.074 A 
ATOM     21  C   UNL A   1      46.418  24.797  28.724  1.00  0.00     0.031 C 
ATOM     22  C   UNL A   1      39.721  26.458  28.339  1.00  0.00     0.029 A 
ATOM     23  C   UNL A   1      40.603  27.513  28.814  1.00  0.00     0.049 A 
ATOM     24  H   UNL A   1      42.659  27.413  29.141  1.00  0.00     0.167 HD
ATOM     25  C   UNL A   1      47.005  27.040  29.613  1.00  0.00     0.037 A 
ATOM     26  C   UNL A   1      40.206  28.753  29.148  1.00  0.00     0.037 A 
ATOM     27  C   UNL A   1      46.674  28.379  30.034  1.00  0.00     0.049 A 
ATOM     28  C   UNL A   1      41.234  29.724  29.640  1.00  0.00     0.074 A 
ATOM     29  C   UNL A   1      47.519  29.370  30.504  1.00  0.00     0.029 A 
ATOM     30  N   UNL A   1      45.395  28.915  30.033  1.00  0.00    -0.354 N 
ATOM     31  N   UNL A   1      42.529  29.560  29.763  1.00  0.00    -0.248 NA
ATOM     32  C   UNL A   1      40.747  31.045  30.052  1.00  0.00     0.031 C 
ATOM     33  C   UNL A   1      46.746  30.493  30.818  1.00  0.00     0.029 A 
ATOM     34  C   UNL A   1      45.425  30.218  30.504  1.00  0.00     0.049 A 
ATOM     35  H   UNL A   1      44.583  28.440  29.739  1.00  0.00     0.167 HD
ATOM     36  C   UNL A   1      43.013  30.756  30.272  1.00  0.00     0.074 A 
ATOM     37  C   UNL A   1      41.877  31.648  30.392  1.00  0.00     0.031 C 
ATOM     38  C   UNL A   1      44.280  31.081  30.623  1.00  0.00     0.037 A 
BRANCH  25  39
ATOM     39  C   UNL A   1      48.441  26.612  29.687  1.00  0.00     0.057 A 
ATOM     40  C   UNL A   1      49.353  26.902  28.665  1.00  0.00     0.134 A 
ATOM     41  C   UNL A   1      48.934  25.959  30.824  1.00  0.00     0.134 A 
ATOM     42  F   UNL A   1      48.944  27.513  27.542  1.00  0.00    -0.206 F 
ATOM     43  C   UNL A   1      50.701  26.552  28.766  1.00  0.00     0.040 A 
ATOM     44  C   UNL A   1      50.284  25.621  30.948  1.00  0.00     0.040 A 
ATOM     45  F   UNL A   1      48.116  25.654  31.843  1.00  0.00    -0.206 F 
ATOM     46  C   UNL A   1      51.171  25.917  29.915  1.00  0.00     0.006 A 
ENDBRANCH  25  39
BRANCH  26  47
ATOM     47  C   UNL A   1      38.771  29.123  29.059  1.00  0.00     0.057 A 
ATOM     48  C   UNL A   1      37.933  29.073  30.178  1.00  0.00     0.134 A 
ATOM     49  C   UNL A   1      38.205  29.542  27.848  1.00  0.00     0.134 A 
ATOM     50  F   UNL A   1      38.412  28.667  31.363  1.00  0.00    -0.206 F 
ATOM     51  C   UNL A   1      36.581  29.408  30.093  1.00  0.00     0.040 A 
ATOM     52  C   UNL A   1      36.863  29.910  27.755  1.00  0.00     0.040 A 
ATOM     53  F   UNL A   1      38.957  29.622  26.740  1.00  0.00    -0.206 F 
ATOM     54  C   UNL A   1      36.044  29.835  28.879  1.00  0.00     0.006 A 
ENDBRANCH  26  47
BRANCH  38  55
ATOM     55  C   UNL A   1      44.486  32.465  31.161  1.00  0.00     0.057 A 
ATOM     56  C   UNL A   1      44.413  32.737  32.533  1.00  0.00     0.134 A 
ATOM     57  C   UNL A   1      44.751  33.535  30.299  1.00  0.00     0.134 A 
ATOM     58  F   UNL A   1      44.144  31.755  33.407  1.00  0.00    -0.206 F 
ATOM     59  C   UNL A   1      44.563  34.033  33.027  1.00  0.00     0.040 A 
ATOM     60  C   UNL A   1      44.929  34.831  30.783  1.00  0.00     0.040 A 
ATOM     61  F   UNL A   1      44.838  33.338  28.975  1.00  0.00    -0.206 F 
ATOM     62  C   UNL A   1      44.826  35.084  32.150  1.00  0.00     0.006 A 
ENDBRANCH  38  55
ENDBRANCH  12  13
ENDBRANCH   5   7
ENDBRANCH   2   3
ENDBRANCH   1   2
BRANCH   1  63
ATOM     63  C   UNL A   1      37.452  20.669  24.358  1.00  0.00     0.117 C 
BRANCH  63  64
ATOM     64  N   UNL A   1      37.679  21.895  25.110  1.00  0.00    -0.356 N 
ATOM     65  C   UNL A   1      37.082  23.106  25.188  1.00  0.00     0.229 C 
ATOM     66  H   UNL A   1      38.457  21.825  25.709  1.00  0.00     0.163 HD
ATOM     67  O   UNL A   1      37.758  23.979  25.747  1.00  0.00    -0.275 OA
BRANCH  65  68
ATOM     68  C   UNL A   1      35.720  23.462  24.598  1.00  0.00     0.145 C 
ATOM     69  C   UNL A   1      35.443  23.030  23.172  1.00  0.00     0.276 C 
ATOM     70  C   UNL A   1      34.473  22.943  25.402  1.00  0.00     0.037 C 
ATOM     71  N   UNL A   1      34.006  22.972  23.001  1.00  0.00    -0.330 N 
ATOM     72  C   UNL A   1      33.471  22.523  24.279  1.00  0.00     0.270 C 
ATOM     73  C   UNL A   1      34.771  21.741  26.338  1.00  0.00     0.014 C 
ATOM     74  C   UNL A   1      33.891  24.066  26.294  1.00  0.00     0.014 C 
ATOM     75  H   UNL A   1      33.752  22.296  22.281  1.00  0.00     0.348 HD
ATOM     76  C   UNL A   1      33.545  21.275  27.129  1.00  0.00     0.001 C 
ATOM     77  C   UNL A   1      32.635  23.639  27.053  1.00  0.00     0.001 C 
ATOM     78  C   UNL A   1      32.900  22.414  27.917  1.00  0.00     0.000 C 
BRANCH  71  79
ATOM     79  C   UNL A   1      33.362  24.091  22.314  1.00  0.00     0.299 C 
BRANCH  79  80
ATOM     80  C   UNL A   1      32.864  25.242  23.157  1.00  0.00     0.008 A 
ATOM     81  C   UNL A   1      33.700  26.312  23.505  1.00  0.00     0.011 A 
ATOM     82  C   UNL A   1      31.544  25.236  23.638  1.00  0.00     0.031 A 
ATOM     83  C   UNL A   1      33.263  27.296  24.395  1.00  0.00     0.022 A 
ATOM     84  C   UNL A   1      31.096  26.230  24.515  1.00  0.00     0.060 A 
ATOM     85  C   UNL A   1      31.967  27.249  24.915  1.00  0.00     0.059 A 
ATOM     86  Cl  UNL A   1      29.476  26.110  25.102  1.00  0.00    -0.083 Cl
ATOM     87  Cl  UNL A   1      31.517  28.455  26.067  1.00  0.00    -0.083 Cl
ENDBRANCH  79  80
ENDBRANCH  71  79
ENDBRANCH  65  68
ENDBRANCH  63  64
ENDBRANCH   1  63
TORSDOF 12
ENDMDL
MODEL 2
REMARK VINA RESULT:     -12.0      3.278      7.957
REMARK SMILES O=C(NCCCNC(=O)[C@H]1C[N@H+](Cc2ccc(Cl)c(Cl)c2)CC12CCCCC2)c1ccc(-c2c3nc(c(-c4c(F)cccc4F)c4ccc([nH]4)c(-c4c(F)cccc4F)c4nc(c(-c5c(F)cccc5F)c5ccc2[nH]5)C=C4)C=C3)cc1
REMARK SMILES IDX 5 1 4 2 3 3 1 4 2 5 29 7 30 8 82 9 31 10 81 11 32 12 33 13
REMARK SMILES IDX 34 14 75 15 35 16 80 17 74 18 76 19 36 20 79 21 73 22 72 23
REMARK SMILES IDX 37 25 63 26 46 27 62 28 47 29 50 30 61 31 77 32 48 33 49 34
REMARK SMILES IDX 60 36 78 37 51 38 38 39 39 40 44 41 40 42 41 43 43 44 45 45
REMARK SMILES IDX 42 46 64 47 65 48 70 49 66 50 67 51 69 52 71 53 68 54 52 55
REMARK SMILES IDX 53 56 58 57 54 58 55 59 57 60 59 61 56 62 6 63 7 64 8 65
REMARK SMILES IDX 9 67 10 68 11 69 23 70 12 71 22 72 24 73 28 74 25 76 27 77
REMARK SMILES IDX 26 78 13 79 14 80 15 81 21 82 16 83 19 84 17 85 20 86 18 87
REMARK H PARENT 3 6 76 24 50 35 7 66 12 75
REMARK Flexibility Score: inf
ROOT
ATOM      1  C   UNL A   1      33.168  28.890  27.047  1.00  0.00     0.042 C 
ENDROOT
BRANCH   1   2
ATOM      2  C   UNL A   1      34.584  29.265  27.446  1.00  0.00     0.118 C 
BRANCH   2   3
ATOM      3  N   UNL A   1      34.612  30.389  28.377  1.00  0.00    -0.352 N 
ATOM      4  O   UNL A   1      35.319  31.595  30.147  1.00  0.00    -0.269 OA
ATOM      5  C   UNL A   1      35.584  30.782  29.264  1.00  0.00     0.251 C 
ATOM      6  H   UNL A   1      33.806  30.956  28.366  1.00  0.00     0.163 HD
BRANCH   5   7
ATOM      7  C   UNL A   1      36.943  30.219  29.160  1.00  0.00     0.039 A 
ATOM      8  C   UNL A   1      37.661  30.362  27.975  1.00  0.00     0.014 A 
ATOM      9  C   UNL A   1      37.524  29.565  30.252  1.00  0.00     0.014 A 
ATOM     10  C   UNL A   1      38.852  29.684  27.805  1.00  0.00     0.010 A 
ATOM     11  C   UNL A   1      38.802  29.011  30.129  1.00  0.00     0.010 A 
ATOM     12  C   UNL A   1      39.466  29.045  28.895  1.00  0.00    -0.014 A 
BRANCH  12  13
ATOM     13  C   UNL A   1      40.845  28.533  28.702  1.00  0.00     0.031 A 
ATOM     14  C   UNL A   1      41.114  27.112  28.304  1.00  0.00     0.074 A 
ATOM     15  C   UNL A   1      41.857  29.419  28.808  1.00  0.00     0.049 A 
ATOM     16  N   UNL A   1      42.260  26.545  28.023  1.00  0.00    -0.248 NA
ATOM     17  C   UNL A   1      39.960  26.205  28.216  1.00  0.00     0.031 C 
ATOM     18  C   UNL A   1      41.706  30.824  29.208  1.00  0.00     0.029 A 
ATOM     19  N   UNL A   1      43.194  29.298  28.541  1.00  0.00    -0.354 N 
ATOM     20  C   UNL A   1      41.971  25.216  27.746  1.00  0.00     0.074 A 
ATOM     21  C   UNL A   1      40.542  25.053  27.911  1.00  0.00     0.031 C 
ATOM     22  C   UNL A   1      42.880  31.452  29.071  1.00  0.00     0.029 A 
ATOM     23  C   UNL A   1      43.885  30.480  28.664  1.00  0.00     0.049 A 
ATOM     24  H   UNL A   1      43.621  28.448  28.286  1.00  0.00     0.167 HD
ATOM     25  C   UNL A   1      42.825  24.229  27.383  1.00  0.00     0.037 A 
ATOM     26  C   UNL A   1      45.189  30.754  28.488  1.00  0.00     0.037 A 
ATOM     27  C   UNL A   1      44.245  24.411  27.208  1.00  0.00     0.049 A 
ATOM     28  C   UNL A   1      46.104  29.639  28.086  1.00  0.00     0.074 A 
ATOM     29  C   UNL A   1      45.196  23.474  26.840  1.00  0.00     0.029 A 
ATOM     30  N   UNL A   1      44.916  25.611  27.385  1.00  0.00    -0.354 N 
ATOM     31  N   UNL A   1      45.813  28.387  27.827  1.00  0.00    -0.248 NA
ATOM     32  C   UNL A   1      47.528  29.968  27.964  1.00  0.00     0.031 C 
ATOM     33  C   UNL A   1      46.447  24.101  26.828  1.00  0.00     0.029 A 
ATOM     34  C   UNL A   1      46.270  25.438  27.146  1.00  0.00     0.049 A 
ATOM     35  H   UNL A   1      44.493  26.463  27.643  1.00  0.00     0.167 HD
ATOM     36  C   UNL A   1      47.017  27.776  27.516  1.00  0.00     0.074 A 
ATOM     37  C   UNL A   1      48.035  28.806  27.577  1.00  0.00     0.031 C 
ATOM     38  C   UNL A   1      47.264  26.477  27.223  1.00  0.00     0.037 A 
BRANCH  25  39
ATOM     39  C   UNL A   1      42.256  22.858  27.160  1.00  0.00     0.057 A 
ATOM     40  C   UNL A   1      41.799  22.066  28.220  1.00  0.00     0.134 A 
ATOM     41  C   UNL A   1      42.102  22.351  25.864  1.00  0.00     0.134 A 
ATOM     42  F   UNL A   1      41.930  22.486  29.488  1.00  0.00    -0.206 F 
ATOM     43  C   UNL A   1      41.217  20.816  28.000  1.00  0.00     0.040 A 
ATOM     44  C   UNL A   1      41.503  21.112  25.628  1.00  0.00     0.040 A 
ATOM     45  F   UNL A   1      42.514  23.060  24.802  1.00  0.00    -0.206 F 
ATOM     46  C   UNL A   1      41.060  20.340  26.700  1.00  0.00     0.006 A 
ENDBRANCH  25  39
BRANCH  26  47
ATOM     47  C   UNL A   1      45.699  32.127  28.724  1.00  0.00     0.057 A 
ATOM     48  C   UNL A   1      46.158  32.529  29.983  1.00  0.00     0.134 A 
ATOM     49  C   UNL A   1      45.744  33.072  27.690  1.00  0.00     0.134 A 
ATOM     50  F   UNL A   1      46.128  31.676  31.017  1.00  0.00    -0.206 F 
ATOM     51  C   UNL A   1      46.626  33.824  30.210  1.00  0.00     0.040 A 
ATOM     52  C   UNL A   1      46.239  34.359  27.895  1.00  0.00     0.040 A 
ATOM     53  F   UNL A   1      45.328  32.746  26.457  1.00  0.00    -0.206 F 
ATOM     54  C   UNL A   1      46.674  34.742  29.161  1.00  0.00     0.006 A 
ENDBRANCH  26  47
BRANCH  38  55
ATOM     55  C   UNL A   1      48.691  26.118  26.941  1.00  0.00     0.057 A 
ATOM     56  C   UNL A   1      49.538  25.634  27.947  1.00  0.00     0.134 A 
ATOM     57  C   UNL A   1      49.225  26.263  25.656  1.00  0.00     0.134 A 
ATOM     58  F   UNL A   1      49.088  25.490  29.203  1.00  0.00    -0.206 F 
ATOM     59  C   UNL A   1      50.877  25.341  27.691  1.00  0.00     0.040 A 
ATOM     60  C   UNL A   1      50.556  25.949  25.382  1.00  0.00     0.040 A 
ATOM     61  F   UNL A   1      48.463  26.717  24.649  1.00  0.00    -0.206 F 
ATOM     62  C   UNL A   1      51.388  25.495  26.403  1.00  0.00     0.006 A 
ENDBRANCH  38  55
ENDBRANCH  12  13
ENDBRANCH   5   7
ENDBRANCH   2   3
ENDBRANCH   1   2
BRANCH   1  63
ATOM     63  C   UNL A   1      33.056  27.436  26.625  1.00  0.00     0.117 C 
BRANCH  63  64
ATOM     64  N   UNL A   1      31.698  26.939  26.794  1.00  0.00    -0.356 N 
ATOM     65  C   UNL A   1      31.001  25.864  26.361  1.00  0.00     0.229 C 
ATOM     66  H   UNL A   1      31.154  27.529  27.364  1.00  0.00     0.163 HD
ATOM     67  O   UNL A   1      29.775  25.954  26.500  1.00  0.00    -0.275 OA
BRANCH  65  68
ATOM     68  C   UNL A   1      31.599  24.635  25.683  1.00  0.00     0.145 C 
ATOM     69  C   UNL A   1      30.825  23.335  25.786  1.00  0.00     0.276 C 
ATOM     70  C   UNL A   1      31.893  24.779  24.145  1.00  0.00     0.037 C 
ATOM     71  N   UNL A   1      31.242  22.486  24.690  1.00  0.00    -0.330 N 
ATOM     72  C   UNL A   1      31.502  23.380  23.571  1.00  0.00     0.270 C 
ATOM     73  C   UNL A   1      31.080  25.900  23.442  1.00  0.00     0.014 C 
ATOM     74  C   UNL A   1      33.388  25.099  23.902  1.00  0.00     0.014 C 
ATOM     75  H   UNL A   1      30.499  21.838  24.429  1.00  0.00     0.348 HD
ATOM     76  C   UNL A   1      31.407  26.036  21.953  1.00  0.00     0.001 C 
ATOM     77  C   UNL A   1      33.749  25.188  22.420  1.00  0.00     0.001 C 
ATOM     78  C   UNL A   1      32.902  26.233  21.706  1.00  0.00     0.000 C 
BRANCH  71  79
ATOM     79  C   UNL A   1      32.199  21.421  24.987  1.00  0.00     0.299 C 
BRANCH  79  80
ATOM     80  C   UNL A   1      33.625  21.818  25.287  1.00  0.00     0.008 A 
ATOM     81  C   UNL A   1      34.045  22.111  26.592  1.00  0.00     0.011 A 
ATOM     82  C   UNL A   1      34.553  21.936  24.239  1.00  0.00     0.031 A 
ATOM     83  C   UNL A   1      35.329  22.608  26.831  1.00  0.00     0.022 A 
ATOM     84  C   UNL A   1      35.847  22.415  24.477  1.00  0.00     0.060 A 
ATOM     85  C   UNL A   1      36.227  22.777  25.773  1.00  0.00     0.059 A 
ATOM     86  Cl  UNL A   1      36.902  22.581  23.120  1.00  0.00    -0.083 Cl
ATOM     87  Cl  UNL A   1      37.771  23.464  26.129  1.00  0.00    -0.083 Cl
ENDBRANCH  79  80
ENDBRANCH  71  79
ENDBRANCH  65  68
ENDBRANCH  63  64
ENDBRANCH   1  63
TORSDOF 12
ENDMDL
MODEL 3
REMARK VINA RESULT:     -12.0      4.039      8.982
REMARK SMILES O=C(NCCCNC(=O)[C@H]1C[N@H+](Cc2ccc(Cl)c(Cl)c2)CC12CCCCC2)c1ccc(-c2c3nc(c(-c4c(F)cccc4F)c4ccc([nH]4)c(-c4c(F)cccc4F)c4nc(c(-c5c(F)cccc5F)c5ccc2[nH]5)C=C4)C=C3)cc1
REMARK SMILES IDX 5 1 4 2 3 3 1 4 2 5 29 7 30 8 82 9 31 10 81 11 32 12 33 13
REMARK SMILES IDX 34 14 75 15 35 16 80 17 74 18 76 19 36 20 79 21 73 22 72 23
REMARK SMILES IDX 37 25 63 26 46 27 62 28 47 29 50 30 61 31 77 32 48 33 49 34
REMARK SMILES IDX 60 36 78 37 51 38 38 39 39 40 44 41 40 42 41 43 43 44 45 45
REMARK SMILES IDX 42 46 64 47 65 48 70 49 66 50 67 51 69 52 71 53 68 54 52 55
REMARK SMILES IDX 53 56 58 57 54 58 55 59 57 60 59 61 56 62 6 63 7 64 8 65
REMARK SMILES IDX 9 67 10 68 11 69 23 70 12 71 22 72 24 73 28 74 25 76 27 77
REMARK SMILES IDX 26 78 13 79 14 80 15 81 21 82 16 83 19 84 17 85 20 86 18 87
REMARK H PARENT 3 6 76 24 50 35 7 66 12 75
REMARK Flexibility Score: inf
ROOT
ATOM      1  C   UNL A   1      31.524  31.825  26.816  1.00  0.00     0.042 C 
ENDROOT
BRANCH   1   2
ATOM      2  C   UNL A   1      32.768  32.680  26.973  1.00  0.00     0.118 C 
BRANCH   2   3
ATOM      3  N   UNL A   1      32.501  33.901  27.730  1.00  0.00    -0.352 N 
ATOM      4  O   UNL A   1      32.619  35.320  29.478  1.00  0.00    -0.269 OA
ATOM      5  C   UNL A   1      33.148  34.426  28.820  1.00  0.00     0.251 C 
ATOM      6  H   UNL A   1      31.736  34.430  27.406  1.00  0.00     0.163 HD
BRANCH   5   7
ATOM      7  C   UNL A   1      34.475  33.910  29.207  1.00  0.00     0.039 A 
ATOM      8  C   UNL A   1      34.572  32.911  30.172  1.00  0.00     0.014 A 
ATOM      9  C   UNL A   1      35.632  34.399  28.591  1.00  0.00     0.014 A 
ATOM     10  C   UNL A   1      35.810  32.553  30.671  1.00  0.00     0.010 A 
ATOM     11  C   UNL A   1      36.885  33.921  28.989  1.00  0.00     0.010 A 
ATOM     12  C   UNL A   1      36.983  33.011  30.051  1.00  0.00    -0.014 A 
BRANCH  12  13
ATOM     13  C   UNL A   1      38.269  32.414  30.490  1.00  0.00     0.031 A 
ATOM     14  C   UNL A   1      39.055  32.980  31.635  1.00  0.00     0.074 A 
ATOM     15  C   UNL A   1      38.667  31.279  29.877  1.00  0.00     0.049 A 
ATOM     16  N   UNL A   1      40.152  32.518  32.180  1.00  0.00    -0.248 NA
ATOM     17  C   UNL A   1      38.560  34.223  32.245  1.00  0.00     0.031 C 
ATOM     18  C   UNL A   1      37.984  30.654  28.738  1.00  0.00     0.029 A 
ATOM     19  N   UNL A   1      39.698  30.421  30.150  1.00  0.00    -0.354 N 
ATOM     20  C   UNL A   1      40.491  33.419  33.180  1.00  0.00     0.074 A 
ATOM     21  C   UNL A   1      39.494  34.468  33.156  1.00  0.00     0.031 C 
ATOM     22  C   UNL A   1      38.556  29.473  28.473  1.00  0.00     0.029 A 
ATOM     23  C   UNL A   1      39.699  29.299  29.356  1.00  0.00     0.049 A 
ATOM     24  H   UNL A   1      40.374  30.590  30.846  1.00  0.00     0.167 HD
ATOM     25  C   UNL A   1      41.537  33.367  34.038  1.00  0.00     0.037 A 
ATOM     26  C   UNL A   1      40.539  28.249  29.327  1.00  0.00     0.037 A 
ATOM     27  C   UNL A   1      42.515  32.307  34.059  1.00  0.00     0.049 A 
ATOM     28  C   UNL A   1      41.684  28.224  30.291  1.00  0.00     0.074 A 
ATOM     29  C   UNL A   1      43.612  32.160  34.892  1.00  0.00     0.029 A 
ATOM     30  N   UNL A   1      42.510  31.209  33.211  1.00  0.00    -0.354 N 
ATOM     31  N   UNL A   1      41.989  29.086  31.230  1.00  0.00    -0.248 NA
ATOM     32  C   UNL A   1      42.610  27.091  30.183  1.00  0.00     0.031 C 
ATOM     33  C   UNL A   1      44.288  30.993  34.523  1.00  0.00     0.029 A 
ATOM     34  C   UNL A   1      43.590  30.388  33.491  1.00  0.00     0.049 A 
ATOM     35  H   UNL A   1      41.837  31.038  32.512  1.00  0.00     0.167 HD
ATOM     36  C   UNL A   1      43.144  28.603  31.824  1.00  0.00     0.074 A 
ATOM     37  C   UNL A   1      43.460  27.351  31.166  1.00  0.00     0.031 C 
ATOM     38  C   UNL A   1      43.888  29.153  32.814  1.00  0.00     0.037 A 
BRANCH  25  39
ATOM     39  C   UNL A   1      41.693  34.490  35.021  1.00  0.00     0.057 A 
ATOM     40  C   UNL A   1      41.156  34.423  36.312  1.00  0.00     0.134 A 
ATOM     41  C   UNL A   1      42.446  35.625  34.694  1.00  0.00     0.134 A 
ATOM     42  F   UNL A   1      40.412  33.370  36.685  1.00  0.00    -0.206 F 
ATOM     43  C   UNL A   1      41.355  35.448  37.240  1.00  0.00     0.040 A 
ATOM     44  C   UNL A   1      42.670  36.647  35.620  1.00  0.00     0.040 A 
ATOM     45  F   UNL A   1      42.993  35.752  33.476  1.00  0.00    -0.206 F 
ATOM     46  C   UNL A   1      42.122  36.560  36.897  1.00  0.00     0.006 A 
ENDBRANCH  25  39
BRANCH  26  47
ATOM     47  C   UNL A   1      40.340  27.167  28.332  1.00  0.00     0.057 A 
ATOM     48  C   UNL A   1      40.955  27.207  27.076  1.00  0.00     0.134 A 
ATOM     49  C   UNL A   1      39.531  26.059  28.618  1.00  0.00     0.134 A 
ATOM     50  F   UNL A   1      41.729  28.247  26.736  1.00  0.00    -0.206 F 
ATOM     51  C   UNL A   1      40.758  26.196  26.134  1.00  0.00     0.040 A 
ATOM     52  C   UNL A   1      39.351  25.026  27.699  1.00  0.00     0.040 A 
ATOM     53  F   UNL A   1      38.921  25.955  29.808  1.00  0.00    -0.206 F 
ATOM     54  C   UNL A   1      39.959  25.097  26.448  1.00  0.00     0.006 A 
ENDBRANCH  26  47
BRANCH  38  55
ATOM     55  C   UNL A   1      45.104  28.386  33.236  1.00  0.00     0.057 A 
ATOM     56  C   UNL A   1      45.042  27.405  34.235  1.00  0.00     0.134 A 
ATOM     57  C   UNL A   1      46.347  28.634  32.644  1.00  0.00     0.134 A 
ATOM     58  F   UNL A   1      43.882  27.135  34.852  1.00  0.00    -0.206 F 
ATOM     59  C   UNL A   1      46.184  26.723  34.655  1.00  0.00     0.040 A 
ATOM     60  C   UNL A   1      47.491  27.939  33.037  1.00  0.00     0.040 A 
ATOM     61  F   UNL A   1      46.470  29.557  31.678  1.00  0.00    -0.206 F 
ATOM     62  C   UNL A   1      47.413  26.987  34.052  1.00  0.00     0.006 A 
ENDBRANCH  38  55
ENDBRANCH  12  13
ENDBRANCH   5   7
ENDBRANCH   2   3
ENDBRANCH   1   2
BRANCH   1  63
ATOM     63  C   UNL A   1      31.828  30.483  26.172  1.00  0.00     0.117 C 
BRANCH  63  64
ATOM     64  N   UNL A   1      31.753  29.401  27.144  1.00  0.00    -0.356 N 
ATOM     65  C   UNL A   1      31.962  28.065  27.121  1.00  0.00     0.229 C 
ATOM     66  H   UNL A   1      31.487  29.721  28.036  1.00  0.00     0.163 HD
ATOM     67  O   UNL A   1      31.514  27.457  28.101  1.00  0.00    -0.275 OA
BRANCH  65  68
ATOM     68  C   UNL A   1      32.624  27.291  25.985  1.00  0.00     0.145 C 
ATOM     69  C   UNL A   1      33.131  25.896  26.294  1.00  0.00     0.276 C 
ATOM     70  C   UNL A   1      31.751  27.099  24.692  1.00  0.00     0.037 C 
ATOM     71  N   UNL A   1      33.213  25.170  25.044  1.00  0.00    -0.330 N 
ATOM     72  C   UNL A   1      32.101  25.647  24.234  1.00  0.00     0.270 C 
ATOM     73  C   UNL A   1      30.222  27.239  24.926  1.00  0.00     0.014 C 
ATOM     74  C   UNL A   1      32.132  28.144  23.615  1.00  0.00     0.014 C 
ATOM     75  H   UNL A   1      33.104  24.168  25.198  1.00  0.00     0.348 HD
ATOM     76  C   UNL A   1      29.400  27.075  23.645  1.00  0.00     0.001 C 
ATOM     77  C   UNL A   1      31.360  27.967  22.308  1.00  0.00     0.001 C 
ATOM     78  C   UNL A   1      29.856  28.027  22.541  1.00  0.00     0.000 C 
BRANCH  71  79
ATOM     79  C   UNL A   1      34.532  25.030  24.429  1.00  0.00     0.299 C 
BRANCH  79  80
ATOM     80  C   UNL A   1      35.286  23.742  24.664  1.00  0.00     0.008 A 
ATOM     81  C   UNL A   1      36.673  23.732  24.869  1.00  0.00     0.011 A 
ATOM     82  C   UNL A   1      34.600  22.517  24.644  1.00  0.00     0.031 A 
ATOM     83  C   UNL A   1      37.371  22.523  24.948  1.00  0.00     0.022 A 
ATOM     84  C   UNL A   1      35.292  21.305  24.743  1.00  0.00     0.060 A 
ATOM     85  C   UNL A   1      36.685  21.308  24.869  1.00  0.00     0.059 A 
ATOM     86  Cl  UNL A   1      34.372  19.846  24.650  1.00  0.00    -0.083 Cl
ATOM     87  Cl  UNL A   1      37.617  19.854  24.899  1.00  0.00    -0.083 Cl
ENDBRANCH  79  80
ENDBRANCH  71  79
ENDBRANCH  65  68
ENDBRANCH  63  64
ENDBRANCH   1  63
TORSDOF 12
ENDMDL
