MODEL 1
REMARK VINA RESULT:     -12.7      0.000      0.000
REMARK SMILES CN1C(=O)C[C@@H](C(=O)NCCCNC(=O)c2ccc(-c3c4nc(c(-c5c(F)cccc5F)c5ccc([nH]5)c(-c5c(F)cccc5F)c5nc(c(-c6c(F)cccc6F)c6ccc3[nH]6)C=C5)C=C4)cc2)C12CCN(c1ccc(Cl)cn1)CC2
REMARK SMILES IDX 11 1 10 2 9 3 7 4 8 5 6 7 1 8 2 9 3 10 70 11 4 12 5 13 71 14
REMARK SMILES IDX 82 15 72 16 81 17 73 18 74 19 75 20 80 21 76 22 79 23 77 24
REMARK SMILES IDX 78 25 12 26 13 27 14 28 15 30 16 31 17 32 69 33 18 34 68 35
REMARK SMILES IDX 19 36 20 37 21 38 62 39 22 40 67 41 61 42 63 43 23 44 66 45
REMARK SMILES IDX 60 46 59 47 24 49 50 50 33 51 49 52 34 53 37 54 48 55 64 56
REMARK SMILES IDX 35 57 36 58 47 60 65 61 38 62 25 63 26 64 31 65 27 66 28 67
REMARK SMILES IDX 30 68 32 69 29 70 51 71 52 72 57 73 53 74 54 75 56 76 58 77
REMARK SMILES IDX 55 78 39 79 40 80 45 81 41 82 42 83 44 84 46 85 43 86
REMARK H PARENT 9 6 13 29 63 48 37 59
REMARK Flexibility Score: inf
ROOT
ATOM      1  C   UNL A   1      36.970  20.127  24.981  1.00  0.00     0.042 C 
ENDROOT
BRANCH   1   2
ATOM      2  C   UNL A   1      35.881  21.193  24.913  1.00  0.00     0.117 C 
BRANCH   2   3
ATOM      3  N   UNL A   1      35.524  21.744  26.212  1.00  0.00    -0.356 N 
ATOM      4  C   UNL A   1      34.368  22.170  26.772  1.00  0.00     0.226 C 
ATOM      5  O   UNL A   1      34.451  22.551  27.946  1.00  0.00    -0.275 OA
ATOM      6  H   UNL A   1      36.296  21.826  26.818  1.00  0.00     0.163 HD
BRANCH   4   7
ATOM      7  C   UNL A   1      33.017  22.257  26.067  1.00  0.00     0.113 C 
ATOM      8  C   UNL A   1      33.100  22.845  22.362  1.00  0.00     0.147 C 
ATOM      9  N   UNL A   1      33.009  22.395  23.738  1.00  0.00    -0.339 N 
ATOM     10  C   UNL A   1      32.680  21.075  24.020  1.00  0.00     0.223 C 
ATOM     11  C   UNL A   1      32.873  23.277  24.910  1.00  0.00     0.058 C 
ATOM     12  O   UNL A   1      32.545  20.173  23.205  1.00  0.00    -0.275 OA
ATOM     13  C   UNL A   1      32.541  20.917  25.507  1.00  0.00     0.116 C 
ATOM     14  C   UNL A   1      33.925  24.413  24.944  1.00  0.00     0.051 C 
ATOM     15  C   UNL A   1      31.435  23.893  24.907  1.00  0.00     0.051 C 
ATOM     16  C   UNL A   1      33.650  25.428  26.041  1.00  0.00     0.120 C 
ATOM     17  C   UNL A   1      31.229  24.997  25.957  1.00  0.00     0.120 C 
ATOM     18  N   UNL A   1      32.317  25.940  25.803  1.00  0.00    -0.356 N 
BRANCH  18  19
ATOM     19  C   UNL A   1      32.106  27.296  25.894  1.00  0.00     0.128 A 
ATOM     20  C   UNL A   1      32.389  27.946  27.099  1.00  0.00     0.048 A 
ATOM     21  N   UNL A   1      31.651  27.975  24.823  1.00  0.00    -0.238 NA
ATOM     22  C   UNL A   1      32.185  29.317  27.224  1.00  0.00     0.026 A 
ATOM     23  C   UNL A   1      31.427  29.306  24.974  1.00  0.00     0.134 A 
ATOM     24  C   UNL A   1      31.679  30.012  26.140  1.00  0.00     0.059 A 
ATOM     25  Cl  UNL A   1      31.383  31.698  26.244  1.00  0.00    -0.083 Cl
ENDBRANCH  18  19
ENDBRANCH   4   7
ENDBRANCH   2   3
ENDBRANCH   1   2
BRANCH   1  26
ATOM     26  C   UNL A   1      38.309  20.674  25.453  1.00  0.00     0.118 C 
BRANCH  26  27
ATOM     27  N   UNL A   1      39.293  19.609  25.598  1.00  0.00    -0.352 N 
ATOM     28  C   UNL A   1      40.628  19.700  25.910  1.00  0.00     0.251 C 
ATOM     29  H   UNL A   1      38.954  18.695  25.451  1.00  0.00     0.163 HD
ATOM     30  O   UNL A   1      41.380  18.758  25.690  1.00  0.00    -0.269 OA
BRANCH  28  31
ATOM     31  C   UNL A   1      41.152  20.945  26.510  1.00  0.00     0.039 A 
ATOM     32  C   UNL A   1      41.725  21.919  25.690  1.00  0.00     0.014 A 
ATOM     33  C   UNL A   1      41.082  21.138  27.891  1.00  0.00     0.014 A 
ATOM     34  C   UNL A   1      42.170  23.119  26.251  1.00  0.00     0.010 A 
ATOM     35  C   UNL A   1      41.439  22.364  28.434  1.00  0.00     0.010 A 
ATOM     36  C   UNL A   1      41.996  23.365  27.622  1.00  0.00    -0.014 A 
BRANCH  36  37
ATOM     37  C   UNL A   1      42.405  24.644  28.255  1.00  0.00     0.031 A 
ATOM     38  C   UNL A   1      41.384  25.732  28.448  1.00  0.00     0.074 A 
ATOM     39  C   UNL A   1      43.699  24.867  28.555  1.00  0.00     0.049 A 
ATOM     40  N   UNL A   1      41.557  26.976  28.816  1.00  0.00    -0.248 NA
ATOM     41  C   UNL A   1      39.985  25.384  28.152  1.00  0.00     0.031 C 
ATOM     42  C   UNL A   1      44.787  23.900  28.387  1.00  0.00     0.029 A 
ATOM     43  N   UNL A   1      44.323  25.987  29.043  1.00  0.00    -0.354 N 
ATOM     44  C   UNL A   1      40.299  27.560  28.771  1.00  0.00     0.074 A 
ATOM     45  C   UNL A   1      39.379  26.554  28.288  1.00  0.00     0.031 C 
ATOM     46  C   UNL A   1      45.940  24.467  28.777  1.00  0.00     0.029 A 
ATOM     47  C   UNL A   1      45.684  25.849  29.170  1.00  0.00     0.049 A 
ATOM     48  H   UNL A   1      43.841  26.812  29.279  1.00  0.00     0.167 HD
ATOM     49  C   UNL A   1      39.938  28.817  29.121  1.00  0.00     0.037 A 
ATOM     50  C   UNL A   1      46.622  26.742  29.540  1.00  0.00     0.037 A 
ATOM     51  C   UNL A   1      40.853  29.804  29.628  1.00  0.00     0.049 A 
ATOM     52  C   UNL A   1      46.201  28.142  29.897  1.00  0.00     0.074 A 
ATOM     53  C   UNL A   1      40.580  31.088  30.063  1.00  0.00     0.029 A 
ATOM     54  N   UNL A   1      42.219  29.615  29.764  1.00  0.00    -0.354 N 
ATOM     55  N   UNL A   1      44.999  28.668  29.899  1.00  0.00    -0.248 NA
ATOM     56  C   UNL A   1      47.263  29.075  30.300  1.00  0.00     0.031 C 
ATOM     57  C   UNL A   1      41.789  31.696  30.412  1.00  0.00     0.029 A 
ATOM     58  C   UNL A   1      42.807  30.769  30.254  1.00  0.00     0.049 A 
ATOM     59  H   UNL A   1      42.701  28.784  29.545  1.00  0.00     0.167 HD
ATOM     60  C   UNL A   1      45.155  29.975  30.344  1.00  0.00     0.074 A 
ATOM     61  C   UNL A   1      46.568  30.164  30.599  1.00  0.00     0.031 C 
ATOM     62  C   UNL A   1      44.212  30.930  30.528  1.00  0.00     0.037 A 
BRANCH  49  63
ATOM     63  C   UNL A   1      38.493  29.196  28.965  1.00  0.00     0.057 A 
ATOM     64  C   UNL A   1      37.589  29.132  30.035  1.00  0.00     0.134 A 
ATOM     65  C   UNL A   1      38.005  29.665  27.738  1.00  0.00     0.134 A 
ATOM     66  F   UNL A   1      37.986  28.681  31.235  1.00  0.00    -0.206 F 
ATOM     67  C   UNL A   1      36.249  29.491  29.881  1.00  0.00     0.040 A 
ATOM     68  C   UNL A   1      36.675  30.056  27.581  1.00  0.00     0.040 A 
ATOM     69  F   UNL A   1      38.817  29.760  26.674  1.00  0.00    -0.206 F 
ATOM     70  C   UNL A   1      35.791  29.962  28.653  1.00  0.00     0.006 A 
ENDBRANCH  49  63
BRANCH  50  71
ATOM     71  C   UNL A   1      48.051  26.341  29.601  1.00  0.00     0.057 A 
ATOM     72  C   UNL A   1      48.900  26.527  28.503  1.00  0.00     0.134 A 
ATOM     73  C   UNL A   1      48.603  25.758  30.748  1.00  0.00     0.134 A 
ATOM     74  F   UNL A   1      48.427  27.065  27.368  1.00  0.00    -0.206 F 
ATOM     75  C   UNL A   1      50.237  26.127  28.534  1.00  0.00     0.040 A 
ATOM     76  C   UNL A   1      49.946  25.380  30.803  1.00  0.00     0.040 A 
ATOM     77  F   UNL A   1      47.848  25.561  31.838  1.00  0.00    -0.206 F 
ATOM     78  C   UNL A   1      50.765  25.556  29.689  1.00  0.00     0.006 A 
ENDBRANCH  50  71
BRANCH  62  79
ATOM     79  C   UNL A   1      44.654  32.250  31.088  1.00  0.00     0.057 A 
ATOM     80  C   UNL A   1      45.002  33.328  30.266  1.00  0.00     0.134 A 
ATOM     81  C   UNL A   1      44.642  32.468  32.472  1.00  0.00     0.134 A 
ATOM     82  F   UNL A   1      45.044  33.181  28.933  1.00  0.00    -0.206 F 
ATOM     83  C   UNL A   1      45.326  34.576  30.801  1.00  0.00     0.040 A 
ATOM     84  C   UNL A   1      44.938  33.717  33.017  1.00  0.00     0.040 A 
ATOM     85  F   UNL A   1      44.309  31.478  33.314  1.00  0.00    -0.206 F 
ATOM     86  C   UNL A   1      45.283  34.776  32.181  1.00  0.00     0.006 A 
ENDBRANCH  62  79
ENDBRANCH  36  37
ENDBRANCH  28  31
ENDBRANCH  26  27
ENDBRANCH   1  26
TORSDOF 11
ENDMDL
MODEL 2
REMARK VINA RESULT:     -12.5      3.686      8.645
REMARK SMILES CN1C(=O)C[C@@H](C(=O)NCCCNC(=O)c2ccc(-c3c4nc(c(-c5c(F)cccc5F)c5ccc([nH]5)c(-c5c(F)cccc5F)c5nc(c(-c6c(F)cccc6F)c6ccc3[nH]6)C=C5)C=C4)cc2)C12CCN(c1ccc(Cl)cn1)CC2
REMARK SMILES IDX 11 1 10 2 9 3 7 4 8 5 6 7 1 8 2 9 3 10 70 11 4 12 5 13 71 14
REMARK SMILES IDX 82 15 72 16 81 17 73 18 74 19 75 20 80 21 76 22 79 23 77 24
REMARK SMILES IDX 78 25 12 26 13 27 14 28 15 30 16 31 17 32 69 33 18 34 68 35
REMARK SMILES IDX 19 36 20 37 21 38 62 39 22 40 67 41 61 42 63 43 23 44 66 45
REMARK SMILES IDX 60 46 59 47 24 49 50 50 33 51 49 52 34 53 37 54 48 55 64 56
REMARK SMILES IDX 35 57 36 58 47 60 65 61 38 62 25 63 26 64 31 65 27 66 28 67
REMARK SMILES IDX 30 68 32 69 29 70 51 71 52 72 57 73 53 74 54 75 56 76 58 77
REMARK SMILES IDX 55 78 39 79 40 80 45 81 41 82 42 83 44 84 46 85 43 86
REMARK H PARENT 9 6 13 29 63 48 37 59
REMARK Flexibility Score: inf
ROOT
ATOM      1  C   UNL A   1      31.426  30.966  25.986  1.00  0.00     0.042 C 
ENDROOT
BRANCH   1   2
ATOM      2  C   UNL A   1      31.730  29.542  25.529  1.00  0.00     0.117 C 
BRANCH   2   3
ATOM      3  N   UNL A   1      32.877  29.449  24.638  1.00  0.00    -0.356 N 
ATOM      4  C   UNL A   1      33.163  28.709  23.542  1.00  0.00     0.226 C 
ATOM      5  O   UNL A   1      34.258  28.937  23.014  1.00  0.00    -0.275 OA
ATOM      6  H   UNL A   1      33.608  30.059  24.890  1.00  0.00     0.163 HD
BRANCH   4   7
ATOM      7  C   UNL A   1      32.281  27.612  22.953  1.00  0.00     0.113 C 
ATOM      8  C   UNL A   1      29.833  25.999  25.295  1.00  0.00     0.147 C 
ATOM      9  N   UNL A   1      30.590  26.733  24.299  1.00  0.00    -0.339 N 
ATOM     10  C   UNL A   1      29.941  27.602  23.430  1.00  0.00     0.223 C 
ATOM     11  C   UNL A   1      31.951  26.393  23.852  1.00  0.00     0.058 C 
ATOM     12  O   UNL A   1      28.759  27.915  23.467  1.00  0.00    -0.275 OA
ATOM     13  C   UNL A   1      30.938  28.129  22.438  1.00  0.00     0.116 C 
ATOM     14  C   UNL A   1      32.946  26.193  25.021  1.00  0.00     0.051 C 
ATOM     15  C   UNL A   1      31.882  25.089  22.990  1.00  0.00     0.051 C 
ATOM     16  C   UNL A   1      34.286  25.648  24.558  1.00  0.00     0.120 C 
ATOM     17  C   UNL A   1      33.259  24.504  22.636  1.00  0.00     0.120 C 
ATOM     18  N   UNL A   1      34.010  24.404  23.871  1.00  0.00    -0.356 N 
BRANCH  18  19
ATOM     19  C   UNL A   1      34.804  23.313  24.138  1.00  0.00     0.128 A 
ATOM     20  C   UNL A   1      36.161  23.364  23.805  1.00  0.00     0.048 A 
ATOM     21  N   UNL A   1      34.270  22.226  24.728  1.00  0.00    -0.238 NA
ATOM     22  C   UNL A   1      36.990  22.277  24.062  1.00  0.00     0.026 A 
ATOM     23  C   UNL A   1      35.087  21.163  24.941  1.00  0.00     0.134 A 
ATOM     24  C   UNL A   1      36.438  21.143  24.630  1.00  0.00     0.059 A 
ATOM     25  Cl  UNL A   1      37.406  19.764  24.945  1.00  0.00    -0.083 Cl
ENDBRANCH  18  19
ENDBRANCH   4   7
ENDBRANCH   2   3
ENDBRANCH   1   2
BRANCH   1  26
ATOM     26  C   UNL A   1      32.487  31.529  26.920  1.00  0.00     0.118 C 
BRANCH  26  27
ATOM     27  N   UNL A   1      32.249  32.939  27.201  1.00  0.00    -0.352 N 
ATOM     28  C   UNL A   1      32.913  33.774  28.066  1.00  0.00     0.251 C 
ATOM     29  H   UNL A   1      31.506  33.351  26.702  1.00  0.00     0.163 HD
ATOM     30  O   UNL A   1      32.404  34.832  28.419  1.00  0.00    -0.269 OA
BRANCH  28  31
ATOM     31  C   UNL A   1      34.246  33.386  28.572  1.00  0.00     0.039 A 
ATOM     32  C   UNL A   1      34.350  32.667  29.765  1.00  0.00     0.014 A 
ATOM     33  C   UNL A   1      35.395  33.747  27.866  1.00  0.00     0.014 A 
ATOM     34  C   UNL A   1      35.606  32.251  30.214  1.00  0.00     0.010 A 
ATOM     35  C   UNL A   1      36.631  33.258  28.263  1.00  0.00     0.010 A 
ATOM     36  C   UNL A   1      36.752  32.513  29.447  1.00  0.00    -0.014 A 
BRANCH  36  37
ATOM     37  C   UNL A   1      38.102  32.049  29.857  1.00  0.00     0.031 A 
ATOM     38  C   UNL A   1      38.610  30.724  29.356  1.00  0.00     0.074 A 
ATOM     39  C   UNL A   1      38.818  32.757  30.750  1.00  0.00     0.049 A 
ATOM     40  N   UNL A   1      39.673  30.053  29.720  1.00  0.00    -0.248 NA
ATOM     41  C   UNL A   1      37.793  30.046  28.336  1.00  0.00     0.031 C 
ATOM     42  C   UNL A   1      38.420  34.042  31.329  1.00  0.00     0.029 A 
ATOM     43  N   UNL A   1      40.024  32.484  31.346  1.00  0.00    -0.354 N 
ATOM     44  C   UNL A   1      39.637  28.870  28.995  1.00  0.00     0.074 A 
ATOM     45  C   UNL A   1      38.422  28.887  28.212  1.00  0.00     0.031 C 
ATOM     46  C   UNL A   1      39.368  34.449  32.187  1.00  0.00     0.029 A 
ATOM     47  C   UNL A   1      40.414  33.433  32.260  1.00  0.00     0.049 A 
ATOM     48  H   UNL A   1      40.557  31.683  31.140  1.00  0.00     0.167 HD
ATOM     49  C   UNL A   1      40.546  27.867  28.968  1.00  0.00     0.037 A 
ATOM     50  C   UNL A   1      41.482  33.469  33.080  1.00  0.00     0.037 A 
ATOM     51  C   UNL A   1      41.767  27.870  29.728  1.00  0.00     0.049 A 
ATOM     52  C   UNL A   1      42.465  32.329  33.055  1.00  0.00     0.074 A 
ATOM     53  C   UNL A   1      42.782  26.930  29.731  1.00  0.00     0.029 A 
ATOM     54  N   UNL A   1      42.136  28.862  30.624  1.00  0.00    -0.354 N 
ATOM     55  N   UNL A   1      42.446  31.239  32.325  1.00  0.00    -0.248 NA
ATOM     56  C   UNL A   1      43.616  32.421  33.964  1.00  0.00     0.031 C 
ATOM     57  C   UNL A   1      43.740  27.325  30.668  1.00  0.00     0.029 A 
ATOM     58  C   UNL A   1      43.353  28.544  31.203  1.00  0.00     0.049 A 
ATOM     59  H   UNL A   1      41.611  29.672  30.819  1.00  0.00     0.167 HD
ATOM     60  C   UNL A   1      43.599  30.539  32.657  1.00  0.00     0.074 A 
ATOM     61  C   UNL A   1      44.295  31.326  33.653  1.00  0.00     0.031 C 
ATOM     62  C   UNL A   1      44.044  29.353  32.175  1.00  0.00     0.037 A 
BRANCH  49  63
ATOM     63  C   UNL A   1      40.254  26.684  28.091  1.00  0.00     0.057 A 
ATOM     64  C   UNL A   1      39.414  25.641  28.506  1.00  0.00     0.134 A 
ATOM     65  C   UNL A   1      40.791  26.601  26.800  1.00  0.00     0.134 A 
ATOM     66  F   UNL A   1      38.875  25.650  29.735  1.00  0.00    -0.206 F 
ATOM     67  C   UNL A   1      39.145  24.547  27.682  1.00  0.00     0.040 A 
ATOM     68  C   UNL A   1      40.504  25.529  25.955  1.00  0.00     0.040 A 
ATOM     69  F   UNL A   1      41.597  27.568  26.334  1.00  0.00    -0.206 F 
ATOM     70  C   UNL A   1      39.684  24.493  26.399  1.00  0.00     0.006 A 
ENDBRANCH  49  63
BRANCH  50  71
ATOM     71  C   UNL A   1      41.685  34.626  33.990  1.00  0.00     0.057 A 
ATOM     72  C   UNL A   1      42.398  35.755  33.571  1.00  0.00     0.134 A 
ATOM     73  C   UNL A   1      41.183  34.631  35.297  1.00  0.00     0.134 A 
ATOM     74  F   UNL A   1      42.919  35.805  32.336  1.00  0.00    -0.206 F 
ATOM     75  C   UNL A   1      42.624  36.837  34.424  1.00  0.00     0.040 A 
ATOM     76  C   UNL A   1      41.377  35.718  36.151  1.00  0.00     0.040 A 
ATOM     77  F   UNL A   1      40.482  33.585  35.758  1.00  0.00    -0.206 F 
ATOM     78  C   UNL A   1      42.108  36.822  35.718  1.00  0.00     0.006 A 
ENDBRANCH  50  71
BRANCH  62  79
ATOM     79  C   UNL A   1      45.371  28.853  32.663  1.00  0.00     0.057 A 
ATOM     80  C   UNL A   1      45.484  27.991  33.760  1.00  0.00     0.134 A 
ATOM     81  C   UNL A   1      46.544  29.169  31.965  1.00  0.00     0.134 A 
ATOM     82  F   UNL A   1      44.400  27.659  34.478  1.00  0.00    -0.206 F 
ATOM     83  C   UNL A   1      46.717  27.466  34.148  1.00  0.00     0.040 A 
ATOM     84  C   UNL A   1      47.778  28.629  32.326  1.00  0.00     0.040 A 
ATOM     85  F   UNL A   1      46.503  29.983  30.898  1.00  0.00    -0.206 F 
ATOM     86  C   UNL A   1      47.867  27.774  33.422  1.00  0.00     0.006 A 
ENDBRANCH  62  79
ENDBRANCH  36  37
ENDBRANCH  28  31
ENDBRANCH  26  27
ENDBRANCH   1  26
TORSDOF 11
ENDMDL
MODEL 3
REMARK VINA RESULT:     -12.4      4.416      9.097
REMARK SMILES CN1C(=O)C[C@@H](C(=O)NCCCNC(=O)c2ccc(-c3c4nc(c(-c5c(F)cccc5F)c5ccc([nH]5)c(-c5c(F)cccc5F)c5nc(c(-c6c(F)cccc6F)c6ccc3[nH]6)C=C5)C=C4)cc2)C12CCN(c1ccc(Cl)cn1)CC2
REMARK SMILES IDX 11 1 10 2 9 3 7 4 8 5 6 7 1 8 2 9 3 10 70 11 4 12 5 13 71 14
REMARK SMILES IDX 82 15 72 16 81 17 73 18 74 19 75 20 80 21 76 22 79 23 77 24
REMARK SMILES IDX 78 25 12 26 13 27 14 28 15 30 16 31 17 32 69 33 18 34 68 35
REMARK SMILES IDX 19 36 20 37 21 38 62 39 22 40 67 41 61 42 63 43 23 44 66 45
REMARK SMILES IDX 60 46 59 47 24 49 50 50 33 51 49 52 34 53 37 54 48 55 64 56
REMARK SMILES IDX 35 57 36 58 47 60 65 61 38 62 25 63 26 64 31 65 27 66 28 67
REMARK SMILES IDX 30 68 32 69 29 70 51 71 52 72 57 73 53 74 54 75 56 76 58 77
REMARK SMILES IDX 55 78 39 79 40 80 45 81 41 82 42 83 44 84 46 85 43 86
REMARK H PARENT 9 6 13 29 63 48 37 59
REMARK Flexibility Score: inf
ROOT
ATOM      1  C   UNL A   1      31.162  31.307  25.834  1.00  0.00     0.042 C 
ENDROOT
BRANCH   1   2
ATOM      2  C   UNL A   1      31.370  29.884  25.325  1.00  0.00     0.117 C 
BRANCH   2   3
ATOM      3  N   UNL A   1      32.630  29.695  24.621  1.00  0.00    -0.356 N 
ATOM      4  C   UNL A   1      33.036  28.890  23.612  1.00  0.00     0.226 C 
ATOM      5  O   UNL A   1      34.207  29.043  23.244  1.00  0.00    -0.275 OA
ATOM      6  H   UNL A   1      33.346  30.285  24.952  1.00  0.00     0.163 HD
BRANCH   4   7
ATOM      7  C   UNL A   1      32.195  27.804  22.945  1.00  0.00     0.113 C 
ATOM      8  C   UNL A   1      29.655  26.092  25.113  1.00  0.00     0.147 C 
ATOM      9  N   UNL A   1      30.451  26.865  24.179  1.00  0.00    -0.339 N 
ATOM     10  C   UNL A   1      29.835  27.756  23.308  1.00  0.00     0.223 C 
ATOM     11  C   UNL A   1      31.836  26.554  23.787  1.00  0.00     0.058 C 
ATOM     12  O   UNL A   1      28.650  28.056  23.299  1.00  0.00    -0.275 OA
ATOM     13  C   UNL A   1      30.873  28.325  22.384  1.00  0.00     0.116 C 
ATOM     14  C   UNL A   1      32.776  26.324  24.995  1.00  0.00     0.051 C 
ATOM     15  C   UNL A   1      31.823  25.278  22.881  1.00  0.00     0.051 C 
ATOM     16  C   UNL A   1      34.143  25.808  24.581  1.00  0.00     0.120 C 
ATOM     17  C   UNL A   1      33.222  24.719  22.575  1.00  0.00     0.120 C 
ATOM     18  N   UNL A   1      33.914  24.585  23.840  1.00  0.00    -0.356 N 
BRANCH  18  19
ATOM     19  C   UNL A   1      34.706  23.493  24.110  1.00  0.00     0.128 A 
ATOM     20  C   UNL A   1      35.983  23.426  23.544  1.00  0.00     0.048 A 
ATOM     21  N   UNL A   1      34.250  22.520  24.923  1.00  0.00    -0.238 NA
ATOM     22  C   UNL A   1      36.809  22.335  23.797  1.00  0.00     0.026 A 
ATOM     23  C   UNL A   1      35.056  21.448  25.131  1.00  0.00     0.134 A 
ATOM     24  C   UNL A   1      36.329  21.314  24.598  1.00  0.00     0.059 A 
ATOM     25  Cl  UNL A   1      37.291  19.933  24.922  1.00  0.00    -0.083 Cl
ENDBRANCH  18  19
ENDBRANCH   4   7
ENDBRANCH   2   3
ENDBRANCH   1   2
BRANCH   1  26
ATOM     26  C   UNL A   1      32.222  31.742  26.835  1.00  0.00     0.118 C 
BRANCH  26  27
ATOM     27  N   UNL A   1      32.173  33.180  27.065  1.00  0.00    -0.352 N 
ATOM     28  C   UNL A   1      32.918  33.944  27.930  1.00  0.00     0.251 C 
ATOM     29  H   UNL A   1      31.513  33.673  26.525  1.00  0.00     0.163 HD
ATOM     30  O   UNL A   1      32.550  35.074  28.231  1.00  0.00    -0.269 OA
BRANCH  28  31
ATOM     31  C   UNL A   1      34.166  33.392  28.499  1.00  0.00     0.039 A 
ATOM     32  C   UNL A   1      35.393  33.963  28.154  1.00  0.00     0.014 A 
ATOM     33  C   UNL A   1      34.116  32.300  29.366  1.00  0.00     0.014 A 
ATOM     34  C   UNL A   1      36.567  33.478  28.735  1.00  0.00     0.010 A 
ATOM     35  C   UNL A   1      35.270  31.879  30.012  1.00  0.00     0.010 A 
ATOM     36  C   UNL A   1      36.510  32.456  29.696  1.00  0.00    -0.014 A 
BRANCH  36  37
ATOM     37  C   UNL A   1      37.725  31.943  30.378  1.00  0.00     0.031 A 
ATOM     38  C   UNL A   1      38.519  30.836  29.739  1.00  0.00     0.074 A 
ATOM     39  C   UNL A   1      38.051  32.391  31.605  1.00  0.00     0.049 A 
ATOM     40  N   UNL A   1      39.501  30.128  30.235  1.00  0.00    -0.248 NA
ATOM     41  C   UNL A   1      38.130  30.449  28.373  1.00  0.00     0.031 C 
ATOM     42  C   UNL A   1      37.343  33.442  32.340  1.00  0.00     0.029 A 
ATOM     43  N   UNL A   1      39.051  32.003  32.462  1.00  0.00    -0.354 N 
ATOM     44  C   UNL A   1      39.828  29.201  29.255  1.00  0.00     0.074 A 
ATOM     45  C   UNL A   1      38.907  29.397  28.158  1.00  0.00     0.031 C 
ATOM     46  C   UNL A   1      37.938  33.621  33.531  1.00  0.00     0.029 A 
ATOM     47  C   UNL A   1      39.032  32.665  33.666  1.00  0.00     0.049 A 
ATOM     48  H   UNL A   1      39.716  31.314  32.235  1.00  0.00     0.167 HD
ATOM     49  C   UNL A   1      40.821  28.281  29.259  1.00  0.00     0.037 A 
ATOM     50  C   UNL A   1      39.797  32.502  34.763  1.00  0.00     0.037 A 
ATOM     51  C   UNL A   1      41.752  28.110  30.342  1.00  0.00     0.049 A 
ATOM     52  C   UNL A   1      40.877  31.454  34.756  1.00  0.00     0.074 A 
ATOM     53  C   UNL A   1      42.829  27.246  30.423  1.00  0.00     0.029 A 
ATOM     54  N   UNL A   1      41.714  28.817  31.534  1.00  0.00    -0.354 N 
ATOM     55  N   UNL A   1      41.209  30.618  33.802  1.00  0.00    -0.248 NA
ATOM     56  C   UNL A   1      41.687  31.323  35.976  1.00  0.00     0.031 C 
ATOM     57  C   UNL A   1      43.410  27.391  31.686  1.00  0.00     0.029 A 
ATOM     58  C   UNL A   1      42.735  28.391  32.366  1.00  0.00     0.049 A 
ATOM     59  H   UNL A   1      41.059  29.519  31.755  1.00  0.00     0.167 HD
ATOM     60  C   UNL A   1      42.291  29.894  34.289  1.00  0.00     0.074 A 
ATOM     61  C   UNL A   1      42.557  30.388  35.624  1.00  0.00     0.031 C 
ATOM     62  C   UNL A   1      43.001  28.912  33.683  1.00  0.00     0.037 A 
BRANCH  49  63
ATOM     63  C   UNL A   1      40.950  27.389  28.059  1.00  0.00     0.057 A 
ATOM     64  C   UNL A   1      40.276  26.163  27.969  1.00  0.00     0.134 A 
ATOM     65  C   UNL A   1      41.732  27.774  26.962  1.00  0.00     0.134 A 
ATOM     66  F   UNL A   1      39.519  25.726  28.987  1.00  0.00    -0.206 F 
ATOM     67  C   UNL A   1      40.399  25.342  26.847  1.00  0.00     0.040 A 
ATOM     68  C   UNL A   1      41.837  26.977  25.822  1.00  0.00     0.040 A 
ATOM     69  F   UNL A   1      42.399  28.939  26.977  1.00  0.00    -0.206 F 
ATOM     70  C   UNL A   1      41.176  25.752  25.766  1.00  0.00     0.006 A 
ENDBRANCH  49  63
BRANCH  50  71
ATOM     71  C   UNL A   1      39.577  33.357  35.959  1.00  0.00     0.057 A 
ATOM     72  C   UNL A   1      40.231  34.588  36.095  1.00  0.00     0.134 A 
ATOM     73  C   UNL A   1      38.719  32.968  36.994  1.00  0.00     0.134 A 
ATOM     74  F   UNL A   1      41.079  35.010  35.145  1.00  0.00    -0.206 F 
ATOM     75  C   UNL A   1      40.059  35.388  37.225  1.00  0.00     0.040 A 
ATOM     76  C   UNL A   1      38.515  33.771  38.117  1.00  0.00     0.040 A 
ATOM     77  F   UNL A   1      38.053  31.806  36.921  1.00  0.00    -0.206 F 
ATOM     78  C   UNL A   1      39.194  34.982  38.239  1.00  0.00     0.006 A 
ENDBRANCH  50  71
BRANCH  62  79
ATOM     79  C   UNL A   1      44.176  28.342  34.421  1.00  0.00     0.057 A 
ATOM     80  C   UNL A   1      45.446  28.927  34.365  1.00  0.00     0.134 A 
ATOM     81  C   UNL A   1      44.007  27.242  35.273  1.00  0.00     0.134 A 
ATOM     82  F   UNL A   1      45.677  29.975  33.560  1.00  0.00    -0.206 F 
ATOM     83  C   UNL A   1      46.508  28.436  35.126  1.00  0.00     0.040 A 
ATOM     84  C   UNL A   1      45.053  26.759  36.059  1.00  0.00     0.040 A 
ATOM     85  F   UNL A   1      42.811  26.641  35.379  1.00  0.00    -0.206 F 
ATOM     86  C   UNL A   1      46.308  27.356  35.986  1.00  0.00     0.006 A 
ENDBRANCH  62  79
ENDBRANCH  36  37
ENDBRANCH  28  31
ENDBRANCH  26  27
ENDBRANCH   1  26
TORSDOF 11
ENDMDL
