MODEL 1
REMARK VINA RESULT:     -13.7      0.000      0.000
REMARK SMILES Cc1cccc2c1[C@H]1c3c(C)cccc3[C@H](CC(=O)NCCCNC(=O)c3ccc(-c4c5nc(c(-c6c(F)cccc6F)c6ccc([nH]6)c(-c6c(F)cccc6F)c6nc(c(-c7c(F)cccc7F)c7ccc4[nH]7)C=C6)C=C5)cc3)C[C@H]1CC2
REMARK SMILES IDX 22 1 21 2 20 3 18 4 19 5 17 7 16 8 1 9 2 10 3 11 7 12 4 13
REMARK SMILES IDX 6 14 8 15 5 16 84 17 9 18 82 19 83 20 10 21 15 22 81 23
REMARK SMILES IDX 12 24 11 25 14 26 13 27 23 28 24 29 25 30 26 32 27 33 28 34
REMARK SMILES IDX 80 35 29 36 79 37 30 38 31 39 32 40 73 41 33 42 78 43 72 44
REMARK SMILES IDX 74 45 34 46 77 47 71 48 70 49 35 51 61 52 44 53 60 54 45 55
REMARK SMILES IDX 48 56 59 57 75 58 46 59 47 60 58 62 76 63 49 64 36 65 37 66
REMARK SMILES IDX 42 67 38 68 39 69 41 70 43 71 40 72 62 73 63 74 68 75 64 76
REMARK SMILES IDX 65 77 67 78 69 79 66 80 50 81 51 82 56 83 52 84 53 85 55 86
REMARK SMILES IDX 57 87 54 88
REMARK H PARENT 20 6 24 31 74 50 48 61
REMARK Flexibility Score: inf
ROOT
ATOM      1  C   UNL A   1      31.403  32.285  26.658  1.00  0.00     0.042 C 
ENDROOT
BRANCH   1   2
ATOM      2  C   UNL A   1      31.614  30.811  26.320  1.00  0.00     0.117 C 
BRANCH   2   3
ATOM      3  N   UNL A   1      32.957  30.369  26.659  1.00  0.00    -0.356 N 
ATOM      4  C   UNL A   1      33.785  29.399  26.213  1.00  0.00     0.220 C 
ATOM      5  O   UNL A   1      34.819  29.249  26.879  1.00  0.00    -0.275 OA
ATOM      6  H   UNL A   1      33.357  30.902  27.384  1.00  0.00     0.163 HD
BRANCH   4   7
ATOM      7  C   UNL A   1      33.620  28.573  24.942  1.00  0.00     0.108 C 
BRANCH   7   8
ATOM      8  C   UNL A   1      33.056  27.143  24.998  1.00  0.00     0.029 C 
ATOM      9  C   UNL A   1      36.048  22.206  24.240  1.00  0.00     0.044 C 
ATOM     10  C   UNL A   1      34.640  21.803  24.602  1.00  0.00    -0.047 A 
ATOM     11  C   UNL A   1      34.341  20.430  24.626  1.00  0.00     0.004 A 
ATOM     12  C   UNL A   1      33.641  22.743  24.969  1.00  0.00    -0.034 A 
ATOM     13  C   UNL A   1      33.089  19.978  25.026  1.00  0.00     0.001 A 
ATOM     14  C   UNL A   1      32.419  22.263  25.495  1.00  0.00    -0.044 A 
ATOM     15  C   UNL A   1      33.859  24.248  24.834  1.00  0.00     0.053 C 
ATOM     16  C   UNL A   1      32.143  20.886  25.485  1.00  0.00     0.004 A 
ATOM     17  C   UNL A   1      31.436  23.161  26.209  1.00  0.00     0.036 C 
ATOM     18  C   UNL A   1      33.347  24.982  23.561  1.00  0.00    -0.034 A 
ATOM     19  C   UNL A   1      33.300  24.889  26.124  1.00  0.00     0.002 C 
ATOM     20  C   UNL A   1      31.784  24.647  26.222  1.00  0.00     0.009 C 
ATOM     21  C   UNL A   1      33.195  24.379  22.276  1.00  0.00    -0.047 A 
ATOM     22  C   UNL A   1      33.091  26.390  23.658  1.00  0.00    -0.040 A 
ATOM     23  C   UNL A   1      33.696  26.362  26.150  1.00  0.00     0.013 C 
ATOM     24  C   UNL A   1      32.808  25.159  21.163  1.00  0.00     0.004 A 
ATOM     25  C   UNL A   1      33.406  22.923  21.954  1.00  0.00     0.044 C 
ATOM     26  C   UNL A   1      32.713  27.120  22.507  1.00  0.00     0.004 A 
ATOM     27  C   UNL A   1      32.575  26.515  21.272  1.00  0.00     0.001 A 
ENDBRANCH   7   8
ENDBRANCH   4   7
ENDBRANCH   2   3
ENDBRANCH   1   2
BRANCH   1  28
ATOM     28  C   UNL A   1      32.641  32.947  27.251  1.00  0.00     0.118 C 
BRANCH  28  29
ATOM     29  N   UNL A   1      32.375  34.304  27.711  1.00  0.00    -0.352 N 
ATOM     30  C   UNL A   1      32.983  35.011  28.719  1.00  0.00     0.251 C 
ATOM     31  H   UNL A   1      31.659  34.780  27.232  1.00  0.00     0.163 HD
ATOM     32  O   UNL A   1      32.510  36.075  29.102  1.00  0.00    -0.269 OA
BRANCH  30  33
ATOM     33  C   UNL A   1      34.198  34.469  29.357  1.00  0.00     0.039 A 
ATOM     34  C   UNL A   1      34.077  33.787  30.569  1.00  0.00     0.014 A 
ATOM     35  C   UNL A   1      35.450  34.624  28.751  1.00  0.00     0.014 A 
ATOM     36  C   UNL A   1      35.206  33.198  31.141  1.00  0.00     0.010 A 
ATOM     37  C   UNL A   1      36.561  33.984  29.289  1.00  0.00     0.010 A 
ATOM     38  C   UNL A   1      36.449  33.266  30.488  1.00  0.00    -0.014 A 
BRANCH  38  39
ATOM     39  C   UNL A   1      37.633  32.580  31.056  1.00  0.00     0.031 A 
ATOM     40  C   UNL A   1      38.255  33.071  32.330  1.00  0.00     0.074 A 
ATOM     41  C   UNL A   1      38.166  31.531  30.401  1.00  0.00     0.049 A 
ATOM     42  N   UNL A   1      39.260  32.571  33.004  1.00  0.00    -0.248 NA
ATOM     43  C   UNL A   1      37.684  34.294  32.917  1.00  0.00     0.031 C 
ATOM     44  C   UNL A   1      37.686  30.999  29.123  1.00  0.00     0.029 A 
ATOM     45  N   UNL A   1      39.226  30.723  30.722  1.00  0.00    -0.354 N 
ATOM     46  C   UNL A   1      39.432  33.408  34.097  1.00  0.00     0.074 A 
ATOM     47  C   UNL A   1      38.475  34.485  33.962  1.00  0.00     0.031 C 
ATOM     48  C   UNL A   1      38.434  29.935  28.784  1.00  0.00     0.029 A 
ATOM     49  C   UNL A   1      39.450  29.722  29.809  1.00  0.00     0.049 A 
ATOM     50  H   UNL A   1      39.774  30.849  31.529  1.00  0.00     0.167 HD
ATOM     51  C   UNL A   1      40.290  33.276  35.137  1.00  0.00     0.037 A 
ATOM     52  C   UNL A   1      40.365  28.735  29.810  1.00  0.00     0.037 A 
ATOM     53  C   UNL A   1      41.245  32.207  35.269  1.00  0.00     0.049 A 
ATOM     54  C   UNL A   1      41.320  28.623  30.965  1.00  0.00     0.074 A 
ATOM     55  C   UNL A   1      42.127  31.956  36.305  1.00  0.00     0.029 A 
ATOM     56  N   UNL A   1      41.448  31.214  34.322  1.00  0.00    -0.354 N 
ATOM     57  N   UNL A   1      41.412  29.368  32.040  1.00  0.00    -0.248 NA
ATOM     58  C   UNL A   1      42.290  27.520  30.911  1.00  0.00     0.031 C 
ATOM     59  C   UNL A   1      42.890  30.832  35.968  1.00  0.00     0.029 A 
ATOM     60  C   UNL A   1      42.457  30.361  34.739  1.00  0.00     0.049 A 
ATOM     61  H   UNL A   1      40.949  31.128  33.478  1.00  0.00     0.167 HD
ATOM     62  C   UNL A   1      42.431  28.811  32.802  1.00  0.00     0.074 A 
ATOM     63  C   UNL A   1      42.912  27.654  32.073  1.00  0.00     0.031 C 
ATOM     64  C   UNL A   1      42.925  29.218  33.997  1.00  0.00     0.037 A 
BRANCH  51  65
ATOM     65  C   UNL A   1      40.217  34.316  36.216  1.00  0.00     0.057 A 
ATOM     66  C   UNL A   1      40.998  35.476  36.154  1.00  0.00     0.134 A 
ATOM     67  C   UNL A   1      39.369  34.165  37.323  1.00  0.00     0.134 A 
ATOM     68  F   UNL A   1      41.833  35.682  35.125  1.00  0.00    -0.206 F 
ATOM     69  C   UNL A   1      40.934  36.452  37.151  1.00  0.00     0.040 A 
ATOM     70  C   UNL A   1      39.278  35.145  38.313  1.00  0.00     0.040 A 
ATOM     71  F   UNL A   1      38.583  33.084  37.434  1.00  0.00    -0.206 F 
ATOM     72  C   UNL A   1      40.066  36.291  38.230  1.00  0.00     0.006 A 
ENDBRANCH  51  65
BRANCH  52  73
ATOM     73  C   UNL A   1      40.400  27.746  28.706  1.00  0.00     0.057 A 
ATOM     74  C   UNL A   1      39.652  26.565  28.757  1.00  0.00     0.134 A 
ATOM     75  C   UNL A   1      41.165  27.978  27.556  1.00  0.00     0.134 A 
ATOM     76  F   UNL A   1      38.904  26.283  29.834  1.00  0.00    -0.206 F 
ATOM     77  C   UNL A   1      39.660  25.650  27.702  1.00  0.00     0.040 A 
ATOM     78  C   UNL A   1      41.166  27.083  26.486  1.00  0.00     0.040 A 
ATOM     79  F   UNL A   1      41.889  29.102  27.444  1.00  0.00    -0.206 F 
ATOM     80  C   UNL A   1      40.412  25.913  26.559  1.00  0.00     0.006 A 
ENDBRANCH  52  73
BRANCH  64  81
ATOM     81  C   UNL A   1      44.027  28.390  34.589  1.00  0.00     0.057 A 
ATOM     82  C   UNL A   1      45.368  28.697  34.333  1.00  0.00     0.134 A 
ATOM     83  C   UNL A   1      43.760  27.290  35.415  1.00  0.00     0.134 A 
ATOM     84  F   UNL A   1      45.691  29.734  33.546  1.00  0.00    -0.206 F 
ATOM     85  C   UNL A   1      46.406  27.944  34.882  1.00  0.00     0.040 A 
ATOM     86  C   UNL A   1      44.789  26.545  35.992  1.00  0.00     0.040 A 
ATOM     87  F   UNL A   1      42.495  26.954  35.713  1.00  0.00    -0.206 F 
ATOM     88  C   UNL A   1      46.118  26.870  35.723  1.00  0.00     0.006 A 
ENDBRANCH  64  81
ENDBRANCH  38  39
ENDBRANCH  30  33
ENDBRANCH  28  29
ENDBRANCH   1  28
TORSDOF 11
ENDMDL
MODEL 2
REMARK VINA RESULT:     -13.6      5.184     10.165
REMARK SMILES Cc1cccc2c1[C@H]1c3c(C)cccc3[C@H](CC(=O)NCCCNC(=O)c3ccc(-c4c5nc(c(-c6c(F)cccc6F)c6ccc([nH]6)c(-c6c(F)cccc6F)c6nc(c(-c7c(F)cccc7F)c7ccc4[nH]7)C=C6)C=C5)cc3)C[C@H]1CC2
REMARK SMILES IDX 22 1 21 2 20 3 18 4 19 5 17 7 16 8 1 9 2 10 3 11 7 12 4 13
REMARK SMILES IDX 6 14 8 15 5 16 84 17 9 18 82 19 83 20 10 21 15 22 81 23
REMARK SMILES IDX 12 24 11 25 14 26 13 27 23 28 24 29 25 30 26 32 27 33 28 34
REMARK SMILES IDX 80 35 29 36 79 37 30 38 31 39 32 40 73 41 33 42 78 43 72 44
REMARK SMILES IDX 74 45 34 46 77 47 71 48 70 49 35 51 61 52 44 53 60 54 45 55
REMARK SMILES IDX 48 56 59 57 75 58 46 59 47 60 58 62 76 63 49 64 36 65 37 66
REMARK SMILES IDX 42 67 38 68 39 69 41 70 43 71 40 72 62 73 63 74 68 75 64 76
REMARK SMILES IDX 65 77 67 78 69 79 66 80 50 81 51 82 56 83 52 84 53 85 55 86
REMARK SMILES IDX 57 87 54 88
REMARK H PARENT 20 6 24 31 74 50 48 61
REMARK Flexibility Score: inf
ROOT
ATOM      1  C   UNL A   1      38.184  19.441  25.025  1.00  0.00     0.042 C 
ENDROOT
BRANCH   1   2
ATOM      2  C   UNL A   1      37.213  20.562  24.660  1.00  0.00     0.117 C 
BRANCH   2   3
ATOM      3  N   UNL A   1      36.262  20.818  25.730  1.00  0.00    -0.356 N 
ATOM      4  C   UNL A   1      34.952  21.145  25.786  1.00  0.00     0.220 C 
ATOM      5  O   UNL A   1      34.534  21.428  26.917  1.00  0.00    -0.275 OA
ATOM      6  H   UNL A   1      36.668  20.733  26.623  1.00  0.00     0.163 HD
BRANCH   4   7
ATOM      7  C   UNL A   1      33.950  21.094  24.638  1.00  0.00     0.108 C 
BRANCH   7   8
ATOM      8  C   UNL A   1      33.321  22.383  24.082  1.00  0.00     0.029 C 
ATOM      9  C   UNL A   1      33.986  27.763  26.207  1.00  0.00     0.044 C 
ATOM     10  C   UNL A   1      33.163  27.897  24.950  1.00  0.00    -0.047 A 
ATOM     11  C   UNL A   1      32.710  29.181  24.601  1.00  0.00     0.004 A 
ATOM     12  C   UNL A   1      32.885  26.801  24.092  1.00  0.00    -0.034 A 
ATOM     13  C   UNL A   1      32.013  29.397  23.418  1.00  0.00     0.001 A 
ATOM     14  C   UNL A   1      32.291  27.057  22.833  1.00  0.00    -0.044 A 
ATOM     15  C   UNL A   1      33.231  25.364  24.478  1.00  0.00     0.053 C 
ATOM     16  C   UNL A   1      31.830  28.348  22.526  1.00  0.00     0.004 A 
ATOM     17  C   UNL A   1      32.252  26.027  21.730  1.00  0.00     0.036 C 
ATOM     18  C   UNL A   1      32.138  24.465  25.125  1.00  0.00    -0.034 A 
ATOM     19  C   UNL A   1      33.836  24.706  23.217  1.00  0.00     0.002 C 
ATOM     20  C   UNL A   1      32.788  24.645  22.094  1.00  0.00     0.009 C 
ATOM     21  C   UNL A   1      31.040  24.944  25.901  1.00  0.00    -0.047 A 
ATOM     22  C   UNL A   1      32.289  23.042  25.011  1.00  0.00    -0.040 A 
ATOM     23  C   UNL A   1      34.412  23.347  23.604  1.00  0.00     0.013 C 
ATOM     24  C   UNL A   1      30.155  24.033  26.521  1.00  0.00     0.004 A 
ATOM     25  C   UNL A   1      30.696  26.389  26.144  1.00  0.00     0.044 C 
ATOM     26  C   UNL A   1      31.374  22.181  25.660  1.00  0.00     0.004 A 
ATOM     27  C   UNL A   1      30.320  22.668  26.409  1.00  0.00     0.001 A 
ENDBRANCH   7   8
ENDBRANCH   4   7
ENDBRANCH   2   3
ENDBRANCH   1   2
BRANCH   1  28
ATOM     28  C   UNL A   1      39.400  19.931  25.801  1.00  0.00     0.118 C 
BRANCH  28  29
ATOM     29  N   UNL A   1      40.456  18.929  25.864  1.00  0.00    -0.352 N 
ATOM     30  C   UNL A   1      41.801  19.101  26.077  1.00  0.00     0.251 C 
ATOM     31  H   UNL A   1      40.163  17.998  25.734  1.00  0.00     0.163 HD
ATOM     32  O   UNL A   1      42.580  18.169  25.911  1.00  0.00    -0.269 OA
BRANCH  30  33
ATOM     33  C   UNL A   1      42.309  20.424  26.487  1.00  0.00     0.039 A 
ATOM     34  C   UNL A   1      42.853  21.268  25.516  1.00  0.00     0.014 A 
ATOM     35  C   UNL A   1      42.235  20.833  27.823  1.00  0.00     0.014 A 
ATOM     36  C   UNL A   1      43.260  22.553  25.874  1.00  0.00     0.010 A 
ATOM     37  C   UNL A   1      42.584  22.136  28.166  1.00  0.00     0.010 A 
ATOM     38  C   UNL A   1      43.099  23.006  27.195  1.00  0.00    -0.014 A 
BRANCH  38  39
ATOM     39  C   UNL A   1      43.463  24.395  27.563  1.00  0.00     0.031 A 
ATOM     40  C   UNL A   1      44.896  24.837  27.525  1.00  0.00     0.074 A 
ATOM     41  C   UNL A   1      42.499  25.247  27.960  1.00  0.00     0.049 A 
ATOM     42  N   UNL A   1      45.399  26.023  27.762  1.00  0.00    -0.248 NA
ATOM     43  C   UNL A   1      45.897  23.812  27.195  1.00  0.00     0.031 C 
ATOM     44  C   UNL A   1      41.079  24.915  28.094  1.00  0.00     0.029 A 
ATOM     45  N   UNL A   1      42.569  26.567  28.323  1.00  0.00    -0.354 N 
ATOM     46  C   UNL A   1      46.771  25.887  27.596  1.00  0.00     0.074 A 
ATOM     47  C   UNL A   1      47.028  24.492  27.308  1.00  0.00     0.031 C 
ATOM     48  C   UNL A   1      40.408  26.013  28.483  1.00  0.00     0.029 A 
ATOM     49  C   UNL A   1      41.350  27.116  28.638  1.00  0.00     0.049 A 
ATOM     50  H   UNL A   1      43.412  27.073  28.353  1.00  0.00     0.167 HD
ATOM     51  C   UNL A   1      47.728  26.844  27.651  1.00  0.00     0.037 A 
ATOM     52  C   UNL A   1      41.031  28.372  29.000  1.00  0.00     0.037 A 
ATOM     53  C   UNL A   1      47.473  28.230  27.944  1.00  0.00     0.049 A 
ATOM     54  C   UNL A   1      42.115  29.411  29.073  1.00  0.00     0.074 A 
ATOM     55  C   UNL A   1      48.365  29.287  27.977  1.00  0.00     0.029 A 
ATOM     56  N   UNL A   1      46.227  28.749  28.265  1.00  0.00    -0.354 N 
ATOM     57  N   UNL A   1      43.397  29.291  28.824  1.00  0.00    -0.248 NA
ATOM     58  C   UNL A   1      41.702  30.765  29.465  1.00  0.00     0.031 C 
ATOM     59  C   UNL A   1      47.665  30.439  28.356  1.00  0.00     0.029 A 
ATOM     60  C   UNL A   1      46.331  30.106  28.521  1.00  0.00     0.049 A 
ATOM     61  H   UNL A   1      45.392  28.228  28.305  1.00  0.00     0.167 HD
ATOM     62  C   UNL A   1      43.939  30.557  29.005  1.00  0.00     0.074 A 
ATOM     63  C   UNL A   1      42.842  31.432  29.365  1.00  0.00     0.031 C 
ATOM     64  C   UNL A   1      45.227  30.959  28.883  1.00  0.00     0.037 A 
BRANCH  51  65
ATOM     65  C   UNL A   1      49.139  26.413  27.376  1.00  0.00     0.057 A 
ATOM     66  C   UNL A   1      49.640  26.378  26.069  1.00  0.00     0.134 A 
ATOM     67  C   UNL A   1      50.003  26.028  28.412  1.00  0.00     0.134 A 
ATOM     68  F   UNL A   1      48.866  26.730  25.032  1.00  0.00    -0.206 F 
ATOM     69  C   UNL A   1      50.953  25.983  25.803  1.00  0.00     0.040 A 
ATOM     70  C   UNL A   1      51.324  25.655  28.160  1.00  0.00     0.040 A 
ATOM     71  F   UNL A   1      49.589  26.055  29.687  1.00  0.00    -0.206 F 
ATOM     72  C   UNL A   1      51.801  25.628  26.850  1.00  0.00     0.006 A 
ENDBRANCH  51  65
BRANCH  52  73
ATOM     73  C   UNL A   1      39.621  28.735  29.277  1.00  0.00     0.057 A 
ATOM     74  C   UNL A   1      38.781  29.228  28.273  1.00  0.00     0.134 A 
ATOM     75  C   UNL A   1      39.073  28.569  30.555  1.00  0.00     0.134 A 
ATOM     76  F   UNL A   1      39.248  29.416  27.030  1.00  0.00    -0.206 F 
ATOM     77  C   UNL A   1      37.443  29.539  28.528  1.00  0.00     0.040 A 
ATOM     78  C   UNL A   1      37.734  28.855  30.819  1.00  0.00     0.040 A 
ATOM     79  F   UNL A   1      39.827  28.083  31.553  1.00  0.00    -0.206 F 
ATOM     80  C   UNL A   1      36.915  29.344  29.803  1.00  0.00     0.006 A 
ENDBRANCH  52  73
BRANCH  64  81
ATOM     81  C   UNL A   1      45.506  32.414  29.124  1.00  0.00     0.057 A 
ATOM     82  C   UNL A   1      45.419  33.340  28.078  1.00  0.00     0.134 A 
ATOM     83  C   UNL A   1      45.856  32.898  30.391  1.00  0.00     0.134 A 
ATOM     84  F   UNL A   1      45.093  32.942  26.839  1.00  0.00    -0.206 F 
ATOM     85  C   UNL A   1      45.665  34.698  28.285  1.00  0.00     0.040 A 
ATOM     86  C   UNL A   1      46.079  34.256  30.616  1.00  0.00     0.040 A 
ATOM     87  F   UNL A   1      45.940  32.063  31.439  1.00  0.00    -0.206 F 
ATOM     88  C   UNL A   1      45.987  35.161  29.560  1.00  0.00     0.006 A 
ENDBRANCH  64  81
ENDBRANCH  38  39
ENDBRANCH  30  33
ENDBRANCH  28  29
ENDBRANCH   1  28
TORSDOF 11
ENDMDL
MODEL 3
REMARK VINA RESULT:     -13.5      5.379      9.737
REMARK SMILES Cc1cccc2c1[C@H]1c3c(C)cccc3[C@H](CC(=O)NCCCNC(=O)c3ccc(-c4c5nc(c(-c6c(F)cccc6F)c6ccc([nH]6)c(-c6c(F)cccc6F)c6nc(c(-c7c(F)cccc7F)c7ccc4[nH]7)C=C6)C=C5)cc3)C[C@H]1CC2
REMARK SMILES IDX 22 1 21 2 20 3 18 4 19 5 17 7 16 8 1 9 2 10 3 11 7 12 4 13
REMARK SMILES IDX 6 14 8 15 5 16 84 17 9 18 82 19 83 20 10 21 15 22 81 23
REMARK SMILES IDX 12 24 11 25 14 26 13 27 23 28 24 29 25 30 26 32 27 33 28 34
REMARK SMILES IDX 80 35 29 36 79 37 30 38 31 39 32 40 73 41 33 42 78 43 72 44
REMARK SMILES IDX 74 45 34 46 77 47 71 48 70 49 35 51 61 52 44 53 60 54 45 55
REMARK SMILES IDX 48 56 59 57 75 58 46 59 47 60 58 62 76 63 49 64 36 65 37 66
REMARK SMILES IDX 42 67 38 68 39 69 41 70 43 71 40 72 62 73 63 74 68 75 64 76
REMARK SMILES IDX 65 77 67 78 69 79 66 80 50 81 51 82 56 83 52 84 53 85 55 86
REMARK SMILES IDX 57 87 54 88
REMARK H PARENT 20 6 24 31 74 50 48 61
REMARK Flexibility Score: inf
ROOT
ATOM      1  C   UNL A   1      38.156  19.675  24.932  1.00  0.00     0.042 C 
ENDROOT
BRANCH   1   2
ATOM      2  C   UNL A   1      37.151  20.800  24.694  1.00  0.00     0.117 C 
BRANCH   2   3
ATOM      3  N   UNL A   1      36.142  20.847  25.740  1.00  0.00    -0.356 N 
ATOM      4  C   UNL A   1      34.804  21.035  25.769  1.00  0.00     0.220 C 
ATOM      5  O   UNL A   1      34.320  21.156  26.903  1.00  0.00    -0.275 OA
ATOM      6  H   UNL A   1      36.523  20.711  26.638  1.00  0.00     0.163 HD
BRANCH   4   7
ATOM      7  C   UNL A   1      33.853  21.004  24.578  1.00  0.00     0.108 C 
BRANCH   7   8
ATOM      8  C   UNL A   1      33.235  22.301  24.028  1.00  0.00     0.029 C 
ATOM      9  C   UNL A   1      34.027  27.678  26.117  1.00  0.00     0.044 C 
ATOM     10  C   UNL A   1      33.183  27.820  24.875  1.00  0.00    -0.047 A 
ATOM     11  C   UNL A   1      32.744  29.109  24.529  1.00  0.00     0.004 A 
ATOM     12  C   UNL A   1      32.871  26.725  24.027  1.00  0.00    -0.034 A 
ATOM     13  C   UNL A   1      32.029  29.332  23.358  1.00  0.00     0.001 A 
ATOM     14  C   UNL A   1      32.258  26.986  22.779  1.00  0.00    -0.044 A 
ATOM     15  C   UNL A   1      33.201  25.284  24.412  1.00  0.00     0.053 C 
ATOM     16  C   UNL A   1      31.813  28.282  22.474  1.00  0.00     0.004 A 
ATOM     17  C   UNL A   1      32.182  25.952  21.680  1.00  0.00     0.036 C 
ATOM     18  C   UNL A   1      32.105  24.406  25.084  1.00  0.00    -0.034 A 
ATOM     19  C   UNL A   1      33.772  24.612  23.144  1.00  0.00     0.002 C 
ATOM     20  C   UNL A   1      32.702  24.563  22.041  1.00  0.00     0.009 C 
ATOM     21  C   UNL A   1      31.030  24.906  25.878  1.00  0.00    -0.047 A 
ATOM     22  C   UNL A   1      32.231  22.981  24.973  1.00  0.00    -0.040 A 
ATOM     23  C   UNL A   1      34.332  23.245  23.526  1.00  0.00     0.013 C 
ATOM     24  C   UNL A   1      30.142  24.013  26.518  1.00  0.00     0.004 A 
ATOM     25  C   UNL A   1      30.714  26.358  26.121  1.00  0.00     0.044 C 
ATOM     26  C   UNL A   1      31.315  22.137  25.643  1.00  0.00     0.004 A 
ATOM     27  C   UNL A   1      30.282  22.644  26.409  1.00  0.00     0.001 A 
ENDBRANCH   7   8
ENDBRANCH   4   7
ENDBRANCH   2   3
ENDBRANCH   1   2
BRANCH   1  28
ATOM     28  C   UNL A   1      39.312  20.085  25.836  1.00  0.00     0.118 C 
BRANCH  28  29
ATOM     29  N   UNL A   1      40.307  19.030  25.974  1.00  0.00    -0.352 N 
ATOM     30  C   UNL A   1      41.665  19.137  26.141  1.00  0.00     0.251 C 
ATOM     31  H   UNL A   1      39.956  18.111  25.941  1.00  0.00     0.163 HD
ATOM     32  O   UNL A   1      42.382  18.147  26.050  1.00  0.00    -0.269 OA
BRANCH  30  33
ATOM     33  C   UNL A   1      42.263  20.460  26.409  1.00  0.00     0.039 A 
ATOM     34  C   UNL A   1      42.832  21.170  25.351  1.00  0.00     0.014 A 
ATOM     35  C   UNL A   1      42.247  20.999  27.700  1.00  0.00     0.014 A 
ATOM     36  C   UNL A   1      43.325  22.456  25.574  1.00  0.00     0.010 A 
ATOM     37  C   UNL A   1      42.683  22.304  27.908  1.00  0.00     0.010 A 
ATOM     38  C   UNL A   1      43.225  23.043  26.847  1.00  0.00    -0.014 A 
BRANCH  38  39
ATOM     39  C   UNL A   1      43.681  24.435  27.070  1.00  0.00     0.031 A 
ATOM     40  C   UNL A   1      42.700  25.499  27.467  1.00  0.00     0.074 A 
ATOM     41  C   UNL A   1      44.978  24.744  26.883  1.00  0.00     0.049 A 
ATOM     42  N   UNL A   1      42.920  26.757  27.755  1.00  0.00    -0.248 NA
ATOM     43  C   UNL A   1      41.284  25.103  27.534  1.00  0.00     0.031 C 
ATOM     44  C   UNL A   1      46.015  23.809  26.440  1.00  0.00     0.029 A 
ATOM     45  N   UNL A   1      45.646  25.930  27.045  1.00  0.00    -0.354 N 
ATOM     46  C   UNL A   1      41.675  27.297  28.049  1.00  0.00     0.074 A 
ATOM     47  C   UNL A   1      40.698  26.251  27.838  1.00  0.00     0.031 C 
ATOM     48  C   UNL A   1      47.193  24.452  26.393  1.00  0.00     0.029 A 
ATOM     49  C   UNL A   1      46.992  25.843  26.786  1.00  0.00     0.049 A 
ATOM     50  H   UNL A   1      45.203  26.764  27.321  1.00  0.00     0.167 HD
ATOM     51  C   UNL A   1      41.375  28.545  28.484  1.00  0.00     0.037 A 
ATOM     52  C   UNL A   1      47.954  26.779  26.872  1.00  0.00     0.037 A 
ATOM     53  C   UNL A   1      42.347  29.587  28.689  1.00  0.00     0.049 A 
ATOM     54  C   UNL A   1      47.593  28.162  27.337  1.00  0.00     0.074 A 
ATOM     55  C   UNL A   1      42.153  30.869  29.171  1.00  0.00     0.029 A 
ATOM     56  N   UNL A   1      43.700  29.465  28.410  1.00  0.00    -0.354 N 
ATOM     57  N   UNL A   1      46.425  28.635  27.701  1.00  0.00    -0.248 NA
ATOM     58  C   UNL A   1      48.689  29.137  27.416  1.00  0.00     0.031 C 
ATOM     59  C   UNL A   1      43.384  31.535  29.148  1.00  0.00     0.029 A 
ATOM     60  C   UNL A   1      44.350  30.656  28.688  1.00  0.00     0.049 A 
ATOM     61  H   UNL A   1      44.134  28.651  28.065  1.00  0.00     0.167 HD
ATOM     62  C   UNL A   1      46.650  29.953  28.075  1.00  0.00     0.074 A 
ATOM     63  C   UNL A   1      48.069  30.197  27.913  1.00  0.00     0.031 C 
ATOM     64  C   UNL A   1      45.763  30.879  28.515  1.00  0.00     0.037 A 
BRANCH  51  65
ATOM     65  C   UNL A   1      39.932  28.836  28.776  1.00  0.00     0.057 A 
ATOM     66  C   UNL A   1      39.060  29.245  27.761  1.00  0.00     0.134 A 
ATOM     67  C   UNL A   1      39.407  28.710  30.071  1.00  0.00     0.134 A 
ATOM     68  F   UNL A   1      39.497  29.388  26.501  1.00  0.00    -0.206 F 
ATOM     69  C   UNL A   1      37.714  29.513  28.022  1.00  0.00     0.040 A 
ATOM     70  C   UNL A   1      38.059  28.952  30.338  1.00  0.00     0.040 A 
ATOM     71  F   UNL A   1      40.187  28.306  31.084  1.00  0.00    -0.206 F 
ATOM     72  C   UNL A   1      37.209  29.359  29.311  1.00  0.00     0.006 A 
ENDBRANCH  51  65
BRANCH  52  73
ATOM     73  C   UNL A   1      49.361  26.437  26.553  1.00  0.00     0.057 A 
ATOM     74  C   UNL A   1      49.892  26.635  25.274  1.00  0.00     0.134 A 
ATOM     75  C   UNL A   1      50.218  25.926  27.536  1.00  0.00     0.134 A 
ATOM     76  F   UNL A   1      49.120  27.115  24.287  1.00  0.00    -0.206 F 
ATOM     77  C   UNL A   1      51.226  26.342  24.984  1.00  0.00     0.040 A 
ATOM     78  C   UNL A   1      51.558  25.649  27.266  1.00  0.00     0.040 A 
ATOM     79  F   UNL A   1      49.769  25.732  28.786  1.00  0.00    -0.206 F 
ATOM     80  C   UNL A   1      52.065  25.856  25.985  1.00  0.00     0.006 A 
ENDBRANCH  52  73
BRANCH  64  81
ATOM     81  C   UNL A   1      46.316  32.230  28.867  1.00  0.00     0.057 A 
ATOM     82  C   UNL A   1      46.380  33.246  27.907  1.00  0.00     0.134 A 
ATOM     83  C   UNL A   1      46.781  32.523  30.155  1.00  0.00     0.134 A 
ATOM     84  F   UNL A   1      45.956  33.029  26.653  1.00  0.00    -0.206 F 
ATOM     85  C   UNL A   1      46.883  34.510  28.218  1.00  0.00     0.040 A 
ATOM     86  C   UNL A   1      47.261  33.791  30.485  1.00  0.00     0.040 A 
ATOM     87  F   UNL A   1      46.730  31.596  31.124  1.00  0.00    -0.206 F 
ATOM     88  C   UNL A   1      47.316  34.789  29.513  1.00  0.00     0.006 A 
ENDBRANCH  64  81
ENDBRANCH  38  39
ENDBRANCH  30  33
ENDBRANCH  28  29
ENDBRANCH   1  28
TORSDOF 11
ENDMDL
