MODEL 1
REMARK VINA RESULT:     -12.6      0.000      0.000
REMARK SMILES O=C(NCCCNC(=O)[C@H]1[C@H]2CC[C@H](CC2)[C@@H]1C(=O)Nc1ccc(Cc2ccncc2)cc1)c1ccc(-c2c3nc(c(-c4c(F)cccc4F)c4ccc([nH]4)c(-c4c(F)cccc4F)c4nc(c(-c5c(F)cccc5F)c5ccc2[nH]5)C=C4)C=C3)cc1
REMARK SMILES IDX 6 1 5 2 4 3 3 4 1 5 2 6 34 8 35 9 87 10 36 11 86 12 37 13
REMARK SMILES IDX 38 14 39 15 80 16 40 17 85 18 79 19 81 20 41 21 84 22 78 23
REMARK SMILES IDX 77 24 42 26 68 27 51 28 67 29 52 30 55 31 66 32 82 33 53 34
REMARK SMILES IDX 54 35 65 37 83 38 56 39 43 40 44 41 49 42 45 43 46 44 48 45
REMARK SMILES IDX 50 46 47 47 69 48 70 49 75 50 71 51 72 52 74 53 76 54 73 55
REMARK SMILES IDX 57 56 58 57 63 58 59 59 60 60 62 61 64 62 61 63 7 64 8 65
REMARK SMILES IDX 9 67 10 68 11 69 17 70 12 71 16 72 14 73 13 74 15 75 18 76
REMARK SMILES IDX 19 77 20 78 21 80 22 81 33 82 23 83 32 84 24 85 25 86 26 87
REMARK SMILES IDX 27 88 31 89 28 90 30 91 29 92
REMARK H PARENT 3 7 81 25 55 36 7 66 20 79
REMARK Flexibility Score: inf
ROOT
ATOM      1  C   UNL A   1      34.697  24.948  25.474  1.00  0.00     0.117 C 
ENDROOT
BRANCH   1   2
ATOM      2  C   UNL A   1      35.694  23.914  25.953  1.00  0.00     0.042 C 
BRANCH   2   3
ATOM      3  C   UNL A   1      36.939  23.911  25.087  1.00  0.00     0.118 C 
BRANCH   3   4
ATOM      4  N   UNL A   1      37.905  22.902  25.513  1.00  0.00    -0.352 N 
ATOM      5  O   UNL A   1      39.855  22.055  26.243  1.00  0.00    -0.269 OA
ATOM      6  C   UNL A   1      39.090  23.012  26.206  1.00  0.00     0.251 C 
ATOM      7  H   UNL A   1      37.666  21.980  25.261  1.00  0.00     0.163 HD
BRANCH   6   8
ATOM      8  C   UNL A   1      39.455  24.284  26.872  1.00  0.00     0.039 A 
ATOM      9  C   UNL A   1      39.137  24.494  28.207  1.00  0.00     0.014 A 
ATOM     10  C   UNL A   1      40.153  25.278  26.174  1.00  0.00     0.014 A 
ATOM     11  C   UNL A   1      39.278  25.750  28.768  1.00  0.00     0.010 A 
ATOM     12  C   UNL A   1      40.466  26.491  26.806  1.00  0.00     0.010 A 
ATOM     13  C   UNL A   1      39.999  26.750  28.103  1.00  0.00    -0.014 A 
BRANCH  13  14
ATOM     14  C   UNL A   1      40.311  27.991  28.861  1.00  0.00     0.031 A 
ATOM     15  C   UNL A   1      39.304  29.092  29.032  1.00  0.00     0.074 A 
ATOM     16  C   UNL A   1      41.504  28.062  29.490  1.00  0.00     0.049 A 
ATOM     17  N   UNL A   1      39.405  30.192  29.735  1.00  0.00    -0.248 NA
ATOM     18  C   UNL A   1      38.026  28.955  28.318  1.00  0.00     0.031 C 
ATOM     19  C   UNL A   1      42.574  27.063  29.379  1.00  0.00     0.029 A 
ATOM     20  N   UNL A   1      42.003  28.972  30.387  1.00  0.00    -0.354 N 
ATOM     21  C   UNL A   1      38.220  30.887  29.533  1.00  0.00     0.074 A 
ATOM     22  C   UNL A   1      37.421  30.097  28.621  1.00  0.00     0.031 C 
ATOM     23  C   UNL A   1      43.548  27.355  30.249  1.00  0.00     0.029 A 
ATOM     24  C   UNL A   1      43.226  28.616  30.904  1.00  0.00     0.049 A 
ATOM     25  H   UNL A   1      41.531  29.799  30.635  1.00  0.00     0.167 HD
ATOM     26  C   UNL A   1      37.835  32.072  30.066  1.00  0.00     0.037 A 
ATOM     27  C   UNL A   1      44.018  29.239  31.794  1.00  0.00     0.037 A 
ATOM     28  C   UNL A   1      38.633  32.844  30.986  1.00  0.00     0.049 A 
ATOM     29  C   UNL A   1      43.561  30.543  32.369  1.00  0.00     0.074 A 
ATOM     30  C   UNL A   1      38.335  34.062  31.576  1.00  0.00     0.029 A 
ATOM     31  N   UNL A   1      39.884  32.471  31.456  1.00  0.00    -0.354 N 
ATOM     32  N   UNL A   1      42.439  31.188  32.158  1.00  0.00    -0.248 NA
ATOM     33  C   UNL A   1      44.482  31.215  33.293  1.00  0.00     0.031 C 
ATOM     34  C   UNL A   1      39.419  34.439  32.377  1.00  0.00     0.029 A 
ATOM     35  C   UNL A   1      40.373  33.436  32.322  1.00  0.00     0.049 A 
ATOM     36  H   UNL A   1      40.355  31.642  31.210  1.00  0.00     0.167 HD
ATOM     37  C   UNL A   1      42.520  32.343  32.918  1.00  0.00     0.074 A 
ATOM     38  C   UNL A   1      43.783  32.290  33.628  1.00  0.00     0.031 C 
ATOM     39  C   UNL A   1      41.636  33.366  33.011  1.00  0.00     0.037 A 
BRANCH  26  40
ATOM     40  C   UNL A   1      36.497  32.616  29.659  1.00  0.00     0.057 A 
ATOM     41  C   UNL A   1      35.355  32.439  30.451  1.00  0.00     0.134 A 
ATOM     42  C   UNL A   1      36.357  33.371  28.487  1.00  0.00     0.134 A 
ATOM     43  F   UNL A   1      35.415  31.715  31.579  1.00  0.00    -0.206 F 
ATOM     44  C   UNL A   1      34.121  32.980  30.084  1.00  0.00     0.040 A 
ATOM     45  C   UNL A   1      35.134  33.935  28.121  1.00  0.00     0.040 A 
ATOM     46  F   UNL A   1      37.411  33.583  27.685  1.00  0.00    -0.206 F 
ATOM     47  C   UNL A   1      34.009  33.738  28.920  1.00  0.00     0.006 A 
ENDBRANCH  26  40
BRANCH  27  48
ATOM     48  C   UNL A   1      45.331  28.648  32.161  1.00  0.00     0.057 A 
ATOM     49  C   UNL A   1      45.458  27.749  33.223  1.00  0.00     0.134 A 
ATOM     50  C   UNL A   1      46.492  28.967  31.443  1.00  0.00     0.134 A 
ATOM     51  F   UNL A   1      44.387  27.415  33.959  1.00  0.00    -0.206 F 
ATOM     52  C   UNL A   1      46.693  27.197  33.570  1.00  0.00     0.040 A 
ATOM     53  C   UNL A   1      47.726  28.399  31.757  1.00  0.00     0.040 A 
ATOM     54  F   UNL A   1      46.436  29.815  30.405  1.00  0.00    -0.206 F 
ATOM     55  C   UNL A   1      47.830  27.517  32.830  1.00  0.00     0.006 A 
ENDBRANCH  27  48
BRANCH  39  56
ATOM     56  C   UNL A   1      42.010  34.493  33.925  1.00  0.00     0.057 A 
ATOM     57  C   UNL A   1      42.689  35.626  33.455  1.00  0.00     0.134 A 
ATOM     58  C   UNL A   1      41.692  34.445  35.287  1.00  0.00     0.134 A 
ATOM     59  F   UNL A   1      43.037  35.722  32.162  1.00  0.00    -0.206 F 
ATOM     60  C   UNL A   1      43.068  36.656  34.315  1.00  0.00     0.040 A 
ATOM     61  C   UNL A   1      42.043  35.481  36.152  1.00  0.00     0.040 A 
ATOM     62  F   UNL A   1      41.038  33.391  35.797  1.00  0.00    -0.206 F 
ATOM     63  C   UNL A   1      42.741  36.586  35.668  1.00  0.00     0.006 A 
ENDBRANCH  39  56
ENDBRANCH  13  14
ENDBRANCH   6   8
ENDBRANCH   3   4
ENDBRANCH   2   3
ENDBRANCH   1   2
BRANCH   1  64
ATOM     64  N   UNL A   1      33.445  24.903  26.214  1.00  0.00    -0.356 N 
ATOM     65  C   UNL A   1      32.239  25.497  26.082  1.00  0.00     0.224 C 
ATOM     66  H   UNL A   1      33.487  24.300  26.991  1.00  0.00     0.163 HD
ATOM     67  O   UNL A   1      31.374  25.099  26.874  1.00  0.00    -0.275 OA
BRANCH  65  68
ATOM     68  C   UNL A   1      31.889  26.630  25.118  1.00  0.00     0.094 C 
ATOM     69  C   UNL A   1      31.987  27.997  25.847  1.00  0.00     0.002 C 
ATOM     70  C   UNL A   1      32.605  26.688  23.761  1.00  0.00     0.094 C 
ATOM     71  C   UNL A   1      33.457  28.397  26.051  1.00  0.00     0.005 C 
ATOM     72  C   UNL A   1      31.321  29.067  24.956  1.00  0.00     0.005 C 
ATOM     73  C   UNL A   1      33.188  28.129  23.551  1.00  0.00     0.002 C 
ATOM     74  C   UNL A   1      34.171  28.484  24.695  1.00  0.00     0.005 C 
ATOM     75  C   UNL A   1      32.088  29.205  23.635  1.00  0.00     0.005 C 
BRANCH  70  76
ATOM     76  C   UNL A   1      31.682  26.259  22.605  1.00  0.00     0.228 C 
ATOM     77  O   UNL A   1      31.007  27.065  21.965  1.00  0.00    -0.274 OA
ATOM     78  N   UNL A   1      31.709  24.952  22.181  1.00  0.00    -0.326 N 
ATOM     79  H   UNL A   1      31.397  24.803  21.260  1.00  0.00     0.169 HD
BRANCH  78  80
ATOM     80  C   UNL A   1      32.115  23.800  22.868  1.00  0.00     0.041 A 
ATOM     81  C   UNL A   1      33.353  23.244  22.563  1.00  0.00     0.026 A 
ATOM     82  C   UNL A   1      31.287  23.162  23.793  1.00  0.00     0.026 A 
ATOM     83  C   UNL A   1      33.820  22.137  23.280  1.00  0.00     0.006 A 
ATOM     84  C   UNL A   1      31.733  22.022  24.475  1.00  0.00     0.006 A 
ATOM     85  C   UNL A   1      33.025  21.526  24.262  1.00  0.00    -0.043 A 
BRANCH  85  86
ATOM     86  C   UNL A   1      33.559  20.363  25.071  1.00  0.00     0.071 C 
BRANCH  86  87
ATOM     87  C   UNL A   1      33.606  19.050  24.331  1.00  0.00    -0.041 A 
ATOM     88  C   UNL A   1      34.628  18.125  24.573  1.00  0.00     0.024 A 
ATOM     89  C   UNL A   1      32.622  18.713  23.397  1.00  0.00     0.024 A 
ATOM     90  C   UNL A   1      34.629  16.929  23.874  1.00  0.00     0.111 A 
ATOM     91  C   UNL A   1      32.705  17.487  22.754  1.00  0.00     0.111 A 
ATOM     92  N   UNL A   1      33.688  16.587  22.969  1.00  0.00    -0.265 NA
ENDBRANCH  86  87
ENDBRANCH  85  86
ENDBRANCH  78  80
ENDBRANCH  70  76
ENDBRANCH  65  68
ENDBRANCH   1  64
TORSDOF 14
ENDMDL
MODEL 2
REMARK VINA RESULT:     -12.5      3.014      7.651
REMARK SMILES O=C(NCCCNC(=O)[C@H]1[C@H]2CC[C@H](CC2)[C@@H]1C(=O)Nc1ccc(Cc2ccncc2)cc1)c1ccc(-c2c3nc(c(-c4c(F)cccc4F)c4ccc([nH]4)c(-c4c(F)cccc4F)c4nc(c(-c5c(F)cccc5F)c5ccc2[nH]5)C=C4)C=C3)cc1
REMARK SMILES IDX 6 1 5 2 4 3 3 4 1 5 2 6 34 8 35 9 87 10 36 11 86 12 37 13
REMARK SMILES IDX 38 14 39 15 80 16 40 17 85 18 79 19 81 20 41 21 84 22 78 23
REMARK SMILES IDX 77 24 42 26 68 27 51 28 67 29 52 30 55 31 66 32 82 33 53 34
REMARK SMILES IDX 54 35 65 37 83 38 56 39 43 40 44 41 49 42 45 43 46 44 48 45
REMARK SMILES IDX 50 46 47 47 69 48 70 49 75 50 71 51 72 52 74 53 76 54 73 55
REMARK SMILES IDX 57 56 58 57 63 58 59 59 60 60 62 61 64 62 61 63 7 64 8 65
REMARK SMILES IDX 9 67 10 68 11 69 17 70 12 71 16 72 14 73 13 74 15 75 18 76
REMARK SMILES IDX 19 77 20 78 21 80 22 81 33 82 23 83 32 84 24 85 25 86 26 87
REMARK SMILES IDX 27 88 31 89 28 90 30 91 29 92
REMARK H PARENT 3 7 81 25 55 36 7 66 20 79
REMARK Flexibility Score: inf
ROOT
ATOM      1  C   UNL A   1      33.228  28.297  25.596  1.00  0.00     0.117 C 
ENDROOT
BRANCH   1   2
ATOM      2  C   UNL A   1      32.598  29.656  25.380  1.00  0.00     0.042 C 
BRANCH   2   3
ATOM      3  C   UNL A   1      32.017  30.203  26.671  1.00  0.00     0.118 C 
BRANCH   3   4
ATOM      4  N   UNL A   1      31.917  31.660  26.657  1.00  0.00    -0.352 N 
ATOM      5  O   UNL A   1      32.246  33.781  27.323  1.00  0.00    -0.269 OA
ATOM      6  C   UNL A   1      32.662  32.629  27.291  1.00  0.00     0.251 C 
ATOM      7  H   UNL A   1      31.188  32.011  26.095  1.00  0.00     0.163 HD
BRANCH   6   8
ATOM      8  C   UNL A   1      33.938  32.279  27.959  1.00  0.00     0.039 A 
ATOM      9  C   UNL A   1      34.169  30.980  28.392  1.00  0.00     0.014 A 
ATOM     10  C   UNL A   1      34.938  33.243  28.133  1.00  0.00     0.014 A 
ATOM     11  C   UNL A   1      35.254  30.698  29.202  1.00  0.00     0.010 A 
ATOM     12  C   UNL A   1      36.130  32.907  28.794  1.00  0.00     0.010 A 
ATOM     13  C   UNL A   1      36.283  31.636  29.365  1.00  0.00    -0.014 A 
BRANCH  13  14
ATOM     14  C   UNL A   1      37.522  31.182  30.052  1.00  0.00     0.031 A 
ATOM     15  C   UNL A   1      37.779  31.476  31.502  1.00  0.00     0.074 A 
ATOM     16  C   UNL A   1      38.376  30.399  29.358  1.00  0.00     0.049 A 
ATOM     17  N   UNL A   1      38.773  31.074  32.255  1.00  0.00    -0.248 NA
ATOM     18  C   UNL A   1      36.812  32.337  32.199  1.00  0.00     0.031 C 
ATOM     19  C   UNL A   1      38.243  30.064  27.935  1.00  0.00     0.029 A 
ATOM     20  N   UNL A   1      39.486  29.697  29.754  1.00  0.00    -0.354 N 
ATOM     21  C   UNL A   1      38.565  31.649  33.502  1.00  0.00     0.074 A 
ATOM     22  C   UNL A   1      37.363  32.447  33.401  1.00  0.00     0.031 C 
ATOM     23  C   UNL A   1      39.160  29.146  27.607  1.00  0.00     0.029 A 
ATOM     24  C   UNL A   1      40.013  28.904  28.761  1.00  0.00     0.049 A 
ATOM     25  H   UNL A   1      39.867  29.755  30.659  1.00  0.00     0.167 HD
ATOM     26  C   UNL A   1      39.308  31.513  34.627  1.00  0.00     0.037 A 
ATOM     27  C   UNL A   1      41.078  28.084  28.767  1.00  0.00     0.037 A 
ATOM     28  C   UNL A   1      40.497  30.702  34.721  1.00  0.00     0.049 A 
ATOM     29  C   UNL A   1      41.875  27.952  30.028  1.00  0.00     0.074 A 
ATOM     30  C   UNL A   1      41.324  30.507  35.815  1.00  0.00     0.029 A 
ATOM     31  N   UNL A   1      41.023  29.946  33.685  1.00  0.00    -0.354 N 
ATOM     32  N   UNL A   1      41.666  28.511  31.195  1.00  0.00    -0.248 NA
ATOM     33  C   UNL A   1      43.061  27.090  29.971  1.00  0.00     0.031 C 
ATOM     34  C   UNL A   1      42.368  29.658  35.430  1.00  0.00     0.029 A 
ATOM     35  C   UNL A   1      42.167  29.289  34.110  1.00  0.00     0.049 A 
ATOM     36  H   UNL A   1      40.640  29.884  32.780  1.00  0.00     0.167 HD
ATOM     37  C   UNL A   1      42.696  28.073  32.012  1.00  0.00     0.074 A 
ATOM     38  C   UNL A   1      43.504  27.169  31.218  1.00  0.00     0.031 C 
ATOM     39  C   UNL A   1      42.960  28.400  33.300  1.00  0.00     0.037 A 
BRANCH  26  40
ATOM     40  C   UNL A   1      38.867  32.269  35.847  1.00  0.00     0.057 A 
ATOM     41  C   UNL A   1      38.137  31.656  36.873  1.00  0.00     0.134 A 
ATOM     42  C   UNL A   1      39.221  33.614  36.023  1.00  0.00     0.134 A 
ATOM     43  F   UNL A   1      37.754  30.375  36.763  1.00  0.00    -0.206 F 
ATOM     44  C   UNL A   1      37.762  32.356  38.022  1.00  0.00     0.040 A 
ATOM     45  C   UNL A   1      38.872  34.318  37.176  1.00  0.00     0.040 A 
ATOM     46  F   UNL A   1      39.924  34.261  35.082  1.00  0.00    -0.206 F 
ATOM     47  C   UNL A   1      38.137  33.689  38.180  1.00  0.00     0.006 A 
ENDBRANCH  26  40
BRANCH  27  48
ATOM     48  C   UNL A   1      41.463  27.359  27.528  1.00  0.00     0.057 A 
ATOM     49  C   UNL A   1      41.055  26.043  27.295  1.00  0.00     0.134 A 
ATOM     50  C   UNL A   1      42.244  27.977  26.542  1.00  0.00     0.134 A 
ATOM     51  F   UNL A   1      40.320  25.390  28.207  1.00  0.00    -0.206 F 
ATOM     52  C   UNL A   1      41.421  25.360  26.132  1.00  0.00     0.040 A 
ATOM     53  C   UNL A   1      42.589  27.319  25.362  1.00  0.00     0.040 A 
ATOM     54  F   UNL A   1      42.658  29.243  26.701  1.00  0.00    -0.206 F 
ATOM     55  C   UNL A   1      42.184  26.002  25.159  1.00  0.00     0.006 A 
ENDBRANCH  27  48
BRANCH  39  56
ATOM     56  C   UNL A   1      44.164  27.759  33.920  1.00  0.00     0.057 A 
ATOM     57  C   UNL A   1      44.089  26.510  34.553  1.00  0.00     0.134 A 
ATOM     58  C   UNL A   1      45.410  28.398  33.889  1.00  0.00     0.134 A 
ATOM     59  F   UNL A   1      42.919  25.857  34.630  1.00  0.00    -0.206 F 
ATOM     60  C   UNL A   1      45.205  25.934  35.160  1.00  0.00     0.040 A 
ATOM     61  C   UNL A   1      46.537  27.819  34.471  1.00  0.00     0.040 A 
ATOM     62  F   UNL A   1      45.548  29.592  33.295  1.00  0.00    -0.206 F 
ATOM     63  C   UNL A   1      46.434  26.588  35.117  1.00  0.00     0.006 A 
ENDBRANCH  39  56
ENDBRANCH  13  14
ENDBRANCH   6   8
ENDBRANCH   3   4
ENDBRANCH   2   3
ENDBRANCH   1   2
BRANCH   1  64
ATOM     64  N   UNL A   1      32.291  27.326  26.140  1.00  0.00    -0.356 N 
ATOM     65  C   UNL A   1      32.245  25.977  26.199  1.00  0.00     0.224 C 
ATOM     66  H   UNL A   1      31.509  27.750  26.561  1.00  0.00     0.163 HD
ATOM     67  O   UNL A   1      31.307  25.518  26.866  1.00  0.00    -0.275 OA
BRANCH  65  68
ATOM     68  C   UNL A   1      33.180  25.007  25.479  1.00  0.00     0.094 C 
ATOM     69  C   UNL A   1      33.767  23.986  26.490  1.00  0.00     0.002 C 
ATOM     70  C   UNL A   1      32.669  24.290  24.221  1.00  0.00     0.094 C 
ATOM     71  C   UNL A   1      32.709  22.941  26.880  1.00  0.00     0.005 C 
ATOM     72  C   UNL A   1      34.935  23.246  25.805  1.00  0.00     0.005 C 
ATOM     73  C   UNL A   1      32.928  22.750  24.368  1.00  0.00     0.002 C 
ATOM     74  C   UNL A   1      32.213  22.202  25.630  1.00  0.00     0.005 C 
ATOM     75  C   UNL A   1      34.421  22.444  24.604  1.00  0.00     0.005 C 
BRANCH  70  76
ATOM     76  C   UNL A   1      33.294  24.865  22.937  1.00  0.00     0.228 C 
ATOM     77  O   UNL A   1      34.391  24.499  22.515  1.00  0.00    -0.274 OA
ATOM     78  N   UNL A   1      32.551  25.720  22.159  1.00  0.00    -0.326 N 
ATOM     79  H   UNL A   1      32.827  25.777  21.216  1.00  0.00     0.169 HD
BRANCH  78  80
ATOM     80  C   UNL A   1      31.456  26.521  22.511  1.00  0.00     0.041 A 
ATOM     81  C   UNL A   1      31.517  27.886  22.245  1.00  0.00     0.026 A 
ATOM     82  C   UNL A   1      30.346  26.003  23.177  1.00  0.00     0.026 A 
ATOM     83  C   UNL A   1      30.414  28.702  22.516  1.00  0.00     0.006 A 
ATOM     84  C   UNL A   1      29.261  26.830  23.497  1.00  0.00     0.006 A 
ATOM     85  C   UNL A   1      29.263  28.181  23.125  1.00  0.00    -0.043 A 
BRANCH  85  86
ATOM     86  C   UNL A   1      28.053  29.059  23.366  1.00  0.00     0.071 C 
BRANCH  86  87
ATOM     87  C   UNL A   1      28.177  30.463  22.828  1.00  0.00    -0.041 A 
ATOM     88  C   UNL A   1      27.896  30.746  21.487  1.00  0.00     0.024 A 
ATOM     89  C   UNL A   1      28.559  31.521  23.658  1.00  0.00     0.024 A 
ATOM     90  C   UNL A   1      28.018  32.051  21.038  1.00  0.00     0.111 A 
ATOM     91  C   UNL A   1      28.644  32.795  23.116  1.00  0.00     0.111 A 
ATOM     92  N   UNL A   1      28.385  33.084  21.823  1.00  0.00    -0.265 NA
ENDBRANCH  86  87
ENDBRANCH  85  86
ENDBRANCH  78  80
ENDBRANCH  70  76
ENDBRANCH  65  68
ENDBRANCH   1  64
TORSDOF 14
ENDMDL
MODEL 3
REMARK VINA RESULT:     -12.5      2.603      6.774
REMARK SMILES O=C(NCCCNC(=O)[C@H]1[C@H]2CC[C@H](CC2)[C@@H]1C(=O)Nc1ccc(Cc2ccncc2)cc1)c1ccc(-c2c3nc(c(-c4c(F)cccc4F)c4ccc([nH]4)c(-c4c(F)cccc4F)c4nc(c(-c5c(F)cccc5F)c5ccc2[nH]5)C=C4)C=C3)cc1
REMARK SMILES IDX 6 1 5 2 4 3 3 4 1 5 2 6 34 8 35 9 87 10 36 11 86 12 37 13
REMARK SMILES IDX 38 14 39 15 80 16 40 17 85 18 79 19 81 20 41 21 84 22 78 23
REMARK SMILES IDX 77 24 42 26 68 27 51 28 67 29 52 30 55 31 66 32 82 33 53 34
REMARK SMILES IDX 54 35 65 37 83 38 56 39 43 40 44 41 49 42 45 43 46 44 48 45
REMARK SMILES IDX 50 46 47 47 69 48 70 49 75 50 71 51 72 52 74 53 76 54 73 55
REMARK SMILES IDX 57 56 58 57 63 58 59 59 60 60 62 61 64 62 61 63 7 64 8 65
REMARK SMILES IDX 9 67 10 68 11 69 17 70 12 71 16 72 14 73 13 74 15 75 18 76
REMARK SMILES IDX 19 77 20 78 21 80 22 81 33 82 23 83 32 84 24 85 25 86 26 87
REMARK SMILES IDX 27 88 31 89 28 90 30 91 29 92
REMARK H PARENT 3 7 81 25 55 36 7 66 20 79
REMARK Flexibility Score: inf
ROOT
ATOM      1  C   UNL A   1      31.432  30.688  25.860  1.00  0.00     0.117 C 
ENDROOT
BRANCH   1   2
ATOM      2  C   UNL A   1      31.341  31.806  26.876  1.00  0.00     0.042 C 
BRANCH   2   3
ATOM      3  C   UNL A   1      32.638  32.588  26.949  1.00  0.00     0.118 C 
BRANCH   3   4
ATOM      4  N   UNL A   1      32.463  33.890  27.587  1.00  0.00    -0.352 N 
ATOM      5  O   UNL A   1      32.643  35.484  29.162  1.00  0.00    -0.269 OA
ATOM      6  C   UNL A   1      33.119  34.481  28.644  1.00  0.00     0.251 C 
ATOM      7  H   UNL A   1      31.749  34.442  27.193  1.00  0.00     0.163 HD
BRANCH   6   8
ATOM      8  C   UNL A   1      34.372  33.893  29.173  1.00  0.00     0.039 A 
ATOM      9  C   UNL A   1      34.328  32.796  30.023  1.00  0.00     0.014 A 
ATOM     10  C   UNL A   1      35.616  34.414  28.798  1.00  0.00     0.014 A 
ATOM     11  C   UNL A   1      35.469  32.382  30.687  1.00  0.00     0.010 A 
ATOM     12  C   UNL A   1      36.795  33.868  29.330  1.00  0.00     0.010 A 
ATOM     13  C   UNL A   1      36.728  32.866  30.308  1.00  0.00    -0.014 A 
BRANCH  13  14
ATOM     14  C   UNL A   1      37.923  32.207  30.900  1.00  0.00     0.031 A 
ATOM     15  C   UNL A   1      38.362  32.477  32.311  1.00  0.00     0.074 A 
ATOM     16  C   UNL A   1      38.555  31.268  30.163  1.00  0.00     0.049 A 
ATOM     17  N   UNL A   1      39.332  31.916  32.987  1.00  0.00    -0.248 NA
ATOM     18  C   UNL A   1      37.634  33.514  33.058  1.00  0.00     0.031 C 
ATOM     19  C   UNL A   1      38.233  30.935  28.770  1.00  0.00     0.029 A 
ATOM     20  N   UNL A   1      39.551  30.383  30.485  1.00  0.00    -0.354 N 
ATOM     21  C   UNL A   1      39.347  32.542  34.227  1.00  0.00     0.074 A 
ATOM     22  C   UNL A   1      38.304  33.545  34.203  1.00  0.00     0.031 C 
ATOM     23  C   UNL A   1      38.935  29.860  28.396  1.00  0.00     0.029 A 
ATOM     24  C   UNL A   1      39.833  29.488  29.479  1.00  0.00     0.049 A 
ATOM     25  H   UNL A   1      40.019  30.388  31.351  1.00  0.00     0.167 HD
ATOM     26  C   UNL A   1      40.154  32.295  35.287  1.00  0.00     0.037 A 
ATOM     27  C   UNL A   1      40.729  28.487  29.421  1.00  0.00     0.037 A 
ATOM     28  C   UNL A   1      41.181  31.283  35.306  1.00  0.00     0.049 A 
ATOM     29  C   UNL A   1      41.602  28.237  30.612  1.00  0.00     0.074 A 
ATOM     30  C   UNL A   1      42.057  30.960  36.330  1.00  0.00     0.029 A 
ATOM     31  N   UNL A   1      41.465  30.423  34.255  1.00  0.00    -0.354 N 
ATOM     32  N   UNL A   1      41.606  28.847  31.772  1.00  0.00    -0.248 NA
ATOM     33  C   UNL A   1      42.603  27.172  30.483  1.00  0.00     0.031 C 
ATOM     34  C   UNL A   1      42.891  29.928  35.886  1.00  0.00     0.029 A 
ATOM     35  C   UNL A   1      42.505  29.576  34.603  1.00  0.00     0.049 A 
ATOM     36  H   UNL A   1      40.995  30.415  33.390  1.00  0.00     0.167 HD
ATOM     37  C   UNL A   1      42.611  28.244  32.511  1.00  0.00     0.074 A 
ATOM     38  C   UNL A   1      43.166  27.192  31.682  1.00  0.00     0.031 C 
ATOM     39  C   UNL A   1      43.047  28.542  33.759  1.00  0.00     0.037 A 
BRANCH  26  40
ATOM     40  C   UNL A   1      39.971  33.142  36.513  1.00  0.00     0.057 A 
ATOM     41  C   UNL A   1      40.723  34.303  36.729  1.00  0.00     0.134 A 
ATOM     42  C   UNL A   1      38.994  32.820  37.465  1.00  0.00     0.134 A 
ATOM     43  F   UNL A   1      41.684  34.662  35.864  1.00  0.00    -0.206 F 
ATOM     44  C   UNL A   1      40.521  35.106  37.854  1.00  0.00     0.040 A 
ATOM     45  C   UNL A   1      38.768  33.626  38.582  1.00  0.00     0.040 A 
ATOM     46  F   UNL A   1      38.235  31.725  37.318  1.00  0.00    -0.206 F 
ATOM     47  C   UNL A   1      39.535  34.773  38.781  1.00  0.00     0.006 A 
ENDBRANCH  26  40
BRANCH  27  48
ATOM     48  C   UNL A   1      40.861  27.680  28.181  1.00  0.00     0.057 A 
ATOM     49  C   UNL A   1      41.673  28.096  27.121  1.00  0.00     0.134 A 
ATOM     50  C   UNL A   1      40.182  26.464  28.034  1.00  0.00     0.134 A 
ATOM     51  F   UNL A   1      42.338  29.258  27.193  1.00  0.00    -0.206 F 
ATOM     52  C   UNL A   1      41.794  27.339  25.953  1.00  0.00     0.040 A 
ATOM     53  C   UNL A   1      40.319  25.682  26.888  1.00  0.00     0.040 A 
ATOM     54  F   UNL A   1      39.396  26.004  29.019  1.00  0.00    -0.206 F 
ATOM     55  C   UNL A   1      41.121  26.125  25.838  1.00  0.00     0.006 A 
ENDBRANCH  27  48
BRANCH  39  56
ATOM     56  C   UNL A   1      44.168  27.704  34.294  1.00  0.00     0.057 A 
ATOM     57  C   UNL A   1      45.508  28.092  34.154  1.00  0.00     0.134 A 
ATOM     58  C   UNL A   1      43.907  26.496  34.951  1.00  0.00     0.134 A 
ATOM     59  F   UNL A   1      45.822  29.230  33.517  1.00  0.00    -0.206 F 
ATOM     60  C   UNL A   1      46.550  27.291  34.621  1.00  0.00     0.040 A 
ATOM     61  C   UNL A   1      44.940  25.700  35.446  1.00  0.00     0.040 A 
ATOM     62  F   UNL A   1      42.646  26.071  35.121  1.00  0.00    -0.206 F 
ATOM     63  C   UNL A   1      46.266  26.092  35.273  1.00  0.00     0.006 A 
ENDBRANCH  39  56
ENDBRANCH  13  14
ENDBRANCH   6   8
ENDBRANCH   3   4
ENDBRANCH   2   3
ENDBRANCH   1   2
BRANCH   1  64
ATOM     64  N   UNL A   1      32.186  29.544  26.352  1.00  0.00    -0.356 N 
ATOM     65  C   UNL A   1      32.408  28.288  25.908  1.00  0.00     0.224 C 
ATOM     66  H   UNL A   1      32.638  29.730  27.206  1.00  0.00     0.163 HD
ATOM     67  O   UNL A   1      33.223  27.638  26.577  1.00  0.00    -0.275 OA
BRANCH  65  68
ATOM     68  C   UNL A   1      31.707  27.606  24.734  1.00  0.00     0.094 C 
ATOM     69  C   UNL A   1      32.084  28.316  23.406  1.00  0.00     0.002 C 
ATOM     70  C   UNL A   1      31.833  26.082  24.587  1.00  0.00     0.094 C 
ATOM     71  C   UNL A   1      33.516  27.950  22.984  1.00  0.00     0.005 C 
ATOM     72  C   UNL A   1      31.123  27.821  22.305  1.00  0.00     0.005 C 
ATOM     73  C   UNL A   1      32.287  25.744  23.124  1.00  0.00     0.002 C 
ATOM     74  C   UNL A   1      33.641  26.430  22.809  1.00  0.00     0.005 C 
ATOM     75  C   UNL A   1      31.309  26.316  22.079  1.00  0.00     0.005 C 
BRANCH  70  76
ATOM     76  C   UNL A   1      30.530  25.358  24.974  1.00  0.00     0.228 C 
ATOM     77  O   UNL A   1      29.510  25.963  25.303  1.00  0.00    -0.274 OA
ATOM     78  N   UNL A   1      30.457  23.994  24.822  1.00  0.00    -0.326 N 
ATOM     79  H   UNL A   1      29.546  23.629  24.737  1.00  0.00     0.169 HD
BRANCH  78  80
ATOM     80  C   UNL A   1      31.487  23.046  24.770  1.00  0.00     0.041 A 
ATOM     81  C   UNL A   1      32.244  22.820  25.916  1.00  0.00     0.026 A 
ATOM     82  C   UNL A   1      31.817  22.378  23.591  1.00  0.00     0.026 A 
ATOM     83  C   UNL A   1      33.232  21.830  25.920  1.00  0.00     0.006 A 
ATOM     84  C   UNL A   1      32.842  21.422  23.580  1.00  0.00     0.006 A 
ATOM     85  C   UNL A   1      33.528  21.102  24.758  1.00  0.00    -0.043 A 
BRANCH  85  86
ATOM     86  C   UNL A   1      34.561  19.995  24.785  1.00  0.00     0.071 C 
BRANCH  86  87
ATOM     87  C   UNL A   1      33.989  18.600  24.757  1.00  0.00    -0.041 A 
ATOM     88  C   UNL A   1      32.856  18.271  25.508  1.00  0.00     0.024 A 
ATOM     89  C   UNL A   1      34.566  17.601  23.966  1.00  0.00     0.024 A 
ATOM     90  C   UNL A   1      32.363  16.978  25.448  1.00  0.00     0.111 A 
ATOM     91  C   UNL A   1      33.993  16.337  23.966  1.00  0.00     0.111 A 
ATOM     92  N   UNL A   1      32.905  16.002  24.691  1.00  0.00    -0.265 NA
ENDBRANCH  86  87
ENDBRANCH  85  86
ENDBRANCH  78  80
ENDBRANCH  70  76
ENDBRANCH  65  68
ENDBRANCH   1  64
TORSDOF 14
ENDMDL
