MODEL 1
REMARK VINA RESULT:     -10.5      0.000      0.000
REMARK SMILES C[C@H](C(=O)NCCCNC(=O)c1ccc(-c2c3nc(c(-c4c(F)cccc4F)c4ccc([nH]4)c(-c4c(F)cccc4F)c4nc(c(-c5c(F)cccc5F)c5ccc2[nH]5)C=C4)C=C3)cc1)[C@@H](C)[NH2+]C[C@@H]1CCCC[C@@H]1CO
REMARK SMILES IDX 3 1 4 2 5 3 2 5 1 6 66 7 67 8 68 9 69 12 70 13 71 14 75 15
REMARK SMILES IDX 72 16 74 17 73 18 76 19 77 20 6 22 7 23 8 24 9 25 10 26
REMARK SMILES IDX 11 28 12 29 13 30 65 31 14 32 64 33 15 34 16 35 17 36 58 37
REMARK SMILES IDX 18 38 63 39 57 40 59 41 19 42 62 43 56 44 55 45 20 47 46 48
REMARK SMILES IDX 29 49 45 50 30 51 33 52 44 53 60 54 31 55 32 56 43 58 61 59
REMARK SMILES IDX 34 60 21 61 22 62 27 63 23 64 24 65 26 66 28 67 25 68 47 69
REMARK SMILES IDX 48 70 53 71 49 72 50 73 52 74 54 75 51 76 35 77 36 78 41 79
REMARK SMILES IDX 37 80 38 81 40 82 42 83 39 84
REMARK H PARENT 5 4 68 10 68 11 77 21 9 27 59 46 33 57
REMARK Flexibility Score: inf
ROOT
ATOM      1  C   UNL A   1      30.698  26.128  26.087  1.00  0.00     0.228 C 
ATOM      2  O   UNL A   1      30.151  25.093  26.493  1.00  0.00    -0.275 OA
ATOM      3  N   UNL A   1      30.997  27.031  27.060  1.00  0.00    -0.356 N 
ATOM      4  H   UNL A   1      30.584  26.802  27.924  1.00  0.00     0.163 HD
ENDROOT
BRANCH   1   5
ATOM      5  C   UNL A   1      30.889  26.318  24.567  1.00  0.00     0.133 C 
ATOM      6  C   UNL A   1      30.762  27.808  24.261  1.00  0.00     0.024 C 
BRANCH   5   7
ATOM      7  C   UNL A   1      32.138  25.642  23.971  1.00  0.00     0.191 C 
ATOM      8  C   UNL A   1      33.142  26.740  23.580  1.00  0.00     0.076 C 
BRANCH   7   9
ATOM      9  N   UNL A   1      32.800  24.596  24.769  1.00  0.00    -0.343 N 
ATOM     10  H   UNL A   1      32.939  23.777  24.177  1.00  0.00     0.346 HD
ATOM     11  H   UNL A   1      32.193  24.398  25.566  1.00  0.00     0.346 HD
BRANCH   9  12
ATOM     12  C   UNL A   1      34.125  25.014  25.320  1.00  0.00     0.264 C 
BRANCH  12  13
ATOM     13  C   UNL A   1      35.362  24.136  24.959  1.00  0.00     0.049 C 
ATOM     14  C   UNL A   1      35.276  23.413  23.598  1.00  0.00     0.010 C 
ATOM     15  C   UNL A   1      35.756  23.077  26.032  1.00  0.00     0.023 C 
ATOM     16  C   UNL A   1      36.631  22.847  23.194  1.00  0.00     0.001 C 
ATOM     17  C   UNL A   1      37.142  22.499  25.658  1.00  0.00     0.006 C 
ATOM     18  C   UNL A   1      37.202  21.909  24.246  1.00  0.00     0.000 C 
BRANCH  15  19
ATOM     19  C   UNL A   1      34.754  21.928  26.249  1.00  0.00     0.160 C 
BRANCH  19  20
ATOM     20  O   UNL A   1      34.775  21.447  27.581  1.00  0.00    -0.396 OA
ATOM     21  H   UNL A   1      34.691  20.481  27.578  1.00  0.00     0.210 HD
ENDBRANCH  19  20
ENDBRANCH  15  19
ENDBRANCH  12  13
ENDBRANCH   9  12
ENDBRANCH   7   9
ENDBRANCH   5   7
ENDBRANCH   1   5
BRANCH   3  22
ATOM     22  C   UNL A   1      31.784  28.255  27.129  1.00  0.00     0.117 C 
BRANCH  22  23
ATOM     23  C   UNL A   1      33.279  28.054  27.002  1.00  0.00     0.042 C 
BRANCH  23  24
ATOM     24  C   UNL A   1      33.995  29.146  26.237  1.00  0.00     0.118 C 
BRANCH  24  25
ATOM     25  N   UNL A   1      33.788  30.474  26.797  1.00  0.00    -0.352 N 
ATOM     26  C   UNL A   1      34.519  31.162  27.738  1.00  0.00     0.251 C 
ATOM     27  H   UNL A   1      33.004  30.955  26.448  1.00  0.00     0.163 HD
ATOM     28  O   UNL A   1      34.100  32.232  28.162  1.00  0.00    -0.269 OA
BRANCH  26  29
ATOM     29  C   UNL A   1      35.791  30.608  28.264  1.00  0.00     0.039 A 
ATOM     30  C   UNL A   1      35.750  29.793  29.400  1.00  0.00     0.014 A 
ATOM     31  C   UNL A   1      37.019  30.899  27.668  1.00  0.00     0.014 A 
ATOM     32  C   UNL A   1      36.932  29.239  29.901  1.00  0.00     0.010 A 
ATOM     33  C   UNL A   1      38.174  30.252  28.093  1.00  0.00     0.010 A 
ATOM     34  C   UNL A   1      38.151  29.442  29.235  1.00  0.00    -0.014 A 
BRANCH  34  35
ATOM     35  C   UNL A   1      39.420  28.872  29.756  1.00  0.00     0.031 A 
ATOM     36  C   UNL A   1      40.059  29.458  30.989  1.00  0.00     0.074 A 
ATOM     37  C   UNL A   1      40.024  27.860  29.104  1.00  0.00     0.049 A 
ATOM     38  N   UNL A   1      41.179  29.127  31.580  1.00  0.00    -0.248 NA
ATOM     39  C   UNL A   1      39.362  30.590  31.623  1.00  0.00     0.031 C 
ATOM     40  C   UNL A   1      39.544  27.243  27.867  1.00  0.00     0.029 A 
ATOM     41  N   UNL A   1      41.178  27.175  29.391  1.00  0.00    -0.354 N 
ATOM     42  C   UNL A   1      41.321  30.012  32.642  1.00  0.00     0.074 A 
ATOM     43  C   UNL A   1      40.219  30.944  32.566  1.00  0.00     0.031 C 
ATOM     44  C   UNL A   1      40.380  26.252  27.517  1.00  0.00     0.029 A 
ATOM     45  C   UNL A   1      41.472  26.187  28.484  1.00  0.00     0.049 A 
ATOM     46  H   UNL A   1      41.742  27.374  30.173  1.00  0.00     0.167 HD
ATOM     47  C   UNL A   1      42.261  30.028  33.617  1.00  0.00     0.037 A 
ATOM     48  C   UNL A   1      42.505  25.326  28.437  1.00  0.00     0.037 A 
ATOM     49  C   UNL A   1      43.349  29.091  33.702  1.00  0.00     0.049 A 
ATOM     50  C   UNL A   1      43.538  25.357  29.531  1.00  0.00     0.074 A 
ATOM     51  C   UNL A   1      44.334  28.995  34.669  1.00  0.00     0.029 A 
ATOM     52  N   UNL A   1      43.595  28.083  32.780  1.00  0.00    -0.354 N 
ATOM     53  N   UNL A   1      43.624  26.157  30.566  1.00  0.00    -0.248 NA
ATOM     54  C   UNL A   1      44.606  24.352  29.459  1.00  0.00     0.031 C 
ATOM     55  C   UNL A   1      45.203  27.960  34.306  1.00  0.00     0.029 A 
ATOM     56  C   UNL A   1      44.723  27.370  33.148  1.00  0.00     0.049 A 
ATOM     57  H   UNL A   1      43.048  27.903  31.981  1.00  0.00     0.167 HD
ATOM     58  C   UNL A   1      44.734  25.731  31.287  1.00  0.00     0.074 A 
ATOM     59  C   UNL A   1      45.279  24.593  30.575  1.00  0.00     0.031 C 
ATOM     60  C   UNL A   1      45.251  26.234  32.435  1.00  0.00     0.037 A 
BRANCH  47  61
ATOM     61  C   UNL A   1      42.138  31.092  34.671  1.00  0.00     0.057 A 
ATOM     62  C   UNL A   1      41.321  30.927  35.799  1.00  0.00     0.134 A 
ATOM     63  C   UNL A   1      42.848  32.295  34.564  1.00  0.00     0.134 A 
ATOM     64  F   UNL A   1      40.603  29.805  35.960  1.00  0.00    -0.206 F 
ATOM     65  C   UNL A   1      41.181  31.933  36.757  1.00  0.00     0.040 A 
ATOM     66  C   UNL A   1      42.743  33.294  35.534  1.00  0.00     0.040 A 
ATOM     67  F   UNL A   1      43.654  32.521  33.516  1.00  0.00    -0.206 F 
ATOM     68  C   UNL A   1      41.900  33.119  36.628  1.00  0.00     0.006 A 
ENDBRANCH  47  61
BRANCH  48  69
ATOM     69  C   UNL A   1      42.596  24.338  27.331  1.00  0.00     0.057 A 
ATOM     70  C   UNL A   1      42.046  23.057  27.454  1.00  0.00     0.134 A 
ATOM     71  C   UNL A   1      43.234  24.652  26.125  1.00  0.00     0.134 A 
ATOM     72  F   UNL A   1      41.435  22.691  28.591  1.00  0.00    -0.206 F 
ATOM     73  C   UNL A   1      42.145  22.116  26.427  1.00  0.00     0.040 A 
ATOM     74  C   UNL A   1      43.317  23.730  25.080  1.00  0.00     0.040 A 
ATOM     75  F   UNL A   1      43.773  25.866  25.940  1.00  0.00    -0.206 F 
ATOM     76  C   UNL A   1      42.778  22.454  25.233  1.00  0.00     0.006 A 
ENDBRANCH  48  69
BRANCH  60  77
ATOM     77  C   UNL A   1      46.438  25.525  33.021  1.00  0.00     0.057 A 
ATOM     78  C   UNL A   1      46.305  24.484  33.949  1.00  0.00     0.134 A 
ATOM     79  C   UNL A   1      47.738  25.879  32.632  1.00  0.00     0.134 A 
ATOM     80  F   UNL A   1      45.090  24.102  34.373  1.00  0.00    -0.206 F 
ATOM     81  C   UNL A   1      47.420  23.844  34.493  1.00  0.00     0.040 A 
ATOM     82  C   UNL A   1      48.858  25.225  33.143  1.00  0.00     0.040 A 
ATOM     83  F   UNL A   1      47.938  26.859  31.738  1.00  0.00    -0.206 F 
ATOM     84  C   UNL A   1      48.701  24.210  34.086  1.00  0.00     0.006 A 
ENDBRANCH  60  77
ENDBRANCH  34  35
ENDBRANCH  26  29
ENDBRANCH  24  25
ENDBRANCH  23  24
ENDBRANCH  22  23
ENDBRANCH   3  22
TORSDOF 16
ENDMDL
MODEL 2
REMARK VINA RESULT:     -10.3      2.451      7.102
REMARK SMILES C[C@H](C(=O)NCCCNC(=O)c1ccc(-c2c3nc(c(-c4c(F)cccc4F)c4ccc([nH]4)c(-c4c(F)cccc4F)c4nc(c(-c5c(F)cccc5F)c5ccc2[nH]5)C=C4)C=C3)cc1)[C@@H](C)[NH2+]C[C@@H]1CCCC[C@@H]1CO
REMARK SMILES IDX 3 1 4 2 5 3 2 5 1 6 66 7 67 8 68 9 69 12 70 13 71 14 75 15
REMARK SMILES IDX 72 16 74 17 73 18 76 19 77 20 6 22 7 23 8 24 9 25 10 26
REMARK SMILES IDX 11 28 12 29 13 30 65 31 14 32 64 33 15 34 16 35 17 36 58 37
REMARK SMILES IDX 18 38 63 39 57 40 59 41 19 42 62 43 56 44 55 45 20 47 46 48
REMARK SMILES IDX 29 49 45 50 30 51 33 52 44 53 60 54 31 55 32 56 43 58 61 59
REMARK SMILES IDX 34 60 21 61 22 62 27 63 23 64 24 65 26 66 28 67 25 68 47 69
REMARK SMILES IDX 48 70 53 71 49 72 50 73 52 74 54 75 51 76 35 77 36 78 41 79
REMARK SMILES IDX 37 80 38 81 40 82 42 83 39 84
REMARK H PARENT 5 4 68 10 68 11 77 21 9 27 59 46 33 57
REMARK Flexibility Score: inf
ROOT
ATOM      1  C   UNL A   1      31.020  29.068  24.145  1.00  0.00     0.228 C 
ATOM      2  O   UNL A   1      30.499  29.242  23.035  1.00  0.00    -0.275 OA
ATOM      3  N   UNL A   1      31.188  30.203  24.879  1.00  0.00    -0.356 N 
ATOM      4  H   UNL A   1      31.024  31.018  24.351  1.00  0.00     0.163 HD
ENDROOT
BRANCH   1   5
ATOM      5  C   UNL A   1      31.493  27.650  24.527  1.00  0.00     0.133 C 
ATOM      6  C   UNL A   1      30.274  26.732  24.528  1.00  0.00     0.024 C 
BRANCH   5   7
ATOM      7  C   UNL A   1      32.698  27.119  23.727  1.00  0.00     0.191 C 
ATOM      8  C   UNL A   1      33.916  28.005  24.044  1.00  0.00     0.076 C 
BRANCH   7   9
ATOM      9  N   UNL A   1      33.044  25.694  23.869  1.00  0.00    -0.343 N 
ATOM     10  H   UNL A   1      33.521  25.392  23.021  1.00  0.00     0.346 HD
ATOM     11  H   UNL A   1      32.170  25.188  24.023  1.00  0.00     0.346 HD
BRANCH   9  12
ATOM     12  C   UNL A   1      33.928  25.409  25.040  1.00  0.00     0.264 C 
BRANCH  12  13
ATOM     13  C   UNL A   1      35.158  24.481  24.801  1.00  0.00     0.049 C 
ATOM     14  C   UNL A   1      35.066  23.583  23.549  1.00  0.00     0.010 C 
ATOM     15  C   UNL A   1      35.542  23.571  26.007  1.00  0.00     0.023 C 
ATOM     16  C   UNL A   1      36.417  22.957  23.226  1.00  0.00     0.001 C 
ATOM     17  C   UNL A   1      36.924  22.937  25.716  1.00  0.00     0.006 C 
ATOM     18  C   UNL A   1      36.979  22.163  24.395  1.00  0.00     0.000 C 
BRANCH  15  19
ATOM     19  C   UNL A   1      34.530  22.469  26.374  1.00  0.00     0.160 C 
BRANCH  19  20
ATOM     20  O   UNL A   1      34.829  21.866  27.620  1.00  0.00    -0.396 OA
ATOM     21  H   UNL A   1      34.319  22.300  28.321  1.00  0.00     0.210 HD
ENDBRANCH  19  20
ENDBRANCH  15  19
ENDBRANCH  12  13
ENDBRANCH   9  12
ENDBRANCH   7   9
ENDBRANCH   5   7
ENDBRANCH   1   5
BRANCH   3  22
ATOM     22  C   UNL A   1      31.552  30.499  26.257  1.00  0.00     0.117 C 
BRANCH  22  23
ATOM     23  C   UNL A   1      31.392  31.951  26.655  1.00  0.00     0.042 C 
BRANCH  23  24
ATOM     24  C   UNL A   1      32.675  32.625  27.094  1.00  0.00     0.118 C 
BRANCH  24  25
ATOM     25  N   UNL A   1      32.462  33.931  27.702  1.00  0.00    -0.352 N 
ATOM     26  C   UNL A   1      33.192  34.588  28.666  1.00  0.00     0.251 C 
ATOM     27  H   UNL A   1      31.674  34.420  27.372  1.00  0.00     0.163 HD
ATOM     28  O   UNL A   1      32.768  35.640  29.129  1.00  0.00    -0.269 OA
BRANCH  26  29
ATOM     29  C   UNL A   1      34.468  34.022  29.167  1.00  0.00     0.039 A 
ATOM     30  C   UNL A   1      34.442  33.209  30.305  1.00  0.00     0.014 A 
ATOM     31  C   UNL A   1      35.687  34.301  28.547  1.00  0.00     0.014 A 
ATOM     32  C   UNL A   1      35.627  32.645  30.784  1.00  0.00     0.010 A 
ATOM     33  C   UNL A   1      36.844  33.643  28.951  1.00  0.00     0.010 A 
ATOM     34  C   UNL A   1      36.835  32.834  30.095  1.00  0.00    -0.014 A 
BRANCH  34  35
ATOM     35  C   UNL A   1      38.109  32.253  30.592  1.00  0.00     0.031 A 
ATOM     36  C   UNL A   1      38.629  30.966  30.005  1.00  0.00     0.074 A 
ATOM     37  C   UNL A   1      38.778  32.852  31.596  1.00  0.00     0.049 A 
ATOM     38  N   UNL A   1      39.698  30.282  30.324  1.00  0.00    -0.248 NA
ATOM     39  C   UNL A   1      37.822  30.349  28.940  1.00  0.00     0.031 C 
ATOM     40  C   UNL A   1      38.352  34.066  32.293  1.00  0.00     0.029 A 
ATOM     41  N   UNL A   1      39.958  32.514  32.209  1.00  0.00    -0.354 N 
ATOM     42  C   UNL A   1      39.683  29.157  29.508  1.00  0.00     0.074 A 
ATOM     43  C   UNL A   1      38.460  29.208  28.740  1.00  0.00     0.031 C 
ATOM     44  C   UNL A   1      39.272  34.388  33.217  1.00  0.00     0.029 A 
ATOM     45  C   UNL A   1      40.332  33.385  33.202  1.00  0.00     0.049 A 
ATOM     46  H   UNL A   1      40.487  31.721  31.960  1.00  0.00     0.167 HD
ATOM     47  C   UNL A   1      40.619  28.186  29.379  1.00  0.00     0.037 A 
ATOM     48  C   UNL A   1      41.409  33.376  34.010  1.00  0.00     0.037 A 
ATOM     49  C   UNL A   1      41.844  28.143  30.132  1.00  0.00     0.049 A 
ATOM     50  C   UNL A   1      42.439  32.291  33.849  1.00  0.00     0.074 A 
ATOM     51  C   UNL A   1      42.876  27.226  30.052  1.00  0.00     0.029 A 
ATOM     52  N   UNL A   1      42.201  29.063  31.108  1.00  0.00    -0.354 N 
ATOM     53  N   UNL A   1      42.444  31.269  33.028  1.00  0.00    -0.248 NA
ATOM     54  C   UNL A   1      43.622  32.370  34.716  1.00  0.00     0.031 C 
ATOM     55  C   UNL A   1      43.836  27.563  31.013  1.00  0.00     0.029 A 
ATOM     56  C   UNL A   1      43.432  28.727  31.646  1.00  0.00     0.049 A 
ATOM     57  H   UNL A   1      41.659  29.840  31.378  1.00  0.00     0.167 HD
ATOM     58  C   UNL A   1      43.643  30.604  33.254  1.00  0.00     0.074 A 
ATOM     59  C   UNL A   1      44.344  31.348  34.280  1.00  0.00     0.031 C 
ATOM     60  C   UNL A   1      44.123  29.482  32.663  1.00  0.00     0.037 A 
BRANCH  47  61
ATOM     61  C   UNL A   1      40.347  27.100  28.377  1.00  0.00     0.057 A 
ATOM     62  C   UNL A   1      40.920  27.113  27.097  1.00  0.00     0.134 A 
ATOM     63  C   UNL A   1      39.507  26.024  28.693  1.00  0.00     0.134 A 
ATOM     64  F   UNL A   1      41.724  28.119  26.722  1.00  0.00    -0.206 F 
ATOM     65  C   UNL A   1      40.636  26.121  26.156  1.00  0.00     0.040 A 
ATOM     66  C   UNL A   1      39.243  25.008  27.772  1.00  0.00     0.040 A 
ATOM     67  F   UNL A   1      38.928  25.942  29.900  1.00  0.00    -0.206 F 
ATOM     68  C   UNL A   1      39.799  25.061  26.496  1.00  0.00     0.006 A 
ENDBRANCH  47  61
BRANCH  48  69
ATOM     69  C   UNL A   1      41.584  34.450  35.021  1.00  0.00     0.057 A 
ATOM     70  C   UNL A   1      41.103  34.304  36.327  1.00  0.00     0.134 A 
ATOM     71  C   UNL A   1      42.237  35.648  34.705  1.00  0.00     0.134 A 
ATOM     72  F   UNL A   1      40.454  33.187  36.686  1.00  0.00    -0.206 F 
ATOM     73  C   UNL A   1      41.245  35.318  37.277  1.00  0.00     0.040 A 
ATOM     74  C   UNL A   1      42.411  36.658  35.653  1.00  0.00     0.040 A 
ATOM     75  F   UNL A   1      42.731  35.846  33.474  1.00  0.00    -0.206 F 
ATOM     76  C   UNL A   1      41.906  36.497  36.942  1.00  0.00     0.006 A 
ENDBRANCH  48  69
BRANCH  60  77
ATOM     77  C   UNL A   1      45.490  29.019  33.074  1.00  0.00     0.057 A 
ATOM     78  C   UNL A   1      45.691  28.117  34.128  1.00  0.00     0.134 A 
ATOM     79  C   UNL A   1      46.627  29.468  32.385  1.00  0.00     0.134 A 
ATOM     80  F   UNL A   1      44.648  27.656  34.835  1.00  0.00    -0.206 F 
ATOM     81  C   UNL A   1      46.971  27.706  34.504  1.00  0.00     0.040 A 
ATOM     82  C   UNL A   1      47.908  29.039  32.730  1.00  0.00     0.040 A 
ATOM     83  F   UNL A   1      46.507  30.323  31.358  1.00  0.00    -0.206 F 
ATOM     84  C   UNL A   1      48.084  28.163  33.799  1.00  0.00     0.006 A 
ENDBRANCH  60  77
ENDBRANCH  34  35
ENDBRANCH  26  29
ENDBRANCH  24  25
ENDBRANCH  23  24
ENDBRANCH  22  23
ENDBRANCH   3  22
TORSDOF 16
ENDMDL
MODEL 3
REMARK VINA RESULT:     -10.3      3.169      7.545
REMARK SMILES C[C@H](C(=O)NCCCNC(=O)c1ccc(-c2c3nc(c(-c4c(F)cccc4F)c4ccc([nH]4)c(-c4c(F)cccc4F)c4nc(c(-c5c(F)cccc5F)c5ccc2[nH]5)C=C4)C=C3)cc1)[C@@H](C)[NH2+]C[C@@H]1CCCC[C@@H]1CO
REMARK SMILES IDX 3 1 4 2 5 3 2 5 1 6 66 7 67 8 68 9 69 12 70 13 71 14 75 15
REMARK SMILES IDX 72 16 74 17 73 18 76 19 77 20 6 22 7 23 8 24 9 25 10 26
REMARK SMILES IDX 11 28 12 29 13 30 65 31 14 32 64 33 15 34 16 35 17 36 58 37
REMARK SMILES IDX 18 38 63 39 57 40 59 41 19 42 62 43 56 44 55 45 20 47 46 48
REMARK SMILES IDX 29 49 45 50 30 51 33 52 44 53 60 54 31 55 32 56 43 58 61 59
REMARK SMILES IDX 34 60 21 61 22 62 27 63 23 64 24 65 26 66 28 67 25 68 47 69
REMARK SMILES IDX 48 70 53 71 49 72 50 73 52 74 54 75 51 76 35 77 36 78 41 79
REMARK SMILES IDX 37 80 38 81 40 82 42 83 39 84
REMARK H PARENT 5 4 68 10 68 11 77 21 9 27 59 46 33 57
REMARK Flexibility Score: inf
ROOT
ATOM      1  C   UNL A   1      34.843  21.801  25.711  1.00  0.00     0.228 C 
ATOM      2  O   UNL A   1      34.515  22.318  26.788  1.00  0.00    -0.275 OA
ATOM      3  N   UNL A   1      35.749  20.792  25.818  1.00  0.00    -0.356 N 
ATOM      4  H   UNL A   1      36.139  20.732  26.721  1.00  0.00     0.163 HD
ENDROOT
BRANCH   1   5
ATOM      5  C   UNL A   1      34.282  22.396  24.402  1.00  0.00     0.133 C 
ATOM      6  C   UNL A   1      32.801  22.035  24.319  1.00  0.00     0.024 C 
BRANCH   5   7
ATOM      7  C   UNL A   1      34.595  23.886  24.168  1.00  0.00     0.191 C 
ATOM      8  C   UNL A   1      33.845  24.345  22.906  1.00  0.00     0.076 C 
BRANCH   7   9
ATOM      9  N   UNL A   1      34.357  24.821  25.281  1.00  0.00    -0.343 N 
ATOM     10  H   UNL A   1      35.168  25.432  25.369  1.00  0.00     0.346 HD
ATOM     11  H   UNL A   1      34.205  24.257  26.119  1.00  0.00     0.346 HD
BRANCH   9  12
ATOM     12  C   UNL A   1      33.140  25.670  25.097  1.00  0.00     0.264 C 
BRANCH  12  13
ATOM     13  C   UNL A   1      33.009  26.940  25.991  1.00  0.00     0.049 C 
ATOM     14  C   UNL A   1      31.579  27.244  26.488  1.00  0.00     0.010 C 
ATOM     15  C   UNL A   1      33.580  28.249  25.367  1.00  0.00     0.023 C 
ATOM     16  C   UNL A   1      31.597  28.297  27.590  1.00  0.00     0.001 C 
ATOM     17  C   UNL A   1      33.629  29.333  26.471  1.00  0.00     0.006 C 
ATOM     18  C   UNL A   1      32.278  29.583  27.149  1.00  0.00     0.000 C 
BRANCH  15  19
ATOM     19  C   UNL A   1      32.832  28.794  24.135  1.00  0.00     0.160 C 
BRANCH  19  20
ATOM     20  O   UNL A   1      33.655  29.630  23.341  1.00  0.00    -0.396 OA
ATOM     21  H   UNL A   1      33.896  30.422  23.846  1.00  0.00     0.210 HD
ENDBRANCH  19  20
ENDBRANCH  15  19
ENDBRANCH  12  13
ENDBRANCH   9  12
ENDBRANCH   7   9
ENDBRANCH   5   7
ENDBRANCH   1   5
BRANCH   3  22
ATOM     22  C   UNL A   1      36.281  19.778  24.917  1.00  0.00     0.117 C 
BRANCH  22  23
ATOM     23  C   UNL A   1      37.740  19.956  24.556  1.00  0.00     0.042 C 
BRANCH  23  24
ATOM     24  C   UNL A   1      38.651  20.210  25.738  1.00  0.00     0.118 C 
BRANCH  24  25
ATOM     25  N   UNL A   1      39.796  19.312  25.788  1.00  0.00    -0.352 N 
ATOM     26  C   UNL A   1      41.110  19.570  26.107  1.00  0.00     0.251 C 
ATOM     27  H   UNL A   1      39.601  18.376  25.558  1.00  0.00     0.163 HD
ATOM     28  O   UNL A   1      41.947  18.686  25.971  1.00  0.00    -0.269 OA
BRANCH  26  29
ATOM     29  C   UNL A   1      41.525  20.911  26.588  1.00  0.00     0.039 A 
ATOM     30  C   UNL A   1      41.527  21.160  27.964  1.00  0.00     0.014 A 
ATOM     31  C   UNL A   1      41.889  21.926  25.702  1.00  0.00     0.014 A 
ATOM     32  C   UNL A   1      41.938  22.407  28.443  1.00  0.00     0.010 A 
ATOM     33  C   UNL A   1      42.411  23.121  26.185  1.00  0.00     0.010 A 
ATOM     34  C   UNL A   1      42.409  23.391  27.559  1.00  0.00    -0.014 A 
BRANCH  34  35
ATOM     35  C   UNL A   1      42.839  24.726  28.046  1.00  0.00     0.031 A 
ATOM     36  C   UNL A   1      41.813  25.798  28.309  1.00  0.00     0.074 A 
ATOM     37  C   UNL A   1      44.149  24.995  28.211  1.00  0.00     0.049 A 
ATOM     38  N   UNL A   1      41.988  27.034  28.703  1.00  0.00    -0.248 NA
ATOM     39  C   UNL A   1      40.405  25.444  28.066  1.00  0.00     0.031 C 
ATOM     40  C   UNL A   1      45.246  24.067  27.934  1.00  0.00     0.029 A 
ATOM     41  N   UNL A   1      44.778  26.132  28.650  1.00  0.00    -0.354 N 
ATOM     42  C   UNL A   1      40.719  27.600  28.744  1.00  0.00     0.074 A 
ATOM     43  C   UNL A   1      39.795  26.601  28.257  1.00  0.00     0.031 C 
ATOM     44  C   UNL A   1      46.412  24.662  28.236  1.00  0.00     0.029 A 
ATOM     45  C   UNL A   1      46.147  26.022  28.695  1.00  0.00     0.049 A 
ATOM     46  H   UNL A   1      44.295  26.950  28.908  1.00  0.00     0.167 HD
ATOM     47  C   UNL A   1      40.348  28.827  29.181  1.00  0.00     0.037 A 
ATOM     48  C   UNL A   1      47.081  26.918  29.063  1.00  0.00     0.037 A 
ATOM     49  C   UNL A   1      41.265  29.816  29.681  1.00  0.00     0.049 A 
ATOM     50  C   UNL A   1      46.649  28.275  29.550  1.00  0.00     0.074 A 
ATOM     51  C   UNL A   1      40.990  31.075  30.183  1.00  0.00     0.029 A 
ATOM     52  N   UNL A   1      42.642  29.655  29.739  1.00  0.00    -0.354 N 
ATOM     53  N   UNL A   1      45.441  28.773  29.645  1.00  0.00    -0.248 NA
ATOM     54  C   UNL A   1      47.711  29.185  29.998  1.00  0.00     0.031 C 
ATOM     55  C   UNL A   1      42.204  31.693  30.502  1.00  0.00     0.029 A 
ATOM     56  C   UNL A   1      43.230  30.796  30.257  1.00  0.00     0.049 A 
ATOM     57  H   UNL A   1      43.129  28.847  29.453  1.00  0.00     0.167 HD
ATOM     58  C   UNL A   1      45.592  30.041  30.195  1.00  0.00     0.074 A 
ATOM     59  C   UNL A   1      47.011  30.226  30.424  1.00  0.00     0.031 C 
ATOM     60  C   UNL A   1      44.644  30.965  30.487  1.00  0.00     0.037 A 
BRANCH  47  61
ATOM     61  C   UNL A   1      38.881  29.154  29.144  1.00  0.00     0.057 A 
ATOM     62  C   UNL A   1      38.071  29.054  30.284  1.00  0.00     0.134 A 
ATOM     63  C   UNL A   1      38.270  29.577  27.957  1.00  0.00     0.134 A 
ATOM     64  F   UNL A   1      38.587  28.641  31.451  1.00  0.00    -0.206 F 
ATOM     65  C   UNL A   1      36.701  29.323  30.236  1.00  0.00     0.040 A 
ATOM     66  C   UNL A   1      36.908  29.883  27.905  1.00  0.00     0.040 A 
ATOM     67  F   UNL A   1      38.984  29.702  26.828  1.00  0.00    -0.206 F 
ATOM     68  C   UNL A   1      36.118  29.746  29.044  1.00  0.00     0.006 A 
ENDBRANCH  47  61
BRANCH  48  69
ATOM     69  C   UNL A   1      48.519  26.547  29.019  1.00  0.00     0.057 A 
ATOM     70  C   UNL A   1      49.129  25.871  30.081  1.00  0.00     0.134 A 
ATOM     71  C   UNL A   1      49.318  26.859  27.912  1.00  0.00     0.134 A 
ATOM     72  F   UNL A   1      48.421  25.559  31.177  1.00  0.00    -0.206 F 
ATOM     73  C   UNL A   1      50.485  25.538  30.056  1.00  0.00     0.040 A 
ATOM     74  C   UNL A   1      50.667  26.507  27.861  1.00  0.00     0.040 A 
ATOM     75  F   UNL A   1      48.791  27.497  26.855  1.00  0.00    -0.206 F 
ATOM     76  C   UNL A   1      51.257  25.852  28.940  1.00  0.00     0.006 A 
ENDBRANCH  48  69
BRANCH  60  77
ATOM     77  C   UNL A   1      45.103  32.239  31.135  1.00  0.00     0.057 A 
ATOM     78  C   UNL A   1      45.191  32.383  32.526  1.00  0.00     0.134 A 
ATOM     79  C   UNL A   1      45.486  33.336  30.348  1.00  0.00     0.134 A 
ATOM     80  F   UNL A   1      44.830  31.377  33.337  1.00  0.00    -0.206 F 
ATOM     81  C   UNL A   1      45.609  33.580  33.111  1.00  0.00     0.040 A 
ATOM     82  C   UNL A   1      45.936  34.524  30.921  1.00  0.00     0.040 A 
ATOM     83  F   UNL A   1      45.439  33.263  29.009  1.00  0.00    -0.206 F 
ATOM     84  C   UNL A   1      45.989  34.653  32.307  1.00  0.00     0.006 A 
ENDBRANCH  60  77
ENDBRANCH  34  35
ENDBRANCH  26  29
ENDBRANCH  24  25
ENDBRANCH  23  24
ENDBRANCH  22  23
ENDBRANCH   3  22
TORSDOF 16
ENDMDL
