MODEL 1
REMARK VINA RESULT:     -11.2      0.000      0.000
REMARK SMILES C[C@H]1[C@H](C(=O)NCCCNC(=O)c2ccc(-c3c4nc(c(-c5c(F)cccc5F)c5ccc([nH]5)c(-c5c(F)cccc5F)c5nc(c(-c6c(F)cccc6F)c6ccc3[nH]6)C=C5)C=C4)cc2)CCN1C(=O)[C@H]1CC=CCC1
REMARK SMILES IDX 8 1 7 2 6 3 4 4 5 5 3 7 1 8 2 9 69 10 67 11 68 12 70 13
REMARK SMILES IDX 71 14 72 15 73 16 77 17 74 18 76 19 75 20 9 21 10 22 11 23
REMARK SMILES IDX 12 25 13 26 14 27 66 28 15 29 65 30 16 31 17 32 18 33 59 34
REMARK SMILES IDX 19 35 64 36 58 37 60 38 20 39 63 40 57 41 56 42 21 44 47 45
REMARK SMILES IDX 30 46 46 47 31 48 34 49 45 50 61 51 32 52 33 53 44 55 62 56
REMARK SMILES IDX 35 57 22 58 23 59 28 60 24 61 25 62 27 63 29 64 26 65 48 66
REMARK SMILES IDX 49 67 54 68 50 69 51 70 53 71 55 72 52 73 36 74 37 75 42 76
REMARK SMILES IDX 38 77 39 78 41 79 43 80 40 81
REMARK H PARENT 6 6 10 24 60 43 34 54
REMARK Flexibility Score: inf
ROOT
ATOM      1  C   UNL A   1      32.973  27.798  26.909  1.00  0.00     0.042 C 
ENDROOT
BRANCH   1   2
ATOM      2  C   UNL A   1      31.578  27.478  26.387  1.00  0.00     0.117 C 
BRANCH   2   3
ATOM      3  N   UNL A   1      31.079  26.201  26.875  1.00  0.00    -0.356 N 
ATOM      4  C   UNL A   1      31.175  24.931  26.421  1.00  0.00     0.225 C 
ATOM      5  O   UNL A   1      30.621  24.068  27.112  1.00  0.00    -0.275 OA
ATOM      6  H   UNL A   1      30.563  26.279  27.711  1.00  0.00     0.163 HD
BRANCH   4   7
ATOM      7  C   UNL A   1      31.852  24.515  25.126  1.00  0.00     0.102 C 
ATOM      8  C   UNL A   1      33.883  25.439  24.012  1.00  0.00     0.032 C 
ATOM      9  C   UNL A   1      33.386  24.610  25.202  1.00  0.00     0.094 C 
ATOM     10  N   UNL A   1      33.844  23.226  25.133  1.00  0.00    -0.339 N 
ATOM     11  C   UNL A   1      31.523  23.134  24.568  1.00  0.00     0.037 C 
ATOM     12  C   UNL A   1      32.860  22.419  24.424  1.00  0.00     0.120 C 
BRANCH  10  13
ATOM     13  C   UNL A   1      35.009  22.626  25.555  1.00  0.00     0.226 C 
ATOM     14  O   UNL A   1      34.967  21.873  26.541  1.00  0.00    -0.275 OA
BRANCH  13  15
ATOM     15  C   UNL A   1      36.396  22.860  24.926  1.00  0.00     0.083 C 
ATOM     16  C   UNL A   1      37.382  23.733  25.701  1.00  0.00     0.040 C 
ATOM     17  C   UNL A   1      37.027  21.641  24.248  1.00  0.00     0.018 C 
ATOM     18  C   UNL A   1      38.566  23.014  26.273  1.00  0.00    -0.030 C 
ATOM     19  C   UNL A   1      38.070  20.881  25.068  1.00  0.00     0.028 C 
ATOM     20  C   UNL A   1      38.873  21.741  25.990  1.00  0.00    -0.031 C 
ENDBRANCH  13  15
ENDBRANCH  10  13
ENDBRANCH   4   7
ENDBRANCH   2   3
ENDBRANCH   1   2
BRANCH   1  21
ATOM     21  C   UNL A   1      33.790  28.767  26.066  1.00  0.00     0.118 C 
BRANCH  21  22
ATOM     22  N   UNL A   1      33.681  30.140  26.522  1.00  0.00    -0.352 N 
ATOM     23  C   UNL A   1      34.458  30.848  27.406  1.00  0.00     0.251 C 
ATOM     24  H   UNL A   1      32.929  30.646  26.136  1.00  0.00     0.163 HD
ATOM     25  O   UNL A   1      34.071  31.955  27.784  1.00  0.00    -0.269 OA
BRANCH  23  26
ATOM     26  C   UNL A   1      35.736  30.309  27.934  1.00  0.00     0.039 A 
ATOM     27  C   UNL A   1      35.729  29.702  29.196  1.00  0.00     0.014 A 
ATOM     28  C   UNL A   1      36.948  30.454  27.253  1.00  0.00     0.014 A 
ATOM     29  C   UNL A   1      36.915  29.204  29.745  1.00  0.00     0.010 A 
ATOM     30  C   UNL A   1      38.117  29.885  27.765  1.00  0.00     0.010 A 
ATOM     31  C   UNL A   1      38.119  29.269  29.024  1.00  0.00    -0.014 A 
BRANCH  31  32
ATOM     32  C   UNL A   1      39.381  28.725  29.595  1.00  0.00     0.031 A 
ATOM     33  C   UNL A   1      39.990  29.339  30.828  1.00  0.00     0.074 A 
ATOM     34  C   UNL A   1      40.005  27.695  28.990  1.00  0.00     0.049 A 
ATOM     35  N   UNL A   1      41.096  29.018  31.453  1.00  0.00    -0.248 NA
ATOM     36  C   UNL A   1      39.276  30.478  31.424  1.00  0.00     0.031 C 
ATOM     37  C   UNL A   1      39.555  27.037  27.762  1.00  0.00     0.029 A 
ATOM     38  N   UNL A   1      41.154  27.025  29.324  1.00  0.00    -0.354 N 
ATOM     39  C   UNL A   1      41.217  29.922  32.501  1.00  0.00     0.074 A 
ATOM     40  C   UNL A   1      40.099  30.835  32.400  1.00  0.00     0.031 C 
ATOM     41  C   UNL A   1      40.405  26.043  27.461  1.00  0.00     0.029 A 
ATOM     42  C   UNL A   1      41.473  26.008  28.457  1.00  0.00     0.049 A 
ATOM     43  H   UNL A   1      41.700  27.250  30.112  1.00  0.00     0.167 HD
ATOM     44  C   UNL A   1      42.157  29.976  33.476  1.00  0.00     0.037 A 
ATOM     45  C   UNL A   1      42.505  25.144  28.462  1.00  0.00     0.037 A 
ATOM     46  C   UNL A   1      43.253  29.052  33.604  1.00  0.00     0.049 A 
ATOM     47  C   UNL A   1      43.521  25.205  29.567  1.00  0.00     0.074 A 
ATOM     48  C   UNL A   1      44.223  28.994  34.592  1.00  0.00     0.029 A 
ATOM     49  N   UNL A   1      43.523  28.020  32.720  1.00  0.00    -0.354 N 
ATOM     50  N   UNL A   1      43.587  26.031  30.583  1.00  0.00    -0.248 NA
ATOM     51  C   UNL A   1      44.600  24.208  29.531  1.00  0.00     0.031 C 
ATOM     52  C   UNL A   1      45.096  27.944  34.288  1.00  0.00     0.029 A 
ATOM     53  C   UNL A   1      44.650  27.327  33.131  1.00  0.00     0.049 A 
ATOM     54  H   UNL A   1      42.993  27.810  31.916  1.00  0.00     0.167 HD
ATOM     55  C   UNL A   1      44.701  25.643  31.315  1.00  0.00     0.074 A 
ATOM     56  C   UNL A   1      45.271  24.496  30.638  1.00  0.00     0.031 C 
ATOM     57  C   UNL A   1      45.208  26.189  32.447  1.00  0.00     0.037 A 
BRANCH  44  58
ATOM     58  C   UNL A   1      42.031  31.072  34.493  1.00  0.00     0.057 A 
ATOM     59  C   UNL A   1      41.274  30.908  35.660  1.00  0.00     0.134 A 
ATOM     60  C   UNL A   1      42.696  32.292  34.319  1.00  0.00     0.134 A 
ATOM     61  F   UNL A   1      40.603  29.768  35.880  1.00  0.00    -0.206 F 
ATOM     62  C   UNL A   1      41.160  31.929  36.606  1.00  0.00     0.040 A 
ATOM     63  C   UNL A   1      42.610  33.311  35.269  1.00  0.00     0.040 A 
ATOM     64  F   UNL A   1      43.444  32.512  33.227  1.00  0.00    -0.206 F 
ATOM     65  C   UNL A   1      41.834  33.133  36.413  1.00  0.00     0.006 A 
ENDBRANCH  44  58
BRANCH  45  66
ATOM     66  C   UNL A   1      42.615  24.120  27.394  1.00  0.00     0.057 A 
ATOM     67  C   UNL A   1      42.122  22.825  27.583  1.00  0.00     0.134 A 
ATOM     68  C   UNL A   1      43.212  24.412  26.162  1.00  0.00     0.134 A 
ATOM     69  F   UNL A   1      41.558  22.482  28.751  1.00  0.00    -0.206 F 
ATOM     70  C   UNL A   1      42.231  21.849  26.591  1.00  0.00     0.040 A 
ATOM     71  C   UNL A   1      43.309  23.453  25.153  1.00  0.00     0.040 A 
ATOM     72  F   UNL A   1      43.697  25.639  25.919  1.00  0.00    -0.206 F 
ATOM     73  C   UNL A   1      42.822  22.165  25.369  1.00  0.00     0.006 A 
ENDBRANCH  45  66
BRANCH  57  74
ATOM     74  C   UNL A   1      46.428  25.542  33.032  1.00  0.00     0.057 A 
ATOM     75  C   UNL A   1      47.719  25.928  32.652  1.00  0.00     0.134 A 
ATOM     76  C   UNL A   1      46.310  24.540  34.002  1.00  0.00     0.134 A 
ATOM     77  F   UNL A   1      47.899  26.873  31.718  1.00  0.00    -0.206 F 
ATOM     78  C   UNL A   1      48.851  25.324  33.202  1.00  0.00     0.040 A 
ATOM     79  C   UNL A   1      47.434  23.943  34.575  1.00  0.00     0.040 A 
ATOM     80  F   UNL A   1      45.100  24.129  34.414  1.00  0.00    -0.206 F 
ATOM     81  C   UNL A   1      48.709  24.332  34.170  1.00  0.00     0.006 A 
ENDBRANCH  57  74
ENDBRANCH  31  32
ENDBRANCH  23  26
ENDBRANCH  21  22
ENDBRANCH   1  21
TORSDOF 12
ENDMDL
MODEL 2
REMARK VINA RESULT:     -11.2      2.118      2.630
REMARK SMILES C[C@H]1[C@H](C(=O)NCCCNC(=O)c2ccc(-c3c4nc(c(-c5c(F)cccc5F)c5ccc([nH]5)c(-c5c(F)cccc5F)c5nc(c(-c6c(F)cccc6F)c6ccc3[nH]6)C=C5)C=C4)cc2)CCN1C(=O)[C@H]1CC=CCC1
REMARK SMILES IDX 8 1 7 2 6 3 4 4 5 5 3 7 1 8 2 9 69 10 67 11 68 12 70 13
REMARK SMILES IDX 71 14 72 15 73 16 77 17 74 18 76 19 75 20 9 21 10 22 11 23
REMARK SMILES IDX 12 25 13 26 14 27 66 28 15 29 65 30 16 31 17 32 18 33 59 34
REMARK SMILES IDX 19 35 64 36 58 37 60 38 20 39 63 40 57 41 56 42 21 44 47 45
REMARK SMILES IDX 30 46 46 47 31 48 34 49 45 50 61 51 32 52 33 53 44 55 62 56
REMARK SMILES IDX 35 57 22 58 23 59 28 60 24 61 25 62 27 63 29 64 26 65 48 66
REMARK SMILES IDX 49 67 54 68 50 69 51 70 53 71 55 72 52 73 36 74 37 75 42 76
REMARK SMILES IDX 38 77 39 78 41 79 43 80 40 81
REMARK H PARENT 6 6 10 24 60 43 34 54
REMARK Flexibility Score: inf
ROOT
ATOM      1  C   UNL A   1      33.030  28.266  25.953  1.00  0.00     0.042 C 
ENDROOT
BRANCH   1   2
ATOM      2  C   UNL A   1      31.573  27.851  26.123  1.00  0.00     0.117 C 
BRANCH   2   3
ATOM      3  N   UNL A   1      31.435  26.541  26.740  1.00  0.00    -0.356 N 
ATOM      4  C   UNL A   1      31.484  25.278  26.259  1.00  0.00     0.225 C 
ATOM      5  O   UNL A   1      31.330  24.377  27.093  1.00  0.00    -0.275 OA
ATOM      6  H   UNL A   1      31.272  26.583  27.710  1.00  0.00     0.163 HD
BRANCH   4   7
ATOM      7  C   UNL A   1      31.655  24.906  24.796  1.00  0.00     0.102 C 
ATOM      8  C   UNL A   1      33.131  25.905  23.052  1.00  0.00     0.032 C 
ATOM      9  C   UNL A   1      33.111  25.039  24.318  1.00  0.00     0.094 C 
ATOM     10  N   UNL A   1      33.538  23.669  24.049  1.00  0.00    -0.339 N 
ATOM     11  C   UNL A   1      31.171  23.528  24.356  1.00  0.00     0.037 C 
ATOM     12  C   UNL A   1      32.378  22.851  23.720  1.00  0.00     0.120 C 
BRANCH  10  13
ATOM     13  C   UNL A   1      34.787  23.091  24.007  1.00  0.00     0.226 C 
ATOM     14  O   UNL A   1      35.387  23.052  22.921  1.00  0.00    -0.275 OA
BRANCH  13  15
ATOM     15  C   UNL A   1      35.490  22.429  25.207  1.00  0.00     0.083 C 
ATOM     16  C   UNL A   1      36.214  21.107  24.957  1.00  0.00     0.040 C 
ATOM     17  C   UNL A   1      36.225  23.385  26.150  1.00  0.00     0.018 C 
ATOM     18  C   UNL A   1      37.709  21.166  25.042  1.00  0.00    -0.030 C 
ATOM     19  C   UNL A   1      37.737  23.494  25.952  1.00  0.00     0.028 C 
ATOM     20  C   UNL A   1      38.388  22.231  25.486  1.00  0.00    -0.031 C 
ENDBRANCH  13  15
ENDBRANCH  10  13
ENDBRANCH   4   7
ENDBRANCH   2   3
ENDBRANCH   1   2
BRANCH   1  21
ATOM     21  C   UNL A   1      33.800  28.520  27.242  1.00  0.00     0.118 C 
BRANCH  21  22
ATOM     22  N   UNL A   1      33.720  29.899  27.683  1.00  0.00    -0.352 N 
ATOM     23  C   UNL A   1      34.642  30.679  28.338  1.00  0.00     0.251 C 
ATOM     24  H   UNL A   1      32.868  30.349  27.481  1.00  0.00     0.163 HD
ATOM     25  O   UNL A   1      34.290  31.775  28.776  1.00  0.00    -0.269 OA
BRANCH  23  26
ATOM     26  C   UNL A   1      36.040  30.229  28.551  1.00  0.00     0.039 A 
ATOM     27  C   UNL A   1      36.948  30.356  27.493  1.00  0.00     0.014 A 
ATOM     28  C   UNL A   1      36.456  29.620  29.738  1.00  0.00     0.014 A 
ATOM     29  C   UNL A   1      38.268  29.920  27.640  1.00  0.00     0.010 A 
ATOM     30  C   UNL A   1      37.795  29.259  29.914  1.00  0.00     0.010 A 
ATOM     31  C   UNL A   1      38.713  29.389  28.862  1.00  0.00    -0.014 A 
BRANCH  31  32
ATOM     32  C   UNL A   1      40.122  28.940  29.031  1.00  0.00     0.031 A 
ATOM     33  C   UNL A   1      41.152  29.862  29.629  1.00  0.00     0.074 A 
ATOM     34  C   UNL A   1      40.491  27.712  28.618  1.00  0.00     0.049 A 
ATOM     35  N   UNL A   1      42.431  29.655  29.830  1.00  0.00    -0.248 NA
ATOM     36  C   UNL A   1      40.692  31.199  30.033  1.00  0.00     0.031 C 
ATOM     37  C   UNL A   1      39.611  26.735  27.976  1.00  0.00     0.029 A 
ATOM     38  N   UNL A   1      41.707  27.078  28.674  1.00  0.00    -0.354 N 
ATOM     39  C   UNL A   1      42.927  30.838  30.367  1.00  0.00     0.074 A 
ATOM     40  C   UNL A   1      41.824  31.774  30.415  1.00  0.00     0.031 C 
ATOM     41  C   UNL A   1      40.309  25.617  27.720  1.00  0.00     0.029 A 
ATOM     42  C   UNL A   1      41.690  25.806  28.156  1.00  0.00     0.049 A 
ATOM     43  H   UNL A   1      42.515  27.494  29.051  1.00  0.00     0.167 HD
ATOM     44  C   UNL A   1      44.179  31.115  30.805  1.00  0.00     0.037 A 
ATOM     45  C   UNL A   1      42.673  24.893  28.043  1.00  0.00     0.037 A 
ATOM     46  C   UNL A   1      45.273  30.180  30.793  1.00  0.00     0.049 A 
ATOM     47  C   UNL A   1      44.047  25.213  28.559  1.00  0.00     0.074 A 
ATOM     48  C   UNL A   1      46.563  30.353  31.267  1.00  0.00     0.029 A 
ATOM     49  N   UNL A   1      45.206  28.893  30.283  1.00  0.00    -0.354 N 
ATOM     50  N   UNL A   1      44.484  26.315  29.116  1.00  0.00    -0.248 NA
ATOM     51  C   UNL A   1      45.063  24.156  28.438  1.00  0.00     0.031 C 
ATOM     52  C   UNL A   1      47.284  29.180  31.018  1.00  0.00     0.029 A 
ATOM     53  C   UNL A   1      46.433  28.265  30.421  1.00  0.00     0.049 A 
ATOM     54  H   UNL A   1      44.404  28.484  29.882  1.00  0.00     0.167 HD
ATOM     55  C   UNL A   1      45.817  26.081  29.428  1.00  0.00     0.074 A 
ATOM     56  C   UNL A   1      46.112  24.724  29.015  1.00  0.00     0.031 C 
ATOM     57  C   UNL A   1      46.716  26.916  30.004  1.00  0.00     0.037 A 
BRANCH  44  58
ATOM     58  C   UNL A   1      44.428  32.491  31.347  1.00  0.00     0.057 A 
ATOM     59  C   UNL A   1      44.252  32.790  32.704  1.00  0.00     0.134 A 
ATOM     60  C   UNL A   1      44.878  33.521  30.512  1.00  0.00     0.134 A 
ATOM     61  F   UNL A   1      43.812  31.850  33.555  1.00  0.00    -0.206 F 
ATOM     62  C   UNL A   1      44.486  34.071  33.207  1.00  0.00     0.040 A 
ATOM     63  C   UNL A   1      45.140  34.800  31.007  1.00  0.00     0.040 A 
ATOM     64  F   UNL A   1      45.075  33.301  29.203  1.00  0.00    -0.206 F 
ATOM     65  C   UNL A   1      44.937  35.079  32.357  1.00  0.00     0.006 A 
ENDBRANCH  44  58
BRANCH  45  66
ATOM     66  C   UNL A   1      42.384  23.569  27.439  1.00  0.00     0.057 A 
ATOM     67  C   UNL A   1      42.047  22.471  28.236  1.00  0.00     0.134 A 
ATOM     68  C   UNL A   1      42.437  23.372  26.054  1.00  0.00     0.134 A 
ATOM     69  F   UNL A   1      42.001  22.595  29.571  1.00  0.00    -0.206 F 
ATOM     70  C   UNL A   1      41.786  21.217  27.680  1.00  0.00     0.040 A 
ATOM     71  C   UNL A   1      42.159  22.130  25.483  1.00  0.00     0.040 A 
ATOM     72  F   UNL A   1      42.749  24.390  25.237  1.00  0.00    -0.206 F 
ATOM     73  C   UNL A   1      41.837  21.046  26.298  1.00  0.00     0.006 A 
ENDBRANCH  45  66
BRANCH  57  74
ATOM     74  C   UNL A   1      48.096  26.379  30.238  1.00  0.00     0.057 A 
ATOM     75  C   UNL A   1      49.101  26.490  29.269  1.00  0.00     0.134 A 
ATOM     76  C   UNL A   1      48.429  25.766  31.451  1.00  0.00     0.134 A 
ATOM     77  F   UNL A   1      48.842  27.054  28.081  1.00  0.00    -0.206 F 
ATOM     78  C   UNL A   1      50.386  25.990  29.493  1.00  0.00     0.040 A 
ATOM     79  C   UNL A   1      49.715  25.281  31.695  1.00  0.00     0.040 A 
ATOM     80  F   UNL A   1      47.513  25.634  32.423  1.00  0.00    -0.206 F 
ATOM     81  C   UNL A   1      50.696  25.389  30.711  1.00  0.00     0.006 A 
ENDBRANCH  57  74
ENDBRANCH  31  32
ENDBRANCH  23  26
ENDBRANCH  21  22
ENDBRANCH   1  21
TORSDOF 12
ENDMDL
MODEL 3
REMARK VINA RESULT:     -11.1      3.182      5.509
REMARK SMILES C[C@H]1[C@H](C(=O)NCCCNC(=O)c2ccc(-c3c4nc(c(-c5c(F)cccc5F)c5ccc([nH]5)c(-c5c(F)cccc5F)c5nc(c(-c6c(F)cccc6F)c6ccc3[nH]6)C=C5)C=C4)cc2)CCN1C(=O)[C@H]1CC=CCC1
REMARK SMILES IDX 8 1 7 2 6 3 4 4 5 5 3 7 1 8 2 9 69 10 67 11 68 12 70 13
REMARK SMILES IDX 71 14 72 15 73 16 77 17 74 18 76 19 75 20 9 21 10 22 11 23
REMARK SMILES IDX 12 25 13 26 14 27 66 28 15 29 65 30 16 31 17 32 18 33 59 34
REMARK SMILES IDX 19 35 64 36 58 37 60 38 20 39 63 40 57 41 56 42 21 44 47 45
REMARK SMILES IDX 30 46 46 47 31 48 34 49 45 50 61 51 32 52 33 53 44 55 62 56
REMARK SMILES IDX 35 57 22 58 23 59 28 60 24 61 25 62 27 63 29 64 26 65 48 66
REMARK SMILES IDX 49 67 54 68 50 69 51 70 53 71 55 72 52 73 36 74 37 75 42 76
REMARK SMILES IDX 38 77 39 78 41 79 43 80 40 81
REMARK H PARENT 6 6 10 24 60 43 34 54
REMARK Flexibility Score: inf
ROOT
ATOM      1  C   UNL A   1      31.545  32.133  26.812  1.00  0.00     0.042 C 
ENDROOT
BRANCH   1   2
ATOM      2  C   UNL A   1      31.763  30.768  26.168  1.00  0.00     0.117 C 
BRANCH   2   3
ATOM      3  N   UNL A   1      31.591  29.674  27.111  1.00  0.00    -0.356 N 
ATOM      4  C   UNL A   1      31.590  28.327  26.981  1.00  0.00     0.225 C 
ATOM      5  O   UNL A   1      31.419  27.685  28.024  1.00  0.00    -0.275 OA
ATOM      6  H   UNL A   1      31.445  29.976  28.037  1.00  0.00     0.163 HD
BRANCH   4   7
ATOM      7  C   UNL A   1      31.727  27.577  25.667  1.00  0.00     0.102 C 
ATOM      8  C   UNL A   1      30.010  26.352  24.336  1.00  0.00     0.032 C 
ATOM      9  C   UNL A   1      30.497  27.744  24.758  1.00  0.00     0.094 C 
ATOM     10  N   UNL A   1      30.981  28.521  23.622  1.00  0.00    -0.339 N 
ATOM     11  C   UNL A   1      32.952  27.872  24.808  1.00  0.00     0.037 C 
ATOM     12  C   UNL A   1      32.411  28.298  23.450  1.00  0.00     0.120 C 
BRANCH  10  13
ATOM     13  C   UNL A   1      30.326  29.327  22.719  1.00  0.00     0.226 C 
ATOM     14  O   UNL A   1      30.847  29.525  21.610  1.00  0.00    -0.275 OA
BRANCH  13  15
ATOM     15  C   UNL A   1      29.000  30.061  22.997  1.00  0.00     0.083 C 
ATOM     16  C   UNL A   1      29.062  31.326  23.852  1.00  0.00     0.040 C 
ATOM     17  C   UNL A   1      28.031  30.143  21.815  1.00  0.00     0.018 C 
ATOM     18  C   UNL A   1      28.778  32.607  23.127  1.00  0.00    -0.030 C 
ATOM     19  C   UNL A   1      28.028  31.459  21.038  1.00  0.00     0.028 C 
ATOM     20  C   UNL A   1      28.317  32.666  21.871  1.00  0.00    -0.031 C 
ENDBRANCH  13  15
ENDBRANCH  10  13
ENDBRANCH   4   7
ENDBRANCH   2   3
ENDBRANCH   1   2
BRANCH   1  21
ATOM     21  C   UNL A   1      32.768  33.038  26.876  1.00  0.00     0.118 C 
BRANCH  21  22
ATOM     22  N   UNL A   1      32.562  34.203  27.716  1.00  0.00    -0.352 N 
ATOM     23  C   UNL A   1      33.194  34.588  28.872  1.00  0.00     0.251 C 
ATOM     24  H   UNL A   1      31.857  34.817  27.405  1.00  0.00     0.163 HD
ATOM     25  O   UNL A   1      32.730  35.530  29.517  1.00  0.00    -0.269 OA
BRANCH  23  26
ATOM     26  C   UNL A   1      34.401  33.890  29.378  1.00  0.00     0.039 A 
ATOM     27  C   UNL A   1      34.227  32.824  30.269  1.00  0.00     0.014 A 
ATOM     28  C   UNL A   1      35.696  34.305  29.056  1.00  0.00     0.014 A 
ATOM     29  C   UNL A   1      35.337  32.154  30.793  1.00  0.00     0.010 A 
ATOM     30  C   UNL A   1      36.803  33.585  29.514  1.00  0.00     0.010 A 
ATOM     31  C   UNL A   1      36.638  32.512  30.401  1.00  0.00    -0.014 A 
BRANCH  31  32
ATOM     32  C   UNL A   1      37.824  31.791  30.941  1.00  0.00     0.031 A 
ATOM     33  C   UNL A   1      38.361  32.120  32.309  1.00  0.00     0.074 A 
ATOM     34  C   UNL A   1      38.444  30.860  30.190  1.00  0.00     0.049 A 
ATOM     35  N   UNL A   1      39.398  31.617  32.933  1.00  0.00    -0.248 NA
ATOM     36  C   UNL A   1      37.658  33.167  33.065  1.00  0.00     0.031 C 
ATOM     37  C   UNL A   1      38.062  30.477  28.830  1.00  0.00     0.029 A 
ATOM     38  N   UNL A   1      39.529  30.067  30.466  1.00  0.00    -0.354 N 
ATOM     39  C   UNL A   1      39.478  32.295  34.144  1.00  0.00     0.074 A 
ATOM     40  C   UNL A   1      38.417  33.279  34.146  1.00  0.00     0.031 C 
ATOM     41  C   UNL A   1      38.884  29.508  28.400  1.00  0.00     0.029 A 
ATOM     42  C   UNL A   1      39.866  29.217  29.441  1.00  0.00     0.049 A 
ATOM     43  H   UNL A   1      40.021  30.104  31.318  1.00  0.00     0.167 HD
ATOM     44  C   UNL A   1      40.339  32.103  35.172  1.00  0.00     0.037 A 
ATOM     45  C   UNL A   1      40.852  28.305  29.348  1.00  0.00     0.037 A 
ATOM     46  C   UNL A   1      41.376  31.105  35.193  1.00  0.00     0.049 A 
ATOM     47  C   UNL A   1      41.779  28.091  30.511  1.00  0.00     0.074 A 
ATOM     48  C   UNL A   1      42.260  30.799  36.214  1.00  0.00     0.029 A 
ATOM     49  N   UNL A   1      41.666  30.246  34.144  1.00  0.00    -0.354 N 
ATOM     50  N   UNL A   1      41.804  28.702  31.670  1.00  0.00    -0.248 NA
ATOM     51  C   UNL A   1      42.809  27.054  30.355  1.00  0.00     0.031 C 
ATOM     52  C   UNL A   1      43.104  29.774  35.772  1.00  0.00     0.029 A 
ATOM     53  C   UNL A   1      42.722  29.419  34.489  1.00  0.00     0.049 A 
ATOM     54  H   UNL A   1      41.191  30.227  33.281  1.00  0.00     0.167 HD
ATOM     55  C   UNL A   1      42.837  28.112  32.388  1.00  0.00     0.074 A 
ATOM     56  C   UNL A   1      43.403  27.083  31.540  1.00  0.00     0.031 C 
ATOM     57  C   UNL A   1      43.278  28.400  33.637  1.00  0.00     0.037 A 
BRANCH  44  58
ATOM     58  C   UNL A   1      40.186  32.991  36.372  1.00  0.00     0.057 A 
ATOM     59  C   UNL A   1      40.958  34.148  36.534  1.00  0.00     0.134 A 
ATOM     60  C   UNL A   1      39.237  32.703  37.360  1.00  0.00     0.134 A 
ATOM     61  F   UNL A   1      41.893  34.473  35.628  1.00  0.00    -0.206 F 
ATOM     62  C   UNL A   1      40.812  34.974  37.650  1.00  0.00     0.040 A 
ATOM     63  C   UNL A   1      39.063  33.534  38.468  1.00  0.00     0.040 A 
ATOM     64  F   UNL A   1      38.458  31.615  37.263  1.00  0.00    -0.206 F 
ATOM     65  C   UNL A   1      39.858  34.670  38.619  1.00  0.00     0.006 A 
ENDBRANCH  44  58
BRANCH  45  66
ATOM     66  C   UNL A   1      40.997  27.500  28.111  1.00  0.00     0.057 A 
ATOM     67  C   UNL A   1      41.825  27.925  27.067  1.00  0.00     0.134 A 
ATOM     68  C   UNL A   1      40.315  26.289  27.943  1.00  0.00     0.134 A 
ATOM     69  F   UNL A   1      42.488  29.088  27.163  1.00  0.00    -0.206 F 
ATOM     70  C   UNL A   1      41.960  27.184  25.892  1.00  0.00     0.040 A 
ATOM     71  C   UNL A   1      40.456  25.527  26.784  1.00  0.00     0.040 A 
ATOM     72  F   UNL A   1      39.511  25.826  28.912  1.00  0.00    -0.206 F 
ATOM     73  C   UNL A   1      41.278  25.977  25.751  1.00  0.00     0.006 A 
ENDBRANCH  45  66
BRANCH  57  74
ATOM     74  C   UNL A   1      44.414  27.578  34.166  1.00  0.00     0.057 A 
ATOM     75  C   UNL A   1      45.747  27.983  34.016  1.00  0.00     0.134 A 
ATOM     76  C   UNL A   1      44.173  26.383  34.854  1.00  0.00     0.134 A 
ATOM     77  F   UNL A   1      46.045  29.111  33.356  1.00  0.00    -0.206 F 
ATOM     78  C   UNL A   1      46.801  27.215  34.514  1.00  0.00     0.040 A 
ATOM     79  C   UNL A   1      45.218  25.617  35.375  1.00  0.00     0.040 A 
ATOM     80  F   UNL A   1      42.919  25.942  35.036  1.00  0.00    -0.206 F 
ATOM     81  C   UNL A   1      46.537  26.031  35.200  1.00  0.00     0.006 A 
ENDBRANCH  57  74
ENDBRANCH  31  32
ENDBRANCH  23  26
ENDBRANCH  21  22
ENDBRANCH   1  21
TORSDOF 12
ENDMDL
