MODEL 1
REMARK VINA RESULT:     -12.2      0.000      0.000
REMARK SMILES O=C(CCC(=O)/[NH+]=C1\S[C@H]2CS(=O)(=O)C[C@@H]2N1c1ccc(Oc2ccccc2)cc1)NCCCNC(=O)c1ccc(-c2c3nc(c(-c4c(F)cccc4F)c4ccc([nH]4)c(-c4c(F)cccc4F)c4nc(c(-c5c(F)cccc5F)c5ccc2[nH]5)C=C4)C=C3)cc1
REMARK SMILES IDX 2 1 1 2 31 3 3 5 4 6 5 7 6 8 7 9 8 10 9 12 17 13 10 14 16 15
REMARK SMILES IDX 11 16 15 17 12 18 13 19 14 20 18 21 19 22 30 23 20 24 29 25
REMARK SMILES IDX 21 26 22 27 23 28 24 29 28 30 25 31 27 32 26 33 32 34 33 35
REMARK SMILES IDX 34 36 35 37 36 38 37 40 38 41 39 42 91 43 40 44 90 45 41 46
REMARK SMILES IDX 42 47 43 48 84 49 44 50 89 51 83 52 85 53 45 54 88 55 82 56
REMARK SMILES IDX 81 57 46 59 72 60 55 61 71 62 56 63 59 64 70 65 86 66 57 67
REMARK SMILES IDX 58 68 69 70 87 71 60 72 47 73 48 74 53 75 49 76 50 77 52 78
REMARK SMILES IDX 54 79 51 80 73 81 74 82 79 83 75 84 76 85 78 86 80 87 77 88
REMARK SMILES IDX 61 89 62 90 67 91 63 92 64 93 66 94 68 95 65 96
REMARK H PARENT 31 4 7 11 35 39 85 58 59 69
REMARK Flexibility Score: inf
ROOT
ATOM      1  C   UNL A   1      41.596  21.386  27.477  1.00  0.00     0.220 C 
ATOM      2  O   UNL A   1      41.905  22.157  28.387  1.00  0.00    -0.275 OA
ATOM      3  N   UNL A   1      42.324  20.251  27.308  1.00  0.00    -0.356 N 
ATOM      4  H   UNL A   1      43.115  20.180  27.890  1.00  0.00     0.163 HD
ENDROOT
BRANCH   1   5
ATOM      5  C   UNL A   1      40.448  21.699  26.558  1.00  0.00     0.112 C 
BRANCH   5   6
ATOM      6  C   UNL A   1      39.322  22.560  27.117  1.00  0.00     0.138 C 
BRANCH   6   7
ATOM      7  C   UNL A   1      38.629  23.664  26.309  1.00  0.00     0.308 C 
ATOM      8  O   UNL A   1      39.338  24.476  25.714  1.00  0.00    -0.247 OA
ATOM      9  N   UNL A   1      37.261  23.784  26.281  1.00  0.00    -0.204 N 
ATOM     10  C   UNL A   1      36.508  22.899  25.720  1.00  0.00     0.319 C 
ATOM     11  H   UNL A   1      36.842  24.569  26.702  1.00  0.00     0.316 HD
ATOM     12  S   UNL A   1      37.138  21.376  24.997  1.00  0.00    -0.029 SA
ATOM     13  N   UNL A   1      35.113  22.872  25.668  1.00  0.00    -0.217 N 
ATOM     14  C   UNL A   1      35.473  20.780  24.663  1.00  0.00     0.120 C 
ATOM     15  C   UNL A   1      34.606  21.507  25.692  1.00  0.00     0.212 C 
ATOM     16  C   UNL A   1      35.106  19.329  24.840  1.00  0.00     0.156 C 
ATOM     17  C   UNL A   1      33.189  21.198  25.269  1.00  0.00     0.188 C 
ATOM     18  S   UNL A   1      33.305  19.447  24.864  1.00  0.00     0.155 S 
ATOM     19  O   UNL A   1      32.818  19.264  23.516  1.00  0.00    -0.229 OA
ATOM     20  O   UNL A   1      32.805  18.678  25.985  1.00  0.00    -0.229 OA
BRANCH  13  21
ATOM     21  C   UNL A   1      34.213  23.918  25.903  1.00  0.00     0.128 A 
ATOM     22  C   UNL A   1      32.999  23.701  26.564  1.00  0.00     0.056 A 
ATOM     23  C   UNL A   1      34.426  25.187  25.337  1.00  0.00     0.056 A 
ATOM     24  C   UNL A   1      32.037  24.714  26.655  1.00  0.00     0.051 A 
ATOM     25  C   UNL A   1      33.439  26.197  25.395  1.00  0.00     0.051 A 
ATOM     26  C   UNL A   1      32.245  25.967  26.074  1.00  0.00     0.127 A 
BRANCH  26  27
ATOM     27  O   UNL A   1      31.198  26.833  26.270  1.00  0.00    -0.457 OA
BRANCH  27  28
ATOM     28  C   UNL A   1      30.637  27.545  25.241  1.00  0.00     0.127 A 
ATOM     29  C   UNL A   1      29.863  26.845  24.310  1.00  0.00     0.047 A 
ATOM     30  C   UNL A   1      31.042  28.850  24.970  1.00  0.00     0.047 A 
ATOM     31  C   UNL A   1      29.464  27.460  23.122  1.00  0.00     0.004 A 
ATOM     32  C   UNL A   1      30.670  29.454  23.766  1.00  0.00     0.004 A 
ATOM     33  C   UNL A   1      29.882  28.759  22.844  1.00  0.00     0.000 A 
ENDBRANCH  27  28
ENDBRANCH  26  27
ENDBRANCH  13  21
ENDBRANCH   6   7
ENDBRANCH   5   6
ENDBRANCH   1   5
BRANCH   3  34
ATOM     34  C   UNL A   1      42.132  19.126  26.409  1.00  0.00     0.117 C 
BRANCH  34  35
ATOM     35  C   UNL A   1      43.146  17.993  26.557  1.00  0.00     0.042 C 
BRANCH  35  36
ATOM     36  C   UNL A   1      44.565  18.294  26.086  1.00  0.00     0.118 C 
BRANCH  36  37
ATOM     37  N   UNL A   1      44.681  18.454  24.646  1.00  0.00    -0.352 N 
ATOM     38  C   UNL A   1      44.748  19.586  23.865  1.00  0.00     0.251 C 
ATOM     39  H   UNL A   1      44.719  17.608  24.143  1.00  0.00     0.163 HD
ATOM     40  O   UNL A   1      44.718  19.446  22.642  1.00  0.00    -0.269 OA
BRANCH  38  41
ATOM     41  C   UNL A   1      44.863  20.961  24.428  1.00  0.00     0.039 A 
ATOM     42  C   UNL A   1      45.226  21.121  25.771  1.00  0.00     0.014 A 
ATOM     43  C   UNL A   1      44.524  22.098  23.700  1.00  0.00     0.014 A 
ATOM     44  C   UNL A   1      45.257  22.401  26.354  1.00  0.00     0.010 A 
ATOM     45  C   UNL A   1      44.590  23.376  24.262  1.00  0.00     0.010 A 
ATOM     46  C   UNL A   1      44.939  23.546  25.602  1.00  0.00    -0.014 A 
BRANCH  46  47
ATOM     47  C   UNL A   1      45.139  24.908  26.153  1.00  0.00     0.031 A 
ATOM     48  C   UNL A   1      46.478  25.516  26.442  1.00  0.00     0.074 A 
ATOM     49  C   UNL A   1      44.063  25.600  26.559  1.00  0.00     0.049 A 
ATOM     50  N   UNL A   1      46.804  26.785  26.488  1.00  0.00    -0.248 NA
ATOM     51  C   UNL A   1      47.585  24.610  26.755  1.00  0.00     0.031 C 
ATOM     52  C   UNL A   1      42.689  25.103  26.564  1.00  0.00     0.029 A 
ATOM     53  N   UNL A   1      43.980  26.850  27.108  1.00  0.00    -0.354 N 
ATOM     54  C   UNL A   1      48.184  26.809  26.630  1.00  0.00     0.074 A 
ATOM     55  C   UNL A   1      48.609  25.452  26.847  1.00  0.00     0.031 C 
ATOM     56  C   UNL A   1      41.901  26.029  27.132  1.00  0.00     0.029 A 
ATOM     57  C   UNL A   1      42.715  27.185  27.504  1.00  0.00     0.049 A 
ATOM     58  H   UNL A   1      44.754  27.450  27.207  1.00  0.00     0.167 HD
ATOM     59  C   UNL A   1      49.019  27.871  26.569  1.00  0.00     0.037 A 
ATOM     60  C   UNL A   1      42.272  28.303  28.103  1.00  0.00     0.037 A 
ATOM     61  C   UNL A   1      48.581  29.215  26.809  1.00  0.00     0.049 A 
ATOM     62  C   UNL A   1      43.218  29.451  28.317  1.00  0.00     0.074 A 
ATOM     63  C   UNL A   1      49.324  30.378  26.875  1.00  0.00     0.029 A 
ATOM     64  N   UNL A   1      47.291  29.534  27.197  1.00  0.00    -0.354 N 
ATOM     65  N   UNL A   1      44.485  29.557  27.995  1.00  0.00    -0.248 NA
ATOM     66  C   UNL A   1      42.659  30.650  28.953  1.00  0.00     0.031 C 
ATOM     67  C   UNL A   1      48.512  31.365  27.455  1.00  0.00     0.029 A 
ATOM     68  C   UNL A   1      47.245  30.836  27.650  1.00  0.00     0.049 A 
ATOM     69  H   UNL A   1      46.520  28.921  27.157  1.00  0.00     0.167 HD
ATOM     70  C   UNL A   1      44.866  30.846  28.355  1.00  0.00     0.074 A 
ATOM     71  C   UNL A   1      43.690  31.482  28.915  1.00  0.00     0.031 C 
ATOM     72  C   UNL A   1      46.074  31.452  28.222  1.00  0.00     0.037 A 
BRANCH  59  73
ATOM     73  C   UNL A   1      50.464  27.613  26.273  1.00  0.00     0.057 A 
ATOM     74  C   UNL A   1      50.899  27.516  24.943  1.00  0.00     0.134 A 
ATOM     75  C   UNL A   1      51.437  27.554  27.273  1.00  0.00     0.134 A 
ATOM     76  F   UNL A   1      50.019  27.586  23.932  1.00  0.00    -0.206 F 
ATOM     77  C   UNL A   1      52.248  27.357  24.620  1.00  0.00     0.040 A 
ATOM     78  C   UNL A   1      52.792  27.406  26.963  1.00  0.00     0.040 A 
ATOM     79  F   UNL A   1      51.090  27.653  28.565  1.00  0.00    -0.206 F 
ATOM     80  C   UNL A   1      53.201  27.306  25.633  1.00  0.00     0.006 A 
ENDBRANCH  59  73
BRANCH  60  81
ATOM     81  C   UNL A   1      40.847  28.382  28.493  1.00  0.00     0.057 A 
ATOM     82  C   UNL A   1      40.422  27.984  29.763  1.00  0.00     0.134 A 
ATOM     83  C   UNL A   1      39.885  28.907  27.620  1.00  0.00     0.134 A 
ATOM     84  F   UNL A   1      41.300  27.472  30.638  1.00  0.00    -0.206 F 
ATOM     85  C   UNL A   1      39.087  28.090  30.149  1.00  0.00     0.040 A 
ATOM     86  C   UNL A   1      38.551  29.043  28.001  1.00  0.00     0.040 A 
ATOM     87  F   UNL A   1      40.238  29.323  26.393  1.00  0.00    -0.206 F 
ATOM     88  C   UNL A   1      38.148  28.628  29.269  1.00  0.00     0.006 A 
ENDBRANCH  60  81
BRANCH  72  89
ATOM     89  C   UNL A   1      46.194  32.874  28.684  1.00  0.00     0.057 A 
ATOM     90  C   UNL A   1      45.902  33.955  27.843  1.00  0.00     0.134 A 
ATOM     91  C   UNL A   1      46.553  33.162  30.007  1.00  0.00     0.134 A 
ATOM     92  F   UNL A   1      45.556  33.750  26.564  1.00  0.00    -0.206 F 
ATOM     93  C   UNL A   1      45.992  35.274  28.294  1.00  0.00     0.040 A 
ATOM     94  C   UNL A   1      46.612  34.472  30.479  1.00  0.00     0.040 A 
ATOM     95  F   UNL A   1      46.829  32.171  30.870  1.00  0.00    -0.206 F 
ATOM     96  C   UNL A   1      46.339  35.533  29.619  1.00  0.00     0.006 A 
ENDBRANCH  72  89
ENDBRANCH  46  47
ENDBRANCH  38  41
ENDBRANCH  36  37
ENDBRANCH  35  36
ENDBRANCH  34  35
ENDBRANCH   3  34
TORSDOF 15
ENDMDL
MODEL 2
REMARK VINA RESULT:     -12.1      5.539     10.431
REMARK SMILES O=C(CCC(=O)/[NH+]=C1\S[C@H]2CS(=O)(=O)C[C@@H]2N1c1ccc(Oc2ccccc2)cc1)NCCCNC(=O)c1ccc(-c2c3nc(c(-c4c(F)cccc4F)c4ccc([nH]4)c(-c4c(F)cccc4F)c4nc(c(-c5c(F)cccc5F)c5ccc2[nH]5)C=C4)C=C3)cc1
REMARK SMILES IDX 2 1 1 2 31 3 3 5 4 6 5 7 6 8 7 9 8 10 9 12 17 13 10 14 16 15
REMARK SMILES IDX 11 16 15 17 12 18 13 19 14 20 18 21 19 22 30 23 20 24 29 25
REMARK SMILES IDX 21 26 22 27 23 28 24 29 28 30 25 31 27 32 26 33 32 34 33 35
REMARK SMILES IDX 34 36 35 37 36 38 37 40 38 41 39 42 91 43 40 44 90 45 41 46
REMARK SMILES IDX 42 47 43 48 84 49 44 50 89 51 83 52 85 53 45 54 88 55 82 56
REMARK SMILES IDX 81 57 46 59 72 60 55 61 71 62 56 63 59 64 70 65 86 66 57 67
REMARK SMILES IDX 58 68 69 70 87 71 60 72 47 73 48 74 53 75 49 76 50 77 52 78
REMARK SMILES IDX 54 79 51 80 73 81 74 82 79 83 75 84 76 85 78 86 80 87 77 88
REMARK SMILES IDX 61 89 62 90 67 91 63 92 64 93 66 94 68 95 65 96
REMARK H PARENT 31 4 7 11 35 39 85 58 59 69
REMARK Flexibility Score: inf
ROOT
ATOM      1  C   UNL A   1      32.698  28.865  26.954  1.00  0.00     0.220 C 
ATOM      2  O   UNL A   1      31.749  29.591  27.256  1.00  0.00    -0.275 OA
ATOM      3  N   UNL A   1      32.441  27.641  26.424  1.00  0.00    -0.356 N 
ATOM      4  H   UNL A   1      31.488  27.395  26.404  1.00  0.00     0.163 HD
ENDROOT
BRANCH   1   5
ATOM      5  C   UNL A   1      34.115  29.314  27.184  1.00  0.00     0.112 C 
BRANCH   5   6
ATOM      6  C   UNL A   1      34.318  30.609  27.960  1.00  0.00     0.138 C 
BRANCH   6   7
ATOM      7  C   UNL A   1      35.701  31.139  28.359  1.00  0.00     0.308 C 
ATOM      8  O   UNL A   1      36.641  30.938  27.590  1.00  0.00    -0.247 OA
ATOM      9  N   UNL A   1      35.907  31.777  29.559  1.00  0.00    -0.204 N 
ATOM     10  C   UNL A   1      35.390  32.930  29.819  1.00  0.00     0.319 C 
ATOM     11  H   UNL A   1      36.469  31.341  30.241  1.00  0.00     0.316 HD
ATOM     12  S   UNL A   1      34.274  33.790  28.698  1.00  0.00    -0.029 SA
ATOM     13  N   UNL A   1      35.475  33.658  31.007  1.00  0.00    -0.217 N 
ATOM     14  C   UNL A   1      33.979  35.094  29.904  1.00  0.00     0.120 C 
ATOM     15  C   UNL A   1      34.262  34.424  31.250  1.00  0.00     0.212 C 
ATOM     16  C   UNL A   1      32.615  35.708  30.082  1.00  0.00     0.156 C 
ATOM     17  C   UNL A   1      34.249  35.564  32.242  1.00  0.00     0.188 C 
ATOM     18  S   UNL A   1      32.826  36.516  31.683  1.00  0.00     0.155 S 
ATOM     19  O   UNL A   1      33.256  37.875  31.453  1.00  0.00    -0.229 OA
ATOM     20  O   UNL A   1      31.690  36.188  32.521  1.00  0.00    -0.229 OA
BRANCH  13  21
ATOM     21  C   UNL A   1      36.381  33.497  32.062  1.00  0.00     0.128 A 
ATOM     22  C   UNL A   1      36.088  32.674  33.156  1.00  0.00     0.056 A 
ATOM     23  C   UNL A   1      37.542  34.285  32.137  1.00  0.00     0.056 A 
ATOM     24  C   UNL A   1      36.924  32.641  34.277  1.00  0.00     0.051 A 
ATOM     25  C   UNL A   1      38.365  34.282  33.285  1.00  0.00     0.051 A 
ATOM     26  C   UNL A   1      38.067  33.441  34.354  1.00  0.00     0.127 A 
BRANCH  26  27
ATOM     27  O   UNL A   1      38.766  33.271  35.524  1.00  0.00    -0.457 OA
BRANCH  27  28
ATOM     28  C   UNL A   1      38.900  34.277  36.446  1.00  0.00     0.127 A 
ATOM     29  C   UNL A   1      39.670  35.390  36.091  1.00  0.00     0.047 A 
ATOM     30  C   UNL A   1      38.526  34.084  37.775  1.00  0.00     0.047 A 
ATOM     31  C   UNL A   1      40.038  36.329  37.056  1.00  0.00     0.004 A 
ATOM     32  C   UNL A   1      38.922  35.008  38.746  1.00  0.00     0.004 A 
ATOM     33  C   UNL A   1      39.678  36.128  38.386  1.00  0.00     0.000 A 
ENDBRANCH  27  28
ENDBRANCH  26  27
ENDBRANCH  13  21
ENDBRANCH   6   7
ENDBRANCH   5   6
ENDBRANCH   1   5
BRANCH   3  34
ATOM     34  C   UNL A   1      33.338  26.634  25.883  1.00  0.00     0.117 C 
BRANCH  34  35
ATOM     35  C   UNL A   1      32.700  25.273  25.607  1.00  0.00     0.042 C 
BRANCH  35  36
ATOM     36  C   UNL A   1      32.850  24.734  24.189  1.00  0.00     0.118 C 
BRANCH  36  37
ATOM     37  N   UNL A   1      32.907  23.284  24.118  1.00  0.00    -0.352 N 
ATOM     38  C   UNL A   1      33.941  22.406  24.355  1.00  0.00     0.251 C 
ATOM     39  H   UNL A   1      32.059  22.854  23.857  1.00  0.00     0.163 HD
ATOM     40  O   UNL A   1      33.759  21.216  24.101  1.00  0.00    -0.269 OA
BRANCH  38  41
ATOM     41  C   UNL A   1      35.259  22.829  24.909  1.00  0.00     0.039 A 
ATOM     42  C   UNL A   1      35.440  22.857  26.298  1.00  0.00     0.014 A 
ATOM     43  C   UNL A   1      36.293  23.297  24.103  1.00  0.00     0.014 A 
ATOM     44  C   UNL A   1      36.641  23.334  26.851  1.00  0.00     0.010 A 
ATOM     45  C   UNL A   1      37.504  23.737  24.645  1.00  0.00     0.010 A 
ATOM     46  C   UNL A   1      37.690  23.780  26.027  1.00  0.00    -0.014 A 
BRANCH  46  47
ATOM     47  C   UNL A   1      39.020  24.117  26.590  1.00  0.00     0.031 A 
ATOM     48  C   UNL A   1      40.215  23.214  26.536  1.00  0.00     0.074 A 
ATOM     49  C   UNL A   1      39.141  25.234  27.324  1.00  0.00     0.049 A 
ATOM     50  N   UNL A   1      41.485  23.540  26.573  1.00  0.00    -0.248 NA
ATOM     51  C   UNL A   1      39.978  21.771  26.468  1.00  0.00     0.031 C 
ATOM     52  C   UNL A   1      38.050  26.138  27.677  1.00  0.00     0.029 A 
ATOM     53  N   UNL A   1      40.238  25.754  27.956  1.00  0.00    -0.354 N 
ATOM     54  C   UNL A   1      42.178  22.363  26.328  1.00  0.00     0.074 A 
ATOM     55  C   UNL A   1      41.212  21.297  26.328  1.00  0.00     0.031 C 
ATOM     56  C   UNL A   1      38.527  27.084  28.502  1.00  0.00     0.029 A 
ATOM     57  C   UNL A   1      39.956  26.859  28.709  1.00  0.00     0.049 A 
ATOM     58  H   UNL A   1      41.141  25.370  27.875  1.00  0.00     0.167 HD
ATOM     59  C   UNL A   1      43.501  22.195  26.108  1.00  0.00     0.037 A 
ATOM     60  C   UNL A   1      40.768  27.601  29.480  1.00  0.00     0.037 A 
ATOM     61  C   UNL A   1      44.485  23.139  26.549  1.00  0.00     0.049 A 
ATOM     62  C   UNL A   1      42.242  27.306  29.498  1.00  0.00     0.074 A 
ATOM     63  C   UNL A   1      45.863  23.062  26.483  1.00  0.00     0.029 A 
ATOM     64  N   UNL A   1      44.176  24.261  27.300  1.00  0.00    -0.354 N 
ATOM     65  N   UNL A   1      42.916  26.390  28.846  1.00  0.00    -0.248 NA
ATOM     66  C   UNL A   1      43.072  28.173  30.343  1.00  0.00     0.031 C 
ATOM     67  C   UNL A   1      46.383  24.053  27.330  1.00  0.00     0.029 A 
ATOM     68  C   UNL A   1      45.329  24.801  27.834  1.00  0.00     0.049 A 
ATOM     69  H   UNL A   1      43.269  24.620  27.435  1.00  0.00     0.167 HD
ATOM     70  C   UNL A   1      44.254  26.594  29.170  1.00  0.00     0.074 A 
ATOM     71  C   UNL A   1      44.290  27.724  30.075  1.00  0.00     0.031 C 
ATOM     72  C   UNL A   1      45.352  25.915  28.747  1.00  0.00     0.037 A 
BRANCH  59  73
ATOM     73  C   UNL A   1      43.944  20.948  25.406  1.00  0.00     0.057 A 
ATOM     74  C   UNL A   1      44.593  21.038  24.166  1.00  0.00     0.134 A 
ATOM     75  C   UNL A   1      43.824  19.681  25.979  1.00  0.00     0.134 A 
ATOM     76  F   UNL A   1      44.761  22.228  23.569  1.00  0.00    -0.206 F 
ATOM     77  C   UNL A   1      45.094  19.908  23.515  1.00  0.00     0.040 A 
ATOM     78  C   UNL A   1      44.331  18.543  25.344  1.00  0.00     0.040 A 
ATOM     79  F   UNL A   1      43.225  19.526  27.170  1.00  0.00    -0.206 F 
ATOM     80  C   UNL A   1      44.968  18.655  24.107  1.00  0.00     0.006 A 
ENDBRANCH  59  73
BRANCH  60  81
ATOM     81  C   UNL A   1      40.186  28.719  30.254  1.00  0.00     0.057 A 
ATOM     82  C   UNL A   1      39.867  29.935  29.641  1.00  0.00     0.134 A 
ATOM     83  C   UNL A   1      39.886  28.579  31.615  1.00  0.00     0.134 A 
ATOM     84  F   UNL A   1      40.135  30.124  28.341  1.00  0.00    -0.206 F 
ATOM     85  C   UNL A   1      39.285  30.979  30.357  1.00  0.00     0.040 A 
ATOM     86  C   UNL A   1      39.280  29.605  32.338  1.00  0.00     0.040 A 
ATOM     87  F   UNL A   1      40.152  27.428  32.253  1.00  0.00    -0.206 F 
ATOM     88  C   UNL A   1      38.983  30.813  31.708  1.00  0.00     0.006 A 
ENDBRANCH  60  81
BRANCH  72  89
ATOM     89  C   UNL A   1      46.688  26.372  29.251  1.00  0.00     0.057 A 
ATOM     90  C   UNL A   1      47.516  27.216  28.501  1.00  0.00     0.134 A 
ATOM     91  C   UNL A   1      47.127  26.005  30.530  1.00  0.00     0.134 A 
ATOM     92  F   UNL A   1      47.158  27.602  27.268  1.00  0.00    -0.206 F 
ATOM     93  C   UNL A   1      48.747  27.655  28.994  1.00  0.00     0.040 A 
ATOM     94  C   UNL A   1      48.338  26.465  31.047  1.00  0.00     0.040 A 
ATOM     95  F   UNL A   1      46.375  25.211  31.308  1.00  0.00    -0.206 F 
ATOM     96  C   UNL A   1      49.155  27.286  30.274  1.00  0.00     0.006 A 
ENDBRANCH  72  89
ENDBRANCH  46  47
ENDBRANCH  38  41
ENDBRANCH  36  37
ENDBRANCH  35  36
ENDBRANCH  34  35
ENDBRANCH   3  34
TORSDOF 15
ENDMDL
MODEL 3
REMARK VINA RESULT:     -12.0      5.425      9.959
REMARK SMILES O=C(CCC(=O)/[NH+]=C1\S[C@H]2CS(=O)(=O)C[C@@H]2N1c1ccc(Oc2ccccc2)cc1)NCCCNC(=O)c1ccc(-c2c3nc(c(-c4c(F)cccc4F)c4ccc([nH]4)c(-c4c(F)cccc4F)c4nc(c(-c5c(F)cccc5F)c5ccc2[nH]5)C=C4)C=C3)cc1
REMARK SMILES IDX 2 1 1 2 31 3 3 5 4 6 5 7 6 8 7 9 8 10 9 12 17 13 10 14 16 15
REMARK SMILES IDX 11 16 15 17 12 18 13 19 14 20 18 21 19 22 30 23 20 24 29 25
REMARK SMILES IDX 21 26 22 27 23 28 24 29 28 30 25 31 27 32 26 33 32 34 33 35
REMARK SMILES IDX 34 36 35 37 36 38 37 40 38 41 39 42 91 43 40 44 90 45 41 46
REMARK SMILES IDX 42 47 43 48 84 49 44 50 89 51 83 52 85 53 45 54 88 55 82 56
REMARK SMILES IDX 81 57 46 59 72 60 55 61 71 62 56 63 59 64 70 65 86 66 57 67
REMARK SMILES IDX 58 68 69 70 87 71 60 72 47 73 48 74 53 75 49 76 50 77 52 78
REMARK SMILES IDX 54 79 51 80 73 81 74 82 79 83 75 84 76 85 78 86 80 87 77 88
REMARK SMILES IDX 61 89 62 90 67 91 63 92 64 93 66 94 68 95 65 96
REMARK H PARENT 31 4 7 11 35 39 85 58 59 69
REMARK Flexibility Score: inf
ROOT
ATOM      1  C   UNL A   1      45.574  25.615  30.532  1.00  0.00     0.220 C 
ATOM      2  O   UNL A   1      44.385  25.298  30.461  1.00  0.00    -0.275 OA
ATOM      3  N   UNL A   1      46.119  25.836  31.757  1.00  0.00    -0.356 N 
ATOM      4  H   UNL A   1      45.476  25.807  32.503  1.00  0.00     0.163 HD
ENDROOT
BRANCH   1   5
ATOM      5  C   UNL A   1      46.404  25.773  29.289  1.00  0.00     0.112 C 
BRANCH   5   6
ATOM      6  C   UNL A   1      46.038  24.906  28.091  1.00  0.00     0.138 C 
BRANCH   6   7
ATOM      7  C   UNL A   1      44.743  25.087  27.289  1.00  0.00     0.308 C 
ATOM      8  O   UNL A   1      44.442  26.225  26.926  1.00  0.00    -0.247 OA
ATOM      9  N   UNL A   1      43.910  24.028  27.020  1.00  0.00    -0.204 N 
ATOM     10  C   UNL A   1      44.260  23.063  26.239  1.00  0.00     0.319 C 
ATOM     11  H   UNL A   1      43.017  24.005  27.437  1.00  0.00     0.316 HD
ATOM     12  S   UNL A   1      45.891  22.939  25.488  1.00  0.00    -0.029 SA
ATOM     13  N   UNL A   1      43.536  21.911  25.925  1.00  0.00    -0.217 N 
ATOM     14  C   UNL A   1      45.508  21.325  24.789  1.00  0.00     0.120 C 
ATOM     15  C   UNL A   1      44.418  20.773  25.710  1.00  0.00     0.212 C 
ATOM     16  C   UNL A   1      46.535  20.224  24.740  1.00  0.00     0.156 C 
ATOM     17  C   UNL A   1      43.926  19.533  25.000  1.00  0.00     0.188 C 
ATOM     18  S   UNL A   1      45.471  18.796  24.441  1.00  0.00     0.155 S 
ATOM     19  O   UNL A   1      45.379  18.588  23.015  1.00  0.00    -0.229 OA
ATOM     20  O   UNL A   1      45.841  17.741  25.362  1.00  0.00    -0.229 OA
BRANCH  13  21
ATOM     21  C   UNL A   1      42.169  21.669  26.098  1.00  0.00     0.128 A 
ATOM     22  C   UNL A   1      41.598  20.437  25.757  1.00  0.00     0.056 A 
ATOM     23  C   UNL A   1      41.297  22.708  26.464  1.00  0.00     0.056 A 
ATOM     24  C   UNL A   1      40.211  20.254  25.783  1.00  0.00     0.051 A 
ATOM     25  C   UNL A   1      39.895  22.536  26.451  1.00  0.00     0.051 A 
ATOM     26  C   UNL A   1      39.348  21.297  26.128  1.00  0.00     0.127 A 
BRANCH  26  27
ATOM     27  O   UNL A   1      38.024  20.931  26.104  1.00  0.00    -0.457 OA
BRANCH  27  28
ATOM     28  C   UNL A   1      37.075  21.670  25.445  1.00  0.00     0.127 A 
ATOM     29  C   UNL A   1      37.203  21.810  24.060  1.00  0.00     0.047 A 
ATOM     30  C   UNL A   1      36.183  22.477  26.148  1.00  0.00     0.047 A 
ATOM     31  C   UNL A   1      36.416  22.733  23.369  1.00  0.00     0.004 A 
ATOM     32  C   UNL A   1      35.418  23.424  25.460  1.00  0.00     0.004 A 
ATOM     33  C   UNL A   1      35.535  23.551  24.073  1.00  0.00     0.000 A 
ENDBRANCH  27  28
ENDBRANCH  26  27
ENDBRANCH  13  21
ENDBRANCH   6   7
ENDBRANCH   5   6
ENDBRANCH   1   5
BRANCH   3  34
ATOM     34  C   UNL A   1      47.490  26.110  32.150  1.00  0.00     0.117 C 
BRANCH  34  35
ATOM     35  C   UNL A   1      47.956  25.408  33.425  1.00  0.00     0.042 C 
BRANCH  35  36
ATOM     36  C   UNL A   1      47.084  24.259  33.918  1.00  0.00     0.118 C 
BRANCH  36  37
ATOM     37  N   UNL A   1      46.833  24.288  35.349  1.00  0.00    -0.352 N 
ATOM     38  C   UNL A   1      45.964  25.048  36.100  1.00  0.00     0.251 C 
ATOM     39  H   UNL A   1      47.378  23.656  35.872  1.00  0.00     0.163 HD
ATOM     40  O   UNL A   1      46.035  24.966  37.326  1.00  0.00    -0.269 OA
BRANCH  38  41
ATOM     41  C   UNL A   1      44.942  25.951  35.499  1.00  0.00     0.039 A 
ATOM     42  C   UNL A   1      45.297  27.268  35.179  1.00  0.00     0.014 A 
ATOM     43  C   UNL A   1      43.612  25.572  35.334  1.00  0.00     0.014 A 
ATOM     44  C   UNL A   1      44.333  28.169  34.693  1.00  0.00     0.010 A 
ATOM     45  C   UNL A   1      42.657  26.452  34.816  1.00  0.00     0.010 A 
ATOM     46  C   UNL A   1      42.998  27.768  34.505  1.00  0.00    -0.014 A 
BRANCH  46  47
ATOM     47  C   UNL A   1      42.018  28.652  33.829  1.00  0.00     0.031 A 
ATOM     48  C   UNL A   1      41.746  28.645  32.355  1.00  0.00     0.074 A 
ATOM     49  C   UNL A   1      41.433  29.625  34.545  1.00  0.00     0.049 A 
ATOM     50  N   UNL A   1      40.656  29.013  31.726  1.00  0.00    -0.248 NA
ATOM     51  C   UNL A   1      42.824  28.210  31.465  1.00  0.00     0.031 C 
ATOM     52  C   UNL A   1      41.721  29.939  35.942  1.00  0.00     0.029 A 
ATOM     53  N   UNL A   1      40.518  30.568  34.161  1.00  0.00    -0.354 N 
ATOM     54  C   UNL A   1      40.856  28.660  30.399  1.00  0.00     0.074 A 
ATOM     55  C   UNL A   1      42.222  28.224  30.280  1.00  0.00     0.031 C 
ATOM     56  C   UNL A   1      41.024  31.033  36.288  1.00  0.00     0.029 A 
ATOM     57  C   UNL A   1      40.229  31.473  35.143  1.00  0.00     0.049 A 
ATOM     58  H   UNL A   1      40.109  30.591  33.267  1.00  0.00     0.167 HD
ATOM     59  C   UNL A   1      39.971  28.684  29.379  1.00  0.00     0.037 A 
ATOM     60  C   UNL A   1      39.413  32.540  35.113  1.00  0.00     0.037 A 
ATOM     61  C   UNL A   1      38.803  29.516  29.386  1.00  0.00     0.049 A 
ATOM     62  C   UNL A   1      38.575  32.794  33.890  1.00  0.00     0.074 A 
ATOM     63  C   UNL A   1      37.866  29.718  28.390  1.00  0.00     0.029 A 
ATOM     64  N   UNL A   1      38.522  30.418  30.398  1.00  0.00    -0.354 N 
ATOM     65  N   UNL A   1      38.497  32.106  32.777  1.00  0.00    -0.248 NA
ATOM     66  C   UNL A   1      37.688  33.962  33.937  1.00  0.00     0.031 C 
ATOM     67  C   UNL A   1      37.117  30.852  28.739  1.00  0.00     0.029 A 
ATOM     68  C   UNL A   1      37.525  31.283  29.993  1.00  0.00     0.049 A 
ATOM     69  H   UNL A   1      38.967  30.440  31.276  1.00  0.00     0.167 HD
ATOM     70  C   UNL A   1      37.525  32.735  32.005  1.00  0.00     0.074 A 
ATOM     71  C   UNL A   1      37.042  33.856  32.784  1.00  0.00     0.031 C 
ATOM     72  C   UNL A   1      37.066  32.406  30.770  1.00  0.00     0.037 A 
BRANCH  59  73
ATOM     73  C   UNL A   1      40.253  27.828  28.182  1.00  0.00     0.057 A 
ATOM     74  C   UNL A   1      41.043  28.328  27.136  1.00  0.00     0.134 A 
ATOM     75  C   UNL A   1      39.837  26.498  28.095  1.00  0.00     0.134 A 
ATOM     76  F   UNL A   1      41.494  29.592  27.167  1.00  0.00    -0.206 F 
ATOM     77  C   UNL A   1      41.398  27.538  26.040  1.00  0.00     0.040 A 
ATOM     78  C   UNL A   1      40.195  25.693  27.009  1.00  0.00     0.040 A 
ATOM     79  F   UNL A   1      39.090  25.954  29.067  1.00  0.00    -0.206 F 
ATOM     80  C   UNL A   1      40.977  26.213  25.977  1.00  0.00     0.006 A 
ENDBRANCH  59  73
BRANCH  60  81
ATOM     81  C   UNL A   1      39.333  33.407  36.309  1.00  0.00     0.057 A 
ATOM     82  C   UNL A   1      40.082  34.584  36.399  1.00  0.00     0.134 A 
ATOM     83  C   UNL A   1      38.466  33.105  37.366  1.00  0.00     0.134 A 
ATOM     84  F   UNL A   1      40.930  34.921  35.416  1.00  0.00    -0.206 F 
ATOM     85  C   UNL A   1      39.984  35.424  37.507  1.00  0.00     0.040 A 
ATOM     86  C   UNL A   1      38.339  33.948  38.469  1.00  0.00     0.040 A 
ATOM     87  F   UNL A   1      37.708  31.998  37.327  1.00  0.00    -0.206 F 
ATOM     88  C   UNL A   1      39.104  35.111  38.543  1.00  0.00     0.006 A 
ENDBRANCH  60  81
BRANCH  72  89
ATOM     89  C   UNL A   1      35.985  33.262  30.179  1.00  0.00     0.057 A 
ATOM     90  C   UNL A   1      34.671  33.237  30.661  1.00  0.00     0.134 A 
ATOM     91  C   UNL A   1      36.279  34.165  29.149  1.00  0.00     0.134 A 
ATOM     92  F   UNL A   1      34.321  32.393  31.643  1.00  0.00    -0.206 F 
ATOM     93  C   UNL A   1      33.680  34.059  30.119  1.00  0.00     0.040 A 
ATOM     94  C   UNL A   1      35.307  35.016  28.624  1.00  0.00     0.040 A 
ATOM     95  F   UNL A   1      37.523  34.252  28.652  1.00  0.00    -0.206 F 
ATOM     96  C   UNL A   1      34.001  34.957  29.103  1.00  0.00     0.006 A 
ENDBRANCH  72  89
ENDBRANCH  46  47
ENDBRANCH  38  41
ENDBRANCH  36  37
ENDBRANCH  35  36
ENDBRANCH  34  35
ENDBRANCH   3  34
TORSDOF 15
ENDMDL
