MODEL 1
REMARK VINA RESULT:     -10.8      0.000      0.000
REMARK SMILES C=CCN(CC(=O)NCCCNC(=O)c1ccc(-c2c3nc(c(-c4c(F)cccc4F)c4ccc([nH]4)c(-c4c(F)cccc4F)c4nc(c(-c5c(F)cccc5F)c5ccc2[nH]5)C=C4)C=C3)cc1)C(=O)c1cc(OC)ccc1Br
REMARK SMILES IDX 9 1 8 2 6 3 7 4 5 6 4 7 3 8 2 9 1 10 69 11 70 12 71 13 72 14
REMARK SMILES IDX 78 15 73 16 77 17 79 18 76 19 74 20 75 21 10 22 11 23 12 24
REMARK SMILES IDX 13 25 14 27 15 28 16 29 68 30 17 31 67 32 18 33 19 34 20 35
REMARK SMILES IDX 61 36 21 37 66 38 60 39 62 40 22 41 65 42 59 43 58 44 23 46
REMARK SMILES IDX 49 47 32 48 48 49 33 50 36 51 47 52 63 53 34 54 35 55 46 57
REMARK SMILES IDX 64 58 37 59 24 60 25 61 30 62 26 63 27 64 29 65 31 66 28 67
REMARK SMILES IDX 50 68 51 69 56 70 52 71 53 72 55 73 57 74 54 75 38 76 39 77
REMARK SMILES IDX 44 78 40 79 41 80 43 81 45 82 42 83
REMARK H PARENT 8 5 12 26 62 45 36 56
REMARK Flexibility Score: inf
ROOT
ATOM      1  C   UNL A   1      31.064  30.873  25.489  1.00  0.00     0.117 C 
ENDROOT
BRANCH   1   2
ATOM      2  N   UNL A   1      32.178  30.042  25.903  1.00  0.00    -0.354 N 
ATOM      3  C   UNL A   1      33.028  29.251  25.188  1.00  0.00     0.239 C 
ATOM      4  O   UNL A   1      34.048  28.865  25.771  1.00  0.00    -0.273 OA
ATOM      5  H   UNL A   1      32.350  30.049  26.872  1.00  0.00     0.163 HD
BRANCH   3   6
ATOM      6  C   UNL A   1      32.832  28.934  23.695  1.00  0.00     0.220 C 
BRANCH   6   7
ATOM      7  N   UNL A   1      32.054  27.728  23.380  1.00  0.00    -0.326 N 
BRANCH   7   8
ATOM      8  C   UNL A   1      32.213  26.572  24.255  1.00  0.00     0.147 C 
BRANCH   8   9
ATOM      9  C   UNL A   1      33.486  25.845  23.944  1.00  0.00    -0.014 C 
ATOM     10  C   UNL A   1      33.659  25.114  22.833  1.00  0.00     0.006 C 
ENDBRANCH   8   9
ENDBRANCH   7   8
BRANCH   7  11
ATOM     11  C   UNL A   1      31.077  27.662  22.380  1.00  0.00     0.255 C 
ATOM     12  O   UNL A   1      31.166  26.926  21.394  1.00  0.00    -0.269 OA
BRANCH  11  13
ATOM     13  C   UNL A   1      29.836  28.456  22.505  1.00  0.00     0.057 A 
ATOM     14  C   UNL A   1      29.887  29.800  22.107  1.00  0.00     0.061 A 
ATOM     15  C   UNL A   1      28.681  27.970  23.124  1.00  0.00     0.031 A 
ATOM     16  C   UNL A   1      28.771  30.623  22.286  1.00  0.00     0.119 A 
ATOM     17  C   UNL A   1      27.530  28.759  23.175  1.00  0.00     0.020 A 
ATOM     18  Br  UNL A   1      28.621  26.332  24.063  1.00  0.00    -0.050 Br
ATOM     19  C   UNL A   1      27.571  30.082  22.742  1.00  0.00     0.047 A 
BRANCH  16  20
ATOM     20  O   UNL A   1      28.936  31.953  22.005  1.00  0.00    -0.497 OA
ATOM     21  C   UNL A   1      28.041  32.437  21.000  1.00  0.00     0.278 C 
ENDBRANCH  16  20
ENDBRANCH  11  13
ENDBRANCH   7  11
ENDBRANCH   6   7
ENDBRANCH   3   6
ENDBRANCH   1   2
BRANCH   1  22
ATOM     22  C   UNL A   1      31.026  32.253  26.141  1.00  0.00     0.042 C 
BRANCH  22  23
ATOM     23  C   UNL A   1      32.293  32.682  26.876  1.00  0.00     0.118 C 
BRANCH  23  24
ATOM     24  N   UNL A   1      32.197  33.979  27.518  1.00  0.00    -0.352 N 
ATOM     25  C   UNL A   1      33.005  34.587  28.441  1.00  0.00     0.251 C 
ATOM     26  H   UNL A   1      31.417  34.513  27.244  1.00  0.00     0.163 HD
ATOM     27  O   UNL A   1      32.680  35.708  28.850  1.00  0.00    -0.269 OA
BRANCH  25  28
ATOM     28  C   UNL A   1      34.224  33.948  28.997  1.00  0.00     0.039 A 
ATOM     29  C   UNL A   1      34.043  32.862  29.862  1.00  0.00     0.014 A 
ATOM     30  C   UNL A   1      35.520  34.415  28.757  1.00  0.00     0.014 A 
ATOM     31  C   UNL A   1      35.141  32.224  30.444  1.00  0.00     0.010 A 
ATOM     32  C   UNL A   1      36.625  33.738  29.289  1.00  0.00     0.010 A 
ATOM     33  C   UNL A   1      36.446  32.641  30.146  1.00  0.00    -0.014 A 
BRANCH  33  34
ATOM     34  C   UNL A   1      37.613  31.937  30.744  1.00  0.00     0.031 A 
ATOM     35  C   UNL A   1      38.075  32.260  32.139  1.00  0.00     0.074 A 
ATOM     36  C   UNL A   1      38.269  31.002  30.027  1.00  0.00     0.049 A 
ATOM     37  N   UNL A   1      39.061  31.737  32.826  1.00  0.00    -0.248 NA
ATOM     38  C   UNL A   1      37.343  33.317  32.852  1.00  0.00     0.031 C 
ATOM     39  C   UNL A   1      37.952  30.616  28.652  1.00  0.00     0.029 A 
ATOM     40  N   UNL A   1      39.337  30.204  30.360  1.00  0.00    -0.354 N 
ATOM     41  C   UNL A   1      39.075  32.408  34.043  1.00  0.00     0.074 A 
ATOM     42  C   UNL A   1      38.025  33.402  33.986  1.00  0.00     0.031 C 
ATOM     43  C   UNL A   1      38.789  29.639  28.267  1.00  0.00     0.029 A 
ATOM     44  C   UNL A   1      39.717  29.346  29.357  1.00  0.00     0.049 A 
ATOM     45  H   UNL A   1      39.787  30.244  31.234  1.00  0.00     0.167 HD
ATOM     46  C   UNL A   1      39.874  32.203  35.117  1.00  0.00     0.037 A 
ATOM     47  C   UNL A   1      40.699  28.427  29.319  1.00  0.00     0.037 A 
ATOM     48  C   UNL A   1      40.902  31.198  35.193  1.00  0.00     0.049 A 
ATOM     49  C   UNL A   1      41.568  28.214  30.525  1.00  0.00     0.074 A 
ATOM     50  C   UNL A   1      41.721  30.881  36.264  1.00  0.00     0.029 A 
ATOM     51  N   UNL A   1      41.252  30.347  34.156  1.00  0.00    -0.354 N 
ATOM     52  N   UNL A   1      41.526  28.814  31.690  1.00  0.00    -0.248 NA
ATOM     53  C   UNL A   1      42.617  27.190  30.415  1.00  0.00     0.031 C 
ATOM     54  C   UNL A   1      42.587  29.856  35.864  1.00  0.00     0.029 A 
ATOM     55  C   UNL A   1      42.286  29.516  34.557  1.00  0.00     0.049 A 
ATOM     56  H   UNL A   1      40.829  30.336  33.268  1.00  0.00     0.167 HD
ATOM     57  C   UNL A   1      42.526  28.229  32.454  1.00  0.00     0.074 A 
ATOM     58  C   UNL A   1      43.148  27.215  31.629  1.00  0.00     0.031 C 
ATOM     59  C   UNL A   1      42.895  28.509  33.728  1.00  0.00     0.037 A 
BRANCH  46  60
ATOM     60  C   UNL A   1      39.661  33.086  36.311  1.00  0.00     0.057 A 
ATOM     61  C   UNL A   1      38.737  32.760  37.311  1.00  0.00     0.134 A 
ATOM     62  C   UNL A   1      40.415  34.254  36.481  1.00  0.00     0.134 A 
ATOM     63  F   UNL A   1      37.977  31.658  37.201  1.00  0.00    -0.206 F 
ATOM     64  C   UNL A   1      38.552  33.576  38.428  1.00  0.00     0.040 A 
ATOM     65  C   UNL A   1      40.254  35.067  37.605  1.00  0.00     0.040 A 
ATOM     66  F   UNL A   1      41.323  34.620  35.564  1.00  0.00    -0.206 F 
ATOM     67  C   UNL A   1      39.316  34.730  38.580  1.00  0.00     0.006 A 
ENDBRANCH  46  60
BRANCH  47  68
ATOM     68  C   UNL A   1      40.901  27.611  28.096  1.00  0.00     0.057 A 
ATOM     69  C   UNL A   1      41.744  28.050  27.069  1.00  0.00     0.134 A 
ATOM     70  C   UNL A   1      40.251  26.385  27.920  1.00  0.00     0.134 A 
ATOM     71  F   UNL A   1      42.378  29.227  27.173  1.00  0.00    -0.206 F 
ATOM     72  C   UNL A   1      41.921  27.305  25.902  1.00  0.00     0.040 A 
ATOM     73  C   UNL A   1      40.434  25.620  26.767  1.00  0.00     0.040 A 
ATOM     74  F   UNL A   1      39.431  25.911  28.870  1.00  0.00    -0.206 F 
ATOM     75  C   UNL A   1      41.268  26.084  25.751  1.00  0.00     0.006 A 
ENDBRANCH  47  68
BRANCH  59  76
ATOM     76  C   UNL A   1      44.010  27.693  34.311  1.00  0.00     0.057 A 
ATOM     77  C   UNL A   1      45.339  28.129  34.269  1.00  0.00     0.134 A 
ATOM     78  C   UNL A   1      43.746  26.473  34.945  1.00  0.00     0.134 A 
ATOM     79  F   UNL A   1      45.658  29.284  33.664  1.00  0.00    -0.206 F 
ATOM     80  C   UNL A   1      46.373  27.370  34.822  1.00  0.00     0.040 A 
ATOM     81  C   UNL A   1      44.768  25.714  35.518  1.00  0.00     0.040 A 
ATOM     82  F   UNL A   1      42.492  26.002  35.022  1.00  0.00    -0.206 F 
ATOM     83  C   UNL A   1      46.086  26.161  35.453  1.00  0.00     0.006 A 
ENDBRANCH  59  76
ENDBRANCH  33  34
ENDBRANCH  25  28
ENDBRANCH  23  24
ENDBRANCH  22  23
ENDBRANCH   1  22
TORSDOF 16
ENDMDL
MODEL 2
REMARK VINA RESULT:     -10.7      0.371      6.375
REMARK SMILES C=CCN(CC(=O)NCCCNC(=O)c1ccc(-c2c3nc(c(-c4c(F)cccc4F)c4ccc([nH]4)c(-c4c(F)cccc4F)c4nc(c(-c5c(F)cccc5F)c5ccc2[nH]5)C=C4)C=C3)cc1)C(=O)c1cc(OC)ccc1Br
REMARK SMILES IDX 9 1 8 2 6 3 7 4 5 6 4 7 3 8 2 9 1 10 69 11 70 12 71 13 72 14
REMARK SMILES IDX 78 15 73 16 77 17 79 18 76 19 74 20 75 21 10 22 11 23 12 24
REMARK SMILES IDX 13 25 14 27 15 28 16 29 68 30 17 31 67 32 18 33 19 34 20 35
REMARK SMILES IDX 61 36 21 37 66 38 60 39 62 40 22 41 65 42 59 43 58 44 23 46
REMARK SMILES IDX 49 47 32 48 48 49 33 50 36 51 47 52 63 53 34 54 35 55 46 57
REMARK SMILES IDX 64 58 37 59 24 60 25 61 30 62 26 63 27 64 29 65 31 66 28 67
REMARK SMILES IDX 50 68 51 69 56 70 52 71 53 72 55 73 57 74 54 75 38 76 39 77
REMARK SMILES IDX 44 78 40 79 41 80 43 81 45 82 42 83
REMARK H PARENT 8 5 12 26 62 45 36 56
REMARK Flexibility Score: inf
ROOT
ATOM      1  C   UNL A   1      31.109  30.691  25.513  1.00  0.00     0.117 C 
ENDROOT
BRANCH   1   2
ATOM      2  N   UNL A   1      32.209  29.847  25.937  1.00  0.00    -0.354 N 
ATOM      3  C   UNL A   1      33.067  29.058  25.228  1.00  0.00     0.239 C 
ATOM      4  O   UNL A   1      34.073  28.658  25.825  1.00  0.00    -0.273 OA
ATOM      5  H   UNL A   1      32.365  29.843  26.909  1.00  0.00     0.163 HD
BRANCH   3   6
ATOM      6  C   UNL A   1      32.894  28.758  23.729  1.00  0.00     0.220 C 
BRANCH   6   7
ATOM      7  N   UNL A   1      32.118  27.558  23.388  1.00  0.00    -0.326 N 
BRANCH   7   8
ATOM      8  C   UNL A   1      32.271  26.387  24.244  1.00  0.00     0.147 C 
BRANCH   8   9
ATOM      9  C   UNL A   1      33.512  25.627  23.884  1.00  0.00    -0.014 C 
ATOM     10  C   UNL A   1      34.400  25.203  24.795  1.00  0.00     0.006 C 
ENDBRANCH   8   9
ENDBRANCH   7   8
BRANCH   7  11
ATOM     11  C   UNL A   1      31.148  27.509  22.380  1.00  0.00     0.255 C 
ATOM     12  O   UNL A   1      31.206  26.734  21.422  1.00  0.00    -0.269 OA
BRANCH  11  13
ATOM     13  C   UNL A   1      29.952  28.374  22.463  1.00  0.00     0.057 A 
ATOM     14  C   UNL A   1      30.080  29.697  22.015  1.00  0.00     0.061 A 
ATOM     15  C   UNL A   1      28.767  27.976  23.088  1.00  0.00     0.031 A 
ATOM     16  C   UNL A   1      29.010  30.587  22.151  1.00  0.00     0.119 A 
ATOM     17  C   UNL A   1      27.661  28.828  23.098  1.00  0.00     0.020 A 
ATOM     18  Br  UNL A   1      28.610  26.381  24.088  1.00  0.00    -0.050 Br
ATOM     19  C   UNL A   1      27.778  30.130  22.616  1.00  0.00     0.047 A 
BRANCH  16  20
ATOM     20  O   UNL A   1      29.250  31.894  21.822  1.00  0.00    -0.497 OA
ATOM     21  C   UNL A   1      28.102  32.736  21.966  1.00  0.00     0.278 C 
ENDBRANCH  16  20
ENDBRANCH  11  13
ENDBRANCH   7  11
ENDBRANCH   6   7
ENDBRANCH   3   6
ENDBRANCH   1   2
BRANCH   1  22
ATOM     22  C   UNL A   1      31.051  32.052  26.201  1.00  0.00     0.042 C 
BRANCH  22  23
ATOM     23  C   UNL A   1      32.333  32.508  26.892  1.00  0.00     0.118 C 
BRANCH  23  24
ATOM     24  N   UNL A   1      32.264  33.844  27.450  1.00  0.00    -0.352 N 
ATOM     25  C   UNL A   1      33.080  34.490  28.341  1.00  0.00     0.251 C 
ATOM     26  H   UNL A   1      31.499  34.379  27.137  1.00  0.00     0.163 HD
ATOM     27  O   UNL A   1      32.779  35.642  28.676  1.00  0.00    -0.269 OA
BRANCH  25  28
ATOM     28  C   UNL A   1      34.279  33.859  28.946  1.00  0.00     0.039 A 
ATOM     29  C   UNL A   1      34.066  32.823  29.864  1.00  0.00     0.014 A 
ATOM     30  C   UNL A   1      35.587  34.288  28.700  1.00  0.00     0.014 A 
ATOM     31  C   UNL A   1      35.145  32.196  30.494  1.00  0.00     0.010 A 
ATOM     32  C   UNL A   1      36.672  33.620  29.282  1.00  0.00     0.010 A 
ATOM     33  C   UNL A   1      36.461  32.573  30.193  1.00  0.00    -0.014 A 
BRANCH  33  34
ATOM     34  C   UNL A   1      37.607  31.879  30.842  1.00  0.00     0.031 A 
ATOM     35  C   UNL A   1      38.381  30.819  30.107  1.00  0.00     0.074 A 
ATOM     36  C   UNL A   1      37.953  32.199  32.105  1.00  0.00     0.049 A 
ATOM     37  N   UNL A   1      39.415  30.122  30.509  1.00  0.00    -0.248 NA
ATOM     38  C   UNL A   1      37.928  30.489  28.748  1.00  0.00     0.031 C 
ATOM     39  C   UNL A   1      37.267  33.180  32.947  1.00  0.00     0.029 A 
ATOM     40  N   UNL A   1      38.972  31.733  32.899  1.00  0.00    -0.354 N 
ATOM     41  C   UNL A   1      39.727  29.265  29.461  1.00  0.00     0.074 A 
ATOM     42  C   UNL A   1      38.750  29.501  28.421  1.00  0.00     0.031 C 
ATOM     43  C   UNL A   1      37.899  33.262  34.129  1.00  0.00     0.029 A 
ATOM     44  C   UNL A   1      39.017  32.323  34.140  1.00  0.00     0.049 A 
ATOM     45  H   UNL A   1      39.609  31.042  32.608  1.00  0.00     0.167 HD
ATOM     46  C   UNL A   1      40.746  28.377  29.364  1.00  0.00     0.037 A 
ATOM     47  C   UNL A   1      39.865  32.132  35.168  1.00  0.00     0.037 A 
ATOM     48  C   UNL A   1      41.739  28.156  30.382  1.00  0.00     0.049 A 
ATOM     49  C   UNL A   1      40.990  31.146  35.033  1.00  0.00     0.074 A 
ATOM     50  C   UNL A   1      42.841  27.317  30.344  1.00  0.00     0.029 A 
ATOM     51  N   UNL A   1      41.751  28.777  31.621  1.00  0.00    -0.354 N 
ATOM     52  N   UNL A   1      41.308  30.390  34.011  1.00  0.00    -0.248 NA
ATOM     53  C   UNL A   1      41.880  30.992  36.193  1.00  0.00     0.031 C 
ATOM     54  C   UNL A   1      43.504  27.410  31.574  1.00  0.00     0.029 A 
ATOM     55  C   UNL A   1      42.832  28.328  32.363  1.00  0.00     0.049 A 
ATOM     56  H   UNL A   1      41.090  29.438  31.928  1.00  0.00     0.167 HD
ATOM     57  C   UNL A   1      42.441  29.688  34.396  1.00  0.00     0.074 A 
ATOM     58  C   UNL A   1      42.767  30.117  35.740  1.00  0.00     0.031 C 
ATOM     59  C   UNL A   1      43.148  28.766  33.697  1.00  0.00     0.037 A 
BRANCH  46  60
ATOM     60  C   UNL A   1      40.842  27.577  28.099  1.00  0.00     0.057 A 
ATOM     61  C   UNL A   1      41.581  28.027  26.998  1.00  0.00     0.134 A 
ATOM     62  C   UNL A   1      40.220  26.326  27.994  1.00  0.00     0.134 A 
ATOM     63  F   UNL A   1      42.193  29.222  27.033  1.00  0.00    -0.206 F 
ATOM     64  C   UNL A   1      41.681  27.273  25.828  1.00  0.00     0.040 A 
ATOM     65  C   UNL A   1      40.331  25.553  26.836  1.00  0.00     0.040 A 
ATOM     66  F   UNL A   1      39.503  25.833  29.014  1.00  0.00    -0.206 F 
ATOM     67  C   UNL A   1      41.059  26.029  25.747  1.00  0.00     0.006 A 
ENDBRANCH  46  60
BRANCH  47  68
ATOM     68  C   UNL A   1      39.699  32.913  36.417  1.00  0.00     0.057 A 
ATOM     69  C   UNL A   1      38.788  32.513  37.403  1.00  0.00     0.134 A 
ATOM     70  C   UNL A   1      40.434  34.081  36.652  1.00  0.00     0.134 A 
ATOM     71  F   UNL A   1      38.042  31.414  37.224  1.00  0.00    -0.206 F 
ATOM     72  C   UNL A   1      38.603  33.255  38.570  1.00  0.00     0.040 A 
ATOM     73  C   UNL A   1      40.273  34.822  37.824  1.00  0.00     0.040 A 
ATOM     74  F   UNL A   1      41.322  34.515  35.746  1.00  0.00    -0.206 F 
ATOM     75  C   UNL A   1      39.350  34.411  38.785  1.00  0.00     0.006 A 
ENDBRANCH  47  68
BRANCH  59  76
ATOM     76  C   UNL A   1      44.354  28.178  34.367  1.00  0.00     0.057 A 
ATOM     77  C   UNL A   1      44.278  26.996  35.112  1.00  0.00     0.134 A 
ATOM     78  C   UNL A   1      45.608  28.788  34.242  1.00  0.00     0.134 A 
ATOM     79  F   UNL A   1      43.102  26.372  35.280  1.00  0.00    -0.206 F 
ATOM     80  C   UNL A   1      45.406  26.448  35.726  1.00  0.00     0.040 A 
ATOM     81  C   UNL A   1      46.747  28.240  34.835  1.00  0.00     0.040 A 
ATOM     82  F   UNL A   1      45.748  29.921  33.537  1.00  0.00    -0.206 F 
ATOM     83  C   UNL A   1      46.645  27.069  35.583  1.00  0.00     0.006 A 
ENDBRANCH  59  76
ENDBRANCH  33  34
ENDBRANCH  25  28
ENDBRANCH  23  24
ENDBRANCH  22  23
ENDBRANCH   1  22
TORSDOF 16
ENDMDL
MODEL 3
REMARK VINA RESULT:     -10.6      3.970      6.074
REMARK SMILES C=CCN(CC(=O)NCCCNC(=O)c1ccc(-c2c3nc(c(-c4c(F)cccc4F)c4ccc([nH]4)c(-c4c(F)cccc4F)c4nc(c(-c5c(F)cccc5F)c5ccc2[nH]5)C=C4)C=C3)cc1)C(=O)c1cc(OC)ccc1Br
REMARK SMILES IDX 9 1 8 2 6 3 7 4 5 6 4 7 3 8 2 9 1 10 69 11 70 12 71 13 72 14
REMARK SMILES IDX 78 15 73 16 77 17 79 18 76 19 74 20 75 21 10 22 11 23 12 24
REMARK SMILES IDX 13 25 14 27 15 28 16 29 68 30 17 31 67 32 18 33 19 34 20 35
REMARK SMILES IDX 61 36 21 37 66 38 60 39 62 40 22 41 65 42 59 43 58 44 23 46
REMARK SMILES IDX 49 47 32 48 48 49 33 50 36 51 47 52 63 53 34 54 35 55 46 57
REMARK SMILES IDX 64 58 37 59 24 60 25 61 30 62 26 63 27 64 29 65 31 66 28 67
REMARK SMILES IDX 50 68 51 69 56 70 52 71 53 72 55 73 57 74 54 75 38 76 39 77
REMARK SMILES IDX 44 78 40 79 41 80 43 81 45 82 42 83
REMARK H PARENT 8 5 12 26 62 45 36 56
REMARK Flexibility Score: inf
ROOT
ATOM      1  C   UNL A   1      33.062  27.699  24.747  1.00  0.00     0.117 C 
ENDROOT
BRANCH   1   2
ATOM      2  N   UNL A   1      33.630  27.269  23.484  1.00  0.00    -0.354 N 
ATOM      3  C   UNL A   1      33.136  26.465  22.499  1.00  0.00     0.239 C 
ATOM      4  O   UNL A   1      33.733  26.485  21.416  1.00  0.00    -0.273 OA
ATOM      5  H   UNL A   1      34.533  27.618  23.307  1.00  0.00     0.163 HD
BRANCH   3   6
ATOM      6  C   UNL A   1      31.835  25.655  22.643  1.00  0.00     0.220 C 
BRANCH   6   7
ATOM      7  N   UNL A   1      31.965  24.307  23.211  1.00  0.00    -0.326 N 
BRANCH   7   8
ATOM      8  C   UNL A   1      31.024  23.918  24.256  1.00  0.00     0.147 C 
BRANCH   8   9
ATOM      9  C   UNL A   1      31.338  24.627  25.539  1.00  0.00    -0.014 C 
ATOM     10  C   UNL A   1      31.789  23.994  26.632  1.00  0.00     0.006 C 
ENDBRANCH   8   9
ENDBRANCH   7   8
BRANCH   7  11
ATOM     11  C   UNL A   1      32.841  23.330  22.723  1.00  0.00     0.255 C 
ATOM     12  O   UNL A   1      33.278  23.328  21.570  1.00  0.00    -0.269 OA
BRANCH  11  13
ATOM     13  C   UNL A   1      33.334  22.264  23.621  1.00  0.00     0.057 A 
ATOM     14  C   UNL A   1      32.575  21.088  23.705  1.00  0.00     0.061 A 
ATOM     15  C   UNL A   1      34.424  22.436  24.479  1.00  0.00     0.031 A 
ATOM     16  C   UNL A   1      32.942  20.082  24.604  1.00  0.00     0.119 A 
ATOM     17  C   UNL A   1      34.862  21.375  25.274  1.00  0.00     0.020 A 
ATOM     18  Br  UNL A   1      35.268  24.103  24.758  1.00  0.00    -0.050 Br
ATOM     19  C   UNL A   1      34.129  20.193  25.326  1.00  0.00     0.047 A 
BRANCH  16  20
ATOM     20  O   UNL A   1      32.081  19.026  24.733  1.00  0.00    -0.497 OA
ATOM     21  C   UNL A   1      32.669  17.768  24.389  1.00  0.00     0.278 C 
ENDBRANCH  16  20
ENDBRANCH  11  13
ENDBRANCH   7  11
ENDBRANCH   6   7
ENDBRANCH   3   6
ENDBRANCH   1   2
BRANCH   1  22
ATOM     22  C   UNL A   1      34.087  27.966  25.846  1.00  0.00     0.042 C 
BRANCH  22  23
ATOM     23  C   UNL A   1      33.520  28.256  27.233  1.00  0.00     0.118 C 
BRANCH  23  24
ATOM     24  N   UNL A   1      33.444  29.667  27.561  1.00  0.00    -0.352 N 
ATOM     25  C   UNL A   1      34.389  30.529  28.051  1.00  0.00     0.251 C 
ATOM     26  H   UNL A   1      32.561  30.075  27.406  1.00  0.00     0.163 HD
ATOM     27  O   UNL A   1      34.052  31.699  28.268  1.00  0.00    -0.269 OA
BRANCH  25  28
ATOM     28  C   UNL A   1      35.778  30.113  28.367  1.00  0.00     0.039 A 
ATOM     29  C   UNL A   1      36.726  30.204  27.341  1.00  0.00     0.014 A 
ATOM     30  C   UNL A   1      36.164  29.579  29.601  1.00  0.00     0.014 A 
ATOM     31  C   UNL A   1      38.049  29.809  27.555  1.00  0.00     0.010 A 
ATOM     32  C   UNL A   1      37.503  29.242  29.837  1.00  0.00     0.010 A 
ATOM     33  C   UNL A   1      38.457  29.344  28.813  1.00  0.00    -0.014 A 
BRANCH  33  34
ATOM     34  C   UNL A   1      39.875  28.955  29.045  1.00  0.00     0.031 A 
ATOM     35  C   UNL A   1      40.822  29.885  29.755  1.00  0.00     0.074 A 
ATOM     36  C   UNL A   1      40.320  27.759  28.610  1.00  0.00     0.049 A 
ATOM     37  N   UNL A   1      42.084  29.707  30.057  1.00  0.00    -0.248 NA
ATOM     38  C   UNL A   1      40.285  31.189  30.168  1.00  0.00     0.031 C 
ATOM     39  C   UNL A   1      39.522  26.777  27.875  1.00  0.00     0.029 A 
ATOM     40  N   UNL A   1      41.554  27.167  28.726  1.00  0.00    -0.354 N 
ATOM     41  C   UNL A   1      42.494  30.878  30.683  1.00  0.00     0.074 A 
ATOM     42  C   UNL A   1      41.358  31.774  30.682  1.00  0.00     0.031 C 
ATOM     43  C   UNL A   1      40.277  25.694  27.629  1.00  0.00     0.029 A 
ATOM     44  C   UNL A   1      41.619  25.915  28.164  1.00  0.00     0.049 A 
ATOM     45  H   UNL A   1      42.319  27.598  29.169  1.00  0.00     0.167 HD
ATOM     46  C   UNL A   1      43.699  31.174  31.227  1.00  0.00     0.037 A 
ATOM     47  C   UNL A   1      42.640  25.041  28.091  1.00  0.00     0.037 A 
ATOM     48  C   UNL A   1      44.825  30.278  31.258  1.00  0.00     0.049 A 
ATOM     49  C   UNL A   1      43.965  25.390  28.708  1.00  0.00     0.074 A 
ATOM     50  C   UNL A   1      46.067  30.473  31.841  1.00  0.00     0.029 A 
ATOM     51  N   UNL A   1      44.847  29.018  30.682  1.00  0.00    -0.354 N 
ATOM     52  N   UNL A   1      44.315  26.477  29.351  1.00  0.00    -0.248 NA
ATOM     53  C   UNL A   1      45.034  24.388  28.595  1.00  0.00     0.031 C 
ATOM     54  C   UNL A   1      46.851  29.340  31.590  1.00  0.00     0.029 A 
ATOM     55  C   UNL A   1      46.086  28.430  30.881  1.00  0.00     0.049 A 
ATOM     56  H   UNL A   1      44.095  28.602  30.203  1.00  0.00     0.167 HD
ATOM     57  C   UNL A   1      45.635  26.281  29.734  1.00  0.00     0.074 A 
ATOM     58  C   UNL A   1      46.019  24.966  29.267  1.00  0.00     0.031 C 
ATOM     59  C   UNL A   1      46.456  27.119  30.413  1.00  0.00     0.037 A 
BRANCH  46  60
ATOM     60  C   UNL A   1      43.860  32.530  31.846  1.00  0.00     0.057 A 
ATOM     61  C   UNL A   1      44.293  33.633  31.101  1.00  0.00     0.134 A 
ATOM     62  C   UNL A   1      43.541  32.744  33.194  1.00  0.00     0.134 A 
ATOM     63  F   UNL A   1      44.624  33.491  29.807  1.00  0.00    -0.206 F 
ATOM     64  C   UNL A   1      44.427  34.898  31.677  1.00  0.00     0.040 A 
ATOM     65  C   UNL A   1      43.650  34.009  33.776  1.00  0.00     0.040 A 
ATOM     66  F   UNL A   1      43.112  31.732  33.962  1.00  0.00    -0.206 F 
ATOM     67  C   UNL A   1      44.099  35.089  33.017  1.00  0.00     0.006 A 
ENDBRANCH  46  60
BRANCH  47  68
ATOM     68  C   UNL A   1      42.446  23.730  27.425  1.00  0.00     0.057 A 
ATOM     69  C   UNL A   1      42.095  22.593  28.162  1.00  0.00     0.134 A 
ATOM     70  C   UNL A   1      42.617  23.579  26.045  1.00  0.00     0.134 A 
ATOM     71  F   UNL A   1      41.937  22.673  29.491  1.00  0.00    -0.206 F 
ATOM     72  C   UNL A   1      41.936  21.348  27.551  1.00  0.00     0.040 A 
ATOM     73  C   UNL A   1      42.442  22.344  25.418  1.00  0.00     0.040 A 
ATOM     74  F   UNL A   1      42.953  24.632  25.286  1.00  0.00    -0.206 F 
ATOM     75  C   UNL A   1      42.106  21.223  26.174  1.00  0.00     0.006 A 
ENDBRANCH  47  68
BRANCH  59  76
ATOM     76  C   UNL A   1      47.842  26.629  30.708  1.00  0.00     0.057 A 
ATOM     77  C   UNL A   1      48.906  26.861  29.829  1.00  0.00     0.134 A 
ATOM     78  C   UNL A   1      48.118  25.940  31.895  1.00  0.00     0.134 A 
ATOM     79  F   UNL A   1      48.702  27.504  28.669  1.00  0.00    -0.206 F 
ATOM     80  C   UNL A   1      50.197  26.410  30.112  1.00  0.00     0.040 A 
ATOM     81  C   UNL A   1      49.408  25.501  32.199  1.00  0.00     0.040 A 
ATOM     82  F   UNL A   1      47.143  25.689  32.781  1.00  0.00    -0.206 F 
ATOM     83  C   UNL A   1      50.450  25.732  31.303  1.00  0.00     0.006 A 
ENDBRANCH  59  76
ENDBRANCH  33  34
ENDBRANCH  25  28
ENDBRANCH  23  24
ENDBRANCH  22  23
ENDBRANCH   1  22
TORSDOF 16
ENDMDL
