MODEL 1
REMARK VINA RESULT:     -13.8      0.000      0.000
REMARK SMILES C[C@]12CC/C(=N\OCC(=O)NCCCNC(=O)c3ccc(-c4c5nc(c(-c6c(F)cccc6F)c6ccc([nH]6)c(-c6c(F)cccc6F)c6nc(c(-c7c(F)cccc7F)c7ccc4[nH]7)C=C6)C=C5)cc3)C=C1CC[C@@H]1[C@@H]2CC[C@]2(C)[C@H]1CC[C@]2(C)O
REMARK SMILES IDX 12 1 11 2 9 3 10 4 8 6 7 7 6 8 86 9 85 10 84 11 80 12 83 13
REMARK SMILES IDX 82 14 79 15 81 16 76 17 78 18 75 19 77 20 74 21 2 22 73 23
REMARK SMILES IDX 3 24 1 25 72 26 4 27 5 28 87 29 13 31 14 32 15 33 16 34
REMARK SMILES IDX 17 36 18 37 19 38 71 39 20 40 70 41 21 42 22 43 23 44 64 45
REMARK SMILES IDX 24 46 69 47 63 48 65 49 25 50 68 51 62 52 61 53 26 55 52 56
REMARK SMILES IDX 35 57 51 58 36 59 39 60 50 61 66 62 37 63 38 64 49 66 67 67
REMARK SMILES IDX 40 68 27 69 28 70 33 71 29 72 30 73 32 74 34 75 31 76 53 77
REMARK SMILES IDX 54 78 59 79 55 80 56 81 58 82 60 83 57 84 41 85 42 86 47 87
REMARK SMILES IDX 43 88 44 89 46 90 48 91 45 92
REMARK H PARENT 11 5 87 30 15 35 65 54 39 65
REMARK Flexibility Score: inf
ROOT
ATOM      1  C   UNL A   1      35.858  18.807  24.380  1.00  0.00     0.117 C 
ENDROOT
BRANCH   1   2
ATOM      2  N   UNL A   1      35.079  17.838  25.125  1.00  0.00    -0.353 N 
ATOM      3  C   UNL A   1      33.932  17.188  24.762  1.00  0.00     0.260 C 
ATOM      4  O   UNL A   1      33.461  16.363  25.549  1.00  0.00    -0.271 OA
ATOM      5  H   UNL A   1      35.424  17.617  26.021  1.00  0.00     0.163 HD
BRANCH   3   6
ATOM      6  C   UNL A   1      33.324  17.419  23.379  1.00  0.00     0.363 C 
BRANCH   6   7
ATOM      7  O   UNL A   1      32.270  18.359  23.325  1.00  0.00    -0.385 OA
BRANCH   7   8
ATOM      8  N   UNL A   1      32.272  19.137  24.492  1.00  0.00    -0.091 NA
ATOM      9  C   UNL A   1      30.896  28.714  23.079  1.00  0.00     0.042 C 
ATOM     10  C   UNL A   1      31.907  28.180  24.076  1.00  0.00     0.068 C 
ATOM     11  C   UNL A   1      32.595  29.011  25.200  1.00  0.00     0.036 C 
ATOM     12  C   UNL A   1      33.235  27.638  23.377  1.00  0.00    -0.001 C 
ATOM     13  C   UNL A   1      33.688  28.021  25.717  1.00  0.00     0.007 C 
ATOM     14  C   UNL A   1      33.878  26.942  24.616  1.00  0.00     0.001 C 
ATOM     15  C   UNL A   1      33.447  26.676  22.198  1.00  0.00     0.010 C 
ATOM     16  C   UNL A   1      33.905  28.937  22.782  1.00  0.00     0.015 C 
ATOM     17  C   UNL A   1      33.129  25.541  24.831  1.00  0.00    -0.003 C 
ATOM     18  C   UNL A   1      32.946  25.279  22.300  1.00  0.00     0.005 C 
ATOM     19  C   UNL A   1      33.336  24.800  26.157  1.00  0.00     0.008 C 
ATOM     20  C   UNL A   1      33.235  24.576  23.627  1.00  0.00     0.002 C 
ATOM     21  C   UNL A   1      32.280  23.682  26.280  1.00  0.00     0.032 C 
ATOM     22  C   UNL A   1      32.284  23.316  23.727  1.00  0.00    -0.008 C 
ATOM     23  C   UNL A   1      32.317  22.709  25.121  1.00  0.00    -0.062 C 
ATOM     24  C   UNL A   1      32.796  22.302  22.670  1.00  0.00     0.018 C 
ATOM     25  C   UNL A   1      30.789  23.640  23.420  1.00  0.00     0.016 C 
ATOM     26  C   UNL A   1      32.294  21.381  25.329  1.00  0.00     0.027 C 
ATOM     27  C   UNL A   1      32.180  20.928  22.787  1.00  0.00     0.061 C 
ATOM     28  C   UNL A   1      32.258  20.406  24.206  1.00  0.00     0.080 C 
BRANCH  10  29
ATOM     29  O   UNL A   1      31.069  27.326  24.868  1.00  0.00    -0.390 OA
ATOM     30  H   UNL A   1      30.956  27.711  25.751  1.00  0.00     0.211 HD
ENDBRANCH  10  29
ENDBRANCH   7   8
ENDBRANCH   6   7
ENDBRANCH   3   6
ENDBRANCH   1   2
BRANCH   1  31
ATOM     31  C   UNL A   1      35.880  20.182  25.044  1.00  0.00     0.042 C 
BRANCH  31  32
ATOM     32  C   UNL A   1      37.268  20.806  25.171  1.00  0.00     0.118 C 
BRANCH  32  33
ATOM     33  N   UNL A   1      38.322  19.826  25.404  1.00  0.00    -0.352 N 
ATOM     34  C   UNL A   1      39.603  19.997  25.863  1.00  0.00     0.251 C 
ATOM     35  H   UNL A   1      38.076  18.895  25.200  1.00  0.00     0.163 HD
ATOM     36  O   UNL A   1      40.387  19.041  25.852  1.00  0.00    -0.269 OA
BRANCH  34  37
ATOM     37  C   UNL A   1      40.071  21.314  26.341  1.00  0.00     0.039 A 
ATOM     38  C   UNL A   1      41.089  21.363  27.298  1.00  0.00     0.014 A 
ATOM     39  C   UNL A   1      39.509  22.500  25.865  1.00  0.00     0.014 A 
ATOM     40  C   UNL A   1      41.599  22.596  27.713  1.00  0.00     0.010 A 
ATOM     41  C   UNL A   1      40.067  23.726  26.221  1.00  0.00     0.010 A 
ATOM     42  C   UNL A   1      41.126  23.789  27.142  1.00  0.00    -0.014 A 
BRANCH  42  43
ATOM     43  C   UNL A   1      41.734  25.107  27.469  1.00  0.00     0.031 A 
ATOM     44  C   UNL A   1      40.963  26.127  28.258  1.00  0.00     0.074 A 
ATOM     45  C   UNL A   1      42.962  25.415  27.005  1.00  0.00     0.049 A 
ATOM     46  N   UNL A   1      41.278  27.368  28.533  1.00  0.00    -0.248 NA
ATOM     47  C   UNL A   1      39.663  25.702  28.797  1.00  0.00     0.031 C 
ATOM     48  C   UNL A   1      43.822  24.511  26.244  1.00  0.00     0.029 A 
ATOM     49  N   UNL A   1      43.700  26.571  27.106  1.00  0.00    -0.354 N 
ATOM     50  C   UNL A   1      40.208  27.877  29.256  1.00  0.00     0.074 A 
ATOM     51  C   UNL A   1      39.219  26.824  29.344  1.00  0.00     0.031 C 
ATOM     52  C   UNL A   1      44.989  25.124  25.997  1.00  0.00     0.029 A 
ATOM     53  C   UNL A   1      44.929  26.498  26.493  1.00  0.00     0.049 A 
ATOM     54  H   UNL A   1      43.379  27.375  27.574  1.00  0.00     0.167 HD
ATOM     55  C   UNL A   1      40.069  29.105  29.809  1.00  0.00     0.037 A 
ATOM     56  C   UNL A   1      45.884  27.435  26.318  1.00  0.00     0.037 A 
ATOM     57  C   UNL A   1      41.066  30.141  29.750  1.00  0.00     0.049 A 
ATOM     58  C   UNL A   1      45.639  28.831  26.831  1.00  0.00     0.074 A 
ATOM     59  C   UNL A   1      41.044  31.389  30.347  1.00  0.00     0.029 A 
ATOM     60  N   UNL A   1      42.257  30.057  29.046  1.00  0.00    -0.354 N 
ATOM     61  N   UNL A   1      44.645  29.283  27.556  1.00  0.00    -0.248 NA
ATOM     62  C   UNL A   1      46.639  29.854  26.486  1.00  0.00     0.031 C 
ATOM     63  C   UNL A   1      42.191  32.085  29.953  1.00  0.00     0.029 A 
ATOM     64  C   UNL A   1      42.958  31.247  29.162  1.00  0.00     0.049 A 
ATOM     65  H   UNL A   1      42.561  29.270  28.539  1.00  0.00     0.167 HD
ATOM     66  C   UNL A   1      44.936  30.618  27.813  1.00  0.00     0.074 A 
ATOM     67  C   UNL A   1      46.192  30.907  27.156  1.00  0.00     0.031 C 
ATOM     68  C   UNL A   1      44.230  31.517  28.541  1.00  0.00     0.037 A 
BRANCH  55  69
ATOM     69  C   UNL A   1      38.786  29.407  30.525  1.00  0.00     0.057 A 
ATOM     70  C   UNL A   1      38.612  29.135  31.887  1.00  0.00     0.134 A 
ATOM     71  C   UNL A   1      37.732  30.038  29.851  1.00  0.00     0.134 A 
ATOM     72  F   UNL A   1      39.580  28.523  32.587  1.00  0.00    -0.206 F 
ATOM     73  C   UNL A   1      37.428  29.464  32.550  1.00  0.00     0.040 A 
ATOM     74  C   UNL A   1      36.556  30.398  30.510  1.00  0.00     0.040 A 
ATOM     75  F   UNL A   1      37.836  30.334  28.546  1.00  0.00    -0.206 F 
ATOM     76  C   UNL A   1      36.401  30.106  31.863  1.00  0.00     0.006 A 
ENDBRANCH  55  69
BRANCH  56  77
ATOM     77  C   UNL A   1      47.153  27.096  25.612  1.00  0.00     0.057 A 
ATOM     78  C   UNL A   1      48.216  26.460  26.264  1.00  0.00     0.134 A 
ATOM     79  C   UNL A   1      47.340  27.400  24.261  1.00  0.00     0.134 A 
ATOM     80  F   UNL A   1      48.115  26.134  27.561  1.00  0.00    -0.206 F 
ATOM     81  C   UNL A   1      49.421  26.176  25.613  1.00  0.00     0.040 A 
ATOM     82  C   UNL A   1      48.505  27.045  23.580  1.00  0.00     0.040 A 
ATOM     83  F   UNL A   1      46.376  28.028  23.573  1.00  0.00    -0.206 F 
ATOM     84  C   UNL A   1      49.565  26.464  24.261  1.00  0.00     0.006 A 
ENDBRANCH  56  77
BRANCH  68  85
ATOM     85  C   UNL A   1      44.840  32.873  28.755  1.00  0.00     0.057 A 
ATOM     86  C   UNL A   1      44.551  33.965  27.929  1.00  0.00     0.134 A 
ATOM     87  C   UNL A   1      45.701  33.093  29.840  1.00  0.00     0.134 A 
ATOM     88  F   UNL A   1      43.749  33.820  26.864  1.00  0.00    -0.206 F 
ATOM     89  C   UNL A   1      45.111  35.223  28.163  1.00  0.00     0.040 A 
ATOM     90  C   UNL A   1      46.242  34.352  30.101  1.00  0.00     0.040 A 
ATOM     91  F   UNL A   1      46.014  32.092  30.677  1.00  0.00    -0.206 F 
ATOM     92  C   UNL A   1      45.952  35.421  29.257  1.00  0.00     0.006 A 
ENDBRANCH  68  85
ENDBRANCH  42  43
ENDBRANCH  34  37
ENDBRANCH  32  33
ENDBRANCH  31  32
ENDBRANCH   1  31
TORSDOF 13
ENDMDL
MODEL 2
REMARK VINA RESULT:     -13.8      4.622     10.082
REMARK SMILES C[C@]12CC/C(=N\OCC(=O)NCCCNC(=O)c3ccc(-c4c5nc(c(-c6c(F)cccc6F)c6ccc([nH]6)c(-c6c(F)cccc6F)c6nc(c(-c7c(F)cccc7F)c7ccc4[nH]7)C=C6)C=C5)cc3)C=C1CC[C@@H]1[C@@H]2CC[C@]2(C)[C@H]1CC[C@]2(C)O
REMARK SMILES IDX 12 1 11 2 9 3 10 4 8 6 7 7 6 8 86 9 85 10 84 11 80 12 83 13
REMARK SMILES IDX 82 14 79 15 81 16 76 17 78 18 75 19 77 20 74 21 2 22 73 23
REMARK SMILES IDX 3 24 1 25 72 26 4 27 5 28 87 29 13 31 14 32 15 33 16 34
REMARK SMILES IDX 17 36 18 37 19 38 71 39 20 40 70 41 21 42 22 43 23 44 64 45
REMARK SMILES IDX 24 46 69 47 63 48 65 49 25 50 68 51 62 52 61 53 26 55 52 56
REMARK SMILES IDX 35 57 51 58 36 59 39 60 50 61 66 62 37 63 38 64 49 66 67 67
REMARK SMILES IDX 40 68 27 69 28 70 33 71 29 72 30 73 32 74 34 75 31 76 53 77
REMARK SMILES IDX 54 78 59 79 55 80 56 81 58 82 60 83 57 84 41 85 42 86 47 87
REMARK SMILES IDX 43 88 44 89 46 90 48 91 45 92
REMARK H PARENT 11 5 87 30 15 35 65 54 39 65
REMARK Flexibility Score: inf
ROOT
ATOM      1  C   UNL A   1      30.584  31.232  25.058  1.00  0.00     0.117 C 
ENDROOT
BRANCH   1   2
ATOM      2  N   UNL A   1      29.885  32.125  24.155  1.00  0.00    -0.353 N 
ATOM      3  C   UNL A   1      28.752  31.900  23.422  1.00  0.00     0.260 C 
ATOM      4  O   UNL A   1      28.307  32.831  22.746  1.00  0.00    -0.271 OA
ATOM      5  H   UNL A   1      30.282  33.021  24.055  1.00  0.00     0.163 HD
BRANCH   3   6
ATOM      6  C   UNL A   1      28.024  30.561  23.527  1.00  0.00     0.363 C 
BRANCH   6   7
ATOM      7  O   UNL A   1      28.134  29.716  22.398  1.00  0.00    -0.385 OA
BRANCH   7   8
ATOM      8  N   UNL A   1      29.486  29.479  22.117  1.00  0.00    -0.091 NA
ATOM      9  C   UNL A   1      32.876  20.809  25.108  1.00  0.00     0.042 C 
ATOM     10  C   UNL A   1      33.682  22.086  25.248  1.00  0.00     0.068 C 
ATOM     11  C   UNL A   1      35.208  22.162  25.555  1.00  0.00     0.036 C 
ATOM     12  C   UNL A   1      33.182  23.001  26.454  1.00  0.00    -0.001 C 
ATOM     13  C   UNL A   1      35.411  23.687  25.829  1.00  0.00     0.007 C 
ATOM     14  C   UNL A   1      34.008  24.283  26.126  1.00  0.00     0.001 C 
ATOM     15  C   UNL A   1      31.781  23.494  26.849  1.00  0.00     0.010 C 
ATOM     16  C   UNL A   1      33.537  22.159  27.741  1.00  0.00     0.015 C 
ATOM     17  C   UNL A   1      33.270  25.044  24.923  1.00  0.00    -0.003 C 
ATOM     18  C   UNL A   1      31.017  24.349  25.900  1.00  0.00     0.005 C 
ATOM     19  C   UNL A   1      34.028  26.153  24.188  1.00  0.00     0.008 C 
ATOM     20  C   UNL A   1      31.818  25.473  25.243  1.00  0.00     0.002 C 
ATOM     21  C   UNL A   1      33.279  26.498  22.884  1.00  0.00     0.032 C 
ATOM     22  C   UNL A   1      31.005  25.978  23.984  1.00  0.00    -0.008 C 
ATOM     23  C   UNL A   1      31.843  26.912  23.123  1.00  0.00    -0.062 C 
ATOM     24  C   UNL A   1      29.755  26.711  24.540  1.00  0.00     0.018 C 
ATOM     25  C   UNL A   1      30.527  24.824  23.050  1.00  0.00     0.016 C 
ATOM     26  C   UNL A   1      31.326  28.003  22.532  1.00  0.00     0.027 C 
ATOM     27  C   UNL A   1      28.986  27.491  23.501  1.00  0.00     0.061 C 
ATOM     28  C   UNL A   1      29.900  28.390  22.695  1.00  0.00     0.080 C 
BRANCH  10  29
ATOM     29  O   UNL A   1      33.673  22.553  23.892  1.00  0.00    -0.390 OA
ATOM     30  H   UNL A   1      32.870  23.074  23.734  1.00  0.00     0.211 HD
ENDBRANCH  10  29
ENDBRANCH   7   8
ENDBRANCH   6   7
ENDBRANCH   3   6
ENDBRANCH   1   2
BRANCH   1  31
ATOM     31  C   UNL A   1      30.823  31.853  26.432  1.00  0.00     0.042 C 
BRANCH  31  32
ATOM     32  C   UNL A   1      32.200  32.487  26.615  1.00  0.00     0.118 C 
BRANCH  32  33
ATOM     33  N   UNL A   1      32.153  33.798  27.252  1.00  0.00    -0.352 N 
ATOM     34  C   UNL A   1      32.945  34.334  28.234  1.00  0.00     0.251 C 
ATOM     35  H   UNL A   1      31.439  34.392  26.924  1.00  0.00     0.163 HD
ATOM     36  O   UNL A   1      32.641  35.422  28.735  1.00  0.00    -0.269 OA
BRANCH  34  37
ATOM     37  C   UNL A   1      34.139  33.617  28.724  1.00  0.00     0.039 A 
ATOM     38  C   UNL A   1      35.398  34.199  28.548  1.00  0.00     0.014 A 
ATOM     39  C   UNL A   1      34.032  32.370  29.346  1.00  0.00     0.014 A 
ATOM     40  C   UNL A   1      36.535  33.575  29.067  1.00  0.00     0.010 A 
ATOM     41  C   UNL A   1      35.155  31.786  29.929  1.00  0.00     0.010 A 
ATOM     42  C   UNL A   1      36.419  32.386  29.806  1.00  0.00    -0.014 A 
BRANCH  42  43
ATOM     43  C   UNL A   1      37.593  31.765  30.478  1.00  0.00     0.031 A 
ATOM     44  C   UNL A   1      38.416  30.729  29.768  1.00  0.00     0.074 A 
ATOM     45  C   UNL A   1      37.885  32.088  31.754  1.00  0.00     0.049 A 
ATOM     46  N   UNL A   1      39.394  29.992  30.232  1.00  0.00    -0.248 NA
ATOM     47  C   UNL A   1      38.090  30.477  28.357  1.00  0.00     0.031 C 
ATOM     48  C   UNL A   1      37.179  33.089  32.549  1.00  0.00     0.029 A 
ATOM     49  N   UNL A   1      38.855  31.610  32.604  1.00  0.00    -0.354 N 
ATOM     50  C   UNL A   1      39.784  29.176  29.179  1.00  0.00     0.074 A 
ATOM     51  C   UNL A   1      38.913  29.480  28.064  1.00  0.00     0.031 C 
ATOM     52  C   UNL A   1      37.771  33.192  33.748  1.00  0.00     0.029 A 
ATOM     53  C   UNL A   1      38.837  32.198  33.847  1.00  0.00     0.049 A 
ATOM     54  H   UNL A   1      39.501  30.914  32.347  1.00  0.00     0.167 HD
ATOM     55  C   UNL A   1      40.787  28.267  29.141  1.00  0.00     0.037 A 
ATOM     56  C   UNL A   1      39.569  31.944  34.953  1.00  0.00     0.037 A 
ATOM     57  C   UNL A   1      41.675  27.988  30.239  1.00  0.00     0.049 A 
ATOM     58  C   UNL A   1      40.587  30.833  34.915  1.00  0.00     0.074 A 
ATOM     59  C   UNL A   1      42.768  27.139  30.264  1.00  0.00     0.029 A 
ATOM     60  N   UNL A   1      41.568  28.540  31.505  1.00  0.00    -0.354 N 
ATOM     61  N   UNL A   1      40.980  30.105  33.898  1.00  0.00    -0.248 NA
ATOM     62  C   UNL A   1      41.253  30.494  36.182  1.00  0.00     0.031 C 
ATOM     63  C   UNL A   1      43.283  27.128  31.564  1.00  0.00     0.029 A 
ATOM     64  C   UNL A   1      42.551  28.019  32.331  1.00  0.00     0.049 A 
ATOM     65  H   UNL A   1      40.894  29.204  31.779  1.00  0.00     0.167 HD
ATOM     66  C   UNL A   1      41.983  29.277  34.385  1.00  0.00     0.074 A 
ATOM     67  C   UNL A   1      42.132  29.581  35.792  1.00  0.00     0.031 C 
ATOM     68  C   UNL A   1      42.724  28.356  33.721  1.00  0.00     0.037 A 
BRANCH  55  69
ATOM     69  C   UNL A   1      40.980  27.494  27.869  1.00  0.00     0.057 A 
ATOM     70  C   UNL A   1      41.826  27.942  26.847  1.00  0.00     0.134 A 
ATOM     71  C   UNL A   1      40.357  26.251  27.696  1.00  0.00     0.134 A 
ATOM     72  F   UNL A   1      42.444  29.129  26.948  1.00  0.00    -0.206 F 
ATOM     73  C   UNL A   1      42.031  27.190  25.689  1.00  0.00     0.040 A 
ATOM     74  C   UNL A   1      40.577  25.478  26.556  1.00  0.00     0.040 A 
ATOM     75  F   UNL A   1      39.540  25.760  28.640  1.00  0.00    -0.206 F 
ATOM     76  C   UNL A   1      41.413  25.950  25.546  1.00  0.00     0.006 A 
ENDBRANCH  55  69
BRANCH  56  77
ATOM     77  C   UNL A   1      39.359  32.741  36.196  1.00  0.00     0.057 A 
ATOM     78  C   UNL A   1      40.049  33.935  36.435  1.00  0.00     0.134 A 
ATOM     79  C   UNL A   1      38.460  32.329  37.183  1.00  0.00     0.134 A 
ATOM     80  F   UNL A   1      40.928  34.399  35.537  1.00  0.00    -0.206 F 
ATOM     81  C   UNL A   1      39.880  34.663  37.618  1.00  0.00     0.040 A 
ATOM     82  C   UNL A   1      38.221  33.090  38.328  1.00  0.00     0.040 A 
ATOM     83  F   UNL A   1      37.777  31.184  37.036  1.00  0.00    -0.206 F 
ATOM     84  C   UNL A   1      38.957  34.243  38.568  1.00  0.00     0.006 A 
ENDBRANCH  56  77
BRANCH  68  85
ATOM     85  C   UNL A   1      43.832  27.678  34.475  1.00  0.00     0.057 A 
ATOM     86  C   UNL A   1      45.106  28.243  34.605  1.00  0.00     0.134 A 
ATOM     87  C   UNL A   1      43.598  26.455  35.120  1.00  0.00     0.134 A 
ATOM     88  F   UNL A   1      45.402  29.402  33.999  1.00  0.00    -0.206 F 
ATOM     89  C   UNL A   1      46.114  27.605  35.332  1.00  0.00     0.040 A 
ATOM     90  C   UNL A   1      44.587  25.825  35.874  1.00  0.00     0.040 A 
ATOM     91  F   UNL A   1      42.396  25.864  35.044  1.00  0.00    -0.206 F 
ATOM     92  C   UNL A   1      45.853  26.397  35.977  1.00  0.00     0.006 A 
ENDBRANCH  68  85
ENDBRANCH  42  43
ENDBRANCH  34  37
ENDBRANCH  32  33
ENDBRANCH  31  32
ENDBRANCH   1  31
TORSDOF 13
ENDMDL
MODEL 3
REMARK VINA RESULT:     -13.5      0.324      6.019
REMARK SMILES C[C@]12CC/C(=N\OCC(=O)NCCCNC(=O)c3ccc(-c4c5nc(c(-c6c(F)cccc6F)c6ccc([nH]6)c(-c6c(F)cccc6F)c6nc(c(-c7c(F)cccc7F)c7ccc4[nH]7)C=C6)C=C5)cc3)C=C1CC[C@@H]1[C@@H]2CC[C@]2(C)[C@H]1CC[C@]2(C)O
REMARK SMILES IDX 12 1 11 2 9 3 10 4 8 6 7 7 6 8 86 9 85 10 84 11 80 12 83 13
REMARK SMILES IDX 82 14 79 15 81 16 76 17 78 18 75 19 77 20 74 21 2 22 73 23
REMARK SMILES IDX 3 24 1 25 72 26 4 27 5 28 87 29 13 31 14 32 15 33 16 34
REMARK SMILES IDX 17 36 18 37 19 38 71 39 20 40 70 41 21 42 22 43 23 44 64 45
REMARK SMILES IDX 24 46 69 47 63 48 65 49 25 50 68 51 62 52 61 53 26 55 52 56
REMARK SMILES IDX 35 57 51 58 36 59 39 60 50 61 66 62 37 63 38 64 49 66 67 67
REMARK SMILES IDX 40 68 27 69 28 70 33 71 29 72 30 73 32 74 34 75 31 76 53 77
REMARK SMILES IDX 54 78 59 79 55 80 56 81 58 82 60 83 57 84 41 85 42 86 47 87
REMARK SMILES IDX 43 88 44 89 46 90 48 91 45 92
REMARK H PARENT 11 5 87 30 15 35 65 54 39 65
REMARK Flexibility Score: inf
ROOT
ATOM      1  C   UNL A   1      35.766  18.801  24.263  1.00  0.00     0.117 C 
ENDROOT
BRANCH   1   2
ATOM      2  N   UNL A   1      35.040  17.797  25.016  1.00  0.00    -0.353 N 
ATOM      3  C   UNL A   1      33.916  17.100  24.667  1.00  0.00     0.260 C 
ATOM      4  O   UNL A   1      33.492  16.253  25.458  1.00  0.00    -0.271 OA
ATOM      5  H   UNL A   1      35.408  17.587  25.905  1.00  0.00     0.163 HD
BRANCH   3   6
ATOM      6  C   UNL A   1      33.278  17.311  23.295  1.00  0.00     0.363 C 
BRANCH   6   7
ATOM      7  O   UNL A   1      32.309  18.339  23.224  1.00  0.00    -0.385 OA
BRANCH   7   8
ATOM      8  N   UNL A   1      32.331  19.089  24.407  1.00  0.00    -0.091 NA
ATOM      9  C   UNL A   1      30.711  28.664  23.265  1.00  0.00     0.042 C 
ATOM     10  C   UNL A   1      31.763  28.129  24.218  1.00  0.00     0.068 C 
ATOM     11  C   UNL A   1      32.467  28.949  25.341  1.00  0.00     0.036 C 
ATOM     12  C   UNL A   1      33.080  27.633  23.468  1.00  0.00    -0.001 C 
ATOM     13  C   UNL A   1      33.596  27.970  25.802  1.00  0.00     0.007 C 
ATOM     14  C   UNL A   1      33.774  26.923  24.670  1.00  0.00     0.001 C 
ATOM     15  C   UNL A   1      33.277  26.703  22.260  1.00  0.00     0.010 C 
ATOM     16  C   UNL A   1      33.705  28.959  22.884  1.00  0.00     0.015 C 
ATOM     17  C   UNL A   1      33.062  25.501  24.874  1.00  0.00    -0.003 C 
ATOM     18  C   UNL A   1      32.809  25.293  22.344  1.00  0.00     0.005 C 
ATOM     19  C   UNL A   1      33.325  24.734  26.175  1.00  0.00     0.008 C 
ATOM     20  C   UNL A   1      33.152  24.566  23.645  1.00  0.00     0.002 C 
ATOM     21  C   UNL A   1      32.297  23.590  26.303  1.00  0.00     0.032 C 
ATOM     22  C   UNL A   1      32.231  23.284  23.742  1.00  0.00    -0.008 C 
ATOM     23  C   UNL A   1      32.319  22.645  25.121  1.00  0.00    -0.062 C 
ATOM     24  C   UNL A   1      32.732  22.306  22.647  1.00  0.00     0.018 C 
ATOM     25  C   UNL A   1      30.722  23.583  23.488  1.00  0.00     0.016 C 
ATOM     26  C   UNL A   1      32.331  21.313  25.297  1.00  0.00     0.027 C 
ATOM     27  C   UNL A   1      32.150  20.916  22.749  1.00  0.00     0.061 C 
ATOM     28  C   UNL A   1      32.281  20.364  24.153  1.00  0.00     0.080 C 
BRANCH  10  29
ATOM     29  O   UNL A   1      30.967  27.239  25.015  1.00  0.00    -0.390 OA
ATOM     30  H   UNL A   1      30.339  27.753  25.546  1.00  0.00     0.211 HD
ENDBRANCH  10  29
ENDBRANCH   7   8
ENDBRANCH   6   7
ENDBRANCH   3   6
ENDBRANCH   1   2
BRANCH   1  31
ATOM     31  C   UNL A   1      35.866  20.133  25.002  1.00  0.00     0.042 C 
BRANCH  31  32
ATOM     32  C   UNL A   1      37.254  20.770  24.982  1.00  0.00     0.118 C 
BRANCH  32  33
ATOM     33  N   UNL A   1      38.327  19.826  25.274  1.00  0.00    -0.352 N 
ATOM     34  C   UNL A   1      39.593  20.046  25.752  1.00  0.00     0.251 C 
ATOM     35  H   UNL A   1      38.107  18.882  25.101  1.00  0.00     0.163 HD
ATOM     36  O   UNL A   1      40.399  19.110  25.794  1.00  0.00    -0.269 OA
BRANCH  34  37
ATOM     37  C   UNL A   1      40.019  21.391  26.189  1.00  0.00     0.039 A 
ATOM     38  C   UNL A   1      41.246  21.533  26.844  1.00  0.00     0.014 A 
ATOM     39  C   UNL A   1      39.215  22.513  25.971  1.00  0.00     0.014 A 
ATOM     40  C   UNL A   1      41.704  22.803  27.202  1.00  0.00     0.010 A 
ATOM     41  C   UNL A   1      39.705  23.785  26.260  1.00  0.00     0.010 A 
ATOM     42  C   UNL A   1      40.960  23.947  26.870  1.00  0.00    -0.014 A 
BRANCH  42  43
ATOM     43  C   UNL A   1      41.478  25.319  27.124  1.00  0.00     0.031 A 
ATOM     44  C   UNL A   1      42.854  25.710  26.665  1.00  0.00     0.074 A 
ATOM     45  C   UNL A   1      40.735  26.199  27.825  1.00  0.00     0.049 A 
ATOM     46  N   UNL A   1      43.520  26.812  26.902  1.00  0.00    -0.248 NA
ATOM     47  C   UNL A   1      43.581  24.731  25.845  1.00  0.00     0.031 C 
ATOM     48  C   UNL A   1      39.379  25.952  28.311  1.00  0.00     0.029 A 
ATOM     49  N   UNL A   1      41.012  27.478  28.246  1.00  0.00    -0.354 N 
ATOM     50  C   UNL A   1      44.750  26.650  26.280  1.00  0.00     0.074 A 
ATOM     51  C   UNL A   1      44.753  25.329  25.688  1.00  0.00     0.031 C 
ATOM     52  C   UNL A   1      38.923  27.060  28.913  1.00  0.00     0.029 A 
ATOM     53  C   UNL A   1      39.984  28.064  28.945  1.00  0.00     0.049 A 
ATOM     54  H   UNL A   1      41.867  27.931  28.063  1.00  0.00     0.167 HD
ATOM     55  C   UNL A   1      45.777  27.529  26.196  1.00  0.00     0.037 A 
ATOM     56  C   UNL A   1      39.912  29.258  29.572  1.00  0.00     0.037 A 
ATOM     57  C   UNL A   1      45.762  28.854  26.756  1.00  0.00     0.049 A 
ATOM     58  C   UNL A   1      41.122  30.156  29.572  1.00  0.00     0.074 A 
ATOM     59  C   UNL A   1      46.727  29.841  26.654  1.00  0.00     0.029 A 
ATOM     60  N   UNL A   1      44.738  29.377  27.530  1.00  0.00    -0.354 N 
ATOM     61  N   UNL A   1      42.260  30.012  28.937  1.00  0.00    -0.248 NA
ATOM     62  C   UNL A   1      41.048  31.376  30.391  1.00  0.00     0.031 C 
ATOM     63  C   UNL A   1      46.317  30.936  27.420  1.00  0.00     0.029 A 
ATOM     64  C   UNL A   1      45.067  30.657  27.946  1.00  0.00     0.049 A 
ATOM     65  H   UNL A   1      43.901  28.908  27.753  1.00  0.00     0.167 HD
ATOM     66  C   UNL A   1      43.004  31.150  29.221  1.00  0.00     0.074 A 
ATOM     67  C   UNL A   1      42.196  31.971  30.096  1.00  0.00     0.031 C 
ATOM     68  C   UNL A   1      44.241  31.489  28.783  1.00  0.00     0.037 A 
BRANCH  55  69
ATOM     69  C   UNL A   1      47.018  27.086  25.478  1.00  0.00     0.057 A 
ATOM     70  C   UNL A   1      47.292  27.471  24.160  1.00  0.00     0.134 A 
ATOM     71  C   UNL A   1      47.981  26.313  26.140  1.00  0.00     0.134 A 
ATOM     72  F   UNL A   1      46.405  28.203  23.467  1.00  0.00    -0.206 F 
ATOM     73  C   UNL A   1      48.472  27.089  23.520  1.00  0.00     0.040 A 
ATOM     74  C   UNL A   1      49.177  25.950  25.520  1.00  0.00     0.040 A 
ATOM     75  F   UNL A   1      47.784  25.917  27.407  1.00  0.00    -0.206 F 
ATOM     76  C   UNL A   1      49.422  26.334  24.204  1.00  0.00     0.006 A 
ENDBRANCH  55  69
BRANCH  56  77
ATOM     77  C   UNL A   1      38.658  29.671  30.265  1.00  0.00     0.057 A 
ATOM     78  C   UNL A   1      37.664  30.414  29.618  1.00  0.00     0.134 A 
ATOM     79  C   UNL A   1      38.418  29.334  31.600  1.00  0.00     0.134 A 
ATOM     80  F   UNL A   1      37.818  30.777  28.337  1.00  0.00    -0.206 F 
ATOM     81  C   UNL A   1      36.505  30.835  30.279  1.00  0.00     0.040 A 
ATOM     82  C   UNL A   1      37.228  29.675  32.244  1.00  0.00     0.040 A 
ATOM     83  F   UNL A   1      39.333  28.641  32.294  1.00  0.00    -0.206 F 
ATOM     84  C   UNL A   1      36.282  30.458  31.599  1.00  0.00     0.006 A 
ENDBRANCH  56  77
BRANCH  68  85
ATOM     85  C   UNL A   1      44.764  32.847  29.156  1.00  0.00     0.057 A 
ATOM     86  C   UNL A   1      44.511  33.987  28.384  1.00  0.00     0.134 A 
ATOM     87  C   UNL A   1      45.498  33.017  30.339  1.00  0.00     0.134 A 
ATOM     88  F   UNL A   1      43.829  33.893  27.233  1.00  0.00    -0.206 F 
ATOM     89  C   UNL A   1      44.987  35.244  28.765  1.00  0.00     0.040 A 
ATOM     90  C   UNL A   1      45.952  34.272  30.744  1.00  0.00     0.040 A 
ATOM     91  F   UNL A   1      45.768  31.968  31.130  1.00  0.00    -0.206 F 
ATOM     92  C   UNL A   1      45.702  35.390  29.953  1.00  0.00     0.006 A 
ENDBRANCH  68  85
ENDBRANCH  42  43
ENDBRANCH  34  37
ENDBRANCH  32  33
ENDBRANCH  31  32
ENDBRANCH   1  31
TORSDOF 13
ENDMDL
