MODEL 1
REMARK VINA RESULT:     -12.4      0.000      0.000
REMARK SMILES O=C(NCCCNC(=O)c1cn(C2CC2)c2cc(N3CC[NH2+]CC3)ccc2c1=O)c1ccc(-c2c3nc(c(-c4c(F)cccc4F)c4ccc([nH]4)c(-c4c(F)cccc4F)c4nc(c(-c5c(F)cccc5F)c5ccc2[nH]5)C=C4)C=C3)cc1
REMARK SMILES IDX 4 1 3 2 1 3 2 4 30 6 31 7 83 8 32 9 82 10 33 11 34 12 35 13
REMARK SMILES IDX 76 14 36 15 81 16 75 17 77 18 37 19 80 20 74 21 73 22 38 24
REMARK SMILES IDX 64 25 47 26 63 27 48 28 51 29 62 30 78 31 49 32 50 33 61 35
REMARK SMILES IDX 79 36 52 37 39 38 40 39 45 40 41 41 42 42 44 43 46 44 43 45
REMARK SMILES IDX 65 46 66 47 71 48 67 49 68 50 70 51 72 52 69 53 53 54 54 55
REMARK SMILES IDX 59 56 55 57 56 58 58 59 60 60 57 61 5 62 6 63 7 64 8 65 9 67
REMARK SMILES IDX 10 68 11 69 28 70 12 71 27 72 29 73 16 74 26 75 17 76 25 77
REMARK SMILES IDX 18 78 13 79 14 80 15 81 19 82 20 83 24 84 21 85 23 86 22 87
REMARK H PARENT 3 5 77 23 51 34 7 66 22 88 22 89
REMARK Flexibility Score: inf
ROOT
ATOM      1  C   UNL A   1      33.399  28.420  27.266  1.00  0.00     0.118 C 
ENDROOT
BRANCH   1   2
ATOM      2  N   UNL A   1      33.495  29.838  27.581  1.00  0.00    -0.352 N 
ATOM      3  O   UNL A   1      34.282  31.723  28.499  1.00  0.00    -0.269 OA
ATOM      4  C   UNL A   1      34.511  30.570  28.138  1.00  0.00     0.251 C 
ATOM      5  H   UNL A   1      32.692  30.361  27.355  1.00  0.00     0.163 HD
BRANCH   4   6
ATOM      6  C   UNL A   1      35.873  30.012  28.305  1.00  0.00     0.039 A 
ATOM      7  C   UNL A   1      36.225  29.470  29.547  1.00  0.00     0.014 A 
ATOM      8  C   UNL A   1      36.838  30.118  27.301  1.00  0.00     0.014 A 
ATOM      9  C   UNL A   1      37.531  29.026  29.779  1.00  0.00     0.010 A 
ATOM     10  C   UNL A   1      38.121  29.613  27.508  1.00  0.00     0.010 A 
ATOM     11  C   UNL A   1      38.488  29.095  28.759  1.00  0.00    -0.014 A 
BRANCH  11  12
ATOM     12  C   UNL A   1      39.912  28.755  29.000  1.00  0.00     0.031 A 
ATOM     13  C   UNL A   1      40.826  29.808  29.570  1.00  0.00     0.074 A 
ATOM     14  C   UNL A   1      40.402  27.549  28.658  1.00  0.00     0.049 A 
ATOM     15  N   UNL A   1      42.128  29.797  29.697  1.00  0.00    -0.248 NA
ATOM     16  C   UNL A   1      40.188  31.052  30.032  1.00  0.00     0.031 C 
ATOM     17  C   UNL A   1      39.626  26.443  28.098  1.00  0.00     0.029 A 
ATOM     18  N   UNL A   1      41.685  27.063  28.715  1.00  0.00    -0.354 N 
ATOM     19  C   UNL A   1      42.466  31.044  30.208  1.00  0.00     0.074 A 
ATOM     20  C   UNL A   1      41.239  31.795  30.349  1.00  0.00     0.031 C 
ATOM     21  C   UNL A   1      40.449  25.407  27.861  1.00  0.00     0.029 A 
ATOM     22  C   UNL A   1      41.813  25.791  28.213  1.00  0.00     0.049 A 
ATOM     23  H   UNL A   1      42.440  27.578  29.079  1.00  0.00     0.167 HD
ATOM     24  C   UNL A   1      43.689  31.518  30.543  1.00  0.00     0.037 A 
ATOM     25  C   UNL A   1      42.913  25.034  28.035  1.00  0.00     0.037 A 
ATOM     26  C   UNL A   1      44.902  30.750  30.467  1.00  0.00     0.049 A 
ATOM     27  C   UNL A   1      44.261  25.586  28.415  1.00  0.00     0.074 A 
ATOM     28  C   UNL A   1      46.179  31.115  30.856  1.00  0.00     0.029 A 
ATOM     29  N   UNL A   1      44.984  29.458  29.977  1.00  0.00    -0.354 N 
ATOM     30  N   UNL A   1      44.563  26.752  28.929  1.00  0.00    -0.248 NA
ATOM     31  C   UNL A   1      45.423  24.715  28.181  1.00  0.00     0.031 C 
ATOM     32  C   UNL A   1      47.040  30.049  30.577  1.00  0.00     0.029 A 
ATOM     33  C   UNL A   1      46.293  29.014  30.040  1.00  0.00     0.049 A 
ATOM     34  H   UNL A   1      44.224  28.933  29.635  1.00  0.00     0.167 HD
ATOM     35  C   UNL A   1      45.940  26.745  29.108  1.00  0.00     0.074 A 
ATOM     36  C   UNL A   1      46.416  25.457  28.652  1.00  0.00     0.031 C 
ATOM     37  C   UNL A   1      46.741  27.719  29.603  1.00  0.00     0.037 A 
BRANCH  24  38
ATOM     38  C   UNL A   1      43.777  32.935  31.021  1.00  0.00     0.057 A 
ATOM     39  C   UNL A   1      43.625  33.236  32.380  1.00  0.00     0.134 A 
ATOM     40  C   UNL A   1      43.974  34.003  30.137  1.00  0.00     0.134 A 
ATOM     41  F   UNL A   1      43.430  32.257  33.277  1.00  0.00    -0.206 F 
ATOM     42  C   UNL A   1      43.662  34.551  32.844  1.00  0.00     0.040 A 
ATOM     43  C   UNL A   1      44.035  35.321  30.592  1.00  0.00     0.040 A 
ATOM     44  F   UNL A   1      44.142  33.777  28.826  1.00  0.00    -0.206 F 
ATOM     45  C   UNL A   1      43.871  35.598  31.947  1.00  0.00     0.006 A 
ENDBRANCH  24  38
BRANCH  25  46
ATOM     46  C   UNL A   1      42.802  23.671  27.460  1.00  0.00     0.057 A 
ATOM     47  C   UNL A   1      42.513  22.561  28.262  1.00  0.00     0.134 A 
ATOM     48  C   UNL A   1      42.936  23.458  26.084  1.00  0.00     0.134 A 
ATOM     49  F   UNL A   1      42.372  22.701  29.588  1.00  0.00    -0.206 F 
ATOM     50  C   UNL A   1      42.359  21.287  27.715  1.00  0.00     0.040 A 
ATOM     51  C   UNL A   1      42.764  22.192  25.520  1.00  0.00     0.040 A 
ATOM     52  F   UNL A   1      43.189  24.488  25.263  1.00  0.00    -0.206 F 
ATOM     53  C   UNL A   1      42.476  21.102  26.338  1.00  0.00     0.006 A 
ENDBRANCH  25  46
BRANCH  37  54
ATOM     54  C   UNL A   1      48.202  27.412  29.723  1.00  0.00     0.057 A 
ATOM     55  C   UNL A   1      49.081  27.722  28.677  1.00  0.00     0.134 A 
ATOM     56  C   UNL A   1      48.728  26.766  30.847  1.00  0.00     0.134 A 
ATOM     57  F   UNL A   1      48.635  28.336  27.571  1.00  0.00    -0.206 F 
ATOM     58  C   UNL A   1      50.435  27.391  28.744  1.00  0.00     0.040 A 
ATOM     59  C   UNL A   1      50.084  26.447  30.933  1.00  0.00     0.040 A 
ATOM     60  F   UNL A   1      47.937  26.456  31.885  1.00  0.00    -0.206 F 
ATOM     61  C   UNL A   1      50.939  26.754  29.875  1.00  0.00     0.006 A 
ENDBRANCH  37  54
ENDBRANCH  11  12
ENDBRANCH   4   6
ENDBRANCH   1   2
BRANCH   1  62
ATOM     62  C   UNL A   1      31.980  27.995  26.916  1.00  0.00     0.042 C 
BRANCH  62  63
ATOM     63  C   UNL A   1      31.880  26.992  25.775  1.00  0.00     0.118 C 
BRANCH  63  64
ATOM     64  N   UNL A   1      32.664  27.371  24.607  1.00  0.00    -0.352 N 
ATOM     65  C   UNL A   1      33.484  26.606  23.821  1.00  0.00     0.256 C 
ATOM     66  H   UNL A   1      32.593  28.317  24.344  1.00  0.00     0.163 HD
ATOM     67  O   UNL A   1      34.068  27.118  22.868  1.00  0.00    -0.269 OA
BRANCH  65  68
ATOM     68  C   UNL A   1      33.608  25.170  24.124  1.00  0.00     0.104 A 
ATOM     69  C   UNL A   1      34.508  24.779  25.038  1.00  0.00     0.104 A 
ATOM     70  C   UNL A   1      32.808  24.132  23.445  1.00  0.00     0.202 A 
ATOM     71  N   UNL A   1      34.838  23.474  25.346  1.00  0.00    -0.343 N 
ATOM     72  C   UNL A   1      33.013  22.728  23.883  1.00  0.00     0.047 A 
ATOM     73  O   UNL A   1      32.032  24.396  22.531  1.00  0.00    -0.288 OA
ATOM     74  C   UNL A   1      34.018  22.427  24.823  1.00  0.00     0.054 A 
ATOM     75  C   UNL A   1      32.228  21.717  23.318  1.00  0.00     0.016 A 
ATOM     76  C   UNL A   1      34.178  21.082  25.195  1.00  0.00     0.053 A 
ATOM     77  C   UNL A   1      32.450  20.387  23.672  1.00  0.00     0.027 A 
ATOM     78  C   UNL A   1      33.429  20.047  24.610  1.00  0.00     0.039 A 
BRANCH  71  79
ATOM     79  C   UNL A   1      36.131  23.179  26.017  1.00  0.00     0.087 C 
ATOM     80  C   UNL A   1      37.385  22.701  25.324  1.00  0.00     0.027 C 
ATOM     81  C   UNL A   1      37.318  24.094  25.881  1.00  0.00     0.027 C 
ENDBRANCH  71  79
BRANCH  78  82
ATOM     82  N   UNL A   1      33.686  18.738  24.961  1.00  0.00    -0.360 N 
ATOM     83  C   UNL A   1      32.721  18.017  25.800  1.00  0.00     0.178 C 
ATOM     84  C   UNL A   1      34.645  17.919  24.212  1.00  0.00     0.178 C 
ATOM     85  C   UNL A   1      32.074  16.861  24.998  1.00  0.00     0.282 C 
ATOM     86  C   UNL A   1      33.939  16.756  23.484  1.00  0.00     0.282 C 
ATOM     87  N   UNL A   1      33.059  15.955  24.364  1.00  0.00    -0.343 N 
ATOM     88  H   UNL A   1      32.570  15.251  23.812  1.00  0.00     0.346 HD
ATOM     89  H   UNL A   1      33.615  15.488  25.081  1.00  0.00     0.346 HD
ENDBRANCH  78  82
ENDBRANCH  65  68
ENDBRANCH  63  64
ENDBRANCH  62  63
ENDBRANCH   1  62
TORSDOF 12
ENDMDL
MODEL 2
REMARK VINA RESULT:     -12.1      3.267      8.644
REMARK SMILES O=C(NCCCNC(=O)c1cn(C2CC2)c2cc(N3CC[NH2+]CC3)ccc2c1=O)c1ccc(-c2c3nc(c(-c4c(F)cccc4F)c4ccc([nH]4)c(-c4c(F)cccc4F)c4nc(c(-c5c(F)cccc5F)c5ccc2[nH]5)C=C4)C=C3)cc1
REMARK SMILES IDX 4 1 3 2 1 3 2 4 30 6 31 7 83 8 32 9 82 10 33 11 34 12 35 13
REMARK SMILES IDX 76 14 36 15 81 16 75 17 77 18 37 19 80 20 74 21 73 22 38 24
REMARK SMILES IDX 64 25 47 26 63 27 48 28 51 29 62 30 78 31 49 32 50 33 61 35
REMARK SMILES IDX 79 36 52 37 39 38 40 39 45 40 41 41 42 42 44 43 46 44 43 45
REMARK SMILES IDX 65 46 66 47 71 48 67 49 68 50 70 51 72 52 69 53 53 54 54 55
REMARK SMILES IDX 59 56 55 57 56 58 58 59 60 60 57 61 5 62 6 63 7 64 8 65 9 67
REMARK SMILES IDX 10 68 11 69 28 70 12 71 27 72 29 73 16 74 26 75 17 76 25 77
REMARK SMILES IDX 18 78 13 79 14 80 15 81 19 82 20 83 24 84 21 85 23 86 22 87
REMARK H PARENT 3 5 77 23 51 34 7 66 22 88 22 89
REMARK Flexibility Score: inf
ROOT
ATOM      1  C   UNL A   1      37.213  23.401  25.004  1.00  0.00     0.118 C 
ENDROOT
BRANCH   1   2
ATOM      2  N   UNL A   1      38.336  22.600  25.467  1.00  0.00    -0.352 N 
ATOM      3  O   UNL A   1      40.374  22.128  26.266  1.00  0.00    -0.269 OA
ATOM      4  C   UNL A   1      39.461  22.946  26.168  1.00  0.00     0.251 C 
ATOM      5  H   UNL A   1      38.278  21.644  25.236  1.00  0.00     0.163 HD
BRANCH   4   6
ATOM      6  C   UNL A   1      39.599  24.271  26.818  1.00  0.00     0.039 A 
ATOM      7  C   UNL A   1      40.256  25.292  26.120  1.00  0.00     0.014 A 
ATOM      8  C   UNL A   1      39.195  24.488  28.137  1.00  0.00     0.014 A 
ATOM      9  C   UNL A   1      40.497  26.525  26.734  1.00  0.00     0.010 A 
ATOM     10  C   UNL A   1      39.373  25.738  28.726  1.00  0.00     0.010 A 
ATOM     11  C   UNL A   1      40.057  26.756  28.043  1.00  0.00    -0.014 A 
BRANCH  11  12
ATOM     12  C   UNL A   1      40.401  27.999  28.776  1.00  0.00     0.031 A 
ATOM     13  C   UNL A   1      41.762  28.118  29.410  1.00  0.00     0.074 A 
ATOM     14  C   UNL A   1      39.497  28.984  28.930  1.00  0.00     0.049 A 
ATOM     15  N   UNL A   1      42.217  29.022  30.239  1.00  0.00    -0.248 NA
ATOM     16  C   UNL A   1      42.731  27.056  29.088  1.00  0.00     0.031 C 
ATOM     17  C   UNL A   1      38.146  28.995  28.368  1.00  0.00     0.029 A 
ATOM     18  N   UNL A   1      39.577  30.162  29.630  1.00  0.00    -0.354 N 
ATOM     19  C   UNL A   1      43.503  28.614  30.572  1.00  0.00     0.074 A 
ATOM     20  C   UNL A   1      43.751  27.372  29.874  1.00  0.00     0.031 C 
ATOM     21  C   UNL A   1      37.523  30.124  28.747  1.00  0.00     0.029 A 
ATOM     22  C   UNL A   1      38.415  30.894  29.610  1.00  0.00     0.049 A 
ATOM     23  H   UNL A   1      40.390  30.453  30.103  1.00  0.00     0.167 HD
ATOM     24  C   UNL A   1      44.402  29.226  31.377  1.00  0.00     0.037 A 
ATOM     25  C   UNL A   1      38.101  32.042  30.239  1.00  0.00     0.037 A 
ATOM     26  C   UNL A   1      44.182  30.494  32.017  1.00  0.00     0.049 A 
ATOM     27  C   UNL A   1      39.120  32.702  31.129  1.00  0.00     0.074 A 
ATOM     28  C   UNL A   1      45.061  31.233  32.790  1.00  0.00     0.029 A 
ATOM     29  N   UNL A   1      43.001  31.213  31.950  1.00  0.00    -0.354 N 
ATOM     30  N   UNL A   1      40.343  32.325  31.408  1.00  0.00    -0.248 NA
ATOM     31  C   UNL A   1      38.709  33.945  31.799  1.00  0.00     0.031 C 
ATOM     32  C   UNL A   1      44.401  32.392  33.212  1.00  0.00     0.029 A 
ATOM     33  C   UNL A   1      43.122  32.383  32.679  1.00  0.00     0.049 A 
ATOM     34  H   UNL A   1      42.196  30.935  31.457  1.00  0.00     0.167 HD
ATOM     35  C   UNL A   1      40.857  33.295  32.258  1.00  0.00     0.074 A 
ATOM     36  C   UNL A   1      39.815  34.282  32.447  1.00  0.00     0.031 C 
ATOM     37  C   UNL A   1      42.081  33.364  32.834  1.00  0.00     0.037 A 
BRANCH  24  38
ATOM     38  C   UNL A   1      45.708  28.531  31.612  1.00  0.00     0.057 A 
ATOM     39  C   UNL A   1      45.849  27.624  32.669  1.00  0.00     0.134 A 
ATOM     40  C   UNL A   1      46.835  28.786  30.821  1.00  0.00     0.134 A 
ATOM     41  F   UNL A   1      44.808  27.339  33.466  1.00  0.00    -0.206 F 
ATOM     42  C   UNL A   1      47.067  26.996  32.934  1.00  0.00     0.040 A 
ATOM     43  C   UNL A   1      48.053  28.148  31.062  1.00  0.00     0.040 A 
ATOM     44  F   UNL A   1      46.759  29.635  29.785  1.00  0.00    -0.206 F 
ATOM     45  C   UNL A   1      48.172  27.256  32.125  1.00  0.00     0.006 A 
ENDBRANCH  24  38
BRANCH  25  46
ATOM     46  C   UNL A   1      36.759  32.650  30.066  1.00  0.00     0.057 A 
ATOM     47  C   UNL A   1      35.716  32.386  30.962  1.00  0.00     0.134 A 
ATOM     48  C   UNL A   1      36.505  33.549  29.025  1.00  0.00     0.134 A 
ATOM     49  F   UNL A   1      35.898  31.533  31.980  1.00  0.00    -0.206 F 
ATOM     50  C   UNL A   1      34.469  32.996  30.828  1.00  0.00     0.040 A 
ATOM     51  C   UNL A   1      35.268  34.183  28.892  1.00  0.00     0.040 A 
ATOM     52  F   UNL A   1      37.474  33.860  28.150  1.00  0.00    -0.206 F 
ATOM     53  C   UNL A   1      34.245  33.905  29.795  1.00  0.00     0.006 A 
ENDBRANCH  25  46
BRANCH  37  54
ATOM     54  C   UNL A   1      42.376  34.564  33.680  1.00  0.00     0.057 A 
ATOM     55  C   UNL A   1      42.119  34.544  35.057  1.00  0.00     0.134 A 
ATOM     56  C   UNL A   1      42.866  35.751  33.125  1.00  0.00     0.134 A 
ATOM     57  F   UNL A   1      41.642  33.436  35.645  1.00  0.00    -0.206 F 
ATOM     58  C   UNL A   1      42.330  35.670  35.852  1.00  0.00     0.040 A 
ATOM     59  C   UNL A   1      43.101  36.878  33.914  1.00  0.00     0.040 A 
ATOM     60  F   UNL A   1      43.145  35.826  31.816  1.00  0.00    -0.206 F 
ATOM     61  C   UNL A   1      42.825  36.841  35.281  1.00  0.00     0.006 A 
ENDBRANCH  37  54
ENDBRANCH  11  12
ENDBRANCH   4   6
ENDBRANCH   1   2
BRANCH   1  62
ATOM     62  C   UNL A   1      36.146  23.585  26.073  1.00  0.00     0.042 C 
BRANCH  62  63
ATOM     63  C   UNL A   1      34.719  23.635  25.546  1.00  0.00     0.118 C 
BRANCH  63  64
ATOM     64  N   UNL A   1      33.734  23.164  26.511  1.00  0.00    -0.352 N 
ATOM     65  C   UNL A   1      32.546  23.729  26.891  1.00  0.00     0.256 C 
ATOM     66  H   UNL A   1      33.955  22.313  26.955  1.00  0.00     0.163 HD
ATOM     67  O   UNL A   1      31.846  23.171  27.734  1.00  0.00    -0.269 OA
BRANCH  65  68
ATOM     68  C   UNL A   1      32.123  24.981  26.240  1.00  0.00     0.104 A 
ATOM     69  C   UNL A   1      32.715  26.128  26.604  1.00  0.00     0.104 A 
ATOM     70  C   UNL A   1      31.053  25.040  25.225  1.00  0.00     0.202 A 
ATOM     71  N   UNL A   1      32.354  27.395  26.190  1.00  0.00    -0.343 N 
ATOM     72  C   UNL A   1      30.763  26.367  24.626  1.00  0.00     0.047 A 
ATOM     73  O   UNL A   1      30.398  24.052  24.907  1.00  0.00    -0.288 OA
ATOM     74  C   UNL A   1      31.418  27.515  25.116  1.00  0.00     0.054 A 
ATOM     75  C   UNL A   1      29.806  26.461  23.611  1.00  0.00     0.016 A 
ATOM     76  C   UNL A   1      31.098  28.747  24.523  1.00  0.00     0.053 A 
ATOM     77  C   UNL A   1      29.476  27.708  23.082  1.00  0.00     0.027 A 
ATOM     78  C   UNL A   1      30.111  28.870  23.531  1.00  0.00     0.039 A 
BRANCH  71  79
ATOM     79  C   UNL A   1      32.767  28.578  26.988  1.00  0.00     0.087 C 
ATOM     80  C   UNL A   1      34.194  28.963  27.304  1.00  0.00     0.027 C 
ATOM     81  C   UNL A   1      33.387  29.789  26.343  1.00  0.00     0.027 C 
ENDBRANCH  71  79
BRANCH  78  82
ATOM     82  N   UNL A   1      29.788  30.118  23.042  1.00  0.00    -0.360 N 
ATOM     83  C   UNL A   1      29.646  30.309  21.594  1.00  0.00     0.178 C 
ATOM     84  C   UNL A   1      29.184  31.143  23.901  1.00  0.00     0.178 C 
ATOM     85  C   UNL A   1      28.176  30.643  21.240  1.00  0.00     0.282 C 
ATOM     86  C   UNL A   1      27.742  31.466  23.457  1.00  0.00     0.282 C 
ATOM     87  N   UNL A   1      27.622  31.777  22.016  1.00  0.00    -0.343 N 
ATOM     88  H   UNL A   1      26.641  31.911  21.773  1.00  0.00     0.346 HD
ATOM     89  H   UNL A   1      28.137  32.631  21.799  1.00  0.00     0.346 HD
ENDBRANCH  78  82
ENDBRANCH  65  68
ENDBRANCH  63  64
ENDBRANCH  62  63
ENDBRANCH   1  62
TORSDOF 12
ENDMDL
MODEL 3
REMARK VINA RESULT:     -12.0      3.079      8.518
REMARK SMILES O=C(NCCCNC(=O)c1cn(C2CC2)c2cc(N3CC[NH2+]CC3)ccc2c1=O)c1ccc(-c2c3nc(c(-c4c(F)cccc4F)c4ccc([nH]4)c(-c4c(F)cccc4F)c4nc(c(-c5c(F)cccc5F)c5ccc2[nH]5)C=C4)C=C3)cc1
REMARK SMILES IDX 4 1 3 2 1 3 2 4 30 6 31 7 83 8 32 9 82 10 33 11 34 12 35 13
REMARK SMILES IDX 76 14 36 15 81 16 75 17 77 18 37 19 80 20 74 21 73 22 38 24
REMARK SMILES IDX 64 25 47 26 63 27 48 28 51 29 62 30 78 31 49 32 50 33 61 35
REMARK SMILES IDX 79 36 52 37 39 38 40 39 45 40 41 41 42 42 44 43 46 44 43 45
REMARK SMILES IDX 65 46 66 47 71 48 67 49 68 50 70 51 72 52 69 53 53 54 54 55
REMARK SMILES IDX 59 56 55 57 56 58 58 59 60 60 57 61 5 62 6 63 7 64 8 65 9 67
REMARK SMILES IDX 10 68 11 69 28 70 12 71 27 72 29 73 16 74 26 75 17 76 25 77
REMARK SMILES IDX 18 78 13 79 14 80 15 81 19 82 20 83 24 84 21 85 23 86 22 87
REMARK H PARENT 3 5 77 23 51 34 7 66 22 88 22 89
REMARK Flexibility Score: inf
ROOT
ATOM      1  C   UNL A   1      36.555  23.602  25.954  1.00  0.00     0.118 C 
ENDROOT
BRANCH   1   2
ATOM      2  N   UNL A   1      37.579  22.589  26.161  1.00  0.00    -0.352 N 
ATOM      3  O   UNL A   1      39.624  21.704  26.381  1.00  0.00    -0.269 OA
ATOM      4  C   UNL A   1      38.912  22.703  26.458  1.00  0.00     0.251 C 
ATOM      5  H   UNL A   1      37.259  21.662  26.069  1.00  0.00     0.163 HD
BRANCH   4   6
ATOM      6  C   UNL A   1      39.509  23.992  26.881  1.00  0.00     0.039 A 
ATOM      7  C   UNL A   1      39.436  24.350  28.233  1.00  0.00     0.014 A 
ATOM      8  C   UNL A   1      40.035  24.896  25.956  1.00  0.00     0.014 A 
ATOM      9  C   UNL A   1      39.896  25.600  28.658  1.00  0.00     0.010 A 
ATOM     10  C   UNL A   1      40.556  26.114  26.388  1.00  0.00     0.010 A 
ATOM     11  C   UNL A   1      40.459  26.492  27.736  1.00  0.00    -0.014 A 
BRANCH  11  12
ATOM     12  C   UNL A   1      40.842  27.873  28.119  1.00  0.00     0.031 A 
ATOM     13  C   UNL A   1      42.299  28.255  28.108  1.00  0.00     0.074 A 
ATOM     14  C   UNL A   1      39.916  28.759  28.531  1.00  0.00     0.049 A 
ATOM     15  N   UNL A   1      42.879  29.333  28.568  1.00  0.00    -0.248 NA
ATOM     16  C   UNL A   1      43.231  27.274  27.527  1.00  0.00     0.031 C 
ATOM     17  C   UNL A   1      38.474  28.517  28.589  1.00  0.00     0.029 A 
ATOM     18  N   UNL A   1      40.059  30.040  29.002  1.00  0.00    -0.354 N 
ATOM     19  C   UNL A   1      44.241  29.140  28.374  1.00  0.00     0.074 A 
ATOM     20  C   UNL A   1      44.406  27.835  27.775  1.00  0.00     0.031 C 
ATOM     21  C   UNL A   1      37.865  29.614  29.070  1.00  0.00     0.029 A 
ATOM     22  C   UNL A   1      38.876  30.618  29.392  1.00  0.00     0.049 A 
ATOM     23  H   UNL A   1      40.928  30.500  29.056  1.00  0.00     0.167 HD
ATOM     24  C   UNL A   1      45.263  29.981  28.658  1.00  0.00     0.037 A 
ATOM     25  C   UNL A   1      38.641  31.813  29.967  1.00  0.00     0.037 A 
ATOM     26  C   UNL A   1      45.097  31.305  29.191  1.00  0.00     0.049 A 
ATOM     27  C   UNL A   1      39.796  32.728  30.272  1.00  0.00     0.074 A 
ATOM     28  C   UNL A   1      46.066  32.262  29.440  1.00  0.00     0.029 A 
ATOM     29  N   UNL A   1      43.880  31.861  29.547  1.00  0.00    -0.354 N 
ATOM     30  N   UNL A   1      41.075  32.548  30.052  1.00  0.00    -0.248 NA
ATOM     31  C   UNL A   1      39.474  34.011  30.915  1.00  0.00     0.031 C 
ATOM     32  C   UNL A   1      45.435  33.391  29.972  1.00  0.00     0.029 A 
ATOM     33  C   UNL A   1      44.073  33.144  30.028  1.00  0.00     0.049 A 
ATOM     34  H   UNL A   1      43.008  31.411  29.470  1.00  0.00     0.167 HD
ATOM     35  C   UNL A   1      41.705  33.702  30.499  1.00  0.00     0.074 A 
ATOM     36  C   UNL A   1      40.668  34.579  31.000  1.00  0.00     0.031 C 
ATOM     37  C   UNL A   1      43.024  34.009  30.498  1.00  0.00     0.037 A 
BRANCH  24  38
ATOM     38  C   UNL A   1      46.656  29.492  28.398  1.00  0.00     0.057 A 
ATOM     39  C   UNL A   1      47.235  29.642  27.132  1.00  0.00     0.134 A 
ATOM     40  C   UNL A   1      47.407  28.841  29.384  1.00  0.00     0.134 A 
ATOM     41  F   UNL A   1      46.566  30.254  26.143  1.00  0.00    -0.206 F 
ATOM     42  C   UNL A   1      48.515  29.158  26.854  1.00  0.00     0.040 A 
ATOM     43  C   UNL A   1      48.696  28.372  29.124  1.00  0.00     0.040 A 
ATOM     44  F   UNL A   1      46.912  28.681  30.620  1.00  0.00    -0.206 F 
ATOM     45  C   UNL A   1      49.250  28.524  27.855  1.00  0.00     0.006 A 
ENDBRANCH  24  38
BRANCH  25  46
ATOM     46  C   UNL A   1      37.257  32.223  30.308  1.00  0.00     0.057 A 
ATOM     47  C   UNL A   1      36.432  32.861  29.373  1.00  0.00     0.134 A 
ATOM     48  C   UNL A   1      36.712  31.942  31.565  1.00  0.00     0.134 A 
ATOM     49  F   UNL A   1      36.897  33.157  28.151  1.00  0.00    -0.206 F 
ATOM     50  C   UNL A   1      35.114  33.201  29.678  1.00  0.00     0.040 A 
ATOM     51  C   UNL A   1      35.388  32.258  31.876  1.00  0.00     0.040 A 
ATOM     52  F   UNL A   1      37.448  31.311  32.493  1.00  0.00    -0.206 F 
ATOM     53  C   UNL A   1      34.586  32.892  30.930  1.00  0.00     0.006 A 
ENDBRANCH  25  46
BRANCH  37  54
ATOM     54  C   UNL A   1      43.416  35.362  31.008  1.00  0.00     0.057 A 
ATOM     55  C   UNL A   1      43.589  35.581  32.381  1.00  0.00     0.134 A 
ATOM     56  C   UNL A   1      43.571  36.455  30.148  1.00  0.00     0.134 A 
ATOM     57  F   UNL A   1      43.447  34.574  33.255  1.00  0.00    -0.206 F 
ATOM     58  C   UNL A   1      43.894  36.847  32.881  1.00  0.00     0.040 A 
ATOM     59  C   UNL A   1      43.896  37.721  30.636  1.00  0.00     0.040 A 
ATOM     60  F   UNL A   1      43.431  36.302  28.824  1.00  0.00    -0.206 F 
ATOM     61  C   UNL A   1      44.051  37.920  32.007  1.00  0.00     0.006 A 
ENDBRANCH  37  54
ENDBRANCH  11  12
ENDBRANCH   4   6
ENDBRANCH   1   2
BRANCH   1  62
ATOM     62  C   UNL A   1      35.985  23.578  24.543  1.00  0.00     0.042 C 
BRANCH  62  63
ATOM     63  C   UNL A   1      34.480  23.359  24.469  1.00  0.00     0.118 C 
BRANCH  63  64
ATOM     64  N   UNL A   1      33.868  23.128  25.770  1.00  0.00    -0.352 N 
ATOM     65  C   UNL A   1      32.966  23.893  26.459  1.00  0.00     0.256 C 
ATOM     66  H   UNL A   1      34.144  22.296  26.220  1.00  0.00     0.163 HD
ATOM     67  O   UNL A   1      32.564  23.522  27.560  1.00  0.00    -0.269 OA
BRANCH  65  68
ATOM     68  C   UNL A   1      32.472  25.130  25.832  1.00  0.00     0.104 A 
ATOM     69  C   UNL A   1      33.244  26.226  25.871  1.00  0.00     0.104 A 
ATOM     70  C   UNL A   1      31.148  25.233  25.187  1.00  0.00     0.202 A 
ATOM     71  N   UNL A   1      32.882  27.490  25.448  1.00  0.00    -0.343 N 
ATOM     72  C   UNL A   1      30.801  26.535  24.561  1.00  0.00     0.047 A 
ATOM     73  O   UNL A   1      30.344  24.306  25.192  1.00  0.00    -0.288 OA
ATOM     74  C   UNL A   1      31.672  27.633  24.701  1.00  0.00     0.054 A 
ATOM     75  C   UNL A   1      29.588  26.659  23.878  1.00  0.00     0.016 A 
ATOM     76  C   UNL A   1      31.291  28.844  24.100  1.00  0.00     0.053 A 
ATOM     77  C   UNL A   1      29.218  27.890  23.338  1.00  0.00     0.027 A 
ATOM     78  C   UNL A   1      30.059  29.002  23.444  1.00  0.00     0.039 A 
BRANCH  71  79
ATOM     79  C   UNL A   1      33.624  28.676  25.948  1.00  0.00     0.087 C 
ATOM     80  C   UNL A   1      33.231  29.511  27.144  1.00  0.00     0.027 C 
ATOM     81  C   UNL A   1      34.440  28.623  27.212  1.00  0.00     0.027 C 
ENDBRANCH  71  79
BRANCH  78  82
ATOM     82  N   UNL A   1      29.709  30.237  22.941  1.00  0.00    -0.360 N 
ATOM     83  C   UNL A   1      29.540  30.402  21.492  1.00  0.00     0.178 C 
ATOM     84  C   UNL A   1      29.103  31.267  23.793  1.00  0.00     0.178 C 
ATOM     85  C   UNL A   1      28.059  30.708  21.157  1.00  0.00     0.282 C 
ATOM     86  C   UNL A   1      27.649  31.560  23.368  1.00  0.00     0.282 C 
ATOM     87  N   UNL A   1      27.501  31.845  21.923  1.00  0.00    -0.343 N 
ATOM     88  H   UNL A   1      26.514  31.960  21.695  1.00  0.00     0.346 HD
ATOM     89  H   UNL A   1      27.998  32.704  21.684  1.00  0.00     0.346 HD
ENDBRANCH  78  82
ENDBRANCH  65  68
ENDBRANCH  63  64
ENDBRANCH  62  63
ENDBRANCH   1  62
TORSDOF 12
ENDMDL
