MODEL 1
REMARK VINA RESULT:     -10.1      0.000      0.000
REMARK SMILES O=C(C[NH+]1CC2(CCCC2)C1)NCCCNC(=O)c1ccc(-c2c3nc(c(-c4c(F)cccc4F)c4ccc([nH]4)c(-c4c(F)cccc4F)c4nc(c(-c5c(F)cccc5F)c5ccc2[nH]5)C=C4)C=C3)cc1
REMARK SMILES IDX 14 1 13 2 12 3 1 4 2 5 3 7 4 8 5 9 11 10 6 12 7 13 10 14
REMARK SMILES IDX 8 15 9 16 15 17 16 18 17 19 18 21 19 22 20 23 72 24 21 25
REMARK SMILES IDX 71 26 22 27 23 28 24 29 65 30 25 31 70 32 64 33 66 34 26 35
REMARK SMILES IDX 69 36 63 37 62 38 27 40 53 41 36 42 52 43 37 44 40 45 51 46
REMARK SMILES IDX 67 47 38 48 39 49 50 51 68 52 41 53 28 54 29 55 34 56 30 57
REMARK SMILES IDX 31 58 33 59 35 60 32 61 54 62 55 63 60 64 56 65 57 66 59 67
REMARK SMILES IDX 61 68 58 69 42 70 43 71 48 72 44 73 45 74 47 75 49 76 46 77
REMARK H PARENT 12 6 4 11 16 20 66 39 40 50
REMARK Flexibility Score: inf
ROOT
ATOM      1  C   UNL A   1      41.117  20.408  26.910  1.00  0.00     0.042 C 
ENDROOT
BRANCH   1   2
ATOM      2  C   UNL A   1      42.147  19.518  26.230  1.00  0.00     0.118 C 
BRANCH   2   3
ATOM      3  N   UNL A   1      43.431  20.170  26.101  1.00  0.00    -0.351 N 
ATOM      4  O   UNL A   1      43.958  19.205  24.090  1.00  0.00    -0.269 OA
ATOM      5  C   UNL A   1      44.235  19.982  25.001  1.00  0.00     0.275 C 
ATOM      6  H   UNL A   1      43.738  20.767  26.822  1.00  0.00     0.163 HD
BRANCH   5   7
ATOM      7  C   UNL A   1      45.531  20.781  25.017  1.00  0.00     0.363 C 
BRANCH   7   8
ATOM      8  N   UNL A   1      45.559  21.954  24.107  1.00  0.00    -0.326 N 
ATOM      9  C   UNL A   1      46.160  23.201  24.652  1.00  0.00     0.275 C 
ATOM     10  C   UNL A   1      44.227  22.630  24.167  1.00  0.00     0.275 C 
ATOM     11  H   UNL A   1      45.974  21.544  23.271  1.00  0.00     0.348 HD
ATOM     12  C   UNL A   1      44.790  23.633  25.222  1.00  0.00     0.068 C 
ATOM     13  C   UNL A   1      44.635  23.346  26.723  1.00  0.00     0.019 C 
ATOM     14  C   UNL A   1      44.344  25.085  25.000  1.00  0.00     0.019 C 
ATOM     15  C   UNL A   1      43.705  24.437  27.222  1.00  0.00     0.001 C 
ATOM     16  C   UNL A   1      44.113  25.646  26.400  1.00  0.00     0.001 C 
ENDBRANCH   7   8
ENDBRANCH   5   7
ENDBRANCH   2   3
ENDBRANCH   1   2
BRANCH   1  17
ATOM     17  C   UNL A   1      41.066  21.824  26.349  1.00  0.00     0.118 C 
BRANCH  17  18
ATOM     18  N   UNL A   1      39.779  22.154  25.752  1.00  0.00    -0.352 N 
ATOM     19  C   UNL A   1      38.962  23.239  25.950  1.00  0.00     0.251 C 
ATOM     20  H   UNL A   1      39.442  21.495  25.102  1.00  0.00     0.163 HD
ATOM     21  O   UNL A   1      37.839  23.257  25.460  1.00  0.00    -0.269 OA
BRANCH  19  22
ATOM     22  C   UNL A   1      39.423  24.376  26.777  1.00  0.00     0.039 A 
ATOM     23  C   UNL A   1      40.183  25.380  26.172  1.00  0.00     0.014 A 
ATOM     24  C   UNL A   1      39.117  24.453  28.138  1.00  0.00     0.014 A 
ATOM     25  C   UNL A   1      40.572  26.497  26.915  1.00  0.00     0.010 A 
ATOM     26  C   UNL A   1      39.432  25.604  28.854  1.00  0.00     0.010 A 
ATOM     27  C   UNL A   1      40.161  26.640  28.250  1.00  0.00    -0.014 A 
BRANCH  27  28
ATOM     28  C   UNL A   1      40.474  27.868  29.026  1.00  0.00     0.031 A 
ATOM     29  C   UNL A   1      41.773  27.982  29.776  1.00  0.00     0.074 A 
ATOM     30  C   UNL A   1      39.558  28.852  29.111  1.00  0.00     0.049 A 
ATOM     31  N   UNL A   1      42.191  28.941  30.563  1.00  0.00    -0.248 NA
ATOM     32  C   UNL A   1      42.716  26.860  29.645  1.00  0.00     0.031 C 
ATOM     33  C   UNL A   1      38.242  28.843  28.469  1.00  0.00     0.029 A 
ATOM     34  N   UNL A   1      39.589  30.049  29.783  1.00  0.00    -0.354 N 
ATOM     35  C   UNL A   1      43.435  28.533  31.028  1.00  0.00     0.074 A 
ATOM     36  C   UNL A   1      43.679  27.216  30.482  1.00  0.00     0.031 C 
ATOM     37  C   UNL A   1      37.604  29.988  28.757  1.00  0.00     0.029 A 
ATOM     38  C   UNL A   1      38.442  30.792  29.640  1.00  0.00     0.049 A 
ATOM     39  H   UNL A   1      40.362  30.347  30.316  1.00  0.00     0.167 HD
ATOM     40  C   UNL A   1      44.304  29.205  31.821  1.00  0.00     0.037 A 
ATOM     41  C   UNL A   1      38.098  31.981  30.170  1.00  0.00     0.037 A 
ATOM     42  C   UNL A   1      44.065  30.522  32.351  1.00  0.00     0.049 A 
ATOM     43  C   UNL A   1      39.073  32.696  31.066  1.00  0.00     0.074 A 
ATOM     44  C   UNL A   1      44.908  31.307  33.117  1.00  0.00     0.029 A 
ATOM     45  N   UNL A   1      42.896  31.245  32.173  1.00  0.00    -0.354 N 
ATOM     46  N   UNL A   1      40.274  32.329  31.441  1.00  0.00    -0.248 NA
ATOM     47  C   UNL A   1      38.646  33.994  31.607  1.00  0.00     0.031 C 
ATOM     48  C   UNL A   1      44.227  32.482  33.451  1.00  0.00     0.029 A 
ATOM     49  C   UNL A   1      42.985  32.457  32.839  1.00  0.00     0.049 A 
ATOM     50  H   UNL A   1      42.116  30.943  31.652  1.00  0.00     0.167 HD
ATOM     51  C   UNL A   1      40.759  33.363  32.231  1.00  0.00     0.074 A 
ATOM     52  C   UNL A   1      39.726  34.377  32.272  1.00  0.00     0.031 C 
ATOM     53  C   UNL A   1      41.955  33.465  32.862  1.00  0.00     0.037 A 
BRANCH  40  54
ATOM     54  C   UNL A   1      45.598  28.523  32.164  1.00  0.00     0.057 A 
ATOM     55  C   UNL A   1      45.728  27.707  33.296  1.00  0.00     0.134 A 
ATOM     56  C   UNL A   1      46.717  28.652  31.331  1.00  0.00     0.134 A 
ATOM     57  F   UNL A   1      44.699  27.547  34.141  1.00  0.00    -0.206 F 
ATOM     58  C   UNL A   1      46.931  27.067  33.601  1.00  0.00     0.040 A 
ATOM     59  C   UNL A   1      47.916  27.992  31.610  1.00  0.00     0.040 A 
ATOM     60  F   UNL A   1      46.662  29.410  30.226  1.00  0.00    -0.206 F 
ATOM     61  C   UNL A   1      48.028  27.203  32.752  1.00  0.00     0.006 A 
ENDBRANCH  40  54
BRANCH  41  62
ATOM     62  C   UNL A   1      36.776  32.582  29.857  1.00  0.00     0.057 A 
ATOM     63  C   UNL A   1      36.618  33.455  28.773  1.00  0.00     0.134 A 
ATOM     64  C   UNL A   1      35.645  32.310  30.635  1.00  0.00     0.134 A 
ATOM     65  F   UNL A   1      37.668  33.770  28.001  1.00  0.00    -0.206 F 
ATOM     66  C   UNL A   1      35.389  34.054  28.489  1.00  0.00     0.040 A 
ATOM     67  C   UNL A   1      34.403  32.879  30.345  1.00  0.00     0.040 A 
ATOM     68  F   UNL A   1      35.727  31.475  31.681  1.00  0.00    -0.206 F 
ATOM     69  C   UNL A   1      34.276  33.762  29.275  1.00  0.00     0.006 A 
ENDBRANCH  41  62
BRANCH  53  70
ATOM     70  C   UNL A   1      42.237  34.735  33.611  1.00  0.00     0.057 A 
ATOM     71  C   UNL A   1      42.878  35.827  33.013  1.00  0.00     0.134 A 
ATOM     72  C   UNL A   1      41.815  34.882  34.940  1.00  0.00     0.134 A 
ATOM     73  F   UNL A   1      43.319  35.748  31.749  1.00  0.00    -0.206 F 
ATOM     74  C   UNL A   1      43.108  37.011  33.716  1.00  0.00     0.040 A 
ATOM     75  C   UNL A   1      42.012  36.071  35.643  1.00  0.00     0.040 A 
ATOM     76  F   UNL A   1      41.186  33.878  35.571  1.00  0.00    -0.206 F 
ATOM     77  C   UNL A   1      42.666  37.139  35.032  1.00  0.00     0.006 A 
ENDBRANCH  53  70
ENDBRANCH  27  28
ENDBRANCH  19  22
ENDBRANCH  17  18
ENDBRANCH   1  17
TORSDOF 11
ENDMDL
MODEL 2
REMARK VINA RESULT:     -10.1      3.456     10.642
REMARK SMILES O=C(C[NH+]1CC2(CCCC2)C1)NCCCNC(=O)c1ccc(-c2c3nc(c(-c4c(F)cccc4F)c4ccc([nH]4)c(-c4c(F)cccc4F)c4nc(c(-c5c(F)cccc5F)c5ccc2[nH]5)C=C4)C=C3)cc1
REMARK SMILES IDX 14 1 13 2 12 3 1 4 2 5 3 7 4 8 5 9 11 10 6 12 7 13 10 14
REMARK SMILES IDX 8 15 9 16 15 17 16 18 17 19 18 21 19 22 20 23 72 24 21 25
REMARK SMILES IDX 71 26 22 27 23 28 24 29 65 30 25 31 70 32 64 33 66 34 26 35
REMARK SMILES IDX 69 36 63 37 62 38 27 40 53 41 36 42 52 43 37 44 40 45 51 46
REMARK SMILES IDX 67 47 38 48 39 49 50 51 68 52 41 53 28 54 29 55 34 56 30 57
REMARK SMILES IDX 31 58 33 59 35 60 32 61 54 62 55 63 60 64 56 65 57 66 59 67
REMARK SMILES IDX 61 68 58 69 42 70 43 71 48 72 44 73 45 74 47 75 49 76 46 77
REMARK H PARENT 12 6 4 11 16 20 66 39 40 50
REMARK Flexibility Score: inf
ROOT
ATOM      1  C   UNL A   1      33.882  33.742  27.891  1.00  0.00     0.042 C 
ENDROOT
BRANCH   1   2
ATOM      2  C   UNL A   1      34.344  35.089  28.427  1.00  0.00     0.118 C 
BRANCH   2   3
ATOM      3  N   UNL A   1      34.632  35.044  29.842  1.00  0.00    -0.351 N 
ATOM      4  O   UNL A   1      32.468  35.396  30.510  1.00  0.00    -0.269 OA
ATOM      5  C   UNL A   1      33.643  35.170  30.789  1.00  0.00     0.275 C 
ATOM      6  H   UNL A   1      35.564  34.919  30.137  1.00  0.00     0.163 HD
BRANCH   5   7
ATOM      7  C   UNL A   1      34.123  35.056  32.230  1.00  0.00     0.363 C 
BRANCH   7   8
ATOM      8  N   UNL A   1      33.966  33.712  32.842  1.00  0.00    -0.326 N 
ATOM      9  C   UNL A   1      35.005  33.305  33.825  1.00  0.00     0.275 C 
ATOM     10  C   UNL A   1      34.528  32.696  31.902  1.00  0.00     0.275 C 
ATOM     11  H   UNL A   1      32.996  33.752  33.154  1.00  0.00     0.348 HD
ATOM     12  C   UNL A   1      35.875  32.722  32.689  1.00  0.00     0.068 C 
ATOM     13  C   UNL A   1      37.011  33.658  32.249  1.00  0.00     0.019 C 
ATOM     14  C   UNL A   1      36.500  31.336  32.901  1.00  0.00     0.019 C 
ATOM     15  C   UNL A   1      38.114  32.722  31.787  1.00  0.00     0.001 C 
ATOM     16  C   UNL A   1      38.003  31.552  32.747  1.00  0.00     0.001 C 
ENDBRANCH   7   8
ENDBRANCH   5   7
ENDBRANCH   2   3
ENDBRANCH   1   2
BRANCH   1  17
ATOM     17  C   UNL A   1      34.724  32.569  28.379  1.00  0.00     0.118 C 
BRANCH  17  18
ATOM     18  N   UNL A   1      34.074  31.280  28.180  1.00  0.00    -0.352 N 
ATOM     19  C   UNL A   1      34.613  30.021  28.088  1.00  0.00     0.251 C 
ATOM     20  H   UNL A   1      33.093  31.319  28.099  1.00  0.00     0.163 HD
ATOM     21  O   UNL A   1      33.904  29.074  27.766  1.00  0.00    -0.269 OA
BRANCH  19  22
ATOM     22  C   UNL A   1      36.053  29.807  28.352  1.00  0.00     0.039 A 
ATOM     23  C   UNL A   1      36.444  29.363  29.618  1.00  0.00     0.014 A 
ATOM     24  C   UNL A   1      37.013  30.045  27.365  1.00  0.00     0.014 A 
ATOM     25  C   UNL A   1      37.790  29.088  29.870  1.00  0.00     0.010 A 
ATOM     26  C   UNL A   1      38.340  29.691  27.591  1.00  0.00     0.010 A 
ATOM     27  C   UNL A   1      38.743  29.207  28.845  1.00  0.00    -0.014 A 
BRANCH  27  28
ATOM     28  C   UNL A   1      40.161  28.820  29.062  1.00  0.00     0.031 A 
ATOM     29  C   UNL A   1      41.133  29.799  29.657  1.00  0.00     0.074 A 
ATOM     30  C   UNL A   1      40.588  27.607  28.659  1.00  0.00     0.049 A 
ATOM     31  N   UNL A   1      42.421  29.669  29.857  1.00  0.00    -0.248 NA
ATOM     32  C   UNL A   1      40.594  31.108  30.060  1.00  0.00     0.031 C 
ATOM     33  C   UNL A   1      39.754  26.582  28.026  1.00  0.00     0.029 A 
ATOM     34  N   UNL A   1      41.833  27.033  28.712  1.00  0.00    -0.354 N 
ATOM     35  C   UNL A   1      42.845  30.878  30.393  1.00  0.00     0.074 A 
ATOM     36  C   UNL A   1      41.691  31.749  30.436  1.00  0.00     0.031 C 
ATOM     37  C   UNL A   1      40.505  25.499  27.772  1.00  0.00     0.029 A 
ATOM     38  C   UNL A   1      41.880  25.766  28.180  1.00  0.00     0.049 A 
ATOM     39  H   UNL A   1      42.619  27.486  29.095  1.00  0.00     0.167 HD
ATOM     40  C   UNL A   1      44.080  31.223  30.830  1.00  0.00     0.037 A 
ATOM     41  C   UNL A   1      42.916  24.919  28.028  1.00  0.00     0.037 A 
ATOM     42  C   UNL A   1      45.223  30.349  30.800  1.00  0.00     0.049 A 
ATOM     43  C   UNL A   1      44.282  25.335  28.501  1.00  0.00     0.074 A 
ATOM     44  C   UNL A   1      46.502  30.587  31.271  1.00  0.00     0.029 A 
ATOM     45  N   UNL A   1      45.226  29.069  30.265  1.00  0.00    -0.354 N 
ATOM     46  N   UNL A   1      44.654  26.457  29.070  1.00  0.00    -0.248 NA
ATOM     47  C   UNL A   1      45.371  24.366  28.316  1.00  0.00     0.031 C 
ATOM     48  C   UNL A   1      47.294  29.475  30.970  1.00  0.00     0.029 A 
ATOM     49  C   UNL A   1      46.493  28.517  30.370  1.00  0.00     0.049 A 
ATOM     50  H   UNL A   1      44.445  28.620  29.868  1.00  0.00     0.167 HD
ATOM     51  C   UNL A   1      46.008  26.314  29.343  1.00  0.00     0.074 A 
ATOM     52  C   UNL A   1      46.390  24.994  28.886  1.00  0.00     0.031 C 
ATOM     53  C   UNL A   1      46.858  27.196  29.924  1.00  0.00     0.037 A 
BRANCH  40  54
ATOM     54  C   UNL A   1      44.258  32.610  31.380  1.00  0.00     0.057 A 
ATOM     55  C   UNL A   1      44.084  32.895  32.741  1.00  0.00     0.134 A 
ATOM     56  C   UNL A   1      44.647  33.665  30.545  1.00  0.00     0.134 A 
ATOM     57  F   UNL A   1      43.703  31.933  33.595  1.00  0.00    -0.206 F 
ATOM     58  C   UNL A   1      44.263  34.184  33.246  1.00  0.00     0.040 A 
ATOM     59  C   UNL A   1      44.859  34.952  31.044  1.00  0.00     0.040 A 
ATOM     60  F   UNL A   1      44.840  33.462  29.233  1.00  0.00    -0.206 F 
ATOM     61  C   UNL A   1      44.660  35.216  32.397  1.00  0.00     0.006 A 
ENDBRANCH  40  54
BRANCH  41  62
ATOM     62  C   UNL A   1      42.702  23.584  27.412  1.00  0.00     0.057 A 
ATOM     63  C   UNL A   1      42.382  22.469  28.197  1.00  0.00     0.134 A 
ATOM     64  C   UNL A   1      42.823  23.386  26.032  1.00  0.00     0.134 A 
ATOM     65  F   UNL A   1      42.271  22.591  29.528  1.00  0.00    -0.206 F 
ATOM     66  C   UNL A   1      42.214  21.202  27.636  1.00  0.00     0.040 A 
ATOM     67  C   UNL A   1      42.628  22.130  25.453  1.00  0.00     0.040 A 
ATOM     68  F   UNL A   1      43.118  24.413  25.223  1.00  0.00    -0.206 F 
ATOM     69  C   UNL A   1      42.333  21.032  26.258  1.00  0.00     0.006 A 
ENDBRANCH  41  62
BRANCH  53  70
ATOM     70  C   UNL A   1      48.274  26.750  30.146  1.00  0.00     0.057 A 
ATOM     71  C   UNL A   1      49.302  27.054  29.245  1.00  0.00     0.134 A 
ATOM     72  C   UNL A   1      48.620  26.045  31.307  1.00  0.00     0.134 A 
ATOM     73  F   UNL A   1      49.037  27.715  28.108  1.00  0.00    -0.206 F 
ATOM     74  C   UNL A   1      50.619  26.656  29.481  1.00  0.00     0.040 A 
ATOM     75  C   UNL A   1      49.938  25.668  31.569  1.00  0.00     0.040 A 
ATOM     76  F   UNL A   1      47.686  25.728  32.217  1.00  0.00    -0.206 F 
ATOM     77  C   UNL A   1      50.942  25.968  30.650  1.00  0.00     0.006 A 
ENDBRANCH  53  70
ENDBRANCH  27  28
ENDBRANCH  19  22
ENDBRANCH  17  18
ENDBRANCH   1  17
TORSDOF 11
ENDMDL
MODEL 3
REMARK VINA RESULT:     -10.0      4.112     10.015
REMARK SMILES O=C(C[NH+]1CC2(CCCC2)C1)NCCCNC(=O)c1ccc(-c2c3nc(c(-c4c(F)cccc4F)c4ccc([nH]4)c(-c4c(F)cccc4F)c4nc(c(-c5c(F)cccc5F)c5ccc2[nH]5)C=C4)C=C3)cc1
REMARK SMILES IDX 14 1 13 2 12 3 1 4 2 5 3 7 4 8 5 9 11 10 6 12 7 13 10 14
REMARK SMILES IDX 8 15 9 16 15 17 16 18 17 19 18 21 19 22 20 23 72 24 21 25
REMARK SMILES IDX 71 26 22 27 23 28 24 29 65 30 25 31 70 32 64 33 66 34 26 35
REMARK SMILES IDX 69 36 63 37 62 38 27 40 53 41 36 42 52 43 37 44 40 45 51 46
REMARK SMILES IDX 67 47 38 48 39 49 50 51 68 52 41 53 28 54 29 55 34 56 30 57
REMARK SMILES IDX 31 58 33 59 35 60 32 61 54 62 55 63 60 64 56 65 57 66 59 67
REMARK SMILES IDX 61 68 58 69 42 70 43 71 48 72 44 73 45 74 47 75 49 76 46 77
REMARK H PARENT 12 6 4 11 16 20 66 39 40 50
REMARK Flexibility Score: inf
ROOT
ATOM      1  C   UNL A   1      33.628  35.018  32.564  1.00  0.00     0.042 C 
ENDROOT
BRANCH   1   2
ATOM      2  C   UNL A   1      34.838  35.200  33.469  1.00  0.00     0.118 C 
BRANCH   2   3
ATOM      3  N   UNL A   1      35.800  34.132  33.315  1.00  0.00    -0.351 N 
ATOM      4  O   UNL A   1      35.891  33.607  35.544  1.00  0.00    -0.269 OA
ATOM      5  C   UNL A   1      36.232  33.384  34.385  1.00  0.00     0.275 C 
ATOM      6  H   UNL A   1      36.155  33.935  32.418  1.00  0.00     0.163 HD
BRANCH   5   7
ATOM      7  C   UNL A   1      37.214  32.275  34.030  1.00  0.00     0.363 C 
BRANCH   7   8
ATOM      8  N   UNL A   1      38.368  32.137  34.954  1.00  0.00    -0.326 N 
ATOM      9  C   UNL A   1      39.707  31.989  34.324  1.00  0.00     0.275 C 
ATOM     10  C   UNL A   1      38.466  30.708  35.379  1.00  0.00     0.275 C 
ATOM     11  H   UNL A   1      38.214  32.927  35.579  1.00  0.00     0.348 HD
ATOM     12  C   UNL A   1      39.529  30.455  34.265  1.00  0.00     0.068 C 
ATOM     13  C   UNL A   1      39.096  29.944  32.883  1.00  0.00     0.019 C 
ATOM     14  C   UNL A   1      40.705  29.576  34.714  1.00  0.00     0.019 C 
ATOM     15  C   UNL A   1      39.699  28.553  32.788  1.00  0.00     0.001 C 
ATOM     16  C   UNL A   1      41.028  28.701  33.507  1.00  0.00     0.001 C 
ENDBRANCH   7   8
ENDBRANCH   5   7
ENDBRANCH   2   3
ENDBRANCH   1   2
BRANCH   1  17
ATOM     17  C   UNL A   1      33.600  35.975  31.379  1.00  0.00     0.118 C 
BRANCH  17  18
ATOM     18  N   UNL A   1      32.856  35.452  30.241  1.00  0.00    -0.352 N 
ATOM     19  C   UNL A   1      33.231  34.552  29.275  1.00  0.00     0.251 C 
ATOM     20  H   UNL A   1      31.938  35.798  30.152  1.00  0.00     0.163 HD
ATOM     21  O   UNL A   1      32.505  34.355  28.308  1.00  0.00    -0.269 OA
BRANCH  19  22
ATOM     22  C   UNL A   1      34.523  33.839  29.384  1.00  0.00     0.039 A 
ATOM     23  C   UNL A   1      35.599  34.280  28.610  1.00  0.00     0.014 A 
ATOM     24  C   UNL A   1      34.675  32.743  30.236  1.00  0.00     0.014 A 
ATOM     25  C   UNL A   1      36.847  33.668  28.746  1.00  0.00     0.010 A 
ATOM     26  C   UNL A   1      35.937  32.189  30.433  1.00  0.00     0.010 A 
ATOM     27  C   UNL A   1      37.037  32.647  29.691  1.00  0.00    -0.014 A 
BRANCH  27  28
ATOM     28  C   UNL A   1      38.379  32.054  29.927  1.00  0.00     0.031 A 
ATOM     29  C   UNL A   1      39.438  32.836  30.653  1.00  0.00     0.074 A 
ATOM     30  C   UNL A   1      38.666  30.836  29.426  1.00  0.00     0.049 A 
ATOM     31  N   UNL A   1      40.686  32.516  30.890  1.00  0.00    -0.248 NA
ATOM     32  C   UNL A   1      39.053  34.163  31.159  1.00  0.00     0.031 C 
ATOM     33  C   UNL A   1      37.741  29.995  28.663  1.00  0.00     0.029 A 
ATOM     34  N   UNL A   1      39.822  30.098  29.472  1.00  0.00    -0.354 N 
ATOM     35  C   UNL A   1      41.235  33.603  31.558  1.00  0.00     0.074 A 
ATOM     36  C   UNL A   1      40.202  34.614  31.639  1.00  0.00     0.031 C 
ATOM     37  C   UNL A   1      38.357  28.849  28.335  1.00  0.00     0.029 A 
ATOM     38  C   UNL A   1      39.732  28.890  28.823  1.00  0.00     0.049 A 
ATOM     39  H   UNL A   1      40.639  30.404  29.929  1.00  0.00     0.167 HD
ATOM     40  C   UNL A   1      42.479  33.738  32.076  1.00  0.00     0.037 A 
ATOM     41  C   UNL A   1      40.655  27.929  28.630  1.00  0.00     0.037 A 
ATOM     42  C   UNL A   1      43.499  32.725  32.008  1.00  0.00     0.049 A 
ATOM     43  C   UNL A   1      42.037  28.113  29.197  1.00  0.00     0.074 A 
ATOM     44  C   UNL A   1      44.772  32.746  32.551  1.00  0.00     0.029 A 
ATOM     45  N   UNL A   1      43.364  31.511  31.351  1.00  0.00    -0.354 N 
ATOM     46  N   UNL A   1      42.521  29.118  29.886  1.00  0.00    -0.248 NA
ATOM     47  C   UNL A   1      42.999  27.028  28.962  1.00  0.00     0.031 C 
ATOM     48  C   UNL A   1      45.427  31.569  32.175  1.00  0.00     0.029 A 
ATOM     49  C   UNL A   1      44.541  30.786  31.453  1.00  0.00     0.049 A 
ATOM     50  H   UNL A   1      42.553  31.208  30.882  1.00  0.00     0.167 HD
ATOM     51  C   UNL A   1      43.829  28.771  30.198  1.00  0.00     0.074 A 
ATOM     52  C   UNL A   1      44.059  27.458  29.631  1.00  0.00     0.031 C 
ATOM     53  C   UNL A   1      44.754  29.474  30.896  1.00  0.00     0.037 A 
BRANCH  40  54
ATOM     54  C   UNL A   1      42.806  35.033  32.765  1.00  0.00     0.057 A 
ATOM     55  C   UNL A   1      43.402  36.104  32.085  1.00  0.00     0.134 A 
ATOM     56  C   UNL A   1      42.486  35.225  34.115  1.00  0.00     0.134 A 
ATOM     57  F   UNL A   1      43.744  35.984  30.794  1.00  0.00    -0.206 F 
ATOM     58  C   UNL A   1      43.693  37.307  32.730  1.00  0.00     0.040 A 
ATOM     59  C   UNL A   1      42.743  36.436  34.762  1.00  0.00     0.040 A 
ATOM     60  F   UNL A   1      41.905  34.246  34.826  1.00  0.00    -0.206 F 
ATOM     61  C   UNL A   1      43.356  37.479  34.071  1.00  0.00     0.006 A 
ENDBRANCH  40  54
BRANCH  41  62
ATOM     62  C   UNL A   1      40.303  26.696  27.880  1.00  0.00     0.057 A 
ATOM     63  C   UNL A   1      39.507  25.701  28.460  1.00  0.00     0.134 A 
ATOM     64  C   UNL A   1      40.759  26.477  26.575  1.00  0.00     0.134 A 
ATOM     65  F   UNL A   1      39.055  25.843  29.714  1.00  0.00    -0.206 F 
ATOM     66  C   UNL A   1      39.198  24.522  27.779  1.00  0.00     0.040 A 
ATOM     67  C   UNL A   1      40.433  25.316  25.871  1.00  0.00     0.040 A 
ATOM     68  F   UNL A   1      41.517  27.395  25.959  1.00  0.00    -0.206 F 
ATOM     69  C   UNL A   1      39.658  24.330  26.478  1.00  0.00     0.006 A 
ENDBRANCH  41  62
BRANCH  53  70
ATOM     70  C   UNL A   1      46.087  28.823  31.131  1.00  0.00     0.057 A 
ATOM     71  C   UNL A   1      47.167  29.001  30.258  1.00  0.00     0.134 A 
ATOM     72  C   UNL A   1      46.302  28.045  32.276  1.00  0.00     0.134 A 
ATOM     73  F   UNL A   1      47.025  29.723  29.137  1.00  0.00    -0.206 F 
ATOM     74  C   UNL A   1      48.408  28.411  30.506  1.00  0.00     0.040 A 
ATOM     75  C   UNL A   1      47.547  27.476  32.550  1.00  0.00     0.040 A 
ATOM     76  F   UNL A   1      45.312  27.841  33.159  1.00  0.00    -0.206 F 
ATOM     77  C   UNL A   1      48.603  27.653  31.660  1.00  0.00     0.006 A 
ENDBRANCH  53  70
ENDBRANCH  27  28
ENDBRANCH  19  22
ENDBRANCH  17  18
ENDBRANCH   1  17
TORSDOF 11
ENDMDL
