MODEL 1
REMARK VINA RESULT:     -12.7      0.000      0.000
REMARK SMILES C[C@@H](C(=O)NCCCNC(=O)c1ccc(-c2c3nc(c(-c4c(F)cccc4F)c4ccc([nH]4)c(-c4c(F)cccc4F)c4nc(c(-c5c(F)cccc5F)c5ccc2[nH]5)C=C4)C=C3)cc1)c1ccc(C[C@H]2CCC[C@H]2O)cc1-c1ccc(O)cc1
REMARK SMILES IDX 6 1 5 2 3 3 4 4 2 6 1 7 66 8 67 9 78 10 68 11 77 12 69 13
REMARK SMILES IDX 79 14 80 15 85 16 81 17 84 18 82 19 83 20 70 22 71 23 72 24
REMARK SMILES IDX 75 25 73 26 74 27 76 28 7 30 8 31 9 32 10 33 11 35 12 36
REMARK SMILES IDX 13 37 65 38 14 39 64 40 15 41 16 42 17 43 58 44 18 45 63 46
REMARK SMILES IDX 57 47 59 48 19 49 62 50 56 51 55 52 20 54 46 55 29 56 45 57
REMARK SMILES IDX 30 58 33 59 44 60 60 61 31 62 32 63 43 65 61 66 34 67 21 68
REMARK SMILES IDX 22 69 27 70 23 71 24 72 26 73 28 74 25 75 47 76 48 77 53 78
REMARK SMILES IDX 49 79 50 80 52 81 54 82 51 83 35 84 36 85 41 86 37 87 38 88
REMARK SMILES IDX 40 89 42 90 39 91
REMARK H PARENT 5 5 83 21 76 29 9 34 59 53 33 64
REMARK Flexibility Score: inf
ROOT
ATOM      1  C   UNL A   1      31.147  30.843  25.360  1.00  0.00     0.117 C 
ENDROOT
BRANCH   1   2
ATOM      2  N   UNL A   1      32.439  30.193  25.299  1.00  0.00    -0.356 N 
ATOM      3  C   UNL A   1      32.822  28.946  25.694  1.00  0.00     0.227 C 
ATOM      4  O   UNL A   1      34.026  28.698  25.595  1.00  0.00    -0.274 OA
ATOM      5  H   UNL A   1      33.158  30.741  24.911  1.00  0.00     0.163 HD
BRANCH   3   6
ATOM      6  C   UNL A   1      31.777  27.927  26.200  1.00  0.00     0.106 C 
ATOM      7  C   UNL A   1      31.761  27.819  27.725  1.00  0.00     0.023 C 
BRANCH   6   8
ATOM      8  C   UNL A   1      31.997  26.551  25.565  1.00  0.00    -0.028 A 
ATOM      9  C   UNL A   1      32.966  25.704  26.135  1.00  0.00     0.005 A 
ATOM     10  C   UNL A   1      31.287  26.108  24.425  1.00  0.00    -0.014 A 
ATOM     11  C   UNL A   1      33.285  24.480  25.561  1.00  0.00     0.004 A 
ATOM     12  C   UNL A   1      31.678  24.891  23.824  1.00  0.00     0.012 A 
ATOM     13  C   UNL A   1      32.703  24.094  24.357  1.00  0.00    -0.047 A 
BRANCH  10  14
ATOM     14  C   UNL A   1      30.109  26.817  23.898  1.00  0.00    -0.018 A 
ATOM     15  C   UNL A   1      28.823  26.345  24.217  1.00  0.00     0.012 A 
ATOM     16  C   UNL A   1      30.216  27.985  23.127  1.00  0.00     0.012 A 
ATOM     17  C   UNL A   1      27.681  27.037  23.813  1.00  0.00     0.047 A 
ATOM     18  C   UNL A   1      29.072  28.690  22.731  1.00  0.00     0.047 A 
ATOM     19  C   UNL A   1      27.815  28.211  23.086  1.00  0.00     0.115 A 
BRANCH  19  20
ATOM     20  O   UNL A   1      26.674  28.877  22.745  1.00  0.00    -0.508 OA
ATOM     21  H   UNL A   1      26.068  29.138  23.411  1.00  0.00     0.293 HD
ENDBRANCH  19  20
ENDBRANCH  10  14
BRANCH  13  22
ATOM     22  C   UNL A   1      33.186  22.850  23.654  1.00  0.00     0.041 C 
BRANCH  22  23
ATOM     23  C   UNL A   1      32.727  21.491  24.218  1.00  0.00     0.022 C 
ATOM     24  C   UNL A   1      32.320  20.436  23.178  1.00  0.00     0.007 C 
ATOM     25  C   UNL A   1      33.650  20.740  25.193  1.00  0.00     0.117 C 
ATOM     26  C   UNL A   1      32.588  19.075  23.826  1.00  0.00     0.003 C 
ATOM     27  C   UNL A   1      32.999  19.363  25.267  1.00  0.00     0.032 C 
BRANCH  25  28
ATOM     28  O   UNL A   1      34.988  20.575  24.760  1.00  0.00    -0.393 OA
ATOM     29  H   UNL A   1      35.393  21.446  24.625  1.00  0.00     0.210 HD
ENDBRANCH  25  28
ENDBRANCH  22  23
ENDBRANCH  13  22
ENDBRANCH   6   8
ENDBRANCH   3   6
ENDBRANCH   1   2
BRANCH   1  30
ATOM     30  C   UNL A   1      31.075  31.836  26.516  1.00  0.00     0.042 C 
BRANCH  30  31
ATOM     31  C   UNL A   1      32.415  32.470  26.873  1.00  0.00     0.118 C 
BRANCH  31  32
ATOM     32  N   UNL A   1      32.274  33.817  27.406  1.00  0.00    -0.352 N 
ATOM     33  C   UNL A   1      33.017  34.456  28.373  1.00  0.00     0.251 C 
ATOM     34  H   UNL A   1      31.542  34.349  27.018  1.00  0.00     0.163 HD
ATOM     35  O   UNL A   1      32.645  35.530  28.827  1.00  0.00    -0.269 OA
BRANCH  33  36
ATOM     36  C   UNL A   1      34.255  33.827  28.878  1.00  0.00     0.039 A 
ATOM     37  C   UNL A   1      35.492  34.336  28.472  1.00  0.00     0.014 A 
ATOM     38  C   UNL A   1      34.193  32.741  29.753  1.00  0.00     0.014 A 
ATOM     39  C   UNL A   1      36.669  33.805  29.009  1.00  0.00     0.010 A 
ATOM     40  C   UNL A   1      35.358  32.265  30.342  1.00  0.00     0.010 A 
ATOM     41  C   UNL A   1      36.607  32.791  29.975  1.00  0.00    -0.014 A 
BRANCH  41  42
ATOM     42  C   UNL A   1      37.822  32.241  30.625  1.00  0.00     0.031 A 
ATOM     43  C   UNL A   1      38.565  31.113  29.968  1.00  0.00     0.074 A 
ATOM     44  C   UNL A   1      38.181  32.662  31.853  1.00  0.00     0.049 A 
ATOM     45  N   UNL A   1      39.513  30.351  30.450  1.00  0.00    -0.248 NA
ATOM     46  C   UNL A   1      38.155  30.774  28.597  1.00  0.00     0.031 C 
ATOM     47  C   UNL A   1      37.520  33.725  32.610  1.00  0.00     0.029 A 
ATOM     48  N   UNL A   1      39.170  32.218  32.694  1.00  0.00    -0.354 N 
ATOM     49  C   UNL A   1      39.786  29.420  29.457  1.00  0.00     0.074 A 
ATOM     50  C   UNL A   1      38.875  29.687  28.364  1.00  0.00     0.031 C 
ATOM     51  C   UNL A   1      38.117  33.845  33.807  1.00  0.00     0.029 A 
ATOM     52  C   UNL A   1      39.170  32.840  33.918  1.00  0.00     0.049 A 
ATOM     53  H   UNL A   1      39.818  31.520  32.443  1.00  0.00     0.167 HD
ATOM     54  C   UNL A   1      40.718  28.438  29.452  1.00  0.00     0.037 A 
ATOM     55  C   UNL A   1      39.912  32.607  35.017  1.00  0.00     0.037 A 
ATOM     56  C   UNL A   1      41.640  28.196  30.530  1.00  0.00     0.049 A 
ATOM     57  C   UNL A   1      40.947  31.518  34.992  1.00  0.00     0.074 A 
ATOM     58  C   UNL A   1      42.667  27.271  30.597  1.00  0.00     0.029 A 
ATOM     59  N   UNL A   1      41.642  28.887  31.733  1.00  0.00    -0.354 N 
ATOM     60  N   UNL A   1      41.233  30.676  34.028  1.00  0.00    -0.248 NA
ATOM     61  C   UNL A   1      41.764  31.347  36.201  1.00  0.00     0.031 C 
ATOM     62  C   UNL A   1      43.265  27.375  31.857  1.00  0.00     0.029 A 
ATOM     63  C   UNL A   1      42.641  28.397  32.557  1.00  0.00     0.049 A 
ATOM     64  H   UNL A   1      41.025  29.618  31.967  1.00  0.00     0.167 HD
ATOM     65  C   UNL A   1      42.280  29.896  34.502  1.00  0.00     0.074 A 
ATOM     66  C   UNL A   1      42.579  30.365  35.839  1.00  0.00     0.031 C 
ATOM     67  C   UNL A   1      42.936  28.886  33.881  1.00  0.00     0.037 A 
BRANCH  54  68
ATOM     68  C   UNL A   1      40.770  27.548  28.243  1.00  0.00     0.057 A 
ATOM     69  C   UNL A   1      41.537  27.873  27.117  1.00  0.00     0.134 A 
ATOM     70  C   UNL A   1      40.039  26.355  28.205  1.00  0.00     0.134 A 
ATOM     71  F   UNL A   1      42.251  29.008  27.083  1.00  0.00    -0.206 F 
ATOM     72  C   UNL A   1      41.541  27.064  25.978  1.00  0.00     0.040 A 
ATOM     73  C   UNL A   1      40.059  25.523  27.084  1.00  0.00     0.040 A 
ATOM     74  F   UNL A   1      39.289  25.979  29.252  1.00  0.00    -0.206 F 
ATOM     75  C   UNL A   1      40.802  25.883  25.962  1.00  0.00     0.006 A 
ENDBRANCH  54  68
BRANCH  55  76
ATOM     76  C   UNL A   1      39.700  33.435  36.229  1.00  0.00     0.057 A 
ATOM     77  C   UNL A   1      40.347  34.666  36.383  1.00  0.00     0.134 A 
ATOM     78  C   UNL A   1      38.819  33.038  37.243  1.00  0.00     0.134 A 
ATOM     79  F   UNL A   1      41.214  35.093  35.452  1.00  0.00    -0.206 F 
ATOM     80  C   UNL A   1      40.130  35.472  37.501  1.00  0.00     0.040 A 
ATOM     81  C   UNL A   1      38.577  33.843  38.357  1.00  0.00     0.040 A 
ATOM     82  F   UNL A   1      38.161  31.873  37.149  1.00  0.00    -0.206 F 
ATOM     83  C   UNL A   1      39.236  35.062  38.489  1.00  0.00     0.006 A 
ENDBRANCH  55  76
BRANCH  67  84
ATOM     84  C   UNL A   1      44.075  28.244  34.614  1.00  0.00     0.057 A 
ATOM     85  C   UNL A   1      43.903  27.086  35.382  1.00  0.00     0.134 A 
ATOM     86  C   UNL A   1      45.375  28.748  34.484  1.00  0.00     0.134 A 
ATOM     87  F   UNL A   1      42.681  26.560  35.556  1.00  0.00    -0.206 F 
ATOM     88  C   UNL A   1      44.984  26.456  36.000  1.00  0.00     0.040 A 
ATOM     89  C   UNL A   1      46.467  28.116  35.078  1.00  0.00     0.040 A 
ATOM     90  F   UNL A   1      45.607  29.851  33.755  1.00  0.00    -0.206 F 
ATOM     91  C   UNL A   1      46.272  26.965  35.840  1.00  0.00     0.006 A 
ENDBRANCH  67  84
ENDBRANCH  41  42
ENDBRANCH  33  36
ENDBRANCH  31  32
ENDBRANCH  30  31
ENDBRANCH   1  30
TORSDOF 16
ENDMDL
MODEL 2
REMARK VINA RESULT:     -12.6      0.216      1.285
REMARK SMILES C[C@@H](C(=O)NCCCNC(=O)c1ccc(-c2c3nc(c(-c4c(F)cccc4F)c4ccc([nH]4)c(-c4c(F)cccc4F)c4nc(c(-c5c(F)cccc5F)c5ccc2[nH]5)C=C4)C=C3)cc1)c1ccc(C[C@H]2CCC[C@H]2O)cc1-c1ccc(O)cc1
REMARK SMILES IDX 6 1 5 2 3 3 4 4 2 6 1 7 66 8 67 9 78 10 68 11 77 12 69 13
REMARK SMILES IDX 79 14 80 15 85 16 81 17 84 18 82 19 83 20 70 22 71 23 72 24
REMARK SMILES IDX 75 25 73 26 74 27 76 28 7 30 8 31 9 32 10 33 11 35 12 36
REMARK SMILES IDX 13 37 65 38 14 39 64 40 15 41 16 42 17 43 58 44 18 45 63 46
REMARK SMILES IDX 57 47 59 48 19 49 62 50 56 51 55 52 20 54 46 55 29 56 45 57
REMARK SMILES IDX 30 58 33 59 44 60 60 61 31 62 32 63 43 65 61 66 34 67 21 68
REMARK SMILES IDX 22 69 27 70 23 71 24 72 26 73 28 74 25 75 47 76 48 77 53 78
REMARK SMILES IDX 49 79 50 80 52 81 54 82 51 83 35 84 36 85 41 86 37 87 38 88
REMARK SMILES IDX 40 89 42 90 39 91
REMARK H PARENT 5 5 83 21 76 29 9 34 59 53 33 64
REMARK Flexibility Score: inf
ROOT
ATOM      1  C   UNL A   1      31.128  30.933  25.584  1.00  0.00     0.117 C 
ENDROOT
BRANCH   1   2
ATOM      2  N   UNL A   1      32.379  30.250  25.324  1.00  0.00    -0.356 N 
ATOM      3  C   UNL A   1      32.757  28.967  25.583  1.00  0.00     0.227 C 
ATOM      4  O   UNL A   1      33.931  28.691  25.324  1.00  0.00    -0.274 OA
ATOM      5  H   UNL A   1      33.066  30.803  24.890  1.00  0.00     0.163 HD
BRANCH   3   6
ATOM      6  C   UNL A   1      31.742  27.946  26.141  1.00  0.00     0.106 C 
ATOM      7  C   UNL A   1      31.829  27.808  27.662  1.00  0.00     0.023 C 
BRANCH   6   8
ATOM      8  C   UNL A   1      31.906  26.581  25.467  1.00  0.00    -0.028 A 
ATOM      9  C   UNL A   1      32.807  25.662  26.038  1.00  0.00     0.005 A 
ATOM     10  C   UNL A   1      31.212  26.215  24.290  1.00  0.00    -0.014 A 
ATOM     11  C   UNL A   1      33.076  24.442  25.433  1.00  0.00     0.004 A 
ATOM     12  C   UNL A   1      31.555  24.999  23.660  1.00  0.00     0.012 A 
ATOM     13  C   UNL A   1      32.515  24.128  24.199  1.00  0.00    -0.047 A 
BRANCH  10  14
ATOM     14  C   UNL A   1      30.093  27.007  23.750  1.00  0.00    -0.018 A 
ATOM     15  C   UNL A   1      28.774  26.636  24.066  1.00  0.00     0.012 A 
ATOM     16  C   UNL A   1      30.292  28.156  22.968  1.00  0.00     0.012 A 
ATOM     17  C   UNL A   1      27.689  27.410  23.649  1.00  0.00     0.047 A 
ATOM     18  C   UNL A   1      29.208  28.942  22.559  1.00  0.00     0.047 A 
ATOM     19  C   UNL A   1      27.916  28.563  22.912  1.00  0.00     0.115 A 
BRANCH  19  20
ATOM     20  O   UNL A   1      26.830  29.310  22.559  1.00  0.00    -0.508 OA
ATOM     21  H   UNL A   1      26.708  30.162  22.929  1.00  0.00     0.293 HD
ENDBRANCH  19  20
ENDBRANCH  10  14
BRANCH  13  22
ATOM     22  C   UNL A   1      32.952  22.882  23.469  1.00  0.00     0.041 C 
BRANCH  22  23
ATOM     23  C   UNL A   1      32.587  21.524  24.100  1.00  0.00     0.022 C 
ATOM     24  C   UNL A   1      32.275  20.388  23.113  1.00  0.00     0.007 C 
ATOM     25  C   UNL A   1      33.549  20.896  25.123  1.00  0.00     0.117 C 
ATOM     26  C   UNL A   1      32.633  19.087  23.836  1.00  0.00     0.003 C 
ATOM     27  C   UNL A   1      33.001  19.481  25.264  1.00  0.00     0.032 C 
BRANCH  25  28
ATOM     28  O   UNL A   1      34.901  20.810  24.714  1.00  0.00    -0.393 OA
ATOM     29  H   UNL A   1      35.363  21.629  24.951  1.00  0.00     0.210 HD
ENDBRANCH  25  28
ENDBRANCH  22  23
ENDBRANCH  13  22
ENDBRANCH   6   8
ENDBRANCH   3   6
ENDBRANCH   1   2
BRANCH   1  30
ATOM     30  C   UNL A   1      31.232  31.841  26.804  1.00  0.00     0.042 C 
BRANCH  30  31
ATOM     31  C   UNL A   1      32.533  32.632  26.880  1.00  0.00     0.118 C 
BRANCH  31  32
ATOM     32  N   UNL A   1      32.364  33.933  27.512  1.00  0.00    -0.352 N 
ATOM     33  C   UNL A   1      33.082  34.506  28.536  1.00  0.00     0.251 C 
ATOM     34  H   UNL A   1      31.630  34.483  27.153  1.00  0.00     0.163 HD
ATOM     35  O   UNL A   1      32.688  35.538  29.064  1.00  0.00    -0.269 OA
BRANCH  33  36
ATOM     36  C   UNL A   1      34.322  33.858  29.011  1.00  0.00     0.039 A 
ATOM     37  C   UNL A   1      35.558  34.361  28.592  1.00  0.00     0.014 A 
ATOM     38  C   UNL A   1      34.263  32.760  29.872  1.00  0.00     0.014 A 
ATOM     39  C   UNL A   1      36.738  33.810  29.102  1.00  0.00     0.010 A 
ATOM     40  C   UNL A   1      35.433  32.264  30.435  1.00  0.00     0.010 A 
ATOM     41  C   UNL A   1      36.682  32.783  30.055  1.00  0.00    -0.014 A 
BRANCH  41  42
ATOM     42  C   UNL A   1      37.902  32.212  30.676  1.00  0.00     0.031 A 
ATOM     43  C   UNL A   1      38.623  31.087  29.990  1.00  0.00     0.074 A 
ATOM     44  C   UNL A   1      38.284  32.611  31.904  1.00  0.00     0.049 A 
ATOM     45  N   UNL A   1      39.571  30.310  30.445  1.00  0.00    -0.248 NA
ATOM     46  C   UNL A   1      38.188  30.773  28.621  1.00  0.00     0.031 C 
ATOM     47  C   UNL A   1      37.645  33.667  32.689  1.00  0.00     0.029 A 
ATOM     48  N   UNL A   1      39.282  32.144  32.722  1.00  0.00    -0.354 N 
ATOM     49  C   UNL A   1      39.819  29.391  29.434  1.00  0.00     0.074 A 
ATOM     50  C   UNL A   1      38.894  29.683  28.360  1.00  0.00     0.031 C 
ATOM     51  C   UNL A   1      38.262  33.764  33.877  1.00  0.00     0.029 A 
ATOM     52  C   UNL A   1      39.307  32.747  33.956  1.00  0.00     0.049 A 
ATOM     53  H   UNL A   1      39.919  31.444  32.451  1.00  0.00     0.167 HD
ATOM     54  C   UNL A   1      40.742  28.400  29.399  1.00  0.00     0.037 A 
ATOM     55  C   UNL A   1      40.065  32.491  35.039  1.00  0.00     0.037 A 
ATOM     56  C   UNL A   1      41.678  28.134  30.458  1.00  0.00     0.049 A 
ATOM     57  C   UNL A   1      41.089  31.393  34.980  1.00  0.00     0.074 A 
ATOM     58  C   UNL A   1      42.697  27.198  30.494  1.00  0.00     0.029 A 
ATOM     59  N   UNL A   1      41.707  28.806  31.672  1.00  0.00    -0.354 N 
ATOM     60  N   UNL A   1      41.352  30.563  34.000  1.00  0.00    -0.248 NA
ATOM     61  C   UNL A   1      41.924  31.196  36.174  1.00  0.00     0.031 C 
ATOM     62  C   UNL A   1      43.317  27.277  31.746  1.00  0.00     0.029 A 
ATOM     63  C   UNL A   1      42.714  28.294  32.471  1.00  0.00     0.049 A 
ATOM     64  H   UNL A   1      41.100  29.539  31.927  1.00  0.00     0.167 HD
ATOM     65  C   UNL A   1      42.399  29.766  34.444  1.00  0.00     0.074 A 
ATOM     66  C   UNL A   1      42.724  30.212  35.784  1.00  0.00     0.031 C 
ATOM     67  C   UNL A   1      43.034  28.759  33.797  1.00  0.00     0.037 A 
BRANCH  54  68
ATOM     68  C   UNL A   1      40.766  27.529  28.176  1.00  0.00     0.057 A 
ATOM     69  C   UNL A   1      40.048  26.329  28.106  1.00  0.00     0.134 A 
ATOM     70  C   UNL A   1      41.524  27.894  27.056  1.00  0.00     0.134 A 
ATOM     71  F   UNL A   1      39.312  25.914  29.148  1.00  0.00    -0.206 F 
ATOM     72  C   UNL A   1      40.116  25.500  26.983  1.00  0.00     0.040 A 
ATOM     73  C   UNL A   1      41.576  27.090  25.917  1.00  0.00     0.040 A 
ATOM     74  F   UNL A   1      42.231  29.035  27.053  1.00  0.00    -0.206 F 
ATOM     75  C   UNL A   1      40.880  25.884  25.883  1.00  0.00     0.006 A 
ENDBRANCH  54  68
BRANCH  55  76
ATOM     76  C   UNL A   1      39.880  33.302  36.267  1.00  0.00     0.057 A 
ATOM     77  C   UNL A   1      38.987  32.903  37.267  1.00  0.00     0.134 A 
ATOM     78  C   UNL A   1      40.619  34.471  36.490  1.00  0.00     0.134 A 
ATOM     79  F   UNL A   1      38.240  31.800  37.103  1.00  0.00    -0.206 F 
ATOM     80  C   UNL A   1      38.829  33.638  38.443  1.00  0.00     0.040 A 
ATOM     81  C   UNL A   1      40.487  35.204  37.670  1.00  0.00     0.040 A 
ATOM     82  F   UNL A   1      41.500  34.900  35.574  1.00  0.00    -0.206 F 
ATOM     83  C   UNL A   1      39.587  34.789  38.649  1.00  0.00     0.006 A 
ENDBRANCH  55  76
BRANCH  67  84
ATOM     84  C   UNL A   1      44.179  28.096  34.502  1.00  0.00     0.057 A 
ATOM     85  C   UNL A   1      44.008  26.928  35.255  1.00  0.00     0.134 A 
ATOM     86  C   UNL A   1      45.482  28.590  34.359  1.00  0.00     0.134 A 
ATOM     87  F   UNL A   1      42.784  26.411  35.441  1.00  0.00    -0.206 F 
ATOM     88  C   UNL A   1      45.093  26.279  35.846  1.00  0.00     0.040 A 
ATOM     89  C   UNL A   1      46.577  27.938  34.925  1.00  0.00     0.040 A 
ATOM     90  F   UNL A   1      45.713  29.701  33.643  1.00  0.00    -0.206 F 
ATOM     91  C   UNL A   1      46.384  26.778  35.673  1.00  0.00     0.006 A 
ENDBRANCH  67  84
ENDBRANCH  41  42
ENDBRANCH  33  36
ENDBRANCH  31  32
ENDBRANCH  30  31
ENDBRANCH   1  30
TORSDOF 16
ENDMDL
MODEL 3
REMARK VINA RESULT:     -12.4      1.230      6.262
REMARK SMILES C[C@@H](C(=O)NCCCNC(=O)c1ccc(-c2c3nc(c(-c4c(F)cccc4F)c4ccc([nH]4)c(-c4c(F)cccc4F)c4nc(c(-c5c(F)cccc5F)c5ccc2[nH]5)C=C4)C=C3)cc1)c1ccc(C[C@H]2CCC[C@H]2O)cc1-c1ccc(O)cc1
REMARK SMILES IDX 6 1 5 2 3 3 4 4 2 6 1 7 66 8 67 9 78 10 68 11 77 12 69 13
REMARK SMILES IDX 79 14 80 15 85 16 81 17 84 18 82 19 83 20 70 22 71 23 72 24
REMARK SMILES IDX 75 25 73 26 74 27 76 28 7 30 8 31 9 32 10 33 11 35 12 36
REMARK SMILES IDX 13 37 65 38 14 39 64 40 15 41 16 42 17 43 58 44 18 45 63 46
REMARK SMILES IDX 57 47 59 48 19 49 62 50 56 51 55 52 20 54 46 55 29 56 45 57
REMARK SMILES IDX 30 58 33 59 44 60 60 61 31 62 32 63 43 65 61 66 34 67 21 68
REMARK SMILES IDX 22 69 27 70 23 71 24 72 26 73 28 74 25 75 47 76 48 77 53 78
REMARK SMILES IDX 49 79 50 80 52 81 54 82 51 83 35 84 36 85 41 86 37 87 38 88
REMARK SMILES IDX 40 89 42 90 39 91
REMARK H PARENT 5 5 83 21 76 29 9 34 59 53 33 64
REMARK Flexibility Score: inf
ROOT
ATOM      1  C   UNL A   1      31.356  31.427  26.432  1.00  0.00     0.117 C 
ENDROOT
BRANCH   1   2
ATOM      2  N   UNL A   1      32.641  30.780  26.270  1.00  0.00    -0.356 N 
ATOM      3  C   UNL A   1      32.973  29.458  26.275  1.00  0.00     0.227 C 
ATOM      4  O   UNL A   1      34.179  29.208  26.199  1.00  0.00    -0.274 OA
ATOM      5  H   UNL A   1      33.397  31.395  26.135  1.00  0.00     0.163 HD
BRANCH   3   6
ATOM      6  C   UNL A   1      31.877  28.373  26.345  1.00  0.00     0.106 C 
ATOM      7  C   UNL A   1      31.468  28.050  27.783  1.00  0.00     0.023 C 
BRANCH   6   8
ATOM      8  C   UNL A   1      32.312  27.102  25.611  1.00  0.00    -0.028 A 
ATOM      9  C   UNL A   1      33.165  26.206  26.284  1.00  0.00     0.005 A 
ATOM     10  C   UNL A   1      31.916  26.804  24.287  1.00  0.00    -0.014 A 
ATOM     11  C   UNL A   1      33.674  25.079  25.651  1.00  0.00     0.004 A 
ATOM     12  C   UNL A   1      32.501  25.690  23.646  1.00  0.00     0.012 A 
ATOM     13  C   UNL A   1      33.413  24.848  24.303  1.00  0.00    -0.047 A 
BRANCH  10  14
ATOM     14  C   UNL A   1      30.858  27.553  23.587  1.00  0.00    -0.018 A 
ATOM     15  C   UNL A   1      29.517  27.164  23.751  1.00  0.00     0.012 A 
ATOM     16  C   UNL A   1      31.131  28.682  22.798  1.00  0.00     0.012 A 
ATOM     17  C   UNL A   1      28.478  27.900  23.179  1.00  0.00     0.047 A 
ATOM     18  C   UNL A   1      30.092  29.430  22.233  1.00  0.00     0.047 A 
ATOM     19  C   UNL A   1      28.773  29.035  22.437  1.00  0.00     0.115 A 
BRANCH  19  20
ATOM     20  O   UNL A   1      27.726  29.747  21.929  1.00  0.00    -0.508 OA
ATOM     21  H   UNL A   1      26.872  29.364  21.896  1.00  0.00     0.293 HD
ENDBRANCH  19  20
ENDBRANCH  10  14
BRANCH  13  22
ATOM     22  C   UNL A   1      34.113  23.724  23.584  1.00  0.00     0.041 C 
BRANCH  22  23
ATOM     23  C   UNL A   1      35.252  23.001  24.330  1.00  0.00     0.022 C 
ATOM     24  C   UNL A   1      35.027  21.508  24.613  1.00  0.00     0.007 C 
ATOM     25  C   UNL A   1      36.680  23.079  23.765  1.00  0.00     0.117 C 
ATOM     26  C   UNL A   1      36.419  20.874  24.679  1.00  0.00     0.003 C 
ATOM     27  C   UNL A   1      37.416  22.026  24.584  1.00  0.00     0.032 C 
BRANCH  25  28
ATOM     28  O   UNL A   1      36.811  22.747  22.395  1.00  0.00    -0.393 OA
ATOM     29  H   UNL A   1      37.460  23.337  21.980  1.00  0.00     0.210 HD
ENDBRANCH  25  28
ENDBRANCH  22  23
ENDBRANCH  13  22
ENDBRANCH   6   8
ENDBRANCH   3   6
ENDBRANCH   1   2
BRANCH   1  30
ATOM     30  C   UNL A   1      31.507  32.936  26.587  1.00  0.00     0.042 C 
BRANCH  30  31
ATOM     31  C   UNL A   1      32.624  33.354  27.536  1.00  0.00     0.118 C 
BRANCH  31  32
ATOM     32  N   UNL A   1      32.527  34.750  27.939  1.00  0.00    -0.352 N 
ATOM     33  C   UNL A   1      33.171  35.411  28.959  1.00  0.00     0.251 C 
ATOM     34  H   UNL A   1      31.911  35.300  27.403  1.00  0.00     0.163 HD
ATOM     35  O   UNL A   1      32.834  36.547  29.268  1.00  0.00    -0.269 OA
BRANCH  33  36
ATOM     36  C   UNL A   1      34.259  34.735  29.696  1.00  0.00     0.039 A 
ATOM     37  C   UNL A   1      33.985  34.162  30.941  1.00  0.00     0.014 A 
ATOM     38  C   UNL A   1      35.544  34.664  29.155  1.00  0.00     0.014 A 
ATOM     39  C   UNL A   1      34.984  33.446  31.609  1.00  0.00     0.010 A 
ATOM     40  C   UNL A   1      36.512  33.890  29.783  1.00  0.00     0.010 A 
ATOM     41  C   UNL A   1      36.242  33.274  31.016  1.00  0.00    -0.014 A 
BRANCH  41  42
ATOM     42  C   UNL A   1      37.313  32.467  31.650  1.00  0.00     0.031 A 
ATOM     43  C   UNL A   1      37.895  32.912  32.962  1.00  0.00     0.074 A 
ATOM     44  C   UNL A   1      37.847  31.418  30.996  1.00  0.00     0.049 A 
ATOM     45  N   UNL A   1      38.964  32.485  33.584  1.00  0.00    -0.248 NA
ATOM     46  C   UNL A   1      37.199  34.015  33.643  1.00  0.00     0.031 C 
ATOM     47  C   UNL A   1      37.394  30.909  29.701  1.00  0.00     0.029 A 
ATOM     48  N   UNL A   1      38.913  30.616  31.316  1.00  0.00    -0.354 N 
ATOM     49  C   UNL A   1      39.090  33.290  34.707  1.00  0.00     0.074 A 
ATOM     50  C   UNL A   1      38.013  34.257  34.659  1.00  0.00     0.031 C 
ATOM     51  C   UNL A   1      38.182  29.886  29.334  1.00  0.00     0.029 A 
ATOM     52  C   UNL A   1      39.221  29.697  30.343  1.00  0.00     0.049 A 
ATOM     53  H   UNL A   1      39.410  30.693  32.163  1.00  0.00     0.167 HD
ATOM     54  C   UNL A   1      40.013  33.224  35.696  1.00  0.00     0.037 A 
ATOM     55  C   UNL A   1      40.240  28.823  30.258  1.00  0.00     0.037 A 
ATOM     56  C   UNL A   1      41.063  32.243  35.753  1.00  0.00     0.049 A 
ATOM     57  C   UNL A   1      41.251  28.757  31.367  1.00  0.00     0.074 A 
ATOM     58  C   UNL A   1      42.008  32.046  36.745  1.00  0.00     0.029 A 
ATOM     59  N   UNL A   1      41.306  31.292  34.772  1.00  0.00    -0.354 N 
ATOM     60  N   UNL A   1      41.332  29.488  32.452  1.00  0.00    -0.248 NA
ATOM     61  C   UNL A   1      42.310  27.745  31.245  1.00  0.00     0.031 C 
ATOM     62  C   UNL A   1      42.848  31.001  36.344  1.00  0.00     0.029 A 
ATOM     63  C   UNL A   1      42.398  30.517  35.126  1.00  0.00     0.049 A 
ATOM     64  H   UNL A   1      40.780  31.184  33.947  1.00  0.00     0.167 HD
ATOM     65  C   UNL A   1      42.430  29.009  33.156  1.00  0.00     0.074 A 
ATOM     66  C   UNL A   1      42.984  27.922  32.374  1.00  0.00     0.031 C 
ATOM     67  C   UNL A   1      42.928  29.429  34.343  1.00  0.00     0.037 A 
BRANCH  54  68
ATOM     68  C   UNL A   1      39.926  34.254  36.785  1.00  0.00     0.057 A 
ATOM     69  C   UNL A   1      39.207  34.026  37.966  1.00  0.00     0.134 A 
ATOM     70  C   UNL A   1      40.566  35.492  36.648  1.00  0.00     0.134 A 
ATOM     71  F   UNL A   1      38.560  32.866  38.155  1.00  0.00    -0.206 F 
ATOM     72  C   UNL A   1      39.091  35.008  38.952  1.00  0.00     0.040 A 
ATOM     73  C   UNL A   1      40.483  36.471  37.640  1.00  0.00     0.040 A 
ATOM     74  F   UNL A   1      41.278  35.774  35.546  1.00  0.00    -0.206 F 
ATOM     75  C   UNL A   1      39.734  36.234  38.791  1.00  0.00     0.006 A 
ENDBRANCH  54  68
BRANCH  55  76
ATOM     76  C   UNL A   1      40.342  27.934  29.074  1.00  0.00     0.057 A 
ATOM     77  C   UNL A   1      39.624  26.735  29.009  1.00  0.00     0.134 A 
ATOM     78  C   UNL A   1      41.126  28.278  27.966  1.00  0.00     0.134 A 
ATOM     79  F   UNL A   1      38.868  26.345  30.047  1.00  0.00    -0.206 F 
ATOM     80  C   UNL A   1      39.683  25.907  27.887  1.00  0.00     0.040 A 
ATOM     81  C   UNL A   1      41.178  27.470  26.829  1.00  0.00     0.040 A 
ATOM     82  F   UNL A   1      41.830  29.420  27.963  1.00  0.00    -0.206 F 
ATOM     83  C   UNL A   1      40.457  26.279  26.790  1.00  0.00     0.006 A 
ENDBRANCH  55  76
BRANCH  67  84
ATOM     84  C   UNL A   1      44.105  28.688  34.903  1.00  0.00     0.057 A 
ATOM     85  C   UNL A   1      43.952  27.530  35.674  1.00  0.00     0.134 A 
ATOM     86  C   UNL A   1      45.410  29.095  34.597  1.00  0.00     0.134 A 
ATOM     87  F   UNL A   1      42.729  27.094  36.012  1.00  0.00    -0.206 F 
ATOM     88  C   UNL A   1      45.057  26.807  36.128  1.00  0.00     0.040 A 
ATOM     89  C   UNL A   1      46.521  28.370  35.025  1.00  0.00     0.040 A 
ATOM     90  F   UNL A   1      45.623  30.193  33.855  1.00  0.00    -0.206 F 
ATOM     91  C   UNL A   1      46.345  27.221  35.794  1.00  0.00     0.006 A 
ENDBRANCH  67  84
ENDBRANCH  41  42
ENDBRANCH  33  36
ENDBRANCH  31  32
ENDBRANCH  30  31
ENDBRANCH   1  30
TORSDOF 16
ENDMDL
