MODEL 1
REMARK VINA RESULT:     -10.7      0.000      0.000
REMARK SMILES CCCC[C@H](NS(=O)(=O)c1cccc(F)c1)C(=O)NCCCNC(=O)c1ccc(-c2c3nc(c(-c4c(F)cccc4F)c4ccc([nH]4)c(-c4c(F)cccc4F)c4nc(c(-c5c(F)cccc5F)c5ccc2[nH]5)C=C4)C=C3)cc1
REMARK SMILES IDX 20 1 19 2 17 3 18 4 5 6 4 7 3 8 2 9 1 10 6 11 7 13 8 14 9 15
REMARK SMILES IDX 10 16 11 17 16 18 12 19 14 20 13 21 15 22 21 23 22 24 23 25
REMARK SMILES IDX 24 26 25 28 26 29 27 30 79 31 28 32 78 33 29 34 30 35 31 36
REMARK SMILES IDX 72 37 32 38 77 39 71 40 73 41 33 42 76 43 70 44 69 45 34 47
REMARK SMILES IDX 60 48 43 49 59 50 44 51 47 52 58 53 74 54 45 55 46 56 57 58
REMARK SMILES IDX 75 59 48 60 35 61 36 62 41 63 37 64 38 65 40 66 42 67 39 68
REMARK SMILES IDX 61 69 62 70 67 71 63 72 64 73 66 74 68 75 65 76 49 77 50 78
REMARK SMILES IDX 55 79 51 80 52 81 54 82 56 83 53 84
REMARK H PARENT 19 5 6 12 23 27 73 46 47 57
REMARK Flexibility Score: inf
ROOT
ATOM      1  C   UNL A   1      36.500  20.494  25.123  1.00  0.00     0.117 C 
ENDROOT
BRANCH   1   2
ATOM      2  N   UNL A   1      35.252  19.755  25.000  1.00  0.00    -0.355 N 
ATOM      3  C   UNL A   1      34.005  20.192  24.636  1.00  0.00     0.238 C 
ATOM      4  O   UNL A   1      33.157  19.348  24.340  1.00  0.00    -0.273 OA
ATOM      5  H   UNL A   1      35.313  18.795  25.208  1.00  0.00     0.163 HD
BRANCH   3   6
ATOM      6  C   UNL A   1      33.675  21.689  24.597  1.00  0.00     0.159 C 
BRANCH   6   7
ATOM      7  C   UNL A   1      32.717  22.013  25.762  1.00  0.00     0.030 C 
BRANCH   7   8
ATOM      8  C   UNL A   1      32.952  23.372  26.424  1.00  0.00     0.002 C 
BRANCH   8   9
ATOM      9  C   UNL A   1      31.686  24.085  26.890  1.00  0.00    -0.003 C 
ATOM     10  C   UNL A   1      30.411  23.320  26.565  1.00  0.00     0.004 C 
ENDBRANCH   8   9
ENDBRANCH   7   8
ENDBRANCH   6   7
BRANCH   6  11
ATOM     11  N   UNL A   1      33.082  22.035  23.277  1.00  0.00    -0.199 NA
ATOM     12  H   UNL A   1      32.083  22.180  23.426  1.00  0.00     0.142 HD
BRANCH  11  13
ATOM     13  S   UNL A   1      33.665  23.397  22.450  1.00  0.00     0.241 S 
ATOM     14  O   UNL A   1      35.057  23.496  22.825  1.00  0.00    -0.207 OA
ATOM     15  O   UNL A   1      33.273  23.277  21.064  1.00  0.00    -0.207 OA
BRANCH  13  16
ATOM     16  C   UNL A   1      32.826  24.785  23.170  1.00  0.00     0.085 A 
ATOM     17  C   UNL A   1      33.554  25.862  23.689  1.00  0.00     0.022 A 
ATOM     18  C   UNL A   1      31.429  24.809  23.182  1.00  0.00     0.061 A 
ATOM     19  C   UNL A   1      32.881  26.913  24.321  1.00  0.00     0.004 A 
ATOM     20  C   UNL A   1      30.779  25.846  23.839  1.00  0.00     0.124 A 
ATOM     21  C   UNL A   1      31.491  26.886  24.426  1.00  0.00     0.039 A 
ATOM     22  F   UNL A   1      29.443  25.835  23.929  1.00  0.00    -0.207 F 
ENDBRANCH  13  16
ENDBRANCH  11  13
ENDBRANCH   6  11
ENDBRANCH   3   6
ENDBRANCH   1   2
BRANCH   1  23
ATOM     23  C   UNL A   1      37.753  19.668  24.886  1.00  0.00     0.042 C 
BRANCH  23  24
ATOM     24  C   UNL A   1      38.936  20.069  25.751  1.00  0.00     0.118 C 
BRANCH  24  25
ATOM     25  N   UNL A   1      40.006  19.088  25.755  1.00  0.00    -0.352 N 
ATOM     26  C   UNL A   1      41.339  19.251  26.033  1.00  0.00     0.251 C 
ATOM     27  H   UNL A   1      39.735  18.171  25.523  1.00  0.00     0.163 HD
ATOM     28  O   UNL A   1      42.107  18.302  25.902  1.00  0.00    -0.269 OA
BRANCH  26  29
ATOM     29  C   UNL A   1      41.868  20.572  26.440  1.00  0.00     0.039 A 
ATOM     30  C   UNL A   1      42.196  21.485  25.435  1.00  0.00     0.014 A 
ATOM     31  C   UNL A   1      42.047  20.919  27.783  1.00  0.00     0.014 A 
ATOM     32  C   UNL A   1      42.644  22.763  25.776  1.00  0.00     0.010 A 
ATOM     33  C   UNL A   1      42.423  22.220  28.123  1.00  0.00     0.010 A 
ATOM     34  C   UNL A   1      42.724  23.156  27.122  1.00  0.00    -0.014 A 
BRANCH  34  35
ATOM     35  C   UNL A   1      43.107  24.550  27.474  1.00  0.00     0.031 A 
ATOM     36  C   UNL A   1      44.545  24.990  27.420  1.00  0.00     0.074 A 
ATOM     37  C   UNL A   1      42.154  25.423  27.860  1.00  0.00     0.049 A 
ATOM     38  N   UNL A   1      45.056  26.162  27.699  1.00  0.00    -0.248 NA
ATOM     39  C   UNL A   1      45.540  23.985  27.013  1.00  0.00     0.031 C 
ATOM     40  C   UNL A   1      40.728  25.112  27.990  1.00  0.00     0.029 A 
ATOM     41  N   UNL A   1      42.234  26.748  28.214  1.00  0.00    -0.354 N 
ATOM     42  C   UNL A   1      46.426  26.035  27.508  1.00  0.00     0.074 A 
ATOM     43  C   UNL A   1      46.675  24.661  27.131  1.00  0.00     0.031 C 
ATOM     44  C   UNL A   1      40.069  26.219  28.368  1.00  0.00     0.029 A 
ATOM     45  C   UNL A   1      41.025  27.306  28.553  1.00  0.00     0.049 A 
ATOM     46  H   UNL A   1      43.080  27.251  28.225  1.00  0.00     0.167 HD
ATOM     47  C   UNL A   1      47.383  26.984  27.615  1.00  0.00     0.037 A 
ATOM     48  C   UNL A   1      40.716  28.548  28.978  1.00  0.00     0.037 A 
ATOM     49  C   UNL A   1      47.132  28.360  27.958  1.00  0.00     0.049 A 
ATOM     50  C   UNL A   1      41.806  29.577  29.104  1.00  0.00     0.074 A 
ATOM     51  C   UNL A   1      48.038  29.404  28.020  1.00  0.00     0.029 A 
ATOM     52  N   UNL A   1      45.894  28.881  28.297  1.00  0.00    -0.354 N 
ATOM     53  N   UNL A   1      43.085  29.457  28.847  1.00  0.00    -0.248 NA
ATOM     54  C   UNL A   1      41.414  30.913  29.575  1.00  0.00     0.031 C 
ATOM     55  C   UNL A   1      47.361  30.543  28.461  1.00  0.00     0.029 A 
ATOM     56  C   UNL A   1      46.022  30.226  28.606  1.00  0.00     0.049 A 
ATOM     57  H   UNL A   1      45.051  28.373  28.316  1.00  0.00     0.167 HD
ATOM     58  C   UNL A   1      43.645  30.703  29.101  1.00  0.00     0.074 A 
ATOM     59  C   UNL A   1      42.563  31.571  29.515  1.00  0.00     0.031 C 
ATOM     60  C   UNL A   1      44.939  31.088  29.005  1.00  0.00     0.037 A 
BRANCH  47  61
ATOM     61  C   UNL A   1      48.808  26.598  27.346  1.00  0.00     0.057 A 
ATOM     62  C   UNL A   1      49.307  26.591  26.036  1.00  0.00     0.134 A 
ATOM     63  C   UNL A   1      49.636  26.095  28.357  1.00  0.00     0.134 A 
ATOM     64  F   UNL A   1      48.560  27.051  25.020  1.00  0.00    -0.206 F 
ATOM     65  C   UNL A   1      50.565  26.068  25.737  1.00  0.00     0.040 A 
ATOM     66  C   UNL A   1      50.907  25.592  28.072  1.00  0.00     0.040 A 
ATOM     67  F   UNL A   1      49.221  26.080  29.632  1.00  0.00    -0.206 F 
ATOM     68  C   UNL A   1      51.368  25.563  26.758  1.00  0.00     0.006 A 
ENDBRANCH  47  61
BRANCH  48  69
ATOM     69  C   UNL A   1      39.309  28.886  29.321  1.00  0.00     0.057 A 
ATOM     70  C   UNL A   1      38.799  28.660  30.606  1.00  0.00     0.134 A 
ATOM     71  C   UNL A   1      38.442  29.448  28.377  1.00  0.00     0.134 A 
ATOM     72  F   UNL A   1      39.575  28.118  31.556  1.00  0.00    -0.206 F 
ATOM     73  C   UNL A   1      37.479  28.968  30.936  1.00  0.00     0.040 A 
ATOM     74  C   UNL A   1      37.128  29.792  28.702  1.00  0.00     0.040 A 
ATOM     75  F   UNL A   1      38.874  29.708  27.134  1.00  0.00    -0.206 F 
ATOM     76  C   UNL A   1      36.641  29.544  29.984  1.00  0.00     0.006 A 
ENDBRANCH  48  69
BRANCH  60  77
ATOM     77  C   UNL A   1      45.275  32.516  29.324  1.00  0.00     0.057 A 
ATOM     78  C   UNL A   1      45.262  33.494  28.321  1.00  0.00     0.134 A 
ATOM     79  C   UNL A   1      45.706  32.905  30.599  1.00  0.00     0.134 A 
ATOM     80  F   UNL A   1      44.873  33.185  27.073  1.00  0.00    -0.206 F 
ATOM     81  C   UNL A   1      45.684  34.801  28.567  1.00  0.00     0.040 A 
ATOM     82  C   UNL A   1      46.102  34.216  30.865  1.00  0.00     0.040 A 
ATOM     83  F   UNL A   1      45.735  32.020  31.606  1.00  0.00    -0.206 F 
ATOM     84  C   UNL A   1      46.103  35.165  29.844  1.00  0.00     0.006 A 
ENDBRANCH  60  77
ENDBRANCH  34  35
ENDBRANCH  26  29
ENDBRANCH  24  25
ENDBRANCH  23  24
ENDBRANCH   1  23
TORSDOF 16
ENDMDL
MODEL 2
REMARK VINA RESULT:     -10.7      5.279      9.260
REMARK SMILES CCCC[C@H](NS(=O)(=O)c1cccc(F)c1)C(=O)NCCCNC(=O)c1ccc(-c2c3nc(c(-c4c(F)cccc4F)c4ccc([nH]4)c(-c4c(F)cccc4F)c4nc(c(-c5c(F)cccc5F)c5ccc2[nH]5)C=C4)C=C3)cc1
REMARK SMILES IDX 20 1 19 2 17 3 18 4 5 6 4 7 3 8 2 9 1 10 6 11 7 13 8 14 9 15
REMARK SMILES IDX 10 16 11 17 16 18 12 19 14 20 13 21 15 22 21 23 22 24 23 25
REMARK SMILES IDX 24 26 25 28 26 29 27 30 79 31 28 32 78 33 29 34 30 35 31 36
REMARK SMILES IDX 72 37 32 38 77 39 71 40 73 41 33 42 76 43 70 44 69 45 34 47
REMARK SMILES IDX 60 48 43 49 59 50 44 51 47 52 58 53 74 54 45 55 46 56 57 58
REMARK SMILES IDX 75 59 48 60 35 61 36 62 41 63 37 64 38 65 40 66 42 67 39 68
REMARK SMILES IDX 61 69 62 70 67 71 63 72 64 73 66 74 68 75 65 76 49 77 50 78
REMARK SMILES IDX 55 79 51 80 52 81 54 82 56 83 53 84
REMARK H PARENT 19 5 6 12 23 27 73 46 47 57
REMARK Flexibility Score: inf
ROOT
ATOM      1  C   UNL A   1      31.585  30.529  25.704  1.00  0.00     0.117 C 
ENDROOT
BRANCH   1   2
ATOM      2  N   UNL A   1      30.684  30.385  24.571  1.00  0.00    -0.355 N 
ATOM      3  C   UNL A   1      30.334  29.264  23.864  1.00  0.00     0.238 C 
ATOM      4  O   UNL A   1      29.355  29.329  23.119  1.00  0.00    -0.273 OA
ATOM      5  H   UNL A   1      30.260  31.219  24.265  1.00  0.00     0.163 HD
BRANCH   3   6
ATOM      6  C   UNL A   1      31.137  27.966  23.999  1.00  0.00     0.159 C 
BRANCH   6   7
ATOM      7  C   UNL A   1      31.707  27.592  22.615  1.00  0.00     0.030 C 
BRANCH   7   8
ATOM      8  C   UNL A   1      33.226  27.414  22.575  1.00  0.00     0.002 C 
BRANCH   8   9
ATOM      9  C   UNL A   1      33.697  25.994  22.274  1.00  0.00    -0.003 C 
ATOM     10  C   UNL A   1      32.718  25.205  21.417  1.00  0.00     0.004 C 
ENDBRANCH   8   9
ENDBRANCH   7   8
ENDBRANCH   6   7
BRANCH   6  11
ATOM     11  N   UNL A   1      30.264  26.893  24.548  1.00  0.00    -0.199 NA
ATOM     12  H   UNL A   1      30.208  26.161  23.839  1.00  0.00     0.142 HD
BRANCH  11  13
ATOM     13  S   UNL A   1      30.706  26.143  26.004  1.00  0.00     0.241 S 
ATOM     14  O   UNL A   1      31.202  27.212  26.841  1.00  0.00    -0.207 OA
ATOM     15  O   UNL A   1      29.601  25.313  26.430  1.00  0.00    -0.207 OA
BRANCH  13  16
ATOM     16  C   UNL A   1      32.088  25.104  25.604  1.00  0.00     0.085 A 
ATOM     17  C   UNL A   1      33.384  25.472  25.983  1.00  0.00     0.022 A 
ATOM     18  C   UNL A   1      31.866  23.897  24.937  1.00  0.00     0.061 A 
ATOM     19  C   UNL A   1      34.471  24.682  25.593  1.00  0.00     0.004 A 
ATOM     20  C   UNL A   1      32.958  23.139  24.533  1.00  0.00     0.124 A 
ATOM     21  C   UNL A   1      34.258  23.530  24.836  1.00  0.00     0.039 A 
ATOM     22  F   UNL A   1      32.760  22.024  23.820  1.00  0.00    -0.207 F 
ENDBRANCH  13  16
ENDBRANCH  11  13
ENDBRANCH   6  11
ENDBRANCH   3   6
ENDBRANCH   1   2
BRANCH   1  23
ATOM     23  C   UNL A   1      31.350  31.771  26.549  1.00  0.00     0.042 C 
BRANCH  23  24
ATOM     24  C   UNL A   1      32.621  32.479  26.984  1.00  0.00     0.118 C 
BRANCH  24  25
ATOM     25  N   UNL A   1      32.394  33.831  27.461  1.00  0.00    -0.352 N 
ATOM     26  C   UNL A   1      33.076  34.548  28.409  1.00  0.00     0.251 C 
ATOM     27  H   UNL A   1      31.639  34.302  27.041  1.00  0.00     0.163 HD
ATOM     28  O   UNL A   1      32.675  35.662  28.733  1.00  0.00    -0.269 OA
BRANCH  26  29
ATOM     29  C   UNL A   1      34.261  33.971  29.083  1.00  0.00     0.039 A 
ATOM     30  C   UNL A   1      34.048  33.033  30.096  1.00  0.00     0.014 A 
ATOM     31  C   UNL A   1      35.565  34.339  28.738  1.00  0.00     0.014 A 
ATOM     32  C   UNL A   1      35.138  32.421  30.718  1.00  0.00     0.010 A 
ATOM     33  C   UNL A   1      36.653  33.673  29.307  1.00  0.00     0.010 A 
ATOM     34  C   UNL A   1      36.449  32.706  30.303  1.00  0.00    -0.014 A 
BRANCH  34  35
ATOM     35  C   UNL A   1      37.600  31.977  30.902  1.00  0.00     0.031 A 
ATOM     36  C   UNL A   1      38.316  30.903  30.128  1.00  0.00     0.074 A 
ATOM     37  C   UNL A   1      37.992  32.273  32.157  1.00  0.00     0.049 A 
ATOM     38  N   UNL A   1      39.332  30.164  30.498  1.00  0.00    -0.248 NA
ATOM     39  C   UNL A   1      37.826  30.610  28.772  1.00  0.00     0.031 C 
ATOM     40  C   UNL A   1      37.359  33.267  33.028  1.00  0.00     0.029 A 
ATOM     41  N   UNL A   1      39.017  31.772  32.924  1.00  0.00    -0.354 N 
ATOM     42  C   UNL A   1      39.597  29.319  29.427  1.00  0.00     0.074 A 
ATOM     43  C   UNL A   1      38.610  29.604  28.409  1.00  0.00     0.031 C 
ATOM     44  C   UNL A   1      38.023  33.320  34.193  1.00  0.00     0.029 A 
ATOM     45  C   UNL A   1      39.100  32.335  34.175  1.00  0.00     0.049 A 
ATOM     46  H   UNL A   1      39.635  31.074  32.606  1.00  0.00     0.167 HD
ATOM     47  C   UNL A   1      40.587  28.407  29.299  1.00  0.00     0.037 A 
ATOM     48  C   UNL A   1      39.938  32.082  35.201  1.00  0.00     0.037 A 
ATOM     49  C   UNL A   1      41.590  28.147  30.299  1.00  0.00     0.049 A 
ATOM     50  C   UNL A   1      41.018  31.048  35.033  1.00  0.00     0.074 A 
ATOM     51  C   UNL A   1      42.671  27.288  30.220  1.00  0.00     0.029 A 
ATOM     52  N   UNL A   1      41.635  28.736  31.552  1.00  0.00    -0.354 N 
ATOM     53  N   UNL A   1      41.298  30.312  33.986  1.00  0.00    -0.248 NA
ATOM     54  C   UNL A   1      41.901  30.810  36.184  1.00  0.00     0.031 C 
ATOM     55  C   UNL A   1      43.333  27.306  31.449  1.00  0.00     0.029 A 
ATOM     56  C   UNL A   1      42.706  28.228  32.269  1.00  0.00     0.049 A 
ATOM     57  H   UNL A   1      41.001  29.412  31.883  1.00  0.00     0.167 HD
ATOM     58  C   UNL A   1      42.399  29.544  34.342  1.00  0.00     0.074 A 
ATOM     59  C   UNL A   1      42.749  29.916  35.696  1.00  0.00     0.031 C 
ATOM     60  C   UNL A   1      43.056  28.612  33.612  1.00  0.00     0.037 A 
BRANCH  47  61
ATOM     61  C   UNL A   1      40.670  27.616  28.027  1.00  0.00     0.057 A 
ATOM     62  C   UNL A   1      40.105  26.335  27.949  1.00  0.00     0.134 A 
ATOM     63  C   UNL A   1      41.430  28.055  26.936  1.00  0.00     0.134 A 
ATOM     64  F   UNL A   1      39.373  25.851  28.965  1.00  0.00    -0.206 F 
ATOM     65  C   UNL A   1      40.320  25.508  26.846  1.00  0.00     0.040 A 
ATOM     66  C   UNL A   1      41.631  27.245  25.817  1.00  0.00     0.040 A 
ATOM     67  F   UNL A   1      41.992  29.273  26.945  1.00  0.00    -0.206 F 
ATOM     68  C   UNL A   1      41.089  25.963  25.777  1.00  0.00     0.006 A 
ENDBRANCH  47  61
BRANCH  48  69
ATOM     69  C   UNL A   1      39.784  32.818  36.484  1.00  0.00     0.057 A 
ATOM     70  C   UNL A   1      38.822  32.440  37.428  1.00  0.00     0.134 A 
ATOM     71  C   UNL A   1      40.597  33.913  36.799  1.00  0.00     0.134 A 
ATOM     72  F   UNL A   1      38.006  31.404  37.186  1.00  0.00    -0.206 F 
ATOM     73  C   UNL A   1      38.665  33.129  38.632  1.00  0.00     0.040 A 
ATOM     74  C   UNL A   1      40.474  34.591  38.014  1.00  0.00     0.040 A 
ATOM     75  F   UNL A   1      41.551  34.313  35.946  1.00  0.00    -0.206 F 
ATOM     76  C   UNL A   1      39.500  34.203  38.931  1.00  0.00     0.006 A 
ENDBRANCH  48  69
BRANCH  60  77
ATOM     77  C   UNL A   1      44.241  27.933  34.237  1.00  0.00     0.057 A 
ATOM     78  C   UNL A   1      44.080  26.753  34.975  1.00  0.00     0.134 A 
ATOM     79  C   UNL A   1      45.522  28.497  34.192  1.00  0.00     0.134 A 
ATOM     80  F   UNL A   1      42.876  26.167  35.070  1.00  0.00    -0.206 F 
ATOM     81  C   UNL A   1      45.145  26.169  35.663  1.00  0.00     0.040 A 
ATOM     82  C   UNL A   1      46.602  27.907  34.851  1.00  0.00     0.040 A 
ATOM     83  F   UNL A   1      45.747  29.622  33.497  1.00  0.00    -0.206 F 
ATOM     84  C   UNL A   1      46.411  26.746  35.599  1.00  0.00     0.006 A 
ENDBRANCH  60  77
ENDBRANCH  34  35
ENDBRANCH  26  29
ENDBRANCH  24  25
ENDBRANCH  23  24
ENDBRANCH   1  23
TORSDOF 16
ENDMDL
MODEL 3
REMARK VINA RESULT:     -10.7      5.260     10.048
REMARK SMILES CCCC[C@H](NS(=O)(=O)c1cccc(F)c1)C(=O)NCCCNC(=O)c1ccc(-c2c3nc(c(-c4c(F)cccc4F)c4ccc([nH]4)c(-c4c(F)cccc4F)c4nc(c(-c5c(F)cccc5F)c5ccc2[nH]5)C=C4)C=C3)cc1
REMARK SMILES IDX 20 1 19 2 17 3 18 4 5 6 4 7 3 8 2 9 1 10 6 11 7 13 8 14 9 15
REMARK SMILES IDX 10 16 11 17 16 18 12 19 14 20 13 21 15 22 21 23 22 24 23 25
REMARK SMILES IDX 24 26 25 28 26 29 27 30 79 31 28 32 78 33 29 34 30 35 31 36
REMARK SMILES IDX 72 37 32 38 77 39 71 40 73 41 33 42 76 43 70 44 69 45 34 47
REMARK SMILES IDX 60 48 43 49 59 50 44 51 47 52 58 53 74 54 45 55 46 56 57 58
REMARK SMILES IDX 75 59 48 60 35 61 36 62 41 63 37 64 38 65 40 66 42 67 39 68
REMARK SMILES IDX 61 69 62 70 67 71 63 72 64 73 66 74 68 75 65 76 49 77 50 78
REMARK SMILES IDX 55 79 51 80 52 81 54 82 56 83 53 84
REMARK H PARENT 19 5 6 12 23 27 73 46 47 57
REMARK Flexibility Score: inf
ROOT
ATOM      1  C   UNL A   1      31.516  30.547  25.884  1.00  0.00     0.117 C 
ENDROOT
BRANCH   1   2
ATOM      2  N   UNL A   1      30.820  30.295  24.632  1.00  0.00    -0.355 N 
ATOM      3  C   UNL A   1      30.664  29.127  23.933  1.00  0.00     0.238 C 
ATOM      4  O   UNL A   1      29.814  29.092  23.041  1.00  0.00    -0.273 OA
ATOM      5  H   UNL A   1      30.394  31.084  24.225  1.00  0.00     0.163 HD
BRANCH   3   6
ATOM      6  C   UNL A   1      31.521  27.897  24.253  1.00  0.00     0.159 C 
BRANCH   6   7
ATOM      7  C   UNL A   1      32.449  27.616  23.052  1.00  0.00     0.030 C 
BRANCH   7   8
ATOM      8  C   UNL A   1      33.676  26.763  23.378  1.00  0.00     0.002 C 
BRANCH   8   9
ATOM      9  C   UNL A   1      33.736  25.423  22.650  1.00  0.00    -0.003 C 
ATOM     10  C   UNL A   1      32.583  25.214  21.680  1.00  0.00     0.004 C 
ENDBRANCH   8   9
ENDBRANCH   7   8
ENDBRANCH   6   7
BRANCH   6  11
ATOM     11  N   UNL A   1      30.639  26.738  24.556  1.00  0.00    -0.199 NA
ATOM     12  H   UNL A   1      30.783  26.050  23.816  1.00  0.00     0.142 HD
BRANCH  11  13
ATOM     13  S   UNL A   1      30.833  25.927  26.034  1.00  0.00     0.241 S 
ATOM     14  O   UNL A   1      31.580  26.841  26.868  1.00  0.00    -0.207 OA
ATOM     15  O   UNL A   1      29.537  25.433  26.443  1.00  0.00    -0.207 OA
BRANCH  13  16
ATOM     16  C   UNL A   1      31.892  24.548  25.684  1.00  0.00     0.085 A 
ATOM     17  C   UNL A   1      33.172  24.476  26.247  1.00  0.00     0.022 A 
ATOM     18  C   UNL A   1      31.424  23.514  24.869  1.00  0.00     0.061 A 
ATOM     19  C   UNL A   1      34.024  23.422  25.901  1.00  0.00     0.004 A 
ATOM     20  C   UNL A   1      32.292  22.490  24.513  1.00  0.00     0.124 A 
ATOM     21  C   UNL A   1      33.592  22.445  25.004  1.00  0.00     0.039 A 
ATOM     22  F   UNL A   1      31.879  21.540  23.665  1.00  0.00    -0.207 F 
ENDBRANCH  13  16
ENDBRANCH  11  13
ENDBRANCH   6  11
ENDBRANCH   3   6
ENDBRANCH   1   2
BRANCH   1  23
ATOM     23  C   UNL A   1      31.316  31.941  26.454  1.00  0.00     0.042 C 
BRANCH  23  24
ATOM     24  C   UNL A   1      32.542  32.516  27.142  1.00  0.00     0.118 C 
BRANCH  24  25
ATOM     25  N   UNL A   1      32.368  33.889  27.578  1.00  0.00    -0.352 N 
ATOM     26  C   UNL A   1      33.106  34.621  28.473  1.00  0.00     0.251 C 
ATOM     27  H   UNL A   1      31.608  34.365  27.172  1.00  0.00     0.163 HD
ATOM     28  O   UNL A   1      32.746  35.756  28.772  1.00  0.00    -0.269 OA
BRANCH  26  29
ATOM     29  C   UNL A   1      34.302  34.037  29.119  1.00  0.00     0.039 A 
ATOM     30  C   UNL A   1      34.107  33.076  30.115  1.00  0.00     0.014 A 
ATOM     31  C   UNL A   1      35.600  34.420  28.766  1.00  0.00     0.014 A 
ATOM     32  C   UNL A   1      35.208  32.458  30.710  1.00  0.00     0.010 A 
ATOM     33  C   UNL A   1      36.698  33.749  29.308  1.00  0.00     0.010 A 
ATOM     34  C   UNL A   1      36.513  32.759  30.285  1.00  0.00    -0.014 A 
BRANCH  34  35
ATOM     35  C   UNL A   1      37.675  32.025  30.855  1.00  0.00     0.031 A 
ATOM     36  C   UNL A   1      38.180  32.338  32.237  1.00  0.00     0.074 A 
ATOM     37  C   UNL A   1      38.289  31.080  30.115  1.00  0.00     0.049 A 
ATOM     38  N   UNL A   1      39.182  31.802  32.886  1.00  0.00    -0.248 NA
ATOM     39  C   UNL A   1      37.481  33.395  32.985  1.00  0.00     0.031 C 
ATOM     40  C   UNL A   1      37.921  30.706  28.747  1.00  0.00     0.029 A 
ATOM     41  N   UNL A   1      39.352  30.258  30.404  1.00  0.00    -0.354 N 
ATOM     42  C   UNL A   1      39.238  32.457  34.109  1.00  0.00     0.074 A 
ATOM     43  C   UNL A   1      38.197  33.461  34.099  1.00  0.00     0.031 C 
ATOM     44  C   UNL A   1      38.725  29.716  28.329  1.00  0.00     0.029 A 
ATOM     45  C   UNL A   1      39.695  29.412  29.376  1.00  0.00     0.049 A 
ATOM     46  H   UNL A   1      39.824  30.273  31.268  1.00  0.00     0.167 HD
ATOM     47  C   UNL A   1      40.067  32.224  35.153  1.00  0.00     0.037 A 
ATOM     48  C   UNL A   1      40.685  28.502  29.277  1.00  0.00     0.037 A 
ATOM     49  C   UNL A   1      41.081  31.203  35.175  1.00  0.00     0.049 A 
ATOM     50  C   UNL A   1      41.602  28.280  30.449  1.00  0.00     0.074 A 
ATOM     51  C   UNL A   1      41.919  30.854  36.220  1.00  0.00     0.029 A 
ATOM     52  N   UNL A   1      41.397  30.372  34.113  1.00  0.00    -0.354 N 
ATOM     53  N   UNL A   1      41.591  28.858  31.624  1.00  0.00    -0.248 NA
ATOM     54  C   UNL A   1      42.666  27.279  30.285  1.00  0.00     0.031 C 
ATOM     55  C   UNL A   1      42.787  29.858  35.770  1.00  0.00     0.029 A 
ATOM     56  C   UNL A   1      42.445  29.537  34.467  1.00  0.00     0.049 A 
ATOM     57  H   UNL A   1      40.947  30.375  33.237  1.00  0.00     0.167 HD
ATOM     58  C   UNL A   1      42.626  28.277  32.346  1.00  0.00     0.074 A 
ATOM     59  C   UNL A   1      43.234  27.287  31.483  1.00  0.00     0.031 C 
ATOM     60  C   UNL A   1      43.037  28.545  33.608  1.00  0.00     0.037 A 
BRANCH  47  61
ATOM     61  C   UNL A   1      39.922  33.069  36.384  1.00  0.00     0.057 A 
ATOM     62  C   UNL A   1      38.948  32.763  37.345  1.00  0.00     0.134 A 
ATOM     63  C   UNL A   1      40.639  34.261  36.546  1.00  0.00     0.134 A 
ATOM     64  F   UNL A   1      38.220  31.641  37.243  1.00  0.00    -0.206 F 
ATOM     65  C   UNL A   1      38.671  33.628  38.405  1.00  0.00     0.040 A 
ATOM     66  C   UNL A   1      40.388  35.121  37.616  1.00  0.00     0.040 A 
ATOM     67  F   UNL A   1      41.589  34.608  35.665  1.00  0.00    -0.206 F 
ATOM     68  C   UNL A   1      39.392  34.813  38.540  1.00  0.00     0.006 A 
ENDBRANCH  47  61
BRANCH  48  69
ATOM     69  C   UNL A   1      40.865  27.735  28.016  1.00  0.00     0.057 A 
ATOM     70  C   UNL A   1      41.634  28.240  26.960  1.00  0.00     0.134 A 
ATOM     71  C   UNL A   1      40.277  26.477  27.836  1.00  0.00     0.134 A 
ATOM     72  F   UNL A   1      42.219  29.442  27.064  1.00  0.00    -0.206 F 
ATOM     73  C   UNL A   1      41.803  27.531  25.770  1.00  0.00     0.040 A 
ATOM     74  C   UNL A   1      40.464  25.742  26.664  1.00  0.00     0.040 A 
ATOM     75  F   UNL A   1      39.544  25.928  28.816  1.00  0.00    -0.206 F 
ATOM     76  C   UNL A   1      41.223  26.273  25.624  1.00  0.00     0.006 A 
ENDBRANCH  48  69
BRANCH  60  77
ATOM     77  C   UNL A   1      44.184  27.748  34.161  1.00  0.00     0.057 A 
ATOM     78  C   UNL A   1      43.956  26.531  34.816  1.00  0.00     0.134 A 
ATOM     79  C   UNL A   1      45.499  28.230  34.131  1.00  0.00     0.134 A 
ATOM     80  F   UNL A   1      42.717  26.020  34.893  1.00  0.00    -0.206 F 
ATOM     81  C   UNL A   1      44.990  25.833  35.441  1.00  0.00     0.040 A 
ATOM     82  C   UNL A   1      46.546  27.526  34.726  1.00  0.00     0.040 A 
ATOM     83  F   UNL A   1      45.786  29.385  33.512  1.00  0.00    -0.206 F 
ATOM     84  C   UNL A   1      46.290  26.329  35.394  1.00  0.00     0.006 A 
ENDBRANCH  60  77
ENDBRANCH  34  35
ENDBRANCH  26  29
ENDBRANCH  24  25
ENDBRANCH  23  24
ENDBRANCH   1  23
TORSDOF 16
ENDMDL
