MODEL 1
REMARK VINA RESULT:     -12.8      0.000      0.000
REMARK SMILES Cc1cccc(OCC(=O)Nc2cc(C(=O)NCCCNC(=O)c3ccc(-c4c5nc(c(-c6c(F)cccc6F)c6ccc([nH]6)c(-c6c(F)cccc6F)c6nc(c(-c7c(F)cccc7F)c7ccc4[nH]7)C=C6)C=C5)cc3)c(Cl)cc2Cl)c1
REMARK SMILES IDX 18 1 17 2 15 3 16 4 14 6 12 7 13 8 81 9 80 10 82 11 78 12
REMARK SMILES IDX 79 13 11 14 9 15 10 16 8 18 7 19 6 20 1 21 2 22 3 23 83 24
REMARK SMILES IDX 4 25 5 26 19 27 20 28 21 29 22 30 23 32 24 33 25 34 77 35
REMARK SMILES IDX 26 36 76 37 27 38 28 39 29 40 70 41 30 42 75 43 69 44 71 45
REMARK SMILES IDX 31 46 74 47 68 48 67 49 32 51 58 52 41 53 57 54 42 55 45 56
REMARK SMILES IDX 56 57 72 58 43 59 44 60 55 62 73 63 46 64 33 65 34 66 39 67
REMARK SMILES IDX 35 68 36 69 38 70 40 71 37 72 59 73 60 74 65 75 61 76 62 77
REMARK SMILES IDX 64 78 66 79 63 80 47 81 48 82 53 83 49 84 50 85 52 86 54 87
REMARK SMILES IDX 51 88
REMARK H PARENT 17 5 11 17 21 31 71 50 45 61
REMARK Flexibility Score: inf
ROOT
ATOM      1  C   UNL A   1      37.682  23.089  26.291  1.00  0.00     0.118 C 
ENDROOT
BRANCH   1   2
ATOM      2  N   UNL A   1      37.636  23.260  24.854  1.00  0.00    -0.352 N 
ATOM      3  C   UNL A   1      36.729  22.787  23.937  1.00  0.00     0.252 C 
ATOM      4  O   UNL A   1      36.801  23.223  22.786  1.00  0.00    -0.269 OA
ATOM      5  H   UNL A   1      38.367  23.799  24.476  1.00  0.00     0.163 HD
BRANCH   3   6
ATOM      6  C   UNL A   1      35.701  21.763  24.289  1.00  0.00     0.060 A 
ATOM      7  C   UNL A   1      33.379  21.192  24.808  1.00  0.00     0.061 A 
ATOM      8  C   UNL A   1      34.322  22.088  24.299  1.00  0.00     0.043 A 
ATOM      9  C   UNL A   1      33.816  19.895  25.152  1.00  0.00     0.066 A 
ATOM     10  C   UNL A   1      35.153  19.521  25.035  1.00  0.00     0.044 A 
ATOM     11  Cl  UNL A   1      32.704  18.707  25.750  1.00  0.00    -0.082 Cl
ATOM     12  C   UNL A   1      36.102  20.460  24.635  1.00  0.00     0.055 A 
ATOM     13  Cl  UNL A   1      37.748  19.923  24.665  1.00  0.00    -0.083 Cl
BRANCH   7  14
ATOM     14  N   UNL A   1      32.037  21.506  25.106  1.00  0.00    -0.322 N 
ATOM     15  C   UNL A   1      31.358  22.264  26.007  1.00  0.00     0.262 C 
ATOM     16  O   UNL A   1      30.127  22.123  26.021  1.00  0.00    -0.271 OA
ATOM     17  H   UNL A   1      31.420  21.050  24.489  1.00  0.00     0.170 HD
BRANCH  15  18
ATOM     18  C   UNL A   1      32.005  23.322  26.896  1.00  0.00     0.329 C 
BRANCH  18  19
ATOM     19  O   UNL A   1      31.385  24.578  27.036  1.00  0.00    -0.484 OA
BRANCH  19  20
ATOM     20  C   UNL A   1      31.969  25.698  26.525  1.00  0.00     0.120 A 
ATOM     21  C   UNL A   1      32.033  29.488  26.153  1.00  0.00     0.044 C 
ATOM     22  C   UNL A   1      32.426  28.044  26.120  1.00  0.00    -0.047 A 
ATOM     23  C   UNL A   1      33.644  27.722  25.513  1.00  0.00     0.003 A 
ATOM     24  C   UNL A   1      31.598  27.029  26.650  1.00  0.00     0.049 A 
ATOM     25  C   UNL A   1      33.977  26.399  25.336  1.00  0.00     0.004 A 
ATOM     26  C   UNL A   1      33.110  25.413  25.791  1.00  0.00     0.046 A 
ENDBRANCH  19  20
ENDBRANCH  18  19
ENDBRANCH  15  18
ENDBRANCH   7  14
ENDBRANCH   3   6
ENDBRANCH   1   2
BRANCH   1  27
ATOM     27  C   UNL A   1      39.075  23.147  26.891  1.00  0.00     0.042 C 
BRANCH  27  28
ATOM     28  C   UNL A   1      39.999  21.984  26.530  1.00  0.00     0.118 C 
BRANCH  28  29
ATOM     29  N   UNL A   1      41.097  22.327  25.607  1.00  0.00    -0.352 N 
ATOM     30  C   UNL A   1      42.476  22.482  25.669  1.00  0.00     0.251 C 
ATOM     31  H   UNL A   1      40.760  22.491  24.697  1.00  0.00     0.163 HD
ATOM     32  O   UNL A   1      43.058  22.859  24.649  1.00  0.00    -0.269 OA
BRANCH  30  33
ATOM     33  C   UNL A   1      43.319  22.086  26.846  1.00  0.00     0.039 A 
ATOM     34  C   UNL A   1      42.501  21.963  27.981  1.00  0.00     0.014 A 
ATOM     35  C   UNL A   1      44.526  22.737  26.972  1.00  0.00     0.014 A 
ATOM     36  C   UNL A   1      42.473  23.029  28.858  1.00  0.00     0.010 A 
ATOM     37  C   UNL A   1      44.487  23.836  27.793  1.00  0.00     0.010 A 
ATOM     38  C   UNL A   1      43.367  24.053  28.612  1.00  0.00    -0.014 A 
BRANCH  38  39
ATOM     39  C   UNL A   1      43.236  25.408  29.102  1.00  0.00     0.031 A 
ATOM     40  C   UNL A   1      42.098  26.170  28.577  1.00  0.00     0.074 A 
ATOM     41  C   UNL A   1      43.975  25.825  30.159  1.00  0.00     0.049 A 
ATOM     42  N   UNL A   1      41.900  27.415  28.792  1.00  0.00    -0.248 NA
ATOM     43  C   UNL A   1      41.080  25.570  27.721  1.00  0.00     0.031 C 
ATOM     44  C   UNL A   1      43.707  26.953  31.049  1.00  0.00     0.029 A 
ATOM     45  N   UNL A   1      45.257  25.400  30.538  1.00  0.00    -0.354 N 
ATOM     46  C   UNL A   1      40.624  27.716  28.377  1.00  0.00     0.074 A 
ATOM     47  C   UNL A   1      40.182  26.553  27.656  1.00  0.00     0.031 C 
ATOM     48  C   UNL A   1      44.849  27.327  31.650  1.00  0.00     0.029 A 
ATOM     49  C   UNL A   1      45.915  26.545  31.054  1.00  0.00     0.049 A 
ATOM     50  H   UNL A   1      45.626  24.492  30.461  1.00  0.00     0.167 HD
ATOM     51  C   UNL A   1      40.087  28.884  28.820  1.00  0.00     0.037 A 
ATOM     52  C   UNL A   1      46.995  27.080  30.408  1.00  0.00     0.037 A 
ATOM     53  C   UNL A   1      41.131  29.684  29.466  1.00  0.00     0.049 A 
ATOM     54  C   UNL A   1      46.729  28.471  29.870  1.00  0.00     0.074 A 
ATOM     55  C   UNL A   1      41.493  29.880  30.789  1.00  0.00     0.029 A 
ATOM     56  N   UNL A   1      42.212  30.103  28.696  1.00  0.00    -0.354 N 
ATOM     57  N   UNL A   1      45.531  28.945  29.647  1.00  0.00    -0.248 NA
ATOM     58  C   UNL A   1      47.773  29.448  29.572  1.00  0.00     0.031 C 
ATOM     59  C   UNL A   1      42.831  30.364  30.805  1.00  0.00     0.029 A 
ATOM     60  C   UNL A   1      43.268  30.485  29.496  1.00  0.00     0.049 A 
ATOM     61  H   UNL A   1      42.220  30.122  27.712  1.00  0.00     0.167 HD
ATOM     62  C   UNL A   1      45.617  30.240  29.201  1.00  0.00     0.074 A 
ATOM     63  C   UNL A   1      47.044  30.507  29.174  1.00  0.00     0.031 C 
ATOM     64  C   UNL A   1      44.504  30.977  28.900  1.00  0.00     0.037 A 
BRANCH  51  65
ATOM     65  C   UNL A   1      38.615  29.222  28.875  1.00  0.00     0.057 A 
ATOM     66  C   UNL A   1      37.965  29.694  27.716  1.00  0.00     0.134 A 
ATOM     67  C   UNL A   1      37.788  29.186  30.013  1.00  0.00     0.134 A 
ATOM     68  F   UNL A   1      38.591  29.759  26.533  1.00  0.00    -0.206 F 
ATOM     69  C   UNL A   1      36.635  30.137  27.707  1.00  0.00     0.040 A 
ATOM     70  C   UNL A   1      36.463  29.642  30.023  1.00  0.00     0.040 A 
ATOM     71  F   UNL A   1      38.188  28.683  31.181  1.00  0.00    -0.206 F 
ATOM     72  C   UNL A   1      35.881  30.127  28.867  1.00  0.00     0.006 A 
ENDBRANCH  51  65
BRANCH  52  73
ATOM     73  C   UNL A   1      47.840  26.021  29.787  1.00  0.00     0.057 A 
ATOM     74  C   UNL A   1      47.758  25.881  28.387  1.00  0.00     0.134 A 
ATOM     75  C   UNL A   1      49.017  25.582  30.402  1.00  0.00     0.134 A 
ATOM     76  F   UNL A   1      46.646  26.261  27.738  1.00  0.00    -0.206 F 
ATOM     77  C   UNL A   1      48.864  25.513  27.618  1.00  0.00     0.040 A 
ATOM     78  C   UNL A   1      50.123  25.185  29.637  1.00  0.00     0.040 A 
ATOM     79  F   UNL A   1      49.172  25.682  31.730  1.00  0.00    -0.206 F 
ATOM     80  C   UNL A   1      50.070  25.215  28.244  1.00  0.00     0.006 A 
ENDBRANCH  52  73
BRANCH  64  81
ATOM     81  C   UNL A   1      44.448  32.260  28.089  1.00  0.00     0.057 A 
ATOM     82  C   UNL A   1      44.860  32.381  26.755  1.00  0.00     0.134 A 
ATOM     83  C   UNL A   1      43.799  33.411  28.606  1.00  0.00     0.134 A 
ATOM     84  F   UNL A   1      45.387  31.352  26.080  1.00  0.00    -0.206 F 
ATOM     85  C   UNL A   1      44.693  33.562  26.015  1.00  0.00     0.040 A 
ATOM     86  C   UNL A   1      43.559  34.565  27.854  1.00  0.00     0.040 A 
ATOM     87  F   UNL A   1      43.331  33.466  29.862  1.00  0.00    -0.206 F 
ATOM     88  C   UNL A   1      44.025  34.652  26.556  1.00  0.00     0.006 A 
ENDBRANCH  64  81
ENDBRANCH  38  39
ENDBRANCH  30  33
ENDBRANCH  28  29
ENDBRANCH  27  28
ENDBRANCH   1  27
TORSDOF 14
ENDMDL
MODEL 2
REMARK VINA RESULT:     -12.6      4.336      8.983
REMARK SMILES Cc1cccc(OCC(=O)Nc2cc(C(=O)NCCCNC(=O)c3ccc(-c4c5nc(c(-c6c(F)cccc6F)c6ccc([nH]6)c(-c6c(F)cccc6F)c6nc(c(-c7c(F)cccc7F)c7ccc4[nH]7)C=C6)C=C5)cc3)c(Cl)cc2Cl)c1
REMARK SMILES IDX 18 1 17 2 15 3 16 4 14 6 12 7 13 8 81 9 80 10 82 11 78 12
REMARK SMILES IDX 79 13 11 14 9 15 10 16 8 18 7 19 6 20 1 21 2 22 3 23 83 24
REMARK SMILES IDX 4 25 5 26 19 27 20 28 21 29 22 30 23 32 24 33 25 34 77 35
REMARK SMILES IDX 26 36 76 37 27 38 28 39 29 40 70 41 30 42 75 43 69 44 71 45
REMARK SMILES IDX 31 46 74 47 68 48 67 49 32 51 58 52 41 53 57 54 42 55 45 56
REMARK SMILES IDX 56 57 72 58 43 59 44 60 55 62 73 63 46 64 33 65 34 66 39 67
REMARK SMILES IDX 35 68 36 69 38 70 40 71 37 72 59 73 60 74 65 75 61 76 62 77
REMARK SMILES IDX 64 78 66 79 63 80 47 81 48 82 53 83 49 84 50 85 52 86 54 87
REMARK SMILES IDX 51 88
REMARK H PARENT 17 5 11 17 21 31 71 50 45 61
REMARK Flexibility Score: inf
ROOT
ATOM      1  C   UNL A   1      34.426  29.676  26.800  1.00  0.00     0.118 C 
ENDROOT
BRANCH   1   2
ATOM      2  N   UNL A   1      33.402  29.068  27.622  1.00  0.00    -0.352 N 
ATOM      3  C   UNL A   1      32.165  28.579  27.276  1.00  0.00     0.252 C 
ATOM      4  O   UNL A   1      31.546  27.938  28.128  1.00  0.00    -0.269 OA
ATOM      5  H   UNL A   1      33.626  28.992  28.578  1.00  0.00     0.163 HD
BRANCH   3   6
ATOM      6  C   UNL A   1      31.560  28.824  25.933  1.00  0.00     0.060 A 
ATOM      7  C   UNL A   1      30.990  28.019  23.694  1.00  0.00     0.061 A 
ATOM      8  C   UNL A   1      31.378  27.764  25.011  1.00  0.00     0.043 A 
ATOM      9  C   UNL A   1      30.622  29.339  23.356  1.00  0.00     0.066 A 
ATOM     10  C   UNL A   1      30.681  30.374  24.287  1.00  0.00     0.044 A 
ATOM     11  Cl  UNL A   1      30.087  29.735  21.755  1.00  0.00    -0.082 Cl
ATOM     12  C   UNL A   1      31.179  30.128  25.566  1.00  0.00     0.055 A 
ATOM     13  Cl  UNL A   1      31.342  31.515  26.588  1.00  0.00    -0.083 Cl
BRANCH   7  14
ATOM     14  N   UNL A   1      31.034  27.086  22.638  1.00  0.00    -0.322 N 
ATOM     15  C   UNL A   1      31.976  26.389  21.950  1.00  0.00     0.262 C 
ATOM     16  O   UNL A   1      31.579  25.777  20.949  1.00  0.00    -0.271 OA
ATOM     17  H   UNL A   1      30.129  26.882  22.308  1.00  0.00     0.170 HD
BRANCH  15  18
ATOM     18  C   UNL A   1      33.427  26.240  22.398  1.00  0.00     0.329 C 
BRANCH  18  19
ATOM     19  O   UNL A   1      34.073  24.999  22.242  1.00  0.00    -0.484 OA
BRANCH  19  20
ATOM     20  C   UNL A   1      34.478  24.289  23.333  1.00  0.00     0.120 A 
ATOM     21  C   UNL A   1      35.865  21.071  24.824  1.00  0.00     0.044 C 
ATOM     22  C   UNL A   1      35.422  22.490  24.656  1.00  0.00    -0.047 A 
ATOM     23  C   UNL A   1      35.461  23.315  25.784  1.00  0.00     0.003 A 
ATOM     24  C   UNL A   1      34.951  22.988  23.420  1.00  0.00     0.049 A 
ATOM     25  C   UNL A   1      34.933  24.583  25.708  1.00  0.00     0.004 A 
ATOM     26  C   UNL A   1      34.399  25.026  24.504  1.00  0.00     0.046 A 
ENDBRANCH  19  20
ENDBRANCH  18  19
ENDBRANCH  15  18
ENDBRANCH   7  14
ENDBRANCH   3   6
ENDBRANCH   1   2
BRANCH   1  27
ATOM     27  C   UNL A   1      35.290  30.697  27.517  1.00  0.00     0.042 C 
BRANCH  27  28
ATOM     28  C   UNL A   1      34.564  31.946  28.013  1.00  0.00     0.118 C 
BRANCH  28  29
ATOM     29  N   UNL A   1      34.298  31.976  29.463  1.00  0.00    -0.352 N 
ATOM     30  C   UNL A   1      34.751  32.677  30.574  1.00  0.00     0.251 C 
ATOM     31  H   UNL A   1      33.610  31.318  29.713  1.00  0.00     0.163 HD
ATOM     32  O   UNL A   1      34.312  32.349  31.678  1.00  0.00    -0.269 OA
BRANCH  30  33
ATOM     33  C   UNL A   1      35.626  33.894  30.506  1.00  0.00     0.039 A 
ATOM     34  C   UNL A   1      36.215  33.970  29.233  1.00  0.00     0.014 A 
ATOM     35  C   UNL A   1      36.412  34.137  31.610  1.00  0.00     0.014 A 
ATOM     36  C   UNL A   1      37.513  33.513  29.110  1.00  0.00     0.010 A 
ATOM     37  C   UNL A   1      37.682  33.628  31.518  1.00  0.00     0.010 A 
ATOM     38  C   UNL A   1      38.157  33.164  30.280  1.00  0.00    -0.014 A 
BRANCH  38  39
ATOM     39  C   UNL A   1      39.305  32.287  30.370  1.00  0.00     0.031 A 
ATOM     40  C   UNL A   1      39.060  30.879  30.039  1.00  0.00     0.074 A 
ATOM     41  C   UNL A   1      40.550  32.805  30.500  1.00  0.00     0.049 A 
ATOM     42  N   UNL A   1      39.916  29.941  30.190  1.00  0.00    -0.248 NA
ATOM     43  C   UNL A   1      37.779  30.405  29.523  1.00  0.00     0.031 C 
ATOM     44  C   UNL A   1      41.825  32.160  30.189  1.00  0.00     0.029 A 
ATOM     45  N   UNL A   1      40.927  33.998  31.134  1.00  0.00    -0.354 N 
ATOM     46  C   UNL A   1      39.439  28.827  29.539  1.00  0.00     0.074 A 
ATOM     47  C   UNL A   1      38.078  29.147  29.201  1.00  0.00     0.031 C 
ATOM     48  C   UNL A   1      42.811  32.776  30.863  1.00  0.00     0.029 A 
ATOM     49  C   UNL A   1      42.181  33.742  31.743  1.00  0.00     0.049 A 
ATOM     50  H   UNL A   1      40.423  34.843  31.153  1.00  0.00     0.167 HD
ATOM     51  C   UNL A   1      40.328  27.832  29.279  1.00  0.00     0.037 A 
ATOM     52  C   UNL A   1      42.310  33.743  33.105  1.00  0.00     0.037 A 
ATOM     53  C   UNL A   1      41.577  28.099  29.997  1.00  0.00     0.049 A 
ATOM     54  C   UNL A   1      42.668  32.381  33.663  1.00  0.00     0.074 A 
ATOM     55  C   UNL A   1      42.788  28.656  29.620  1.00  0.00     0.029 A 
ATOM     56  N   UNL A   1      41.543  28.138  31.387  1.00  0.00    -0.354 N 
ATOM     57  N   UNL A   1      42.461  31.259  33.025  1.00  0.00    -0.248 NA
ATOM     58  C   UNL A   1      43.314  32.169  34.956  1.00  0.00     0.031 C 
ATOM     59  C   UNL A   1      43.453  29.089  30.800  1.00  0.00     0.029 A 
ATOM     60  C   UNL A   1      42.660  28.771  31.890  1.00  0.00     0.049 A 
ATOM     61  H   UNL A   1      40.816  27.765  31.937  1.00  0.00     0.167 HD
ATOM     62  C   UNL A   1      42.927  30.205  33.771  1.00  0.00     0.074 A 
ATOM     63  C   UNL A   1      43.453  30.831  34.970  1.00  0.00     0.031 C 
ATOM     64  C   UNL A   1      42.842  28.913  33.330  1.00  0.00     0.037 A 
BRANCH  51  65
ATOM     65  C   UNL A   1      40.174  26.752  28.233  1.00  0.00     0.057 A 
ATOM     66  C   UNL A   1      39.398  25.610  28.520  1.00  0.00     0.134 A 
ATOM     67  C   UNL A   1      40.795  26.712  26.971  1.00  0.00     0.134 A 
ATOM     68  F   UNL A   1      38.707  25.497  29.662  1.00  0.00    -0.206 F 
ATOM     69  C   UNL A   1      39.296  24.512  27.655  1.00  0.00     0.040 A 
ATOM     70  C   UNL A   1      40.716  25.615  26.103  1.00  0.00     0.040 A 
ATOM     71  F   UNL A   1      41.492  27.734  26.475  1.00  0.00    -0.206 F 
ATOM     72  C   UNL A   1      39.969  24.504  26.446  1.00  0.00     0.006 A 
ENDBRANCH  51  65
BRANCH  52  73
ATOM     73  C   UNL A   1      41.434  34.771  33.735  1.00  0.00     0.057 A 
ATOM     74  C   UNL A   1      40.264  34.311  34.370  1.00  0.00     0.134 A 
ATOM     75  C   UNL A   1      41.955  35.994  34.173  1.00  0.00     0.134 A 
ATOM     76  F   UNL A   1      39.699  33.156  33.980  1.00  0.00    -0.206 F 
ATOM     77  C   UNL A   1      39.755  34.928  35.515  1.00  0.00     0.040 A 
ATOM     78  C   UNL A   1      41.433  36.634  35.305  1.00  0.00     0.040 A 
ATOM     79  F   UNL A   1      43.066  36.500  33.619  1.00  0.00    -0.206 F 
ATOM     80  C   UNL A   1      40.376  36.067  36.016  1.00  0.00     0.006 A 
ENDBRANCH  52  73
BRANCH  64  81
ATOM     81  C   UNL A   1      42.988  27.651  34.161  1.00  0.00     0.057 A 
ATOM     82  C   UNL A   1      42.222  27.347  35.295  1.00  0.00     0.134 A 
ATOM     83  C   UNL A   1      43.828  26.593  33.725  1.00  0.00     0.134 A 
ATOM     84  F   UNL A   1      41.297  28.189  35.771  1.00  0.00    -0.206 F 
ATOM     85  C   UNL A   1      42.321  26.121  35.970  1.00  0.00     0.040 A 
ATOM     86  C   UNL A   1      43.879  25.342  34.345  1.00  0.00     0.040 A 
ATOM     87  F   UNL A   1      44.622  26.707  32.650  1.00  0.00    -0.206 F 
ATOM     88  C   UNL A   1      43.137  25.107  35.487  1.00  0.00     0.006 A 
ENDBRANCH  64  81
ENDBRANCH  38  39
ENDBRANCH  30  33
ENDBRANCH  28  29
ENDBRANCH  27  28
ENDBRANCH   1  27
TORSDOF 14
ENDMDL
MODEL 3
REMARK VINA RESULT:     -12.6      4.585      8.154
REMARK SMILES Cc1cccc(OCC(=O)Nc2cc(C(=O)NCCCNC(=O)c3ccc(-c4c5nc(c(-c6c(F)cccc6F)c6ccc([nH]6)c(-c6c(F)cccc6F)c6nc(c(-c7c(F)cccc7F)c7ccc4[nH]7)C=C6)C=C5)cc3)c(Cl)cc2Cl)c1
REMARK SMILES IDX 18 1 17 2 15 3 16 4 14 6 12 7 13 8 81 9 80 10 82 11 78 12
REMARK SMILES IDX 79 13 11 14 9 15 10 16 8 18 7 19 6 20 1 21 2 22 3 23 83 24
REMARK SMILES IDX 4 25 5 26 19 27 20 28 21 29 22 30 23 32 24 33 25 34 77 35
REMARK SMILES IDX 26 36 76 37 27 38 28 39 29 40 70 41 30 42 75 43 69 44 71 45
REMARK SMILES IDX 31 46 74 47 68 48 67 49 32 51 58 52 41 53 57 54 42 55 45 56
REMARK SMILES IDX 56 57 72 58 43 59 44 60 55 62 73 63 46 64 33 65 34 66 39 67
REMARK SMILES IDX 35 68 36 69 38 70 40 71 37 72 59 73 60 74 65 75 61 76 62 77
REMARK SMILES IDX 64 78 66 79 63 80 47 81 48 82 53 83 49 84 50 85 52 86 54 87
REMARK SMILES IDX 51 88
REMARK H PARENT 17 5 11 17 21 31 71 50 45 61
REMARK Flexibility Score: inf
ROOT
ATOM      1  C   UNL A   1      31.945  28.324  25.967  1.00  0.00     0.118 C 
ENDROOT
BRANCH   1   2
ATOM      2  N   UNL A   1      31.560  28.878  24.686  1.00  0.00    -0.352 N 
ATOM      3  C   UNL A   1      31.294  28.247  23.495  1.00  0.00     0.252 C 
ATOM      4  O   UNL A   1      30.805  28.924  22.588  1.00  0.00    -0.269 OA
ATOM      5  H   UNL A   1      31.476  29.858  24.665  1.00  0.00     0.163 HD
BRANCH   3   6
ATOM      6  C   UNL A   1      31.601  26.803  23.273  1.00  0.00     0.060 A 
ATOM      7  C   UNL A   1      31.190  24.450  23.804  1.00  0.00     0.061 A 
ATOM      8  C   UNL A   1      30.798  25.789  23.854  1.00  0.00     0.043 A 
ATOM      9  C   UNL A   1      32.313  24.117  23.018  1.00  0.00     0.066 A 
ATOM     10  C   UNL A   1      33.044  25.091  22.341  1.00  0.00     0.044 A 
ATOM     11  Cl  UNL A   1      32.841  22.472  22.866  1.00  0.00    -0.082 Cl
ATOM     12  C   UNL A   1      32.711  26.436  22.491  1.00  0.00     0.055 A 
ATOM     13  Cl  UNL A   1      33.777  27.563  21.723  1.00  0.00    -0.083 Cl
BRANCH   7  14
ATOM     14  N   UNL A   1      30.617  23.407  24.561  1.00  0.00    -0.322 N 
ATOM     15  C   UNL A   1      30.772  22.856  25.794  1.00  0.00     0.262 C 
ATOM     16  O   UNL A   1      30.149  21.807  26.005  1.00  0.00    -0.271 OA
ATOM     17  H   UNL A   1      29.906  22.951  24.055  1.00  0.00     0.170 HD
BRANCH  15  18
ATOM     18  C   UNL A   1      31.563  23.504  26.927  1.00  0.00     0.329 C 
BRANCH  18  19
ATOM     19  O   UNL A   1      32.734  22.881  27.395  1.00  0.00    -0.484 OA
BRANCH  19  20
ATOM     20  C   UNL A   1      33.877  22.909  26.652  1.00  0.00     0.120 A 
ATOM     21  C   UNL A   1      36.816  21.066  25.081  1.00  0.00     0.044 C 
ATOM     22  C   UNL A   1      35.812  22.122  25.422  1.00  0.00    -0.047 A 
ATOM     23  C   UNL A   1      35.991  23.387  24.857  1.00  0.00     0.003 A 
ATOM     24  C   UNL A   1      34.736  21.876  26.304  1.00  0.00     0.049 A 
ATOM     25  C   UNL A   1      35.175  24.422  25.252  1.00  0.00     0.004 A 
ATOM     26  C   UNL A   1      34.174  24.180  26.184  1.00  0.00     0.046 A 
ENDBRANCH  19  20
ENDBRANCH  18  19
ENDBRANCH  15  18
ENDBRANCH   7  14
ENDBRANCH   3   6
ENDBRANCH   1   2
BRANCH   1  27
ATOM     27  C   UNL A   1      31.770  29.267  27.143  1.00  0.00     0.042 C 
BRANCH  27  28
ATOM     28  C   UNL A   1      32.785  30.405  27.234  1.00  0.00     0.118 C 
BRANCH  28  29
ATOM     29  N   UNL A   1      34.156  29.987  27.582  1.00  0.00    -0.352 N 
ATOM     30  C   UNL A   1      35.333  30.589  28.011  1.00  0.00     0.251 C 
ATOM     31  H   UNL A   1      34.269  29.015  27.483  1.00  0.00     0.163 HD
ATOM     32  O   UNL A   1      36.331  29.876  28.132  1.00  0.00    -0.269 OA
BRANCH  30  33
ATOM     33  C   UNL A   1      35.434  32.014  28.471  1.00  0.00     0.039 A 
ATOM     34  C   UNL A   1      36.717  32.504  28.178  1.00  0.00     0.014 A 
ATOM     35  C   UNL A   1      34.889  32.292  29.704  1.00  0.00     0.014 A 
ATOM     36  C   UNL A   1      37.639  32.518  29.208  1.00  0.00     0.010 A 
ATOM     37  C   UNL A   1      35.789  32.243  30.739  1.00  0.00     0.010 A 
ATOM     38  C   UNL A   1      37.165  32.187  30.462  1.00  0.00    -0.014 A 
BRANCH  38  39
ATOM     39  C   UNL A   1      37.980  31.724  31.565  1.00  0.00     0.031 A 
ATOM     40  C   UNL A   1      38.450  32.760  32.491  1.00  0.00     0.074 A 
ATOM     41  C   UNL A   1      38.068  30.399  31.837  1.00  0.00     0.049 A 
ATOM     42  N   UNL A   1      39.284  32.558  33.439  1.00  0.00    -0.248 NA
ATOM     43  C   UNL A   1      38.021  34.152  32.396  1.00  0.00     0.031 C 
ATOM     44  C   UNL A   1      38.462  29.769  33.096  1.00  0.00     0.029 A 
ATOM     45  N   UNL A   1      37.990  29.326  30.938  1.00  0.00    -0.354 N 
ATOM     46  C   UNL A   1      39.283  33.672  34.245  1.00  0.00     0.074 A 
ATOM     47  C   UNL A   1      38.533  34.659  33.516  1.00  0.00     0.031 C 
ATOM     48  C   UNL A   1      38.873  28.513  32.855  1.00  0.00     0.029 A 
ATOM     49  C   UNL A   1      38.896  28.345  31.415  1.00  0.00     0.049 A 
ATOM     50  H   UNL A   1      37.421  29.264  30.137  1.00  0.00     0.167 HD
ATOM     51  C   UNL A   1      39.828  33.541  35.484  1.00  0.00     0.037 A 
ATOM     52  C   UNL A   1      40.011  28.016  30.695  1.00  0.00     0.037 A 
ATOM     53  C   UNL A   1      40.527  32.257  35.574  1.00  0.00     0.049 A 
ATOM     54  C   UNL A   1      41.299  28.388  31.402  1.00  0.00     0.074 A 
ATOM     55  C   UNL A   1      40.180  31.022  36.098  1.00  0.00     0.029 A 
ATOM     56  N   UNL A   1      41.608  32.035  34.726  1.00  0.00    -0.354 N 
ATOM     57  N   UNL A   1      41.371  29.284  32.350  1.00  0.00    -0.248 NA
ATOM     58  C   UNL A   1      42.592  27.767  31.130  1.00  0.00     0.031 C 
ATOM     59  C   UNL A   1      41.027  30.046  35.504  1.00  0.00     0.029 A 
ATOM     60  C   UNL A   1      41.901  30.690  34.645  1.00  0.00     0.049 A 
ATOM     61  H   UNL A   1      42.096  32.744  34.248  1.00  0.00     0.167 HD
ATOM     62  C   UNL A   1      42.660  29.367  32.816  1.00  0.00     0.074 A 
ATOM     63  C   UNL A   1      43.384  28.394  32.019  1.00  0.00     0.031 C 
ATOM     64  C   UNL A   1      43.012  30.227  33.821  1.00  0.00     0.037 A 
BRANCH  51  65
ATOM     65  C   UNL A   1      39.563  34.438  36.671  1.00  0.00     0.057 A 
ATOM     66  C   UNL A   1      40.103  35.741  36.695  1.00  0.00     0.134 A 
ATOM     67  C   UNL A   1      38.865  34.094  37.844  1.00  0.00     0.134 A 
ATOM     68  F   UNL A   1      40.767  36.247  35.646  1.00  0.00    -0.206 F 
ATOM     69  C   UNL A   1      40.004  36.595  37.801  1.00  0.00     0.040 A 
ATOM     70  C   UNL A   1      38.772  34.930  38.964  1.00  0.00     0.040 A 
ATOM     71  F   UNL A   1      38.202  32.945  37.979  1.00  0.00    -0.206 F 
ATOM     72  C   UNL A   1      39.349  36.186  38.950  1.00  0.00     0.006 A 
ENDBRANCH  51  65
BRANCH  52  73
ATOM     73  C   UNL A   1      39.746  28.055  29.229  1.00  0.00     0.057 A 
ATOM     74  C   UNL A   1      40.198  29.192  28.530  1.00  0.00     0.134 A 
ATOM     75  C   UNL A   1      39.588  26.877  28.491  1.00  0.00     0.134 A 
ATOM     76  F   UNL A   1      40.348  30.361  29.173  1.00  0.00    -0.206 F 
ATOM     77  C   UNL A   1      40.662  29.112  27.214  1.00  0.00     0.040 A 
ATOM     78  C   UNL A   1      40.026  26.796  27.162  1.00  0.00     0.040 A 
ATOM     79  F   UNL A   1      39.162  25.752  29.084  1.00  0.00    -0.206 F 
ATOM     80  C   UNL A   1      40.625  27.893  26.545  1.00  0.00     0.006 A 
ENDBRANCH  52  73
BRANCH  64  81
ATOM     81  C   UNL A   1      44.415  30.671  34.195  1.00  0.00     0.057 A 
ATOM     82  C   UNL A   1      45.117  30.234  35.326  1.00  0.00     0.134 A 
ATOM     83  C   UNL A   1      45.185  31.458  33.298  1.00  0.00     0.134 A 
ATOM     84  F   UNL A   1      44.576  29.392  36.215  1.00  0.00    -0.206 F 
ATOM     85  C   UNL A   1      46.451  30.593  35.575  1.00  0.00     0.040 A 
ATOM     86  C   UNL A   1      46.535  31.757  33.498  1.00  0.00     0.040 A 
ATOM     87  F   UNL A   1      44.675  31.951  32.161  1.00  0.00    -0.206 F 
ATOM     88  C   UNL A   1      47.171  31.341  34.653  1.00  0.00     0.006 A 
ENDBRANCH  64  81
ENDBRANCH  38  39
ENDBRANCH  30  33
ENDBRANCH  28  29
ENDBRANCH  27  28
ENDBRANCH   1  27
TORSDOF 14
ENDMDL
