MODEL 1
REMARK VINA RESULT:     -10.6      0.000      0.000
REMARK SMILES C[C@H]1[C@@H](C(=O)NCCCNC(=O)c2ccc(-c3c4nc(c(-c5c(F)cccc5F)c5ccc([nH]5)c(-c5c(F)cccc5F)c5nc(c(-c6c(F)cccc6F)c6ccc3[nH]6)C=C5)C=C4)cc2)CC[N@@H+]1CC(F)(F)F
REMARK SMILES IDX 8 1 7 2 6 3 4 4 5 5 3 7 1 8 2 9 69 10 67 11 68 12 70 14
REMARK SMILES IDX 71 15 72 16 73 17 74 18 9 19 10 20 11 21 12 23 13 24 14 25
REMARK SMILES IDX 66 26 15 27 65 28 16 29 17 30 18 31 59 32 19 33 64 34 58 35
REMARK SMILES IDX 60 36 20 37 63 38 57 39 56 40 21 42 47 43 30 44 46 45 31 46
REMARK SMILES IDX 34 47 45 48 61 49 32 50 33 51 44 53 62 54 35 55 22 56 23 57
REMARK SMILES IDX 28 58 24 59 25 60 27 61 29 62 26 63 48 64 49 65 54 66 50 67
REMARK SMILES IDX 51 68 53 69 55 70 52 71 36 72 37 73 42 74 38 75 39 76 41 77
REMARK SMILES IDX 43 78 40 79
REMARK H PARENT 6 6 69 13 10 22 60 41 34 52
REMARK Flexibility Score: inf
ROOT
ATOM      1  C   UNL A   1      37.187  19.828  24.958  1.00  0.00     0.042 C 
ENDROOT
BRANCH   1   2
ATOM      2  C   UNL A   1      36.014  20.805  24.839  1.00  0.00     0.117 C 
BRANCH   2   3
ATOM      3  N   UNL A   1      35.251  20.814  26.075  1.00  0.00    -0.356 N 
ATOM      4  C   UNL A   1      34.196  21.578  26.468  1.00  0.00     0.229 C 
ATOM      5  O   UNL A   1      33.936  21.567  27.674  1.00  0.00    -0.275 OA
ATOM      6  H   UNL A   1      35.549  20.154  26.741  1.00  0.00     0.163 HD
BRANCH   4   7
ATOM      7  C   UNL A   1      33.322  22.299  25.443  1.00  0.00     0.142 C 
ATOM      8  C   UNL A   1      34.856  24.438  25.565  1.00  0.00     0.076 C 
ATOM      9  C   UNL A   1      33.529  23.805  25.188  1.00  0.00     0.193 C 
ATOM     10  N   UNL A   1      32.471  24.539  25.919  1.00  0.00    -0.325 N 
ATOM     11  C   UNL A   1      31.858  22.250  25.898  1.00  0.00     0.081 C 
ATOM     12  C   UNL A   1      31.683  23.551  26.659  1.00  0.00     0.263 C 
ATOM     13  H   UNL A   1      32.891  25.194  26.579  1.00  0.00     0.348 HD
BRANCH  10  14
ATOM     14  C   UNL A   1      31.661  25.420  25.040  1.00  0.00     0.379 C 
BRANCH  14  15
ATOM     15  C   UNL A   1      30.639  26.420  25.621  1.00  0.00     0.438 C 
ATOM     16  F   UNL A   1      31.085  26.987  26.764  1.00  0.00    -0.165 F 
ATOM     17  F   UNL A   1      30.403  27.419  24.740  1.00  0.00    -0.165 F 
ATOM     18  F   UNL A   1      29.450  25.833  25.889  1.00  0.00    -0.165 F 
ENDBRANCH  14  15
ENDBRANCH  10  14
ENDBRANCH   4   7
ENDBRANCH   2   3
ENDBRANCH   1   2
BRANCH   1  19
ATOM     19  C   UNL A   1      38.507  20.489  25.338  1.00  0.00     0.118 C 
BRANCH  19  20
ATOM     20  N   UNL A   1      39.553  19.514  25.579  1.00  0.00    -0.352 N 
ATOM     21  C   UNL A   1      40.850  19.691  25.990  1.00  0.00     0.251 C 
ATOM     22  H   UNL A   1      39.291  18.577  25.424  1.00  0.00     0.163 HD
ATOM     23  O   UNL A   1      41.633  18.744  25.903  1.00  0.00    -0.269 OA
BRANCH  21  24
ATOM     24  C   UNL A   1      41.337  20.989  26.522  1.00  0.00     0.039 A 
ATOM     25  C   UNL A   1      41.193  21.240  27.891  1.00  0.00     0.014 A 
ATOM     26  C   UNL A   1      41.852  21.994  25.697  1.00  0.00     0.014 A 
ATOM     27  C   UNL A   1      41.585  22.470  28.429  1.00  0.00     0.010 A 
ATOM     28  C   UNL A   1      42.324  23.187  26.247  1.00  0.00     0.010 A 
ATOM     29  C   UNL A   1      42.171  23.451  27.614  1.00  0.00    -0.014 A 
BRANCH  29  30
ATOM     30  C   UNL A   1      42.577  24.770  28.174  1.00  0.00     0.031 A 
ATOM     31  C   UNL A   1      41.548  25.849  28.401  1.00  0.00     0.074 A 
ATOM     32  C   UNL A   1      43.871  25.014  28.456  1.00  0.00     0.049 A 
ATOM     33  N   UNL A   1      41.713  27.068  28.851  1.00  0.00    -0.248 NA
ATOM     34  C   UNL A   1      40.157  25.525  28.049  1.00  0.00     0.031 C 
ATOM     35  C   UNL A   1      44.976  24.079  28.239  1.00  0.00     0.029 A 
ATOM     36  N   UNL A   1      44.476  26.127  28.985  1.00  0.00    -0.354 N 
ATOM     37  C   UNL A   1      40.455  27.657  28.819  1.00  0.00     0.074 A 
ATOM     38  C   UNL A   1      39.547  26.681  28.258  1.00  0.00     0.031 C 
ATOM     39  C   UNL A   1      46.120  24.648  28.654  1.00  0.00     0.029 A 
ATOM     40  C   UNL A   1      45.834  25.994  29.141  1.00  0.00     0.049 A 
ATOM     41  H   UNL A   1      43.983  26.944  29.228  1.00  0.00     0.167 HD
ATOM     42  C   UNL A   1      40.081  28.889  29.240  1.00  0.00     0.037 A 
ATOM     43  C   UNL A   1      46.747  26.858  29.624  1.00  0.00     0.037 A 
ATOM     44  C   UNL A   1      40.971  29.852  29.835  1.00  0.00     0.049 A 
ATOM     45  C   UNL A   1      46.304  28.207  30.117  1.00  0.00     0.074 A 
ATOM     46  C   UNL A   1      40.674  31.103  30.345  1.00  0.00     0.029 A 
ATOM     47  N   UNL A   1      42.334  29.664  30.004  1.00  0.00    -0.354 N 
ATOM     48  N   UNL A   1      45.101  28.726  30.131  1.00  0.00    -0.248 NA
ATOM     49  C   UNL A   1      47.345  29.084  30.671  1.00  0.00     0.031 C 
ATOM     50  C   UNL A   1      41.862  31.686  30.799  1.00  0.00     0.029 A 
ATOM     51  C   UNL A   1      42.894  30.782  30.601  1.00  0.00     0.049 A 
ATOM     52  H   UNL A   1      42.831  28.857  29.738  1.00  0.00     0.167 HD
ATOM     53  C   UNL A   1      45.237  29.982  30.708  1.00  0.00     0.074 A 
ATOM     54  C   UNL A   1      46.636  30.138  31.049  1.00  0.00     0.031 C 
ATOM     55  C   UNL A   1      44.287  30.923  30.934  1.00  0.00     0.037 A 
BRANCH  42  56
ATOM     56  C   UNL A   1      38.635  29.260  29.083  1.00  0.00     0.057 A 
ATOM     57  C   UNL A   1      37.745  29.229  30.164  1.00  0.00     0.134 A 
ATOM     58  C   UNL A   1      38.131  29.674  27.844  1.00  0.00     0.134 A 
ATOM     59  F   UNL A   1      38.161  28.830  31.376  1.00  0.00    -0.206 F 
ATOM     60  C   UNL A   1      36.399  29.569  30.014  1.00  0.00     0.040 A 
ATOM     61  C   UNL A   1      36.793  30.041  27.685  1.00  0.00     0.040 A 
ATOM     62  F   UNL A   1      38.931  29.733  26.768  1.00  0.00    -0.206 F 
ATOM     63  C   UNL A   1      35.922  29.982  28.771  1.00  0.00     0.006 A 
ENDBRANCH  42  56
BRANCH  43  64
ATOM     64  C   UNL A   1      48.174  26.459  29.695  1.00  0.00     0.057 A 
ATOM     65  C   UNL A   1      48.680  25.785  30.812  1.00  0.00     0.134 A 
ATOM     66  C   UNL A   1      49.062  26.738  28.650  1.00  0.00     0.134 A 
ATOM     67  F   UNL A   1      47.881  25.509  31.853  1.00  0.00    -0.206 F 
ATOM     68  C   UNL A   1      50.023  25.414  30.895  1.00  0.00     0.040 A 
ATOM     69  C   UNL A   1      50.403  26.354  28.711  1.00  0.00     0.040 A 
ATOM     70  F   UNL A   1      48.636  27.375  27.551  1.00  0.00    -0.206 F 
ATOM     71  C   UNL A   1      50.887  25.694  29.839  1.00  0.00     0.006 A 
ENDBRANCH  43  64
BRANCH  55  72
ATOM     72  C   UNL A   1      44.729  32.194  31.595  1.00  0.00     0.057 A 
ATOM     73  C   UNL A   1      45.137  33.307  30.851  1.00  0.00     0.134 A 
ATOM     74  C   UNL A   1      44.722  32.313  32.991  1.00  0.00     0.134 A 
ATOM     75  F   UNL A   1      45.179  33.251  29.511  1.00  0.00    -0.206 F 
ATOM     76  C   UNL A   1      45.543  34.489  31.472  1.00  0.00     0.040 A 
ATOM     77  C   UNL A   1      45.105  33.497  33.622  1.00  0.00     0.040 A 
ATOM     78  F   UNL A   1      44.336  31.285  33.761  1.00  0.00    -0.206 F 
ATOM     79  C   UNL A   1      45.523  34.587  32.862  1.00  0.00     0.006 A 
ENDBRANCH  55  72
ENDBRANCH  29  30
ENDBRANCH  21  24
ENDBRANCH  19  20
ENDBRANCH   1  19
TORSDOF 12
ENDMDL
MODEL 2
REMARK VINA RESULT:     -10.6      1.035      6.539
REMARK SMILES C[C@H]1[C@@H](C(=O)NCCCNC(=O)c2ccc(-c3c4nc(c(-c5c(F)cccc5F)c5ccc([nH]5)c(-c5c(F)cccc5F)c5nc(c(-c6c(F)cccc6F)c6ccc3[nH]6)C=C5)C=C4)cc2)CC[N@@H+]1CC(F)(F)F
REMARK SMILES IDX 8 1 7 2 6 3 4 4 5 5 3 7 1 8 2 9 69 10 67 11 68 12 70 14
REMARK SMILES IDX 71 15 72 16 73 17 74 18 9 19 10 20 11 21 12 23 13 24 14 25
REMARK SMILES IDX 66 26 15 27 65 28 16 29 17 30 18 31 59 32 19 33 64 34 58 35
REMARK SMILES IDX 60 36 20 37 63 38 57 39 56 40 21 42 47 43 30 44 46 45 31 46
REMARK SMILES IDX 34 47 45 48 61 49 32 50 33 51 44 53 62 54 35 55 22 56 23 57
REMARK SMILES IDX 28 58 24 59 25 60 27 61 29 62 26 63 48 64 49 65 54 66 50 67
REMARK SMILES IDX 51 68 53 69 55 70 52 71 36 72 37 73 42 74 38 75 39 76 41 77
REMARK SMILES IDX 43 78 40 79
REMARK H PARENT 6 6 69 13 10 22 60 41 34 52
REMARK Flexibility Score: inf
ROOT
ATOM      1  C   UNL A   1      38.200  19.519  24.901  1.00  0.00     0.042 C 
ENDROOT
BRANCH   1   2
ATOM      2  C   UNL A   1      37.219  20.648  24.573  1.00  0.00     0.117 C 
BRANCH   2   3
ATOM      3  N   UNL A   1      35.925  20.366  25.167  1.00  0.00    -0.356 N 
ATOM      4  C   UNL A   1      34.779  21.100  25.204  1.00  0.00     0.229 C 
ATOM      5  O   UNL A   1      33.929  20.741  26.022  1.00  0.00    -0.275 OA
ATOM      6  H   UNL A   1      35.866  19.494  25.619  1.00  0.00     0.163 HD
BRANCH   4   7
ATOM      7  C   UNL A   1      34.532  22.222  24.197  1.00  0.00     0.142 C 
ATOM      8  C   UNL A   1      35.875  23.927  25.689  1.00  0.00     0.076 C 
ATOM      9  C   UNL A   1      34.878  23.676  24.572  1.00  0.00     0.193 C 
ATOM     10  N   UNL A   1      33.620  24.361  24.946  1.00  0.00    -0.325 N 
ATOM     11  C   UNL A   1      33.029  22.318  23.902  1.00  0.00     0.081 C 
ATOM     12  C   UNL A   1      32.545  23.369  24.883  1.00  0.00     0.263 C 
ATOM     13  H   UNL A   1      33.688  24.721  25.898  1.00  0.00     0.348 HD
BRANCH  10  14
ATOM     14  C   UNL A   1      33.362  25.582  24.141  1.00  0.00     0.379 C 
BRANCH  14  15
ATOM     15  C   UNL A   1      33.550  26.994  24.734  1.00  0.00     0.438 C 
ATOM     16  F   UNL A   1      34.214  26.961  25.910  1.00  0.00    -0.165 F 
ATOM     17  F   UNL A   1      34.268  27.769  23.888  1.00  0.00    -0.165 F 
ATOM     18  F   UNL A   1      32.369  27.618  24.944  1.00  0.00    -0.165 F 
ENDBRANCH  14  15
ENDBRANCH  10  14
ENDBRANCH   4   7
ENDBRANCH   2   3
ENDBRANCH   1   2
BRANCH   1  19
ATOM     19  C   UNL A   1      39.186  19.860  26.013  1.00  0.00     0.118 C 
BRANCH  19  20
ATOM     20  N   UNL A   1      40.440  19.148  25.864  1.00  0.00    -0.352 N 
ATOM     21  C   UNL A   1      41.731  19.606  25.937  1.00  0.00     0.251 C 
ATOM     22  H   UNL A   1      40.351  18.184  25.683  1.00  0.00     0.163 HD
ATOM     23  O   UNL A   1      42.642  18.874  25.545  1.00  0.00    -0.269 OA
BRANCH  21  24
ATOM     24  C   UNL A   1      42.060  20.956  26.460  1.00  0.00     0.039 A 
ATOM     25  C   UNL A   1      42.020  21.158  27.844  1.00  0.00     0.014 A 
ATOM     26  C   UNL A   1      42.321  22.044  25.621  1.00  0.00     0.014 A 
ATOM     27  C   UNL A   1      42.267  22.427  28.380  1.00  0.00     0.010 A 
ATOM     28  C   UNL A   1      42.653  23.289  26.159  1.00  0.00     0.010 A 
ATOM     29  C   UNL A   1      42.603  23.503  27.543  1.00  0.00    -0.014 A 
BRANCH  29  30
ATOM     30  C   UNL A   1      42.851  24.860  28.103  1.00  0.00     0.031 A 
ATOM     31  C   UNL A   1      44.244  25.277  28.499  1.00  0.00     0.074 A 
ATOM     32  C   UNL A   1      41.824  25.713  28.283  1.00  0.00     0.049 A 
ATOM     33  N   UNL A   1      44.652  26.403  29.030  1.00  0.00    -0.248 NA
ATOM     34  C   UNL A   1      45.316  24.289  28.298  1.00  0.00     0.031 C 
ATOM     35  C   UNL A   1      40.420  25.422  27.990  1.00  0.00     0.029 A 
ATOM     36  N   UNL A   1      41.805  27.000  28.760  1.00  0.00    -0.354 N 
ATOM     37  C   UNL A   1      46.017  26.250  29.242  1.00  0.00     0.074 A 
ATOM     38  C   UNL A   1      46.359  24.907  28.830  1.00  0.00     0.031 C 
ATOM     39  C   UNL A   1      39.679  26.507  28.270  1.00  0.00     0.029 A 
ATOM     40  C   UNL A   1      40.551  27.559  28.785  1.00  0.00     0.049 A 
ATOM     41  H   UNL A   1      42.613  27.477  29.056  1.00  0.00     0.167 HD
ATOM     42  C   UNL A   1      46.912  27.153  29.711  1.00  0.00     0.037 A 
ATOM     43  C   UNL A   1      40.146  28.782  29.177  1.00  0.00     0.037 A 
ATOM     44  C   UNL A   1      46.586  28.503  30.087  1.00  0.00     0.049 A 
ATOM     45  C   UNL A   1      41.161  29.778  29.663  1.00  0.00     0.074 A 
ATOM     46  C   UNL A   1      47.434  29.508  30.519  1.00  0.00     0.029 A 
ATOM     47  N   UNL A   1      45.308  29.039  30.067  1.00  0.00    -0.354 N 
ATOM     48  N   UNL A   1      42.457  29.635  29.804  1.00  0.00    -0.248 NA
ATOM     49  C   UNL A   1      40.659  31.108  30.035  1.00  0.00     0.031 C 
ATOM     50  C   UNL A   1      46.664  30.646  30.788  1.00  0.00     0.029 A 
ATOM     51  C   UNL A   1      45.342  30.358  30.490  1.00  0.00     0.049 A 
ATOM     52  H   UNL A   1      44.495  28.555  29.793  1.00  0.00     0.167 HD
ATOM     53  C   UNL A   1      42.926  30.859  30.264  1.00  0.00     0.074 A 
ATOM     54  C   UNL A   1      41.779  31.738  30.360  1.00  0.00     0.031 C 
ATOM     55  C   UNL A   1      44.193  31.220  30.580  1.00  0.00     0.037 A 
BRANCH  42  56
ATOM     56  C   UNL A   1      48.339  26.706  29.833  1.00  0.00     0.057 A 
ATOM     57  C   UNL A   1      48.822  26.088  30.994  1.00  0.00     0.134 A 
ATOM     58  C   UNL A   1      49.236  26.873  28.770  1.00  0.00     0.134 A 
ATOM     59  F   UNL A   1      48.018  25.910  32.053  1.00  0.00    -0.206 F 
ATOM     60  C   UNL A   1      50.152  25.679  31.106  1.00  0.00     0.040 A 
ATOM     61  C   UNL A   1      50.562  26.446  28.860  1.00  0.00     0.040 A 
ATOM     62  F   UNL A   1      48.838  27.451  27.626  1.00  0.00    -0.206 F 
ATOM     63  C   UNL A   1      51.025  25.853  30.033  1.00  0.00     0.006 A 
ENDBRANCH  42  56
BRANCH  43  64
ATOM     64  C   UNL A   1      38.710  29.146  29.095  1.00  0.00     0.057 A 
ATOM     65  C   UNL A   1      38.148  29.597  27.895  1.00  0.00     0.134 A 
ATOM     66  C   UNL A   1      37.869  29.048  30.209  1.00  0.00     0.134 A 
ATOM     67  F   UNL A   1      38.911  29.729  26.800  1.00  0.00    -0.206 F 
ATOM     68  C   UNL A   1      36.801  29.952  27.809  1.00  0.00     0.040 A 
ATOM     69  C   UNL A   1      36.515  29.380  30.130  1.00  0.00     0.040 A 
ATOM     70  F   UNL A   1      38.347  28.617  31.384  1.00  0.00    -0.206 F 
ATOM     71  C   UNL A   1      35.980  29.839  28.928  1.00  0.00     0.006 A 
ENDBRANCH  43  64
BRANCH  55  72
ATOM     72  C   UNL A   1      44.406  32.631  31.041  1.00  0.00     0.057 A 
ATOM     73  C   UNL A   1      44.659  33.670  30.138  1.00  0.00     0.134 A 
ATOM     74  C   UNL A   1      44.331  32.958  32.401  1.00  0.00     0.134 A 
ATOM     75  F   UNL A   1      44.755  33.419  28.823  1.00  0.00    -0.206 F 
ATOM     76  C   UNL A   1      44.851  34.983  30.572  1.00  0.00     0.040 A 
ATOM     77  C   UNL A   1      44.501  34.269  32.845  1.00  0.00     0.040 A 
ATOM     78  F   UNL A   1      44.086  32.009  33.317  1.00  0.00    -0.206 F 
ATOM     79  C   UNL A   1      44.768  35.285  31.929  1.00  0.00     0.006 A 
ENDBRANCH  55  72
ENDBRANCH  29  30
ENDBRANCH  21  24
ENDBRANCH  19  20
ENDBRANCH   1  19
TORSDOF 12
ENDMDL
MODEL 3
REMARK VINA RESULT:     -10.6      0.883      6.655
REMARK SMILES C[C@H]1[C@@H](C(=O)NCCCNC(=O)c2ccc(-c3c4nc(c(-c5c(F)cccc5F)c5ccc([nH]5)c(-c5c(F)cccc5F)c5nc(c(-c6c(F)cccc6F)c6ccc3[nH]6)C=C5)C=C4)cc2)CC[N@@H+]1CC(F)(F)F
REMARK SMILES IDX 8 1 7 2 6 3 4 4 5 5 3 7 1 8 2 9 69 10 67 11 68 12 70 14
REMARK SMILES IDX 71 15 72 16 73 17 74 18 9 19 10 20 11 21 12 23 13 24 14 25
REMARK SMILES IDX 66 26 15 27 65 28 16 29 17 30 18 31 59 32 19 33 64 34 58 35
REMARK SMILES IDX 60 36 20 37 63 38 57 39 56 40 21 42 47 43 30 44 46 45 31 46
REMARK SMILES IDX 34 47 45 48 61 49 32 50 33 51 44 53 62 54 35 55 22 56 23 57
REMARK SMILES IDX 28 58 24 59 25 60 27 61 29 62 26 63 48 64 49 65 54 66 50 67
REMARK SMILES IDX 51 68 53 69 55 70 52 71 36 72 37 73 42 74 38 75 39 76 41 77
REMARK SMILES IDX 43 78 40 79
REMARK H PARENT 6 6 69 13 10 22 60 41 34 52
REMARK Flexibility Score: inf
ROOT
ATOM      1  C   UNL A   1      38.136  19.523  25.003  1.00  0.00     0.042 C 
ENDROOT
BRANCH   1   2
ATOM      2  C   UNL A   1      37.031  20.573  24.861  1.00  0.00     0.117 C 
BRANCH   2   3
ATOM      3  N   UNL A   1      35.730  19.945  25.000  1.00  0.00    -0.356 N 
ATOM      4  C   UNL A   1      34.474  20.465  24.939  1.00  0.00     0.229 C 
ATOM      5  O   UNL A   1      33.568  19.754  25.379  1.00  0.00    -0.275 OA
ATOM      6  H   UNL A   1      35.762  18.975  25.166  1.00  0.00     0.163 HD
BRANCH   4   7
ATOM      7  C   UNL A   1      34.211  21.802  24.247  1.00  0.00     0.142 C 
ATOM      8  C   UNL A   1      34.753  23.115  26.465  1.00  0.00     0.076 C 
ATOM      9  C   UNL A   1      34.120  23.091  25.086  1.00  0.00     0.193 C 
ATOM     10  N   UNL A   1      32.688  23.423  25.256  1.00  0.00    -0.325 N 
ATOM     11  C   UNL A   1      32.833  21.762  23.572  1.00  0.00     0.081 C 
ATOM     12  C   UNL A   1      31.912  22.356  24.621  1.00  0.00     0.263 C 
ATOM     13  H   UNL A   1      32.453  23.463  26.248  1.00  0.00     0.348 HD
BRANCH  10  14
ATOM     14  C   UNL A   1      32.345  24.786  24.773  1.00  0.00     0.379 C 
BRANCH  14  15
ATOM     15  C   UNL A   1      32.200  25.974  25.748  1.00  0.00     0.438 C 
ATOM     16  F   UNL A   1      31.770  25.576  26.966  1.00  0.00    -0.165 F 
ATOM     17  F   UNL A   1      33.393  26.588  25.923  1.00  0.00    -0.165 F 
ATOM     18  F   UNL A   1      31.334  26.905  25.288  1.00  0.00    -0.165 F 
ENDBRANCH  14  15
ENDBRANCH  10  14
ENDBRANCH   4   7
ENDBRANCH   2   3
ENDBRANCH   1   2
BRANCH   1  19
ATOM     19  C   UNL A   1      39.152  19.837  26.096  1.00  0.00     0.118 C 
BRANCH  19  20
ATOM     20  N   UNL A   1      40.403  19.132  25.893  1.00  0.00    -0.352 N 
ATOM     21  C   UNL A   1      41.694  19.595  25.926  1.00  0.00     0.251 C 
ATOM     22  H   UNL A   1      40.311  18.171  25.701  1.00  0.00     0.163 HD
ATOM     23  O   UNL A   1      42.593  18.873  25.493  1.00  0.00    -0.269 OA
BRANCH  21  24
ATOM     24  C   UNL A   1      42.035  20.940  26.456  1.00  0.00     0.039 A 
ATOM     25  C   UNL A   1      41.953  21.148  27.837  1.00  0.00     0.014 A 
ATOM     26  C   UNL A   1      42.351  22.017  25.623  1.00  0.00     0.014 A 
ATOM     27  C   UNL A   1      42.210  22.413  28.378  1.00  0.00     0.010 A 
ATOM     28  C   UNL A   1      42.693  23.257  26.168  1.00  0.00     0.010 A 
ATOM     29  C   UNL A   1      42.600  23.477  27.549  1.00  0.00    -0.014 A 
BRANCH  29  30
ATOM     30  C   UNL A   1      42.860  24.830  28.112  1.00  0.00     0.031 A 
ATOM     31  C   UNL A   1      44.257  25.235  28.508  1.00  0.00     0.074 A 
ATOM     32  C   UNL A   1      41.841  25.691  28.297  1.00  0.00     0.049 A 
ATOM     33  N   UNL A   1      44.675  26.356  29.041  1.00  0.00    -0.248 NA
ATOM     34  C   UNL A   1      45.320  24.239  28.302  1.00  0.00     0.031 C 
ATOM     35  C   UNL A   1      40.433  25.413  28.005  1.00  0.00     0.029 A 
ATOM     36  N   UNL A   1      41.832  26.977  28.778  1.00  0.00    -0.354 N 
ATOM     37  C   UNL A   1      46.039  26.191  29.251  1.00  0.00     0.074 A 
ATOM     38  C   UNL A   1      46.369  24.846  28.835  1.00  0.00     0.031 C 
ATOM     39  C   UNL A   1      39.702  26.504  28.289  1.00  0.00     0.029 A 
ATOM     40  C   UNL A   1      40.583  27.546  28.807  1.00  0.00     0.049 A 
ATOM     41  H   UNL A   1      42.645  27.446  29.074  1.00  0.00     0.167 HD
ATOM     42  C   UNL A   1      46.942  27.085  29.722  1.00  0.00     0.037 A 
ATOM     43  C   UNL A   1      40.189  28.772  29.202  1.00  0.00     0.037 A 
ATOM     44  C   UNL A   1      46.627  28.437  30.102  1.00  0.00     0.049 A 
ATOM     45  C   UNL A   1      41.213  29.758  29.691  1.00  0.00     0.074 A 
ATOM     46  C   UNL A   1      47.484  29.433  30.536  1.00  0.00     0.029 A 
ATOM     47  N   UNL A   1      45.354  28.983  30.085  1.00  0.00    -0.354 N 
ATOM     48  N   UNL A   1      42.507  29.604  29.829  1.00  0.00    -0.248 NA
ATOM     49  C   UNL A   1      40.722  31.091  30.067  1.00  0.00     0.031 C 
ATOM     50  C   UNL A   1      46.725  30.576  30.809  1.00  0.00     0.029 A 
ATOM     51  C   UNL A   1      45.399  30.301  30.512  1.00  0.00     0.049 A 
ATOM     52  H   UNL A   1      44.537  28.507  29.812  1.00  0.00     0.167 HD
ATOM     53  C   UNL A   1      42.987  30.822  30.291  1.00  0.00     0.074 A 
ATOM     54  C   UNL A   1      41.848  31.711  30.392  1.00  0.00     0.031 C 
ATOM     55  C   UNL A   1      44.258  31.172  30.607  1.00  0.00     0.037 A 
BRANCH  42  56
ATOM     56  C   UNL A   1      48.366  26.626  29.840  1.00  0.00     0.057 A 
ATOM     57  C   UNL A   1      49.295  26.836  28.813  1.00  0.00     0.134 A 
ATOM     58  C   UNL A   1      48.820  25.987  31.001  1.00  0.00     0.134 A 
ATOM     59  F   UNL A   1      48.922  27.430  27.670  1.00  0.00    -0.206 F 
ATOM     60  C   UNL A   1      50.618  26.402  28.924  1.00  0.00     0.040 A 
ATOM     61  C   UNL A   1      50.146  25.571  31.134  1.00  0.00     0.040 A 
ATOM     62  F   UNL A   1      47.983  25.760  32.026  1.00  0.00    -0.206 F 
ATOM     63  C   UNL A   1      51.047  25.772  30.090  1.00  0.00     0.006 A 
ENDBRANCH  42  56
BRANCH  43  64
ATOM     64  C   UNL A   1      38.756  29.148  29.124  1.00  0.00     0.057 A 
ATOM     65  C   UNL A   1      38.194  29.598  27.924  1.00  0.00     0.134 A 
ATOM     66  C   UNL A   1      37.918  29.062  30.241  1.00  0.00     0.134 A 
ATOM     67  F   UNL A   1      38.953  29.719  26.826  1.00  0.00    -0.206 F 
ATOM     68  C   UNL A   1      36.850  29.964  27.841  1.00  0.00     0.040 A 
ATOM     69  C   UNL A   1      36.567  29.406  30.166  1.00  0.00     0.040 A 
ATOM     70  F   UNL A   1      38.397  28.632  31.416  1.00  0.00    -0.206 F 
ATOM     71  C   UNL A   1      36.031  29.863  28.963  1.00  0.00     0.006 A 
ENDBRANCH  43  64
BRANCH  55  72
ATOM     72  C   UNL A   1      44.483  32.580  31.072  1.00  0.00     0.057 A 
ATOM     73  C   UNL A   1      44.444  32.921  32.429  1.00  0.00     0.134 A 
ATOM     74  C   UNL A   1      44.765  33.600  30.154  1.00  0.00     0.134 A 
ATOM     75  F   UNL A   1      44.166  31.992  33.356  1.00  0.00    -0.206 F 
ATOM     76  C   UNL A   1      44.659  34.233  32.857  1.00  0.00     0.040 A 
ATOM     77  C   UNL A   1      45.002  34.910  30.571  1.00  0.00     0.040 A 
ATOM     78  F   UNL A   1      44.822  33.337  28.840  1.00  0.00    -0.206 F 
ATOM     79  C   UNL A   1      44.943  35.230  31.926  1.00  0.00     0.006 A 
ENDBRANCH  55  72
ENDBRANCH  29  30
ENDBRANCH  21  24
ENDBRANCH  19  20
ENDBRANCH   1  19
TORSDOF 12
ENDMDL
