MODEL 1
REMARK VINA RESULT:     -11.2      0.000      0.000
REMARK SMILES CCn1cnc(S(=O)(=O)N[C@H](Cc2cnc[nH]2)C(=O)NCCCNC(=O)c2ccc(-c3c4nc(c(-c5c(F)cccc5F)c5ccc([nH]5)c(-c5c(F)cccc5F)c5nc(c(-c6c(F)cccc6F)c6ccc3[nH]6)C=C5)C=C4)cc2)c1
REMARK SMILES IDX 21 1 20 2 18 3 19 4 11 6 10 7 7 9 8 10 9 11 6 12 3 13 4 14
REMARK SMILES IDX 81 15 5 16 2 17 1 18 12 19 13 20 14 21 17 22 15 23 16 24
REMARK SMILES IDX 22 26 23 27 24 28 25 29 26 31 27 32 28 33 80 34 29 35 79 36
REMARK SMILES IDX 30 37 31 38 32 39 73 40 33 41 78 42 72 43 74 44 34 45 77 46
REMARK SMILES IDX 71 47 70 48 35 50 61 51 44 52 60 53 45 54 48 55 59 56 75 57
REMARK SMILES IDX 46 58 47 59 58 61 76 62 49 63 36 64 37 65 42 66 38 67 39 68
REMARK SMILES IDX 41 69 43 70 40 71 62 72 63 73 68 74 64 75 65 76 67 77 69 78
REMARK SMILES IDX 66 79 50 80 51 81 56 82 52 83 53 84 55 85 57 86 54 87
REMARK H PARENT 20 5 10 8 17 25 24 30 74 49 48 60
REMARK Flexibility Score: inf
ROOT
ATOM      1  C   UNL A   1      36.354  20.492  25.115  1.00  0.00     0.117 C 
ENDROOT
BRANCH   1   2
ATOM      2  N   UNL A   1      35.280  19.545  24.897  1.00  0.00    -0.355 N 
ATOM      3  C   UNL A   1      33.944  19.736  24.764  1.00  0.00     0.238 C 
ATOM      4  O   UNL A   1      33.242  18.739  24.564  1.00  0.00    -0.273 OA
ATOM      5  H   UNL A   1      35.567  18.605  24.836  1.00  0.00     0.163 HD
BRANCH   3   6
ATOM      6  C   UNL A   1      33.291  21.107  24.893  1.00  0.00     0.165 C 
BRANCH   6   7
ATOM      7  N   UNL A   1      32.538  21.429  26.139  1.00  0.00    -0.197 NA
ATOM      8  H   UNL A   1      31.551  21.489  25.887  1.00  0.00     0.142 HD
BRANCH   7   9
ATOM      9  S   UNL A   1      32.929  22.856  26.980  1.00  0.00     0.260 S 
ATOM     10  O   UNL A   1      34.294  23.180  26.651  1.00  0.00    -0.205 OA
ATOM     11  O   UNL A   1      32.525  22.597  28.349  1.00  0.00    -0.205 OA
BRANCH   9  12
ATOM     12  C   UNL A   1      31.960  24.202  26.469  1.00  0.00     0.188 A 
ATOM     13  N   UNL A   1      31.290  26.141  25.724  1.00  0.00    -0.336 N 
ATOM     14  C   UNL A   1      30.211  25.353  26.002  1.00  0.00     0.201 A 
ATOM     15  C   UNL A   1      32.418  25.408  25.978  1.00  0.00     0.129 A 
ATOM     16  N   UNL A   1      30.575  24.182  26.468  1.00  0.00    -0.224 NA
BRANCH  13  17
ATOM     17  C   UNL A   1      31.263  27.490  25.201  1.00  0.00     0.120 C 
ATOM     18  C   UNL A   1      30.445  27.647  23.928  1.00  0.00     0.027 C 
ENDBRANCH  13  17
ENDBRANCH   9  12
ENDBRANCH   7   9
ENDBRANCH   6   7
BRANCH   6  19
ATOM     19  C   UNL A   1      32.530  21.521  23.607  1.00  0.00     0.085 C 
BRANCH  19  20
ATOM     20  C   UNL A   1      32.773  22.897  23.073  1.00  0.00     0.037 A 
ATOM     21  C   UNL A   1      33.932  23.622  22.890  1.00  0.00     0.134 A 
ATOM     22  N   UNL A   1      31.770  23.773  22.725  1.00  0.00    -0.348 N 
ATOM     23  N   UNL A   1      33.665  24.833  22.312  1.00  0.00    -0.245 NA
ATOM     24  C   UNL A   1      32.358  24.894  22.213  1.00  0.00     0.196 A 
ATOM     25  H   UNL A   1      30.803  23.618  22.827  1.00  0.00     0.167 HD
ENDBRANCH  19  20
ENDBRANCH   6  19
ENDBRANCH   3   6
ENDBRANCH   1   2
BRANCH   1  26
ATOM     26  C   UNL A   1      37.700  19.875  24.782  1.00  0.00     0.042 C 
BRANCH  26  27
ATOM     27  C   UNL A   1      38.806  20.341  25.709  1.00  0.00     0.118 C 
BRANCH  27  28
ATOM     28  N   UNL A   1      39.907  19.391  25.772  1.00  0.00    -0.352 N 
ATOM     29  C   UNL A   1      41.231  19.610  26.058  1.00  0.00     0.251 C 
ATOM     30  H   UNL A   1      39.667  18.455  25.582  1.00  0.00     0.163 HD
ATOM     31  O   UNL A   1      42.060  18.729  25.852  1.00  0.00    -0.269 OA
BRANCH  29  32
ATOM     32  C   UNL A   1      41.660  20.913  26.605  1.00  0.00     0.039 A 
ATOM     33  C   UNL A   1      42.113  21.902  25.729  1.00  0.00     0.014 A 
ATOM     34  C   UNL A   1      41.631  21.154  27.980  1.00  0.00     0.014 A 
ATOM     35  C   UNL A   1      42.492  23.148  26.231  1.00  0.00     0.010 A 
ATOM     36  C   UNL A   1      41.910  22.424  28.468  1.00  0.00     0.010 A 
ATOM     37  C   UNL A   1      42.367  23.427  27.602  1.00  0.00    -0.014 A 
BRANCH  37  38
ATOM     38  C   UNL A   1      42.762  24.740  28.166  1.00  0.00     0.031 A 
ATOM     39  C   UNL A   1      41.716  25.799  28.385  1.00  0.00     0.074 A 
ATOM     40  C   UNL A   1      44.058  25.000  28.423  1.00  0.00     0.049 A 
ATOM     41  N   UNL A   1      41.861  27.039  28.778  1.00  0.00    -0.248 NA
ATOM     42  C   UNL A   1      40.322  25.425  28.087  1.00  0.00     0.031 C 
ATOM     43  C   UNL A   1      45.170  24.073  28.202  1.00  0.00     0.029 A 
ATOM     44  N   UNL A   1      44.659  26.128  28.918  1.00  0.00    -0.354 N 
ATOM     45  C   UNL A   1      40.587  27.593  28.754  1.00  0.00     0.074 A 
ATOM     46  C   UNL A   1      39.691  26.578  28.248  1.00  0.00     0.031 C 
ATOM     47  C   UNL A   1      46.315  24.662  28.586  1.00  0.00     0.029 A 
ATOM     48  C   UNL A   1      46.022  26.016  29.045  1.00  0.00     0.049 A 
ATOM     49  H   UNL A   1      44.162  26.942  29.160  1.00  0.00     0.167 HD
ATOM     50  C   UNL A   1      40.192  28.826  29.149  1.00  0.00     0.037 A 
ATOM     51  C   UNL A   1      46.931  26.907  29.483  1.00  0.00     0.037 A 
ATOM     52  C   UNL A   1      41.080  29.820  29.690  1.00  0.00     0.049 A 
ATOM     53  C   UNL A   1      46.463  28.261  29.940  1.00  0.00     0.074 A 
ATOM     54  C   UNL A   1      40.777  31.087  30.156  1.00  0.00     0.029 A 
ATOM     55  N   UNL A   1      42.446  29.649  29.848  1.00  0.00    -0.354 N 
ATOM     56  N   UNL A   1      45.248  28.756  29.956  1.00  0.00    -0.248 NA
ATOM     57  C   UNL A   1      47.491  29.178  30.453  1.00  0.00     0.031 C 
ATOM     58  C   UNL A   1      41.966  31.693  30.576  1.00  0.00     0.029 A 
ATOM     59  C   UNL A   1      43.002  30.788  30.404  1.00  0.00     0.049 A 
ATOM     60  H   UNL A   1      42.947  28.838  29.601  1.00  0.00     0.167 HD
ATOM     61  C   UNL A   1      45.361  30.025  30.507  1.00  0.00     0.074 A 
ATOM     62  C   UNL A   1      46.762  30.220  30.823  1.00  0.00     0.031 C 
ATOM     63  C   UNL A   1      44.395  30.949  30.728  1.00  0.00     0.037 A 
BRANCH  50  64
ATOM     64  C   UNL A   1      38.731  29.151  29.030  1.00  0.00     0.057 A 
ATOM     65  C   UNL A   1      37.867  29.063  30.129  1.00  0.00     0.134 A 
ATOM     66  C   UNL A   1      38.186  29.572  27.811  1.00  0.00     0.134 A 
ATOM     67  F   UNL A   1      38.323  28.649  31.321  1.00  0.00    -0.206 F 
ATOM     68  C   UNL A   1      36.506  29.353  30.014  1.00  0.00     0.040 A 
ATOM     69  C   UNL A   1      36.832  29.893  27.691  1.00  0.00     0.040 A 
ATOM     70  F   UNL A   1      38.958  29.683  26.720  1.00  0.00    -0.206 F 
ATOM     71  C   UNL A   1      35.987  29.776  28.793  1.00  0.00     0.006 A 
ENDBRANCH  50  64
BRANCH  51  72
ATOM     72  C   UNL A   1      48.367  26.541  29.544  1.00  0.00     0.057 A 
ATOM     73  C   UNL A   1      49.233  26.847  28.487  1.00  0.00     0.134 A 
ATOM     74  C   UNL A   1      48.906  25.867  30.645  1.00  0.00     0.134 A 
ATOM     75  F   UNL A   1      48.771  27.478  27.397  1.00  0.00    -0.206 F 
ATOM     76  C   UNL A   1      50.578  26.473  28.511  1.00  0.00     0.040 A 
ATOM     77  C   UNL A   1      50.254  25.508  30.693  1.00  0.00     0.040 A 
ATOM     78  F   UNL A   1      48.131  25.553  31.692  1.00  0.00    -0.206 F 
ATOM     79  C   UNL A   1      51.092  25.804  29.620  1.00  0.00     0.006 A 
ENDBRANCH  51  72
BRANCH  63  80
ATOM     80  C   UNL A   1      44.815  32.231  31.384  1.00  0.00     0.057 A 
ATOM     81  C   UNL A   1      45.209  33.348  30.639  1.00  0.00     0.134 A 
ATOM     82  C   UNL A   1      44.793  32.354  32.779  1.00  0.00     0.134 A 
ATOM     83  F   UNL A   1      45.264  33.288  29.300  1.00  0.00    -0.206 F 
ATOM     84  C   UNL A   1      45.591  34.538  31.260  1.00  0.00     0.040 A 
ATOM     85  C   UNL A   1      45.148  33.546  33.410  1.00  0.00     0.040 A 
ATOM     86  F   UNL A   1      44.415  31.322  33.549  1.00  0.00    -0.206 F 
ATOM     87  C   UNL A   1      45.555  34.640  32.650  1.00  0.00     0.006 A 
ENDBRANCH  63  80
ENDBRANCH  37  38
ENDBRANCH  29  32
ENDBRANCH  27  28
ENDBRANCH  26  27
ENDBRANCH   1  26
TORSDOF 16
ENDMDL
MODEL 2
REMARK VINA RESULT:     -11.2      0.584      6.333
REMARK SMILES CCn1cnc(S(=O)(=O)N[C@H](Cc2cnc[nH]2)C(=O)NCCCNC(=O)c2ccc(-c3c4nc(c(-c5c(F)cccc5F)c5ccc([nH]5)c(-c5c(F)cccc5F)c5nc(c(-c6c(F)cccc6F)c6ccc3[nH]6)C=C5)C=C4)cc2)c1
REMARK SMILES IDX 21 1 20 2 18 3 19 4 11 6 10 7 7 9 8 10 9 11 6 12 3 13 4 14
REMARK SMILES IDX 81 15 5 16 2 17 1 18 12 19 13 20 14 21 17 22 15 23 16 24
REMARK SMILES IDX 22 26 23 27 24 28 25 29 26 31 27 32 28 33 80 34 29 35 79 36
REMARK SMILES IDX 30 37 31 38 32 39 73 40 33 41 78 42 72 43 74 44 34 45 77 46
REMARK SMILES IDX 71 47 70 48 35 50 61 51 44 52 60 53 45 54 48 55 59 56 75 57
REMARK SMILES IDX 46 58 47 59 58 61 76 62 49 63 36 64 37 65 42 66 38 67 39 68
REMARK SMILES IDX 41 69 43 70 40 71 62 72 63 73 68 74 64 75 65 76 67 77 69 78
REMARK SMILES IDX 66 79 50 80 51 81 56 82 52 83 53 84 55 85 57 86 54 87
REMARK H PARENT 20 5 10 8 17 25 24 30 74 49 48 60
REMARK Flexibility Score: inf
ROOT
ATOM      1  C   UNL A   1      36.242  20.285  25.005  1.00  0.00     0.117 C 
ENDROOT
BRANCH   1   2
ATOM      2  N   UNL A   1      35.091  19.405  24.998  1.00  0.00    -0.355 N 
ATOM      3  C   UNL A   1      33.768  19.679  24.894  1.00  0.00     0.238 C 
ATOM      4  O   UNL A   1      32.985  18.722  24.896  1.00  0.00    -0.273 OA
ATOM      5  H   UNL A   1      35.306  18.448  25.083  1.00  0.00     0.163 HD
BRANCH   3   6
ATOM      6  C   UNL A   1      33.224  21.100  24.819  1.00  0.00     0.165 C 
BRANCH   6   7
ATOM      7  N   UNL A   1      32.333  21.586  25.912  1.00  0.00    -0.197 NA
ATOM      8  H   UNL A   1      31.450  21.862  25.481  1.00  0.00     0.142 HD
BRANCH   7   9
ATOM      9  S   UNL A   1      32.855  22.895  26.867  1.00  0.00     0.260 S 
ATOM     10  O   UNL A   1      34.227  23.156  26.511  1.00  0.00    -0.205 OA
ATOM     11  O   UNL A   1      32.483  22.532  28.221  1.00  0.00    -0.205 OA
BRANCH   9  12
ATOM     12  C   UNL A   1      31.967  24.347  26.527  1.00  0.00     0.188 A 
ATOM     13  N   UNL A   1      31.413  26.410  26.083  1.00  0.00    -0.336 N 
ATOM     14  C   UNL A   1      30.293  25.631  26.141  1.00  0.00     0.201 A 
ATOM     15  C   UNL A   1      32.496  25.599  26.288  1.00  0.00     0.129 A 
ATOM     16  N   UNL A   1      30.587  24.384  26.421  1.00  0.00    -0.224 NA
BRANCH  13  17
ATOM     17  C   UNL A   1      31.464  27.829  25.801  1.00  0.00     0.120 C 
ATOM     18  C   UNL A   1      31.904  28.681  26.982  1.00  0.00     0.027 C 
ENDBRANCH  13  17
ENDBRANCH   9  12
ENDBRANCH   7   9
ENDBRANCH   6   7
BRANCH   6  19
ATOM     19  C   UNL A   1      32.690  21.455  23.407  1.00  0.00     0.085 C 
BRANCH  19  20
ATOM     20  C   UNL A   1      32.391  22.892  23.123  1.00  0.00     0.037 A 
ATOM     21  C   UNL A   1      33.209  23.960  22.814  1.00  0.00     0.134 A 
ATOM     22  N   UNL A   1      31.136  23.447  23.217  1.00  0.00    -0.348 N 
ATOM     23  N   UNL A   1      32.472  25.088  22.578  1.00  0.00    -0.245 NA
ATOM     24  C   UNL A   1      31.227  24.750  22.817  1.00  0.00     0.196 A 
ATOM     25  H   UNL A   1      30.319  22.988  23.518  1.00  0.00     0.167 HD
ENDBRANCH  19  20
ENDBRANCH   6  19
ENDBRANCH   3   6
ENDBRANCH   1   2
BRANCH   1  26
ATOM     26  C   UNL A   1      37.531  19.498  24.856  1.00  0.00     0.042 C 
BRANCH  26  27
ATOM     27  C   UNL A   1      38.710  20.168  25.536  1.00  0.00     0.118 C 
BRANCH  27  28
ATOM     28  N   UNL A   1      39.835  19.259  25.705  1.00  0.00    -0.352 N 
ATOM     29  C   UNL A   1      41.130  19.533  26.068  1.00  0.00     0.251 C 
ATOM     30  H   UNL A   1      39.638  18.309  25.534  1.00  0.00     0.163 HD
ATOM     31  O   UNL A   1      41.998  18.675  25.949  1.00  0.00    -0.269 OA
BRANCH  29  32
ATOM     32  C   UNL A   1      41.479  20.869  26.593  1.00  0.00     0.039 A 
ATOM     33  C   UNL A   1      41.984  21.833  25.718  1.00  0.00     0.014 A 
ATOM     34  C   UNL A   1      41.324  21.165  27.949  1.00  0.00     0.014 A 
ATOM     35  C   UNL A   1      42.289  23.108  26.197  1.00  0.00     0.010 A 
ATOM     36  C   UNL A   1      41.529  22.461  28.404  1.00  0.00     0.010 A 
ATOM     37  C   UNL A   1      42.038  23.440  27.538  1.00  0.00    -0.014 A 
BRANCH  37  38
ATOM     38  C   UNL A   1      42.351  24.785  28.077  1.00  0.00     0.031 A 
ATOM     39  C   UNL A   1      43.757  25.101  28.512  1.00  0.00     0.074 A 
ATOM     40  C   UNL A   1      41.370  25.694  28.231  1.00  0.00     0.049 A 
ATOM     41  N   UNL A   1      44.223  26.177  29.092  1.00  0.00    -0.248 NA
ATOM     42  C   UNL A   1      44.769  24.052  28.297  1.00  0.00     0.031 C 
ATOM     43  C   UNL A   1      39.960  25.487  27.896  1.00  0.00     0.029 A 
ATOM     44  N   UNL A   1      41.412  26.975  28.719  1.00  0.00    -0.354 N 
ATOM     45  C   UNL A   1      45.568  25.926  29.328  1.00  0.00     0.074 A 
ATOM     46  C   UNL A   1      45.831  24.574  28.889  1.00  0.00     0.031 C 
ATOM     47  C   UNL A   1      39.275  26.611  28.165  1.00  0.00     0.029 A 
ATOM     48  C   UNL A   1      40.190  27.603  28.721  1.00  0.00     0.049 A 
ATOM     49  H   UNL A   1      42.237  27.404  29.038  1.00  0.00     0.167 HD
ATOM     50  C   UNL A   1      46.509  26.756  29.836  1.00  0.00     0.037 A 
ATOM     51  C   UNL A   1      39.850  28.840  29.127  1.00  0.00     0.037 A 
ATOM     52  C   UNL A   1      46.253  28.113  30.235  1.00  0.00     0.049 A 
ATOM     53  C   UNL A   1      40.918  29.752  29.663  1.00  0.00     0.074 A 
ATOM     54  C   UNL A   1      47.142  29.052  30.726  1.00  0.00     0.029 A 
ATOM     55  N   UNL A   1      45.012  28.728  30.175  1.00  0.00    -0.354 N 
ATOM     56  N   UNL A   1      42.196  29.516  29.838  1.00  0.00    -0.248 NA
ATOM     57  C   UNL A   1      40.499  31.108  30.048  1.00  0.00     0.031 C 
ATOM     58  C   UNL A   1      46.434  30.231  30.985  1.00  0.00     0.029 A 
ATOM     59  C   UNL A   1      45.110  30.034  30.621  1.00  0.00     0.049 A 
ATOM     60  H   UNL A   1      44.183  28.298  29.862  1.00  0.00     0.167 HD
ATOM     61  C   UNL A   1      42.739  30.700  30.321  1.00  0.00     0.074 A 
ATOM     62  C   UNL A   1      41.653  31.655  30.400  1.00  0.00     0.031 C 
ATOM     63  C   UNL A   1      44.019  30.971  30.671  1.00  0.00     0.037 A 
BRANCH  50  64
ATOM     64  C   UNL A   1      47.906  26.218  29.962  1.00  0.00     0.057 A 
ATOM     65  C   UNL A   1      48.796  26.226  28.880  1.00  0.00     0.134 A 
ATOM     66  C   UNL A   1      48.371  25.704  31.177  1.00  0.00     0.134 A 
ATOM     67  F   UNL A   1      48.406  26.690  27.682  1.00  0.00    -0.206 F 
ATOM     68  C   UNL A   1      50.090  25.714  28.994  1.00  0.00     0.040 A 
ATOM     69  C   UNL A   1      49.672  25.215  31.312  1.00  0.00     0.040 A 
ATOM     70  F   UNL A   1      47.571  25.670  32.254  1.00  0.00    -0.206 F 
ATOM     71  C   UNL A   1      50.533  25.212  30.215  1.00  0.00     0.006 A 
ENDBRANCH  50  64
BRANCH  51  72
ATOM     72  C   UNL A   1      38.445  29.304  29.013  1.00  0.00     0.057 A 
ATOM     73  C   UNL A   1      37.586  29.279  30.118  1.00  0.00     0.134 A 
ATOM     74  C   UNL A   1      37.921  29.767  27.800  1.00  0.00     0.134 A 
ATOM     75  F   UNL A   1      38.026  28.829  31.304  1.00  0.00    -0.206 F 
ATOM     76  C   UNL A   1      36.250  29.673  30.017  1.00  0.00     0.040 A 
ATOM     77  C   UNL A   1      36.595  30.187  27.690  1.00  0.00     0.040 A 
ATOM     78  F   UNL A   1      38.695  29.824  26.707  1.00  0.00    -0.206 F 
ATOM     79  C   UNL A   1      35.753  30.132  28.800  1.00  0.00     0.006 A 
ENDBRANCH  51  72
BRANCH  63  80
ATOM     80  C   UNL A   1      44.320  32.369  31.125  1.00  0.00     0.057 A 
ATOM     81  C   UNL A   1      44.304  32.725  32.479  1.00  0.00     0.134 A 
ATOM     82  C   UNL A   1      44.659  33.359  30.195  1.00  0.00     0.134 A 
ATOM     83  F   UNL A   1      43.974  31.824  33.416  1.00  0.00    -0.206 F 
ATOM     84  C   UNL A   1      44.593  34.027  32.890  1.00  0.00     0.040 A 
ATOM     85  C   UNL A   1      44.974  34.657  30.596  1.00  0.00     0.040 A 
ATOM     86  F   UNL A   1      44.700  33.078  28.884  1.00  0.00    -0.206 F 
ATOM     87  C   UNL A   1      44.935  34.996  31.948  1.00  0.00     0.006 A 
ENDBRANCH  63  80
ENDBRANCH  37  38
ENDBRANCH  29  32
ENDBRANCH  27  28
ENDBRANCH  26  27
ENDBRANCH   1  26
TORSDOF 16
ENDMDL
MODEL 3
REMARK VINA RESULT:     -11.1      3.612      8.695
REMARK SMILES CCn1cnc(S(=O)(=O)N[C@H](Cc2cnc[nH]2)C(=O)NCCCNC(=O)c2ccc(-c3c4nc(c(-c5c(F)cccc5F)c5ccc([nH]5)c(-c5c(F)cccc5F)c5nc(c(-c6c(F)cccc6F)c6ccc3[nH]6)C=C5)C=C4)cc2)c1
REMARK SMILES IDX 21 1 20 2 18 3 19 4 11 6 10 7 7 9 8 10 9 11 6 12 3 13 4 14
REMARK SMILES IDX 81 15 5 16 2 17 1 18 12 19 13 20 14 21 17 22 15 23 16 24
REMARK SMILES IDX 22 26 23 27 24 28 25 29 26 31 27 32 28 33 80 34 29 35 79 36
REMARK SMILES IDX 30 37 31 38 32 39 73 40 33 41 78 42 72 43 74 44 34 45 77 46
REMARK SMILES IDX 71 47 70 48 35 50 61 51 44 52 60 53 45 54 48 55 59 56 75 57
REMARK SMILES IDX 46 58 47 59 58 61 76 62 49 63 36 64 37 65 42 66 38 67 39 68
REMARK SMILES IDX 41 69 43 70 40 71 62 72 63 73 68 74 64 75 65 76 67 77 69 78
REMARK SMILES IDX 66 79 50 80 51 81 56 82 52 83 53 84 55 85 57 86 54 87
REMARK H PARENT 20 5 10 8 17 25 24 30 74 49 48 60
REMARK Flexibility Score: inf
ROOT
ATOM      1  C   UNL A   1      31.570  29.991  25.267  1.00  0.00     0.117 C 
ENDROOT
BRANCH   1   2
ATOM      2  N   UNL A   1      30.906  30.098  23.984  1.00  0.00    -0.355 N 
ATOM      3  C   UNL A   1      30.574  29.148  23.076  1.00  0.00     0.238 C 
ATOM      4  O   UNL A   1      29.984  29.515  22.054  1.00  0.00    -0.273 OA
ATOM      5  H   UNL A   1      30.654  31.015  23.728  1.00  0.00     0.163 HD
BRANCH   3   6
ATOM      6  C   UNL A   1      30.934  27.678  23.253  1.00  0.00     0.165 C 
BRANCH   6   7
ATOM      7  N   UNL A   1      31.397  26.904  22.066  1.00  0.00    -0.197 NA
ATOM      8  H   UNL A   1      30.813  26.071  22.002  1.00  0.00     0.142 HD
BRANCH   7   9
ATOM      9  S   UNL A   1      33.018  26.385  22.014  1.00  0.00     0.260 S 
ATOM     10  O   UNL A   1      33.816  27.435  22.595  1.00  0.00    -0.205 OA
ATOM     11  O   UNL A   1      33.221  25.954  20.644  1.00  0.00    -0.205 OA
BRANCH   9  12
ATOM     12  C   UNL A   1      33.281  24.966  22.978  1.00  0.00     0.188 A 
ATOM     13  N   UNL A   1      34.047  23.534  24.436  1.00  0.00    -0.336 N 
ATOM     14  C   UNL A   1      32.999  22.986  23.753  1.00  0.00     0.201 A 
ATOM     15  C   UNL A   1      34.216  24.814  23.982  1.00  0.00     0.129 A 
ATOM     16  N   UNL A   1      32.521  23.815  22.855  1.00  0.00    -0.224 NA
BRANCH  13  17
ATOM     17  C   UNL A   1      34.814  22.906  25.490  1.00  0.00     0.120 C 
ATOM     18  C   UNL A   1      36.085  23.653  25.863  1.00  0.00     0.027 C 
ENDBRANCH  13  17
ENDBRANCH   9  12
ENDBRANCH   7   9
ENDBRANCH   6   7
BRANCH   6  19
ATOM     19  C   UNL A   1      29.885  26.910  24.098  1.00  0.00     0.085 C 
BRANCH  19  20
ATOM     20  C   UNL A   1      30.392  25.907  25.085  1.00  0.00     0.037 A 
ATOM     21  C   UNL A   1      31.271  26.019  26.142  1.00  0.00     0.134 A 
ATOM     22  N   UNL A   1      30.095  24.565  25.036  1.00  0.00    -0.348 N 
ATOM     23  N   UNL A   1      31.391  24.829  26.807  1.00  0.00    -0.245 NA
ATOM     24  C   UNL A   1      30.664  23.973  26.127  1.00  0.00     0.196 A 
ATOM     25  H   UNL A   1      29.568  24.112  24.339  1.00  0.00     0.167 HD
ENDBRANCH  19  20
ENDBRANCH   6  19
ENDBRANCH   3   6
ENDBRANCH   1   2
BRANCH   1  26
ATOM     26  C   UNL A   1      31.213  31.160  26.165  1.00  0.00     0.042 C 
BRANCH  26  27
ATOM     27  C   UNL A   1      32.419  31.749  26.871  1.00  0.00     0.118 C 
BRANCH  27  28
ATOM     28  N   UNL A   1      32.216  33.145  27.233  1.00  0.00    -0.352 N 
ATOM     29  C   UNL A   1      32.937  33.936  28.092  1.00  0.00     0.251 C 
ATOM     30  H   UNL A   1      31.451  33.586  26.796  1.00  0.00     0.163 HD
ATOM     31  O   UNL A   1      32.496  35.025  28.444  1.00  0.00    -0.269 OA
BRANCH  29  32
ATOM     32  C   UNL A   1      34.242  33.469  28.602  1.00  0.00     0.039 A 
ATOM     33  C   UNL A   1      34.285  32.735  29.790  1.00  0.00     0.014 A 
ATOM     34  C   UNL A   1      35.424  33.767  27.919  1.00  0.00     0.014 A 
ATOM     35  C   UNL A   1      35.510  32.263  30.265  1.00  0.00     0.010 A 
ATOM     36  C   UNL A   1      36.625  33.211  28.336  1.00  0.00     0.010 A 
ATOM     37  C   UNL A   1      36.685  32.474  29.527  1.00  0.00    -0.014 A 
BRANCH  37  38
ATOM     38  C   UNL A   1      38.001  31.985  30.006  1.00  0.00     0.031 A 
ATOM     39  C   UNL A   1      38.538  30.676  29.493  1.00  0.00     0.074 A 
ATOM     40  C   UNL A   1      38.678  32.681  30.938  1.00  0.00     0.049 A 
ATOM     41  N   UNL A   1      39.617  30.026  29.849  1.00  0.00    -0.248 NA
ATOM     42  C   UNL A   1      37.736  29.987  28.466  1.00  0.00     0.031 C 
ATOM     43  C   UNL A   1      38.236  33.935  31.550  1.00  0.00     0.029 A 
ATOM     44  N   UNL A   1      39.883  32.424  31.540  1.00  0.00    -0.354 N 
ATOM     45  C   UNL A   1      39.610  28.851  29.109  1.00  0.00     0.074 A 
ATOM     46  C   UNL A   1      38.390  28.844  28.333  1.00  0.00     0.031 C 
ATOM     47  C   UNL A   1      39.169  34.351  32.423  1.00  0.00     0.029 A 
ATOM     48  C   UNL A   1      40.256  33.378  32.455  1.00  0.00     0.049 A 
ATOM     49  H   UNL A   1      40.429  31.631  31.337  1.00  0.00     0.167 HD
ATOM     50  C   UNL A   1      40.549  27.878  29.055  1.00  0.00     0.037 A 
ATOM     51  C   UNL A   1      41.352  33.455  33.233  1.00  0.00     0.037 A 
ATOM     52  C   UNL A   1      41.780  27.906  29.799  1.00  0.00     0.049 A 
ATOM     53  C   UNL A   1      42.393  32.374  33.136  1.00  0.00     0.074 A 
ATOM     54  C   UNL A   1      42.817  26.991  29.789  1.00  0.00     0.029 A 
ATOM     55  N   UNL A   1      42.142  28.915  30.678  1.00  0.00    -0.354 N 
ATOM     56  N   UNL A   1      42.395  31.291  32.397  1.00  0.00    -0.248 NA
ATOM     57  C   UNL A   1      43.592  32.534  33.972  1.00  0.00     0.031 C 
ATOM     58  C   UNL A   1      43.799  27.435  30.680  1.00  0.00     0.029 A 
ATOM     59  C   UNL A   1      43.387  28.645  31.218  1.00  0.00     0.049 A 
ATOM     60  H   UNL A   1      41.594  29.706  30.887  1.00  0.00     0.167 HD
ATOM     61  C   UNL A   1      43.603  30.657  32.654  1.00  0.00     0.074 A 
ATOM     62  C   UNL A   1      44.314  31.484  33.608  1.00  0.00     0.031 C 
ATOM     63  C   UNL A   1      44.082  29.494  32.150  1.00  0.00     0.037 A 
BRANCH  50  64
ATOM     64  C   UNL A   1      40.285  26.716  28.142  1.00  0.00     0.057 A 
ATOM     65  C   UNL A   1      39.453  25.655  28.524  1.00  0.00     0.134 A 
ATOM     66  C   UNL A   1      40.853  26.663  26.864  1.00  0.00     0.134 A 
ATOM     67  F   UNL A   1      38.892  25.637  29.743  1.00  0.00    -0.206 F 
ATOM     68  C   UNL A   1      39.219  24.569  27.679  1.00  0.00     0.040 A 
ATOM     69  C   UNL A   1      40.603  25.596  25.999  1.00  0.00     0.040 A 
ATOM     70  F   UNL A   1      41.656  27.648  26.432  1.00  0.00    -0.206 F 
ATOM     71  C   UNL A   1      39.790  24.541  26.410  1.00  0.00     0.006 A 
ENDBRANCH  50  64
BRANCH  51  72
ATOM     72  C   UNL A   1      41.541  34.609  34.145  1.00  0.00     0.057 A 
ATOM     73  C   UNL A   1      42.218  35.759  33.721  1.00  0.00     0.134 A 
ATOM     74  C   UNL A   1      41.066  34.589  35.462  1.00  0.00     0.134 A 
ATOM     75  F   UNL A   1      42.711  35.831  32.475  1.00  0.00    -0.206 F 
ATOM     76  C   UNL A   1      42.440  36.837  34.581  1.00  0.00     0.040 A 
ATOM     77  C   UNL A   1      41.260  35.669  36.324  1.00  0.00     0.040 A 
ATOM     78  F   UNL A   1      40.403  33.520  35.925  1.00  0.00    -0.206 F 
ATOM     79  C   UNL A   1      41.955  36.794  35.886  1.00  0.00     0.006 A 
ENDBRANCH  51  72
BRANCH  63  80
ATOM     80  C   UNL A   1      45.455  29.076  32.585  1.00  0.00     0.057 A 
ATOM     81  C   UNL A   1      45.658  28.259  33.704  1.00  0.00     0.134 A 
ATOM     82  C   UNL A   1      46.582  29.472  31.855  1.00  0.00     0.134 A 
ATOM     83  F   UNL A   1      44.619  27.858  34.452  1.00  0.00    -0.206 F 
ATOM     84  C   UNL A   1      46.940  27.870  34.096  1.00  0.00     0.040 A 
ATOM     85  C   UNL A   1      47.865  29.068  32.222  1.00  0.00     0.040 A 
ATOM     86  F   UNL A   1      46.452  30.247  30.768  1.00  0.00    -0.206 F 
ATOM     87  C   UNL A   1      48.047  28.270  33.350  1.00  0.00     0.006 A 
ENDBRANCH  63  80
ENDBRANCH  37  38
ENDBRANCH  29  32
ENDBRANCH  27  28
ENDBRANCH  26  27
ENDBRANCH   1  26
TORSDOF 16
ENDMDL
