MODEL 1
REMARK VINA RESULT:     -11.7      0.000      0.000
REMARK SMILES COc1ccc(C2=NN=C[C@@H]2C(=O)NCCCNC(=O)c2ccc(-c3c4nc(c(-c5c(F)cccc5F)c5ccc([nH]5)c(-c5c(F)cccc5F)c5nc(c(-c6c(F)cccc6F)c6ccc3[nH]6)C=C5)C=C4)cc2)cc1OC
REMARK SMILES IDX 16 1 15 2 14 3 12 4 13 5 11 7 7 8 8 9 9 10 10 11 6 12 3 13
REMARK SMILES IDX 4 14 76 15 5 16 75 17 2 18 1 19 77 20 78 21 17 22 18 23
REMARK SMILES IDX 19 24 20 26 21 27 22 28 74 29 23 30 73 31 24 32 25 33 26 34
REMARK SMILES IDX 67 35 27 36 72 37 66 38 68 39 28 40 71 41 65 42 64 43 29 45
REMARK SMILES IDX 55 46 38 47 54 48 39 49 42 50 53 51 69 52 40 53 41 54 52 56
REMARK SMILES IDX 70 57 43 58 30 59 31 60 36 61 32 62 33 63 35 64 37 65 34 66
REMARK SMILES IDX 56 67 57 68 62 69 58 70 59 71 61 72 63 73 60 74 44 75 45 76
REMARK SMILES IDX 50 77 46 78 47 79 49 80 51 81 48 82
REMARK H PARENT 14 6 18 25 68 44 42 55
REMARK Flexibility Score: inf
ROOT
ATOM      1  C   UNL A   1      38.179  19.876  24.909  1.00  0.00     0.042 C 
ENDROOT
BRANCH   1   2
ATOM      2  C   UNL A   1      37.306  21.118  24.734  1.00  0.00     0.117 C 
BRANCH   2   3
ATOM      3  N   UNL A   1      36.485  21.413  25.904  1.00  0.00    -0.355 N 
ATOM      4  C   UNL A   1      35.135  21.397  26.083  1.00  0.00     0.234 C 
ATOM      5  O   UNL A   1      34.713  21.672  27.211  1.00  0.00    -0.274 OA
ATOM      6  H   UNL A   1      36.998  21.670  26.705  1.00  0.00     0.163 HD
BRANCH   4   7
ATOM      7  C   UNL A   1      34.165  21.077  24.983  1.00  0.00     0.173 C 
ATOM      8  C   UNL A   1      33.030  22.019  24.788  1.00  0.00     0.088 C 
ATOM      9  N   UNL A   1      31.869  21.439  24.861  1.00  0.00    -0.154 NA
ATOM     10  N   UNL A   1      32.088  20.045  25.114  1.00  0.00    -0.162 NA
ATOM     11  C   UNL A   1      33.364  19.847  25.193  1.00  0.00     0.128 C 
BRANCH   8  12
ATOM     12  C   UNL A   1      33.229  23.457  24.597  1.00  0.00     0.003 A 
ATOM     13  C   UNL A   1      33.658  26.174  24.156  1.00  0.00     0.160 A 
ATOM     14  C   UNL A   1      33.462  25.687  25.459  1.00  0.00     0.051 A 
ATOM     15  C   UNL A   1      33.637  25.297  23.065  1.00  0.00     0.161 A 
ATOM     16  C   UNL A   1      33.226  24.327  25.682  1.00  0.00     0.014 A 
ATOM     17  C   UNL A   1      33.440  23.932  23.301  1.00  0.00     0.060 A 
BRANCH  13  18
ATOM     18  O   UNL A   1      34.017  27.486  23.998  1.00  0.00    -0.493 OA
ATOM     19  C   UNL A   1      32.921  28.381  24.187  1.00  0.00     0.278 C 
ENDBRANCH  13  18
BRANCH  15  20
ATOM     20  O   UNL A   1      33.815  25.582  21.737  1.00  0.00    -0.493 OA
ATOM     21  C   UNL A   1      32.662  25.734  20.923  1.00  0.00     0.278 C 
ENDBRANCH  15  20
ENDBRANCH   8  12
ENDBRANCH   4   7
ENDBRANCH   2   3
ENDBRANCH   1   2
BRANCH   1  22
ATOM     22  C   UNL A   1      39.265  20.064  25.957  1.00  0.00     0.118 C 
BRANCH  22  23
ATOM     23  N   UNL A   1      40.376  19.119  25.805  1.00  0.00    -0.352 N 
ATOM     24  C   UNL A   1      41.726  19.379  25.886  1.00  0.00     0.251 C 
ATOM     25  H   UNL A   1      40.126  18.183  25.624  1.00  0.00     0.163 HD
ATOM     26  O   UNL A   1      42.558  18.589  25.431  1.00  0.00    -0.269 OA
BRANCH  24  27
ATOM     27  C   UNL A   1      42.165  20.630  26.515  1.00  0.00     0.039 A 
ATOM     28  C   UNL A   1      42.581  21.721  25.746  1.00  0.00     0.014 A 
ATOM     29  C   UNL A   1      42.059  20.725  27.899  1.00  0.00     0.014 A 
ATOM     30  C   UNL A   1      42.788  22.947  26.375  1.00  0.00     0.010 A 
ATOM     31  C   UNL A   1      42.118  21.964  28.489  1.00  0.00     0.010 A 
ATOM     32  C   UNL A   1      42.521  23.074  27.745  1.00  0.00    -0.014 A 
BRANCH  32  33
ATOM     33  C   UNL A   1      42.527  24.389  28.391  1.00  0.00     0.031 A 
ATOM     34  C   UNL A   1      41.303  25.221  28.172  1.00  0.00     0.074 A 
ATOM     35  C   UNL A   1      43.434  24.721  29.336  1.00  0.00     0.049 A 
ATOM     36  N   UNL A   1      41.225  26.416  27.680  1.00  0.00    -0.248 NA
ATOM     37  C   UNL A   1      39.992  24.616  28.462  1.00  0.00     0.031 C 
ATOM     38  C   UNL A   1      44.509  23.879  29.883  1.00  0.00     0.029 A 
ATOM     39  N   UNL A   1      43.504  25.835  30.116  1.00  0.00    -0.354 N 
ATOM     40  C   UNL A   1      39.882  26.788  27.773  1.00  0.00     0.074 A 
ATOM     41  C   UNL A   1      39.154  25.595  28.115  1.00  0.00     0.031 C 
ATOM     42  C   UNL A   1      44.938  24.396  31.053  1.00  0.00     0.029 A 
ATOM     43  C   UNL A   1      44.312  25.690  31.238  1.00  0.00     0.049 A 
ATOM     44  H   UNL A   1      43.025  26.668  29.905  1.00  0.00     0.167 HD
ATOM     45  C   UNL A   1      39.505  28.098  27.790  1.00  0.00     0.037 A 
ATOM     46  C   UNL A   1      44.453  26.557  32.267  1.00  0.00     0.037 A 
ATOM     47  C   UNL A   1      40.563  28.950  27.314  1.00  0.00     0.049 A 
ATOM     48  C   UNL A   1      43.983  27.879  31.802  1.00  0.00     0.074 A 
ATOM     49  C   UNL A   1      41.247  29.108  26.127  1.00  0.00     0.029 A 
ATOM     50  N   UNL A   1      41.298  29.608  28.267  1.00  0.00    -0.354 N 
ATOM     51  N   UNL A   1      44.586  28.589  30.890  1.00  0.00    -0.248 NA
ATOM     52  C   UNL A   1      42.604  28.252  32.072  1.00  0.00     0.031 C 
ATOM     53  C   UNL A   1      42.574  29.469  26.507  1.00  0.00     0.029 A 
ATOM     54  C   UNL A   1      42.614  29.555  27.901  1.00  0.00     0.049 A 
ATOM     55  H   UNL A   1      40.940  30.042  29.074  1.00  0.00     0.167 HD
ATOM     56  C   UNL A   1      43.559  29.185  30.176  1.00  0.00     0.074 A 
ATOM     57  C   UNL A   1      42.384  29.062  31.033  1.00  0.00     0.031 C 
ATOM     58  C   UNL A   1      43.704  29.459  28.846  1.00  0.00     0.037 A 
BRANCH  45  59
ATOM     59  C   UNL A   1      38.358  28.657  28.608  1.00  0.00     0.057 A 
ATOM     60  C   UNL A   1      37.526  29.642  28.039  1.00  0.00     0.134 A 
ATOM     61  C   UNL A   1      38.237  28.514  30.005  1.00  0.00     0.134 A 
ATOM     62  F   UNL A   1      37.547  29.883  26.720  1.00  0.00    -0.206 F 
ATOM     63  C   UNL A   1      36.713  30.481  28.812  1.00  0.00     0.040 A 
ATOM     64  C   UNL A   1      37.390  29.313  30.779  1.00  0.00     0.040 A 
ATOM     65  F   UNL A   1      39.003  27.675  30.710  1.00  0.00    -0.206 F 
ATOM     66  C   UNL A   1      36.651  30.325  30.189  1.00  0.00     0.006 A 
ENDBRANCH  45  59
BRANCH  46  67
ATOM     67  C   UNL A   1      44.754  26.270  33.685  1.00  0.00     0.057 A 
ATOM     68  C   UNL A   1      43.758  25.838  34.569  1.00  0.00     0.134 A 
ATOM     69  C   UNL A   1      46.079  26.161  34.142  1.00  0.00     0.134 A 
ATOM     70  F   UNL A   1      42.468  25.868  34.208  1.00  0.00    -0.206 F 
ATOM     71  C   UNL A   1      44.063  25.305  35.829  1.00  0.00     0.040 A 
ATOM     72  C   UNL A   1      46.398  25.638  35.398  1.00  0.00     0.040 A 
ATOM     73  F   UNL A   1      47.113  26.479  33.347  1.00  0.00    -0.206 F 
ATOM     74  C   UNL A   1      45.387  25.193  36.243  1.00  0.00     0.006 A 
ENDBRANCH  46  67
BRANCH  58  75
ATOM     75  C   UNL A   1      45.094  29.414  28.273  1.00  0.00     0.057 A 
ATOM     76  C   UNL A   1      45.679  28.274  27.702  1.00  0.00     0.134 A 
ATOM     77  C   UNL A   1      45.812  30.610  28.172  1.00  0.00     0.134 A 
ATOM     78  F   UNL A   1      45.030  27.105  27.662  1.00  0.00    -0.206 F 
ATOM     79  C   UNL A   1      46.940  28.314  27.098  1.00  0.00     0.040 A 
ATOM     80  C   UNL A   1      47.058  30.671  27.542  1.00  0.00     0.040 A 
ATOM     81  F   UNL A   1      45.292  31.753  28.645  1.00  0.00    -0.206 F 
ATOM     82  C   UNL A   1      47.630  29.519  27.012  1.00  0.00     0.006 A 
ENDBRANCH  58  75
ENDBRANCH  32  33
ENDBRANCH  24  27
ENDBRANCH  22  23
ENDBRANCH   1  22
TORSDOF 13
ENDMDL
MODEL 2
REMARK VINA RESULT:     -11.3      2.917      7.701
REMARK SMILES COc1ccc(C2=NN=C[C@@H]2C(=O)NCCCNC(=O)c2ccc(-c3c4nc(c(-c5c(F)cccc5F)c5ccc([nH]5)c(-c5c(F)cccc5F)c5nc(c(-c6c(F)cccc6F)c6ccc3[nH]6)C=C5)C=C4)cc2)cc1OC
REMARK SMILES IDX 16 1 15 2 14 3 12 4 13 5 11 7 7 8 8 9 9 10 10 11 6 12 3 13
REMARK SMILES IDX 4 14 76 15 5 16 75 17 2 18 1 19 77 20 78 21 17 22 18 23
REMARK SMILES IDX 19 24 20 26 21 27 22 28 74 29 23 30 73 31 24 32 25 33 26 34
REMARK SMILES IDX 67 35 27 36 72 37 66 38 68 39 28 40 71 41 65 42 64 43 29 45
REMARK SMILES IDX 55 46 38 47 54 48 39 49 42 50 53 51 69 52 40 53 41 54 52 56
REMARK SMILES IDX 70 57 43 58 30 59 31 60 36 61 32 62 33 63 35 64 37 65 34 66
REMARK SMILES IDX 56 67 57 68 62 69 58 70 59 71 61 72 63 73 60 74 44 75 45 76
REMARK SMILES IDX 50 77 46 78 47 79 49 80 51 81 48 82
REMARK H PARENT 14 6 18 25 68 44 42 55
REMARK Flexibility Score: inf
ROOT
ATOM      1  C   UNL A   1      33.435  29.002  27.285  1.00  0.00     0.042 C 
ENDROOT
BRANCH   1   2
ATOM      2  C   UNL A   1      32.862  29.928  26.213  1.00  0.00     0.117 C 
BRANCH   2   3
ATOM      3  N   UNL A   1      33.478  29.742  24.904  1.00  0.00    -0.355 N 
ATOM      4  C   UNL A   1      33.017  29.145  23.769  1.00  0.00     0.234 C 
ATOM      5  O   UNL A   1      33.760  29.159  22.783  1.00  0.00    -0.274 OA
ATOM      6  H   UNL A   1      34.386  30.113  24.826  1.00  0.00     0.163 HD
BRANCH   4   7
ATOM      7  C   UNL A   1      31.676  28.476  23.680  1.00  0.00     0.173 C 
ATOM      8  C   UNL A   1      31.626  27.147  23.013  1.00  0.00     0.088 C 
ATOM      9  N   UNL A   1      30.793  27.110  22.016  1.00  0.00    -0.154 NA
ATOM     10  N   UNL A   1      30.188  28.404  21.897  1.00  0.00    -0.162 NA
ATOM     11  C   UNL A   1      30.688  29.166  22.816  1.00  0.00     0.128 C 
BRANCH   8  12
ATOM     12  C   UNL A   1      32.484  26.034  23.420  1.00  0.00     0.003 A 
ATOM     13  C   UNL A   1      34.116  23.947  24.282  1.00  0.00     0.160 A 
ATOM     14  C   UNL A   1      34.198  24.413  22.960  1.00  0.00     0.051 A 
ATOM     15  C   UNL A   1      33.210  24.525  25.180  1.00  0.00     0.161 A 
ATOM     16  C   UNL A   1      33.366  25.447  22.518  1.00  0.00     0.014 A 
ATOM     17  C   UNL A   1      32.411  25.585  24.740  1.00  0.00     0.060 A 
BRANCH  13  18
ATOM     18  O   UNL A   1      35.038  23.028  24.707  1.00  0.00    -0.493 OA
ATOM     19  C   UNL A   1      36.220  23.636  25.225  1.00  0.00     0.278 C 
ENDBRANCH  13  18
BRANCH  15  20
ATOM     20  O   UNL A   1      32.996  24.213  26.496  1.00  0.00    -0.493 OA
ATOM     21  C   UNL A   1      31.700  23.779  26.880  1.00  0.00     0.278 C 
ENDBRANCH  15  20
ENDBRANCH   8  12
ENDBRANCH   4   7
ENDBRANCH   2   3
ENDBRANCH   1   2
BRANCH   1  22
ATOM     22  C   UNL A   1      34.913  29.251  27.548  1.00  0.00     0.118 C 
BRANCH  22  23
ATOM     23  N   UNL A   1      35.147  30.205  28.636  1.00  0.00    -0.352 N 
ATOM     24  C   UNL A   1      36.220  30.260  29.498  1.00  0.00     0.251 C 
ATOM     25  H   UNL A   1      34.452  30.891  28.767  1.00  0.00     0.163 HD
ATOM     26  O   UNL A   1      36.159  30.889  30.557  1.00  0.00    -0.269 OA
BRANCH  24  27
ATOM     27  C   UNL A   1      37.446  29.538  29.140  1.00  0.00     0.039 A 
ATOM     28  C   UNL A   1      38.191  29.890  28.010  1.00  0.00     0.014 A 
ATOM     29  C   UNL A   1      37.893  28.555  30.017  1.00  0.00     0.014 A 
ATOM     30  C   UNL A   1      39.449  29.318  27.828  1.00  0.00     0.010 A 
ATOM     31  C   UNL A   1      39.188  28.108  29.915  1.00  0.00     0.010 A 
ATOM     32  C   UNL A   1      39.960  28.451  28.804  1.00  0.00    -0.014 A 
BRANCH  32  33
ATOM     33  C   UNL A   1      41.353  27.999  28.748  1.00  0.00     0.031 A 
ATOM     34  C   UNL A   1      41.589  26.725  28.000  1.00  0.00     0.074 A 
ATOM     35  C   UNL A   1      42.382  28.802  29.099  1.00  0.00     0.049 A 
ATOM     36  N   UNL A   1      42.155  25.641  28.423  1.00  0.00    -0.248 NA
ATOM     37  C   UNL A   1      41.057  26.616  26.630  1.00  0.00     0.031 C 
ATOM     38  C   UNL A   1      42.317  30.198  29.554  1.00  0.00     0.029 A 
ATOM     39  N   UNL A   1      43.723  28.589  28.988  1.00  0.00    -0.354 N 
ATOM     40  C   UNL A   1      42.221  24.781  27.325  1.00  0.00     0.074 A 
ATOM     41  C   UNL A   1      41.399  25.369  26.301  1.00  0.00     0.031 C 
ATOM     42  C   UNL A   1      43.530  30.774  29.427  1.00  0.00     0.029 A 
ATOM     43  C   UNL A   1      44.488  29.746  29.070  1.00  0.00     0.049 A 
ATOM     44  H   UNL A   1      44.115  27.695  28.861  1.00  0.00     0.167 HD
ATOM     45  C   UNL A   1      43.134  23.772  27.264  1.00  0.00     0.037 A 
ATOM     46  C   UNL A   1      45.816  29.872  28.843  1.00  0.00     0.037 A 
ATOM     47  C   UNL A   1      43.683  23.488  28.564  1.00  0.00     0.049 A 
ATOM     48  C   UNL A   1      46.414  28.525  28.950  1.00  0.00     0.074 A 
ATOM     49  C   UNL A   1      43.187  23.037  29.769  1.00  0.00     0.029 A 
ATOM     50  N   UNL A   1      44.926  24.001  28.832  1.00  0.00    -0.354 N 
ATOM     51  N   UNL A   1      46.489  27.845  30.060  1.00  0.00    -0.248 NA
ATOM     52  C   UNL A   1      46.586  27.750  27.732  1.00  0.00     0.031 C 
ATOM     53  C   UNL A   1      43.965  23.702  30.763  1.00  0.00     0.029 A 
ATOM     54  C   UNL A   1      44.920  24.485  30.111  1.00  0.00     0.049 A 
ATOM     55  H   UNL A   1      45.690  24.018  28.211  1.00  0.00     0.167 HD
ATOM     56  C   UNL A   1      46.275  26.530  29.680  1.00  0.00     0.074 A 
ATOM     57  C   UNL A   1      46.489  26.517  28.236  1.00  0.00     0.031 C 
ATOM     58  C   UNL A   1      45.667  25.650  30.529  1.00  0.00     0.037 A 
BRANCH  45  59
ATOM     59  C   UNL A   1      43.839  23.318  26.001  1.00  0.00     0.057 A 
ATOM     60  C   UNL A   1      43.870  21.944  25.690  1.00  0.00     0.134 A 
ATOM     61  C   UNL A   1      44.745  24.112  25.270  1.00  0.00     0.134 A 
ATOM     62  F   UNL A   1      43.062  21.076  26.317  1.00  0.00    -0.206 F 
ATOM     63  C   UNL A   1      44.796  21.394  24.793  1.00  0.00     0.040 A 
ATOM     64  C   UNL A   1      45.638  23.579  24.335  1.00  0.00     0.040 A 
ATOM     65  F   UNL A   1      44.892  25.423  25.491  1.00  0.00    -0.206 F 
ATOM     66  C   UNL A   1      45.692  22.212  24.119  1.00  0.00     0.006 A 
ENDBRANCH  45  59
BRANCH  46  67
ATOM     67  C   UNL A   1      46.560  31.037  28.321  1.00  0.00     0.057 A 
ATOM     68  C   UNL A   1      46.361  31.506  27.017  1.00  0.00     0.134 A 
ATOM     69  C   UNL A   1      47.292  31.879  29.178  1.00  0.00     0.134 A 
ATOM     70  F   UNL A   1      45.643  30.790  26.140  1.00  0.00    -0.206 F 
ATOM     71  C   UNL A   1      46.841  32.752  26.593  1.00  0.00     0.040 A 
ATOM     72  C   UNL A   1      47.784  33.120  28.767  1.00  0.00     0.040 A 
ATOM     73  F   UNL A   1      47.479  31.558  30.467  1.00  0.00    -0.206 F 
ATOM     74  C   UNL A   1      47.546  33.569  27.473  1.00  0.00     0.006 A 
ENDBRANCH  46  67
BRANCH  58  75
ATOM     75  C   UNL A   1      45.550  26.045  31.975  1.00  0.00     0.057 A 
ATOM     76  C   UNL A   1      44.414  26.637  32.546  1.00  0.00     0.134 A 
ATOM     77  C   UNL A   1      46.580  25.682  32.850  1.00  0.00     0.134 A 
ATOM     78  F   UNL A   1      43.338  26.931  31.807  1.00  0.00    -0.206 F 
ATOM     79  C   UNL A   1      44.326  26.896  33.917  1.00  0.00     0.040 A 
ATOM     80  C   UNL A   1      46.491  25.905  34.226  1.00  0.00     0.040 A 
ATOM     81  F   UNL A   1      47.675  25.061  32.385  1.00  0.00    -0.206 F 
ATOM     82  C   UNL A   1      45.365  26.523  34.763  1.00  0.00     0.006 A 
ENDBRANCH  58  75
ENDBRANCH  32  33
ENDBRANCH  24  27
ENDBRANCH  22  23
ENDBRANCH   1  22
TORSDOF 13
ENDMDL
MODEL 3
REMARK VINA RESULT:     -11.3      3.012      7.355
REMARK SMILES COc1ccc(C2=NN=C[C@@H]2C(=O)NCCCNC(=O)c2ccc(-c3c4nc(c(-c5c(F)cccc5F)c5ccc([nH]5)c(-c5c(F)cccc5F)c5nc(c(-c6c(F)cccc6F)c6ccc3[nH]6)C=C5)C=C4)cc2)cc1OC
REMARK SMILES IDX 16 1 15 2 14 3 12 4 13 5 11 7 7 8 8 9 9 10 10 11 6 12 3 13
REMARK SMILES IDX 4 14 76 15 5 16 75 17 2 18 1 19 77 20 78 21 17 22 18 23
REMARK SMILES IDX 19 24 20 26 21 27 22 28 74 29 23 30 73 31 24 32 25 33 26 34
REMARK SMILES IDX 67 35 27 36 72 37 66 38 68 39 28 40 71 41 65 42 64 43 29 45
REMARK SMILES IDX 55 46 38 47 54 48 39 49 42 50 53 51 69 52 40 53 41 54 52 56
REMARK SMILES IDX 70 57 43 58 30 59 31 60 36 61 32 62 33 63 35 64 37 65 34 66
REMARK SMILES IDX 56 67 57 68 62 69 58 70 59 71 61 72 63 73 60 74 44 75 45 76
REMARK SMILES IDX 50 77 46 78 47 79 49 80 51 81 48 82
REMARK H PARENT 14 6 18 25 68 44 42 55
REMARK Flexibility Score: inf
ROOT
ATOM      1  C   UNL A   1      33.248  28.418  27.378  1.00  0.00     0.042 C 
ENDROOT
BRANCH   1   2
ATOM      2  C   UNL A   1      32.986  27.279  26.393  1.00  0.00     0.117 C 
BRANCH   2   3
ATOM      3  N   UNL A   1      32.119  26.238  26.936  1.00  0.00    -0.355 N 
ATOM      4  C   UNL A   1      31.728  25.037  26.426  1.00  0.00     0.234 C 
ATOM      5  O   UNL A   1      30.997  24.336  27.133  1.00  0.00    -0.274 OA
ATOM      6  H   UNL A   1      31.753  26.439  27.827  1.00  0.00     0.163 HD
BRANCH   4   7
ATOM      7  C   UNL A   1      32.133  24.552  25.065  1.00  0.00     0.173 C 
ATOM      8  C   UNL A   1      31.147  24.725  23.964  1.00  0.00     0.088 C 
ATOM      9  N   UNL A   1      30.848  23.609  23.369  1.00  0.00    -0.154 NA
ATOM     10  N   UNL A   1      31.595  22.559  23.998  1.00  0.00    -0.162 NA
ATOM     11  C   UNL A   1      32.300  23.083  24.948  1.00  0.00     0.128 C 
BRANCH   8  12
ATOM     12  C   UNL A   1      30.546  26.022  23.648  1.00  0.00     0.003 A 
ATOM     13  C   UNL A   1      29.484  28.531  23.064  1.00  0.00     0.160 A 
ATOM     14  C   UNL A   1      28.659  27.506  23.556  1.00  0.00     0.051 A 
ATOM     15  C   UNL A   1      30.850  28.299  22.859  1.00  0.00     0.161 A 
ATOM     16  C   UNL A   1      29.184  26.240  23.831  1.00  0.00     0.014 A 
ATOM     17  C   UNL A   1      31.374  27.041  23.174  1.00  0.00     0.060 A 
BRANCH  13  18
ATOM     18  O   UNL A   1      28.956  29.788  22.936  1.00  0.00    -0.493 OA
ATOM     19  C   UNL A   1      28.199  29.945  21.737  1.00  0.00     0.278 C 
ENDBRANCH  13  18
BRANCH  15  20
ATOM     20  O   UNL A   1      31.803  29.167  22.398  1.00  0.00    -0.493 OA
ATOM     21  C   UNL A   1      33.130  29.026  22.881  1.00  0.00     0.278 C 
ENDBRANCH  15  20
ENDBRANCH   8  12
ENDBRANCH   4   7
ENDBRANCH   2   3
ENDBRANCH   1   2
BRANCH   1  22
ATOM     22  C   UNL A   1      34.673  28.945  27.300  1.00  0.00     0.118 C 
BRANCH  22  23
ATOM     23  N   UNL A   1      34.910  30.085  28.190  1.00  0.00    -0.352 N 
ATOM     24  C   UNL A   1      36.007  30.323  28.989  1.00  0.00     0.251 C 
ATOM     25  H   UNL A   1      34.198  30.766  28.220  1.00  0.00     0.163 HD
ATOM     26  O   UNL A   1      35.958  31.131  29.919  1.00  0.00    -0.269 OA
BRANCH  24  27
ATOM     27  C   UNL A   1      37.244  29.580  28.723  1.00  0.00     0.039 A 
ATOM     28  C   UNL A   1      38.001  29.821  27.572  1.00  0.00     0.014 A 
ATOM     29  C   UNL A   1      37.688  28.697  29.703  1.00  0.00     0.014 A 
ATOM     30  C   UNL A   1      39.265  29.245  27.466  1.00  0.00     0.010 A 
ATOM     31  C   UNL A   1      38.988  28.255  29.663  1.00  0.00     0.010 A 
ATOM     32  C   UNL A   1      39.771  28.489  28.532  1.00  0.00    -0.014 A 
BRANCH  32  33
ATOM     33  C   UNL A   1      41.168  28.047  28.540  1.00  0.00     0.031 A 
ATOM     34  C   UNL A   1      41.449  26.777  27.801  1.00  0.00     0.074 A 
ATOM     35  C   UNL A   1      42.174  28.857  28.941  1.00  0.00     0.049 A 
ATOM     36  N   UNL A   1      42.003  25.696  28.248  1.00  0.00    -0.248 NA
ATOM     37  C   UNL A   1      40.982  26.668  26.408  1.00  0.00     0.031 C 
ATOM     38  C   UNL A   1      42.077  30.252  29.396  1.00  0.00     0.029 A 
ATOM     39  N   UNL A   1      43.520  28.654  28.892  1.00  0.00    -0.354 N 
ATOM     40  C   UNL A   1      42.126  24.840  27.153  1.00  0.00     0.074 A 
ATOM     41  C   UNL A   1      41.349  25.425  26.092  1.00  0.00     0.031 C 
ATOM     42  C   UNL A   1      43.291  30.837  29.327  1.00  0.00     0.029 A 
ATOM     43  C   UNL A   1      44.272  29.817  29.013  1.00  0.00     0.049 A 
ATOM     44  H   UNL A   1      43.925  27.764  28.782  1.00  0.00     0.167 HD
ATOM     45  C   UNL A   1      43.049  23.837  27.132  1.00  0.00     0.037 A 
ATOM     46  C   UNL A   1      45.608  29.953  28.849  1.00  0.00     0.037 A 
ATOM     47  C   UNL A   1      43.539  23.554  28.456  1.00  0.00     0.049 A 
ATOM     48  C   UNL A   1      46.210  28.610  28.980  1.00  0.00     0.074 A 
ATOM     49  C   UNL A   1      42.990  23.096  29.635  1.00  0.00     0.029 A 
ATOM     50  N   UNL A   1      44.764  24.076  28.783  1.00  0.00    -0.354 N 
ATOM     51  N   UNL A   1      46.239  27.928  30.091  1.00  0.00    -0.248 NA
ATOM     52  C   UNL A   1      46.445  27.840  27.770  1.00  0.00     0.031 C 
ATOM     53  C   UNL A   1      43.716  23.764  30.666  1.00  0.00     0.029 A 
ATOM     54  C   UNL A   1      44.695  24.556  30.061  1.00  0.00     0.049 A 
ATOM     55  H   UNL A   1      45.556  24.100  28.198  1.00  0.00     0.167 HD
ATOM     56  C   UNL A   1      46.053  26.613  29.698  1.00  0.00     0.074 A 
ATOM     57  C   UNL A   1      46.333  26.605  28.266  1.00  0.00     0.031 C 
ATOM     58  C   UNL A   1      45.412  25.726  30.516  1.00  0.00     0.037 A 
BRANCH  45  59
ATOM     59  C   UNL A   1      43.815  23.392  25.902  1.00  0.00     0.057 A 
ATOM     60  C   UNL A   1      43.871  22.019  25.589  1.00  0.00     0.134 A 
ATOM     61  C   UNL A   1      44.749  24.194  25.216  1.00  0.00     0.134 A 
ATOM     62  F   UNL A   1      43.040  21.144  26.176  1.00  0.00    -0.206 F 
ATOM     63  C   UNL A   1      44.841  21.479  24.735  1.00  0.00     0.040 A 
ATOM     64  C   UNL A   1      45.689  23.670  24.323  1.00  0.00     0.040 A 
ATOM     65  F   UNL A   1      44.877  25.505  25.448  1.00  0.00    -0.206 F 
ATOM     66  C   UNL A   1      45.762  22.304  24.107  1.00  0.00     0.006 A 
ENDBRANCH  45  59
BRANCH  46  67
ATOM     67  C   UNL A   1      46.367  31.126  28.364  1.00  0.00     0.057 A 
ATOM     68  C   UNL A   1      46.332  31.512  27.020  1.00  0.00     0.134 A 
ATOM     69  C   UNL A   1      46.934  32.048  29.261  1.00  0.00     0.134 A 
ATOM     70  F   UNL A   1      45.777  30.715  26.096  1.00  0.00    -0.206 F 
ATOM     71  C   UNL A   1      46.814  32.756  26.591  1.00  0.00     0.040 A 
ATOM     72  C   UNL A   1      47.424  33.290  28.848  1.00  0.00     0.040 A 
ATOM     73  F   UNL A   1      46.951  31.808  30.581  1.00  0.00    -0.206 F 
ATOM     74  C   UNL A   1      47.352  33.655  27.509  1.00  0.00     0.006 A 
ENDBRANCH  46  67
BRANCH  58  75
ATOM     75  C   UNL A   1      45.225  26.116  31.956  1.00  0.00     0.057 A 
ATOM     76  C   UNL A   1      44.081  26.749  32.463  1.00  0.00     0.134 A 
ATOM     77  C   UNL A   1      46.186  25.708  32.887  1.00  0.00     0.134 A 
ATOM     78  F   UNL A   1      43.063  27.091  31.665  1.00  0.00    -0.206 F 
ATOM     79  C   UNL A   1      43.921  27.003  33.829  1.00  0.00     0.040 A 
ATOM     80  C   UNL A   1      46.023  25.925  34.258  1.00  0.00     0.040 A 
ATOM     81  F   UNL A   1      47.281  25.046  32.482  1.00  0.00    -0.206 F 
ATOM     82  C   UNL A   1      44.893  26.584  34.732  1.00  0.00     0.006 A 
ENDBRANCH  58  75
ENDBRANCH  32  33
ENDBRANCH  24  27
ENDBRANCH  22  23
ENDBRANCH   1  22
TORSDOF 13
ENDMDL
