MODEL 1
REMARK VINA RESULT:     -12.1      0.000      0.000
REMARK SMILES Cc1cc2c(cc1S(=O)(=O)N(C)CC(=O)NCCCNC(=O)c1ccc(-c3c4nc(c(-c5c(F)cccc5F)c5ccc([nH]5)c(-c5c(F)cccc5F)c5nc(c(-c6c(F)cccc6F)c6ccc3[nH]6)C=C5)C=C4)cc1)OCC(=O)N2
REMARK SMILES IDX 17 1 16 2 14 3 15 4 13 6 11 7 12 8 8 9 9 10 10 11 7 12 1 13
REMARK SMILES IDX 2 14 3 15 4 16 6 17 5 18 81 19 77 20 79 21 78 23 80 24 18 25
REMARK SMILES IDX 19 26 20 27 21 28 22 30 23 31 24 32 76 33 25 34 75 35 26 36
REMARK SMILES IDX 27 37 28 38 69 39 29 40 74 41 68 42 70 43 30 44 73 45 67 46
REMARK SMILES IDX 66 47 31 49 57 50 40 51 56 52 41 53 44 54 55 55 71 56 42 57
REMARK SMILES IDX 43 58 54 60 72 61 45 62 32 63 33 64 38 65 34 66 35 67 37 68
REMARK SMILES IDX 39 69 36 70 58 71 59 72 64 73 60 74 61 75 63 76 65 77 62 78
REMARK SMILES IDX 46 79 47 80 52 81 48 82 49 83 51 84 53 85 50 86
REMARK H PARENT 16 5 81 22 20 29 70 48 44 59
REMARK Flexibility Score: inf
ROOT
ATOM      1  C   UNL A   1      36.092  20.457  24.986  1.00  0.00     0.117 C 
ENDROOT
BRANCH   1   2
ATOM      2  N   UNL A   1      34.847  19.702  24.997  1.00  0.00    -0.355 N 
ATOM      3  C   UNL A   1      33.617  19.993  25.525  1.00  0.00     0.235 C 
ATOM      4  O   UNL A   1      32.669  19.308  25.134  1.00  0.00    -0.274 OA
ATOM      5  H   UNL A   1      34.898  18.829  24.545  1.00  0.00     0.163 HD
BRANCH   3   6
ATOM      6  C   UNL A   1      33.430  21.109  26.548  1.00  0.00     0.202 C 
BRANCH   6   7
ATOM      7  N   UNL A   1      33.203  22.486  25.993  1.00  0.00    -0.192 NA
ATOM      8  C   UNL A   1      34.234  23.435  26.424  1.00  0.00     0.125 C 
BRANCH   7   9
ATOM      9  S   UNL A   1      31.591  23.024  26.179  1.00  0.00     0.243 S 
ATOM     10  O   UNL A   1      31.558  23.773  27.422  1.00  0.00    -0.207 OA
ATOM     11  O   UNL A   1      30.709  21.911  25.933  1.00  0.00    -0.207 OA
BRANCH   9  12
ATOM     12  C   UNL A   1      31.323  24.217  24.868  1.00  0.00     0.089 A 
ATOM     13  C   UNL A   1      31.794  22.578  22.933  1.00  0.00     0.046 C 
ATOM     14  C   UNL A   1      31.493  23.938  23.498  1.00  0.00    -0.029 A 
ATOM     15  C   UNL A   1      31.422  25.016  22.591  1.00  0.00     0.035 A 
ATOM     16  C   UNL A   1      31.118  26.310  23.028  1.00  0.00     0.084 A 
ATOM     17  C   UNL A   1      30.998  25.517  25.293  1.00  0.00     0.070 A 
ATOM     18  C   UNL A   1      30.886  26.557  24.377  1.00  0.00     0.144 A 
ATOM     19  N   UNL A   1      31.018  27.343  22.100  1.00  0.00    -0.320 N 
ATOM     20  O   UNL A   1      30.534  27.771  24.889  1.00  0.00    -0.482 OA
ATOM     21  C   UNL A   1      30.703  28.618  22.472  1.00  0.00     0.262 C 
ATOM     22  H   UNL A   1      31.181  27.148  21.149  1.00  0.00     0.170 HD
ATOM     23  C   UNL A   1      30.571  28.856  23.976  1.00  0.00     0.329 C 
ATOM     24  O   UNL A   1      30.568  29.509  21.636  1.00  0.00    -0.271 OA
ENDBRANCH   9  12
ENDBRANCH   7   9
ENDBRANCH   6   7
ENDBRANCH   3   6
ENDBRANCH   1   2
BRANCH   1  25
ATOM     25  C   UNL A   1      37.362  19.601  24.952  1.00  0.00     0.042 C 
BRANCH  25  26
ATOM     26  C   UNL A   1      38.633  20.304  25.413  1.00  0.00     0.118 C 
BRANCH  26  27
ATOM     27  N   UNL A   1      39.717  19.360  25.631  1.00  0.00    -0.352 N 
ATOM     28  C   UNL A   1      41.012  19.566  26.043  1.00  0.00     0.251 C 
ATOM     29  H   UNL A   1      39.485  18.420  25.454  1.00  0.00     0.163 HD
ATOM     30  O   UNL A   1      41.828  18.658  25.912  1.00  0.00    -0.269 OA
BRANCH  28  31
ATOM     31  C   UNL A   1      41.450  20.862  26.621  1.00  0.00     0.039 A 
ATOM     32  C   UNL A   1      41.521  21.069  27.999  1.00  0.00     0.014 A 
ATOM     33  C   UNL A   1      41.864  21.884  25.756  1.00  0.00     0.014 A 
ATOM     34  C   UNL A   1      41.849  22.327  28.503  1.00  0.00     0.010 A 
ATOM     35  C   UNL A   1      42.284  23.119  26.267  1.00  0.00     0.010 A 
ATOM     36  C   UNL A   1      42.238  23.370  27.646  1.00  0.00    -0.014 A 
BRANCH  36  37
ATOM     37  C   UNL A   1      42.589  24.699  28.222  1.00  0.00     0.031 A 
ATOM     38  C   UNL A   1      44.026  25.084  28.471  1.00  0.00     0.074 A 
ATOM     39  C   UNL A   1      41.613  25.597  28.465  1.00  0.00     0.049 A 
ATOM     40  N   UNL A   1      44.516  26.224  28.891  1.00  0.00    -0.248 NA
ATOM     41  C   UNL A   1      45.045  24.054  28.221  1.00  0.00     0.031 C 
ATOM     42  C   UNL A   1      40.180  25.357  28.288  1.00  0.00     0.029 A 
ATOM     43  N   UNL A   1      41.679  26.906  28.878  1.00  0.00    -0.354 N 
ATOM     44  C   UNL A   1      45.892  26.046  28.969  1.00  0.00     0.074 A 
ATOM     45  C   UNL A   1      46.158  24.675  28.588  1.00  0.00     0.031 C 
ATOM     46  C   UNL A   1      39.509  26.495  28.519  1.00  0.00     0.029 A 
ATOM     47  C   UNL A   1      40.457  27.533  28.911  1.00  0.00     0.049 A 
ATOM     48  H   UNL A   1      42.521  27.351  29.127  1.00  0.00     0.167 HD
ATOM     49  C   UNL A   1      46.853  26.942  29.306  1.00  0.00     0.037 A 
ATOM     50  C   UNL A   1      40.133  28.803  29.218  1.00  0.00     0.037 A 
ATOM     51  C   UNL A   1      46.602  28.312  29.673  1.00  0.00     0.049 A 
ATOM     52  C   UNL A   1      41.215  29.769  29.607  1.00  0.00     0.074 A 
ATOM     53  C   UNL A   1      47.513  29.296  30.019  1.00  0.00     0.029 A 
ATOM     54  N   UNL A   1      45.346  28.894  29.740  1.00  0.00    -0.354 N 
ATOM     55  N   UNL A   1      42.511  29.585  29.654  1.00  0.00    -0.248 NA
ATOM     56  C   UNL A   1      40.782  31.120  29.992  1.00  0.00     0.031 C 
ATOM     57  C   UNL A   1      46.805  30.465  30.325  1.00  0.00     0.029 A 
ATOM     58  C   UNL A   1      45.456  30.219  30.134  1.00  0.00     0.049 A 
ATOM     59  H   UNL A   1      44.498  28.434  29.539  1.00  0.00     0.167 HD
ATOM     60  C   UNL A   1      43.050  30.798  30.062  1.00  0.00     0.074 A 
ATOM     61  C   UNL A   1      41.943  31.718  30.219  1.00  0.00     0.031 C 
ATOM     62  C   UNL A   1      44.346  31.120  30.294  1.00  0.00     0.037 A 
BRANCH  49  63
ATOM     63  C   UNL A   1      48.274  26.458  29.300  1.00  0.00     0.057 A 
ATOM     64  C   UNL A   1      49.094  26.657  28.182  1.00  0.00     0.134 A 
ATOM     65  C   UNL A   1      48.827  25.778  30.393  1.00  0.00     0.134 A 
ATOM     66  F   UNL A   1      48.626  27.297  27.100  1.00  0.00    -0.206 F 
ATOM     67  C   UNL A   1      50.413  26.199  28.152  1.00  0.00     0.040 A 
ATOM     68  C   UNL A   1      50.151  25.335  30.384  1.00  0.00     0.040 A 
ATOM     69  F   UNL A   1      48.102  25.572  31.503  1.00  0.00    -0.206 F 
ATOM     70  C   UNL A   1      50.946  25.541  29.259  1.00  0.00     0.006 A 
ENDBRANCH  49  63
BRANCH  50  71
ATOM     71  C   UNL A   1      38.717  29.249  29.162  1.00  0.00     0.057 A 
ATOM     72  C   UNL A   1      38.146  29.716  27.974  1.00  0.00     0.134 A 
ATOM     73  C   UNL A   1      37.895  29.182  30.292  1.00  0.00     0.134 A 
ATOM     74  F   UNL A   1      38.882  29.805  26.856  1.00  0.00    -0.206 F 
ATOM     75  C   UNL A   1      36.807  30.105  27.911  1.00  0.00     0.040 A 
ATOM     76  C   UNL A   1      36.549  29.543  30.239  1.00  0.00     0.040 A 
ATOM     77  F   UNL A   1      38.382  28.720  31.454  1.00  0.00    -0.206 F 
ATOM     78  C   UNL A   1      36.003  30.011  29.045  1.00  0.00     0.006 A 
ENDBRANCH  50  71
BRANCH  62  79
ATOM     79  C   UNL A   1      44.621  32.531  30.725  1.00  0.00     0.057 A 
ATOM     80  C   UNL A   1      44.666  32.868  32.084  1.00  0.00     0.134 A 
ATOM     81  C   UNL A   1      44.861  33.551  29.795  1.00  0.00     0.134 A 
ATOM     82  F   UNL A   1      44.442  31.939  33.025  1.00  0.00    -0.206 F 
ATOM     83  C   UNL A   1      44.951  34.168  32.502  1.00  0.00     0.040 A 
ATOM     84  C   UNL A   1      45.170  34.850  30.202  1.00  0.00     0.040 A 
ATOM     85  F   UNL A   1      44.849  33.288  28.480  1.00  0.00    -0.206 F 
ATOM     86  C   UNL A   1      45.215  35.162  31.560  1.00  0.00     0.006 A 
ENDBRANCH  62  79
ENDBRANCH  36  37
ENDBRANCH  28  31
ENDBRANCH  26  27
ENDBRANCH  25  26
ENDBRANCH   1  25
TORSDOF 13
ENDMDL
MODEL 2
REMARK VINA RESULT:     -11.9      2.071      7.821
REMARK SMILES Cc1cc2c(cc1S(=O)(=O)N(C)CC(=O)NCCCNC(=O)c1ccc(-c3c4nc(c(-c5c(F)cccc5F)c5ccc([nH]5)c(-c5c(F)cccc5F)c5nc(c(-c6c(F)cccc6F)c6ccc3[nH]6)C=C5)C=C4)cc1)OCC(=O)N2
REMARK SMILES IDX 17 1 16 2 14 3 15 4 13 6 11 7 12 8 8 9 9 10 10 11 7 12 1 13
REMARK SMILES IDX 2 14 3 15 4 16 6 17 5 18 81 19 77 20 79 21 78 23 80 24 18 25
REMARK SMILES IDX 19 26 20 27 21 28 22 30 23 31 24 32 76 33 25 34 75 35 26 36
REMARK SMILES IDX 27 37 28 38 69 39 29 40 74 41 68 42 70 43 30 44 73 45 67 46
REMARK SMILES IDX 66 47 31 49 57 50 40 51 56 52 41 53 44 54 55 55 71 56 42 57
REMARK SMILES IDX 43 58 54 60 72 61 45 62 32 63 33 64 38 65 34 66 35 67 37 68
REMARK SMILES IDX 39 69 36 70 58 71 59 72 64 73 60 74 61 75 63 76 65 77 62 78
REMARK SMILES IDX 46 79 47 80 52 81 48 82 49 83 51 84 53 85 50 86
REMARK H PARENT 16 5 81 22 20 29 70 48 44 59
REMARK Flexibility Score: inf
ROOT
ATOM      1  C   UNL A   1      33.185  27.855  24.761  1.00  0.00     0.117 C 
ENDROOT
BRANCH   1   2
ATOM      2  N   UNL A   1      33.688  27.424  23.464  1.00  0.00    -0.355 N 
ATOM      3  C   UNL A   1      33.298  26.407  22.634  1.00  0.00     0.235 C 
ATOM      4  O   UNL A   1      33.703  26.454  21.470  1.00  0.00    -0.274 OA
ATOM      5  H   UNL A   1      34.442  27.959  23.124  1.00  0.00     0.163 HD
BRANCH   3   6
ATOM      6  C   UNL A   1      32.406  25.271  23.126  1.00  0.00     0.202 C 
BRANCH   6   7
ATOM      7  N   UNL A   1      33.092  23.967  23.418  1.00  0.00    -0.192 NA
ATOM      8  C   UNL A   1      33.029  23.042  22.283  1.00  0.00     0.125 C 
BRANCH   7   9
ATOM      9  S   UNL A   1      32.650  23.303  24.929  1.00  0.00     0.243 S 
ATOM     10  O   UNL A   1      31.225  23.038  24.849  1.00  0.00    -0.207 OA
ATOM     11  O   UNL A   1      33.219  24.121  25.969  1.00  0.00    -0.207 OA
BRANCH   9  12
ATOM     12  C   UNL A   1      33.453  21.702  25.009  1.00  0.00     0.089 A 
ATOM     13  C   UNL A   1      35.860  22.627  25.059  1.00  0.00     0.046 C 
ATOM     14  C   UNL A   1      34.849  21.516  25.003  1.00  0.00    -0.029 A 
ATOM     15  C   UNL A   1      35.340  20.199  24.889  1.00  0.00     0.035 A 
ATOM     16  C   UNL A   1      34.470  19.104  24.860  1.00  0.00     0.084 A 
ATOM     17  C   UNL A   1      32.589  20.592  24.999  1.00  0.00     0.070 A 
ATOM     18  C   UNL A   1      33.095  19.299  24.935  1.00  0.00     0.144 A 
ATOM     19  N   UNL A   1      34.990  17.815  24.786  1.00  0.00    -0.320 N 
ATOM     20  O   UNL A   1      32.174  18.294  24.964  1.00  0.00    -0.482 OA
ATOM     21  C   UNL A   1      34.185  16.711  24.776  1.00  0.00     0.262 C 
ATOM     22  H   UNL A   1      35.966  17.695  24.740  1.00  0.00     0.170 HD
ATOM     23  C   UNL A   1      32.683  16.989  24.745  1.00  0.00     0.329 C 
ATOM     24  O   UNL A   1      34.660  15.578  24.763  1.00  0.00    -0.271 OA
ENDBRANCH   9  12
ENDBRANCH   7   9
ENDBRANCH   6   7
ENDBRANCH   3   6
ENDBRANCH   1   2
BRANCH   1  25
ATOM     25  C   UNL A   1      34.262  28.319  25.746  1.00  0.00     0.042 C 
BRANCH  25  26
ATOM     26  C   UNL A   1      33.807  28.448  27.195  1.00  0.00     0.118 C 
BRANCH  26  27
ATOM     27  N   UNL A   1      33.786  29.836  27.626  1.00  0.00    -0.352 N 
ATOM     28  C   UNL A   1      34.723  30.573  28.311  1.00  0.00     0.251 C 
ATOM     29  H   UNL A   1      32.968  30.329  27.388  1.00  0.00     0.163 HD
ATOM     30  O   UNL A   1      34.391  31.653  28.794  1.00  0.00    -0.269 OA
BRANCH  28  31
ATOM     31  C   UNL A   1      36.113  30.087  28.499  1.00  0.00     0.039 A 
ATOM     32  C   UNL A   1      36.515  29.439  29.667  1.00  0.00     0.014 A 
ATOM     33  C   UNL A   1      37.029  30.229  27.448  1.00  0.00     0.014 A 
ATOM     34  C   UNL A   1      37.851  29.078  29.845  1.00  0.00     0.010 A 
ATOM     35  C   UNL A   1      38.349  29.781  27.592  1.00  0.00     0.010 A 
ATOM     36  C   UNL A   1      38.787  29.241  28.810  1.00  0.00    -0.014 A 
BRANCH  36  37
ATOM     37  C   UNL A   1      40.205  28.837  29.034  1.00  0.00     0.031 A 
ATOM     38  C   UNL A   1      40.700  27.475  28.618  1.00  0.00     0.074 A 
ATOM     39  C   UNL A   1      41.074  29.725  29.557  1.00  0.00     0.049 A 
ATOM     40  N   UNL A   1      41.915  26.986  28.665  1.00  0.00    -0.248 NA
ATOM     41  C   UNL A   1      39.701  26.536  28.086  1.00  0.00     0.031 C 
ATOM     42  C   UNL A   1      40.732  31.072  30.020  1.00  0.00     0.029 A 
ATOM     43  N   UNL A   1      42.431  29.644  29.754  1.00  0.00    -0.354 N 
ATOM     44  C   UNL A   1      41.826  25.686  28.184  1.00  0.00     0.074 A 
ATOM     45  C   UNL A   1      40.429  25.446  27.885  1.00  0.00     0.031 C 
ATOM     46  C   UNL A   1      41.854  31.714  30.378  1.00  0.00     0.029 A 
ATOM     47  C   UNL A   1      42.988  30.810  30.221  1.00  0.00     0.049 A 
ATOM     48  H   UNL A   1      42.953  28.828  29.580  1.00  0.00     0.167 HD
ATOM     49  C   UNL A   1      42.813  24.777  27.988  1.00  0.00     0.037 A 
ATOM     50  C   UNL A   1      44.270  31.121  30.489  1.00  0.00     0.037 A 
ATOM     51  C   UNL A   1      44.206  25.008  28.269  1.00  0.00     0.049 A 
ATOM     52  C   UNL A   1      45.341  30.089  30.281  1.00  0.00     0.074 A 
ATOM     53  C   UNL A   1      45.279  24.151  28.091  1.00  0.00     0.029 A 
ATOM     54  N   UNL A   1      44.722  26.187  28.785  1.00  0.00    -0.354 N 
ATOM     55  N   UNL A   1      45.238  28.872  29.807  1.00  0.00    -0.248 NA
ATOM     56  C   UNL A   1      46.709  30.476  30.656  1.00  0.00     0.031 C 
ATOM     57  C   UNL A   1      46.440  24.800  28.529  1.00  0.00     0.029 A 
ATOM     58  C   UNL A   1      46.095  26.075  28.945  1.00  0.00     0.049 A 
ATOM     59  H   UNL A   1      44.192  26.986  29.007  1.00  0.00     0.167 HD
ATOM     60  C   UNL A   1      46.525  28.353  29.814  1.00  0.00     0.074 A 
ATOM     61  C   UNL A   1      47.396  29.397  30.311  1.00  0.00     0.031 C 
ATOM     62  C   UNL A   1      46.949  27.118  29.448  1.00  0.00     0.037 A 
BRANCH  49  63
ATOM     63  C   UNL A   1      42.411  23.435  27.447  1.00  0.00     0.057 A 
ATOM     64  C   UNL A   1      42.437  23.181  26.070  1.00  0.00     0.134 A 
ATOM     65  C   UNL A   1      41.981  22.399  28.287  1.00  0.00     0.134 A 
ATOM     66  F   UNL A   1      42.835  24.130  25.210  1.00  0.00    -0.206 F 
ATOM     67  C   UNL A   1      42.052  21.944  25.548  1.00  0.00     0.040 A 
ATOM     68  C   UNL A   1      41.614  21.152  27.779  1.00  0.00     0.040 A 
ATOM     69  F   UNL A   1      41.951  22.570  29.617  1.00  0.00    -0.206 F 
ATOM     70  C   UNL A   1      41.644  20.923  26.405  1.00  0.00     0.006 A 
ENDBRANCH  49  63
BRANCH  50  71
ATOM     71  C   UNL A   1      44.625  32.479  30.975  1.00  0.00     0.057 A 
ATOM     72  C   UNL A   1      44.615  32.791  32.339  1.00  0.00     0.134 A 
ATOM     73  C   UNL A   1      45.017  33.484  30.084  1.00  0.00     0.134 A 
ATOM     74  F   UNL A   1      44.247  31.871  33.242  1.00  0.00    -0.206 F 
ATOM     75  C   UNL A   1      44.978  34.057  32.801  1.00  0.00     0.040 A 
ATOM     76  C   UNL A   1      45.407  34.746  30.533  1.00  0.00     0.040 A 
ATOM     77  F   UNL A   1      45.068  33.237  28.767  1.00  0.00    -0.206 F 
ATOM     78  C   UNL A   1      45.384  35.036  31.896  1.00  0.00     0.006 A 
ENDBRANCH  50  71
BRANCH  62  79
ATOM     79  C   UNL A   1      48.420  26.851  29.564  1.00  0.00     0.057 A 
ATOM     80  C   UNL A   1      49.295  27.204  28.529  1.00  0.00     0.134 A 
ATOM     81  C   UNL A   1      48.974  26.263  30.709  1.00  0.00     0.134 A 
ATOM     82  F   UNL A   1      48.829  27.767  27.404  1.00  0.00    -0.206 F 
ATOM     83  C   UNL A   1      50.670  26.990  28.633  1.00  0.00     0.040 A 
ATOM     84  C   UNL A   1      50.350  26.066  30.835  1.00  0.00     0.040 A 
ATOM     85  F   UNL A   1      48.191  25.919  31.742  1.00  0.00    -0.206 F 
ATOM     86  C   UNL A   1      51.203  26.430  29.793  1.00  0.00     0.006 A 
ENDBRANCH  62  79
ENDBRANCH  36  37
ENDBRANCH  28  31
ENDBRANCH  26  27
ENDBRANCH  25  26
ENDBRANCH   1  25
TORSDOF 13
ENDMDL
MODEL 3
REMARK VINA RESULT:     -11.9      4.098      9.429
REMARK SMILES Cc1cc2c(cc1S(=O)(=O)N(C)CC(=O)NCCCNC(=O)c1ccc(-c3c4nc(c(-c5c(F)cccc5F)c5ccc([nH]5)c(-c5c(F)cccc5F)c5nc(c(-c6c(F)cccc6F)c6ccc3[nH]6)C=C5)C=C4)cc1)OCC(=O)N2
REMARK SMILES IDX 17 1 16 2 14 3 15 4 13 6 11 7 12 8 8 9 9 10 10 11 7 12 1 13
REMARK SMILES IDX 2 14 3 15 4 16 6 17 5 18 81 19 77 20 79 21 78 23 80 24 18 25
REMARK SMILES IDX 19 26 20 27 21 28 22 30 23 31 24 32 76 33 25 34 75 35 26 36
REMARK SMILES IDX 27 37 28 38 69 39 29 40 74 41 68 42 70 43 30 44 73 45 67 46
REMARK SMILES IDX 66 47 31 49 57 50 40 51 56 52 41 53 44 54 55 55 71 56 42 57
REMARK SMILES IDX 43 58 54 60 72 61 45 62 32 63 33 64 38 65 34 66 35 67 37 68
REMARK SMILES IDX 39 69 36 70 58 71 59 72 64 73 60 74 61 75 63 76 65 77 62 78
REMARK SMILES IDX 46 79 47 80 52 81 48 82 49 83 51 84 53 85 50 86
REMARK H PARENT 16 5 81 22 20 29 70 48 44 59
REMARK Flexibility Score: inf
ROOT
ATOM      1  C   UNL A   1      31.262  30.297  25.375  1.00  0.00     0.117 C 
ENDROOT
BRANCH   1   2
ATOM      2  N   UNL A   1      30.469  30.092  24.171  1.00  0.00    -0.355 N 
ATOM      3  C   UNL A   1      30.698  29.331  23.056  1.00  0.00     0.235 C 
ATOM      4  O   UNL A   1      29.729  29.112  22.324  1.00  0.00    -0.274 OA
ATOM      5  H   UNL A   1      29.619  30.588  24.157  1.00  0.00     0.163 HD
BRANCH   3   6
ATOM      6  C   UNL A   1      32.085  28.782  22.733  1.00  0.00     0.202 C 
BRANCH   6   7
ATOM      7  N   UNL A   1      32.430  27.453  23.342  1.00  0.00    -0.192 NA
ATOM      8  C   UNL A   1      33.554  27.547  24.278  1.00  0.00     0.125 C 
BRANCH   7   9
ATOM      9  S   UNL A   1      32.544  26.199  22.186  1.00  0.00     0.243 S 
ATOM     10  O   UNL A   1      33.945  26.117  21.818  1.00  0.00    -0.207 OA
ATOM     11  O   UNL A   1      31.505  26.389  21.205  1.00  0.00    -0.207 OA
BRANCH   9  12
ATOM     12  C   UNL A   1      32.170  24.686  23.073  1.00  0.00     0.089 A 
ATOM     13  C   UNL A   1      29.854  25.450  23.913  1.00  0.00     0.046 C 
ATOM     14  C   UNL A   1      31.004  24.485  23.837  1.00  0.00    -0.029 A 
ATOM     15  C   UNL A   1      30.924  23.317  24.624  1.00  0.00     0.035 A 
ATOM     16  C   UNL A   1      31.936  22.352  24.591  1.00  0.00     0.084 A 
ATOM     17  C   UNL A   1      33.172  23.700  23.032  1.00  0.00     0.070 A 
ATOM     18  C   UNL A   1      33.051  22.534  23.780  1.00  0.00     0.144 A 
ATOM     19  N   UNL A   1      31.807  21.194  25.352  1.00  0.00    -0.320 N 
ATOM     20  O   UNL A   1      34.061  21.628  23.643  1.00  0.00    -0.482 OA
ATOM     21  C   UNL A   1      32.755  20.212  25.339  1.00  0.00     0.262 C 
ATOM     22  H   UNL A   1      31.008  21.080  25.917  1.00  0.00     0.170 HD
ATOM     23  C   UNL A   1      34.010  20.515  24.520  1.00  0.00     0.329 C 
ATOM     24  O   UNL A   1      32.603  19.172  25.976  1.00  0.00    -0.271 OA
ENDBRANCH   9  12
ENDBRANCH   7   9
ENDBRANCH   6   7
ENDBRANCH   3   6
ENDBRANCH   1   2
BRANCH   1  25
ATOM     25  C   UNL A   1      31.166  31.703  25.976  1.00  0.00     0.042 C 
BRANCH  25  26
ATOM     26  C   UNL A   1      32.323  32.103  26.883  1.00  0.00     0.118 C 
BRANCH  26  27
ATOM     27  N   UNL A   1      32.255  33.509  27.247  1.00  0.00    -0.352 N 
ATOM     28  C   UNL A   1      32.973  34.228  28.172  1.00  0.00     0.251 C 
ATOM     29  H   UNL A   1      31.585  34.031  26.749  1.00  0.00     0.163 HD
ATOM     30  O   UNL A   1      32.575  35.344  28.496  1.00  0.00    -0.269 OA
BRANCH  28  31
ATOM     31  C   UNL A   1      34.201  33.681  28.804  1.00  0.00     0.039 A 
ATOM     32  C   UNL A   1      35.468  34.189  28.513  1.00  0.00     0.014 A 
ATOM     33  C   UNL A   1      34.076  32.670  29.765  1.00  0.00     0.014 A 
ATOM     34  C   UNL A   1      36.605  33.590  29.055  1.00  0.00     0.010 A 
ATOM     35  C   UNL A   1      35.214  32.132  30.381  1.00  0.00     0.010 A 
ATOM     36  C   UNL A   1      36.495  32.554  29.999  1.00  0.00    -0.014 A 
BRANCH  36  37
ATOM     37  C   UNL A   1      37.733  31.944  30.563  1.00  0.00     0.031 A 
ATOM     38  C   UNL A   1      38.213  32.297  31.948  1.00  0.00     0.074 A 
ATOM     39  C   UNL A   1      38.399  31.013  29.850  1.00  0.00     0.049 A 
ATOM     40  N   UNL A   1      39.221  31.804  32.625  1.00  0.00    -0.248 NA
ATOM     41  C   UNL A   1      37.469  33.342  32.665  1.00  0.00     0.031 C 
ATOM     42  C   UNL A   1      38.059  30.585  28.491  1.00  0.00     0.029 A 
ATOM     43  N   UNL A   1      39.478  30.230  30.181  1.00  0.00    -0.354 N 
ATOM     44  C   UNL A   1      39.241  32.485  33.836  1.00  0.00     0.074 A 
ATOM     45  C   UNL A   1      38.166  33.454  33.787  1.00  0.00     0.031 C 
ATOM     46  C   UNL A   1      38.863  29.573  28.133  1.00  0.00     0.029 A 
ATOM     47  C   UNL A   1      39.809  29.313  29.213  1.00  0.00     0.049 A 
ATOM     48  H   UNL A   1      39.968  30.319  31.030  1.00  0.00     0.167 HD
ATOM     49  C   UNL A   1      40.062  32.312  34.901  1.00  0.00     0.037 A 
ATOM     50  C   UNL A   1      40.762  28.363  29.196  1.00  0.00     0.037 A 
ATOM     51  C   UNL A   1      41.125  31.342  34.966  1.00  0.00     0.049 A 
ATOM     52  C   UNL A   1      41.670  28.207  30.382  1.00  0.00     0.074 A 
ATOM     53  C   UNL A   1      42.001  31.087  36.008  1.00  0.00     0.029 A 
ATOM     54  N   UNL A   1      41.457  30.465  33.946  1.00  0.00    -0.354 N 
ATOM     55  N   UNL A   1      41.659  28.847  31.525  1.00  0.00    -0.248 NA
ATOM     56  C   UNL A   1      42.731  27.195  30.268  1.00  0.00     0.031 C 
ATOM     57  C   UNL A   1      42.882  30.075  35.606  1.00  0.00     0.029 A 
ATOM     58  C   UNL A   1      42.531  29.676  34.328  1.00  0.00     0.049 A 
ATOM     59  H   UNL A   1      40.997  30.410  33.076  1.00  0.00     0.167 HD
ATOM     60  C   UNL A   1      42.700  28.309  32.270  1.00  0.00     0.074 A 
ATOM     61  C   UNL A   1      43.301  27.270  31.462  1.00  0.00     0.031 C 
ATOM     62  C   UNL A   1      43.125  28.651  33.511  1.00  0.00     0.037 A 
BRANCH  49  63
ATOM     63  C   UNL A   1      39.842  33.205  36.089  1.00  0.00     0.057 A 
ATOM     64  C   UNL A   1      38.932  32.851  37.092  1.00  0.00     0.134 A 
ATOM     65  C   UNL A   1      40.517  34.424  36.229  1.00  0.00     0.134 A 
ATOM     66  F   UNL A   1      38.249  31.699  37.017  1.00  0.00    -0.206 F 
ATOM     67  C   UNL A   1      38.703  33.677  38.195  1.00  0.00     0.040 A 
ATOM     68  C   UNL A   1      40.313  35.248  37.338  1.00  0.00     0.040 A 
ATOM     69  F   UNL A   1      41.417  34.814  35.313  1.00  0.00    -0.206 F 
ATOM     70  C   UNL A   1      39.400  34.877  38.322  1.00  0.00     0.006 A 
ENDBRANCH  49  63
BRANCH  50  71
ATOM     71  C   UNL A   1      40.909  27.471  28.019  1.00  0.00     0.057 A 
ATOM     72  C   UNL A   1      40.241  26.244  27.944  1.00  0.00     0.134 A 
ATOM     73  C   UNL A   1      41.697  27.845  26.924  1.00  0.00     0.134 A 
ATOM     74  F   UNL A   1      39.472  25.829  28.962  1.00  0.00    -0.206 F 
ATOM     75  C   UNL A   1      40.352  25.418  26.825  1.00  0.00     0.040 A 
ATOM     76  C   UNL A   1      41.798  27.042  25.788  1.00  0.00     0.040 A 
ATOM     77  F   UNL A   1      42.343  29.021  26.928  1.00  0.00    -0.206 F 
ATOM     78  C   UNL A   1      41.127  25.821  25.739  1.00  0.00     0.006 A 
ENDBRANCH  50  71
BRANCH  62  79
ATOM     79  C   UNL A   1      44.285  27.875  34.061  1.00  0.00     0.057 A 
ATOM     80  C   UNL A   1      44.081  26.670  34.745  1.00  0.00     0.134 A 
ATOM     81  C   UNL A   1      45.607  28.310  33.896  1.00  0.00     0.134 A 
ATOM     82  F   UNL A   1      42.840  26.200  34.941  1.00  0.00    -0.206 F 
ATOM     83  C   UNL A   1      45.150  25.921  35.236  1.00  0.00     0.040 A 
ATOM     84  C   UNL A   1      46.686  27.557  34.361  1.00  0.00     0.040 A 
ATOM     85  F   UNL A   1      45.870  29.447  33.233  1.00  0.00    -0.206 F 
ATOM     86  C   UNL A   1      46.458  26.358  35.035  1.00  0.00     0.006 A 
ENDBRANCH  62  79
ENDBRANCH  36  37
ENDBRANCH  28  31
ENDBRANCH  26  27
ENDBRANCH  25  26
ENDBRANCH   1  25
TORSDOF 13
ENDMDL
