MODEL 1
REMARK VINA RESULT:      -9.6      0.000      0.000
REMARK SMILES Cc1cccc(C)c1Nc1ccccc1CC(=O)NCCCNC(=O)c1ccc(-c2c3nc(c(-c4c(F)cccc4F)c4ccc([nH]4)c(-c4c(F)cccc4F)c4nc(c(-c5c(F)cccc5F)c5ccc2[nH]5)C=C4)C=C3)cc1
REMARK SMILES IDX 20 1 19 2 17 3 18 4 16 6 15 7 10 8 11 9 12 10 14 11 13 12
REMARK SMILES IDX 9 13 8 15 1 16 2 17 3 18 4 19 6 20 5 21 7 22 21 23 22 24
REMARK SMILES IDX 23 25 24 26 25 28 26 29 27 30 79 31 28 32 78 33 29 34 30 35
REMARK SMILES IDX 31 36 72 37 32 38 77 39 71 40 73 41 33 42 76 43 70 44 69 45
REMARK SMILES IDX 34 47 60 48 43 49 59 50 44 51 47 52 58 53 74 54 45 55 46 56
REMARK SMILES IDX 57 58 75 59 48 60 35 61 36 62 41 63 37 64 38 65 40 66 42 67
REMARK SMILES IDX 39 68 61 69 62 70 67 71 63 72 64 73 66 74 68 75 65 76 49 77
REMARK SMILES IDX 50 78 55 79 51 80 52 81 54 82 56 83 53 84
REMARK H PARENT 19 5 9 14 23 27 73 46 47 57
REMARK Flexibility Score: inf
ROOT
ATOM      1  C   UNL A   1      34.437  35.780  32.779  1.00  0.00     0.117 C 
ENDROOT
BRANCH   1   2
ATOM      2  N   UNL A   1      34.343  34.362  33.065  1.00  0.00    -0.356 N 
ATOM      3  C   UNL A   1      35.277  33.554  33.647  1.00  0.00     0.224 C 
ATOM      4  O   UNL A   1      35.059  32.342  33.687  1.00  0.00    -0.275 OA
ATOM      5  H   UNL A   1      33.499  33.927  32.805  1.00  0.00     0.163 HD
BRANCH   3   6
ATOM      6  C   UNL A   1      36.529  34.163  34.255  1.00  0.00     0.137 C 
BRANCH   6   7
ATOM      7  C   UNL A   1      37.085  33.390  35.434  1.00  0.00    -0.015 A 
ATOM      8  C   UNL A   1      37.806  32.185  35.297  1.00  0.00     0.042 A 
ATOM      9  C   UNL A   1      38.196  31.495  36.461  1.00  0.00     0.026 A 
ATOM     10  C   UNL A   1      37.920  31.996  37.733  1.00  0.00     0.002 A 
ATOM     11  C   UNL A   1      36.838  33.896  36.729  1.00  0.00     0.006 A 
ATOM     12  C   UNL A   1      37.252  33.205  37.866  1.00  0.00     0.000 A 
BRANCH   8  13
ATOM     13  N   UNL A   1      38.224  31.638  34.068  1.00  0.00    -0.355 N 
ATOM     14  H   UNL A   1      37.998  32.199  33.291  1.00  0.00     0.167 HD
BRANCH  13  15
ATOM     15  C   UNL A   1      38.903  30.445  33.723  1.00  0.00     0.044 A 
ATOM     16  C   UNL A   1      36.839  29.765  32.366  1.00  0.00     0.046 C 
ATOM     17  C   UNL A   1      38.246  29.528  32.856  1.00  0.00    -0.027 A 
ATOM     18  C   UNL A   1      38.912  28.376  32.410  1.00  0.00     0.005 A 
ATOM     19  C   UNL A   1      40.218  28.115  32.803  1.00  0.00     0.001 A 
ATOM     20  C   UNL A   1      40.216  30.141  34.158  1.00  0.00    -0.027 A 
ATOM     21  C   UNL A   1      40.862  28.991  33.668  1.00  0.00     0.005 A 
ATOM     22  C   UNL A   1      40.974  30.968  35.163  1.00  0.00     0.046 C 
ENDBRANCH  13  15
ENDBRANCH   8  13
ENDBRANCH   6   7
ENDBRANCH   3   6
ENDBRANCH   1   2
BRANCH   1  23
ATOM     23  C   UNL A   1      33.229  36.283  31.995  1.00  0.00     0.042 C 
BRANCH  23  24
ATOM     24  C   UNL A   1      33.520  36.545  30.521  1.00  0.00     0.118 C 
BRANCH  24  25
ATOM     25  N   UNL A   1      32.732  35.694  29.639  1.00  0.00    -0.352 N 
ATOM     26  C   UNL A   1      33.098  34.584  28.926  1.00  0.00     0.251 C 
ATOM     27  H   UNL A   1      31.788  35.958  29.541  1.00  0.00     0.163 HD
ATOM     28  O   UNL A   1      32.332  34.127  28.075  1.00  0.00    -0.269 OA
BRANCH  26  29
ATOM     29  C   UNL A   1      34.407  33.940  29.153  1.00  0.00     0.039 A 
ATOM     30  C   UNL A   1      35.505  34.362  28.399  1.00  0.00     0.014 A 
ATOM     31  C   UNL A   1      34.551  32.906  30.084  1.00  0.00     0.014 A 
ATOM     32  C   UNL A   1      36.761  33.798  28.628  1.00  0.00     0.010 A 
ATOM     33  C   UNL A   1      35.816  32.393  30.359  1.00  0.00     0.010 A 
ATOM     34  C   UNL A   1      36.933  32.839  29.637  1.00  0.00    -0.014 A 
BRANCH  34  35
ATOM     35  C   UNL A   1      38.281  32.318  29.978  1.00  0.00     0.031 A 
ATOM     36  C   UNL A   1      38.742  30.990  29.450  1.00  0.00     0.074 A 
ATOM     37  C   UNL A   1      39.059  33.018  30.826  1.00  0.00     0.049 A 
ATOM     38  N   UNL A   1      39.853  30.343  29.700  1.00  0.00    -0.248 NA
ATOM     39  C   UNL A   1      37.826  30.283  28.541  1.00  0.00     0.031 C 
ATOM     40  C   UNL A   1      38.702  34.299  31.438  1.00  0.00     0.029 A 
ATOM     41  N   UNL A   1      40.305  32.745  31.331  1.00  0.00    -0.354 N 
ATOM     42  C   UNL A   1      39.765  29.153  28.991  1.00  0.00     0.074 A 
ATOM     43  C   UNL A   1      38.474  29.144  28.337  1.00  0.00     0.031 C 
ATOM     44  C   UNL A   1      39.715  34.711  32.218  1.00  0.00     0.029 A 
ATOM     45  C   UNL A   1      40.771  33.705  32.196  1.00  0.00     0.049 A 
ATOM     46  H   UNL A   1      40.817  31.937  31.094  1.00  0.00     0.167 HD
ATOM     47  C   UNL A   1      40.685  28.165  28.881  1.00  0.00     0.037 A 
ATOM     48  C   UNL A   1      41.914  33.761  32.905  1.00  0.00     0.037 A 
ATOM     49  C   UNL A   1      41.976  28.186  29.520  1.00  0.00     0.049 A 
ATOM     50  C   UNL A   1      42.906  32.639  32.785  1.00  0.00     0.074 A 
ATOM     51  C   UNL A   1      43.006  27.268  29.414  1.00  0.00     0.029 A 
ATOM     52  N   UNL A   1      42.409  29.172  30.394  1.00  0.00    -0.354 N 
ATOM     53  N   UNL A   1      42.842  31.554  32.052  1.00  0.00    -0.248 NA
ATOM     54  C   UNL A   1      44.128  32.747  33.594  1.00  0.00     0.031 C 
ATOM     55  C   UNL A   1      44.041  27.671  30.263  1.00  0.00     0.029 A 
ATOM     56  C   UNL A   1      43.677  28.867  30.861  1.00  0.00     0.049 A 
ATOM     57  H   UNL A   1      41.891  29.971  30.645  1.00  0.00     0.167 HD
ATOM     58  C   UNL A   1      44.019  30.860  32.296  1.00  0.00     0.074 A 
ATOM     59  C   UNL A   1      44.788  31.658  33.229  1.00  0.00     0.031 C 
ATOM     60  C   UNL A   1      44.425  29.667  31.796  1.00  0.00     0.037 A 
BRANCH  47  61
ATOM     61  C   UNL A   1      40.330  26.974  28.038  1.00  0.00     0.057 A 
ATOM     62  C   UNL A   1      40.847  26.802  26.747  1.00  0.00     0.134 A 
ATOM     63  C   UNL A   1      39.494  25.968  28.538  1.00  0.00     0.134 A 
ATOM     64  F   UNL A   1      41.645  27.733  26.204  1.00  0.00    -0.206 F 
ATOM     65  C   UNL A   1      40.526  25.684  25.974  1.00  0.00     0.040 A 
ATOM     66  C   UNL A   1      39.187  24.832  27.786  1.00  0.00     0.040 A 
ATOM     67  F   UNL A   1      38.970  26.065  29.769  1.00  0.00    -0.206 F 
ATOM     68  C   UNL A   1      39.698  24.691  26.497  1.00  0.00     0.006 A 
ENDBRANCH  47  61
BRANCH  48  69
ATOM     69  C   UNL A   1      42.187  34.926  33.783  1.00  0.00     0.057 A 
ATOM     70  C   UNL A   1      42.965  35.999  33.334  1.00  0.00     0.134 A 
ATOM     71  C   UNL A   1      41.682  34.996  35.087  1.00  0.00     0.134 A 
ATOM     72  F   UNL A   1      43.491  35.981  32.100  1.00  0.00    -0.206 F 
ATOM     73  C   UNL A   1      43.246  37.092  34.154  1.00  0.00     0.040 A 
ATOM     74  C   UNL A   1      41.935  36.093  35.910  1.00  0.00     0.040 A 
ATOM     75  F   UNL A   1      40.924  34.003  35.574  1.00  0.00    -0.206 F 
ATOM     76  C   UNL A   1      42.725  37.143  35.446  1.00  0.00     0.006 A 
ENDBRANCH  48  69
BRANCH  60  77
ATOM     77  C   UNL A   1      45.767  29.163  32.239  1.00  0.00     0.057 A 
ATOM     78  C   UNL A   1      46.944  29.507  31.562  1.00  0.00     0.134 A 
ATOM     79  C   UNL A   1      45.888  28.352  33.376  1.00  0.00     0.134 A 
ATOM     80  F   UNL A   1      46.895  30.267  30.457  1.00  0.00    -0.206 F 
ATOM     81  C   UNL A   1      48.191  29.045  31.986  1.00  0.00     0.040 A 
ATOM     82  C   UNL A   1      47.132  27.907  33.825  1.00  0.00     0.040 A 
ATOM     83  F   UNL A   1      44.801  27.992  34.075  1.00  0.00    -0.206 F 
ATOM     84  C   UNL A   1      48.287  28.248  33.126  1.00  0.00     0.006 A 
ENDBRANCH  60  77
ENDBRANCH  34  35
ENDBRANCH  26  29
ENDBRANCH  24  25
ENDBRANCH  23  24
ENDBRANCH   1  23
TORSDOF 13
ENDMDL
MODEL 2
REMARK VINA RESULT:      -9.6      0.790      6.417
REMARK SMILES Cc1cccc(C)c1Nc1ccccc1CC(=O)NCCCNC(=O)c1ccc(-c2c3nc(c(-c4c(F)cccc4F)c4ccc([nH]4)c(-c4c(F)cccc4F)c4nc(c(-c5c(F)cccc5F)c5ccc2[nH]5)C=C4)C=C3)cc1
REMARK SMILES IDX 20 1 19 2 17 3 18 4 16 6 15 7 10 8 11 9 12 10 14 11 13 12
REMARK SMILES IDX 9 13 8 15 1 16 2 17 3 18 4 19 6 20 5 21 7 22 21 23 22 24
REMARK SMILES IDX 23 25 24 26 25 28 26 29 27 30 79 31 28 32 78 33 29 34 30 35
REMARK SMILES IDX 31 36 72 37 32 38 77 39 71 40 73 41 33 42 76 43 70 44 69 45
REMARK SMILES IDX 34 47 60 48 43 49 59 50 44 51 47 52 58 53 74 54 45 55 46 56
REMARK SMILES IDX 57 58 75 59 48 60 35 61 36 62 41 63 37 64 38 65 40 66 42 67
REMARK SMILES IDX 39 68 61 69 62 70 67 71 63 72 64 73 66 74 68 75 65 76 49 77
REMARK SMILES IDX 50 78 55 79 51 80 52 81 54 82 56 83 53 84
REMARK H PARENT 19 5 9 14 23 27 73 46 47 57
REMARK Flexibility Score: inf
ROOT
ATOM      1  C   UNL A   1      34.121  36.016  33.137  1.00  0.00     0.117 C 
ENDROOT
BRANCH   1   2
ATOM      2  N   UNL A   1      34.030  34.582  33.326  1.00  0.00    -0.356 N 
ATOM      3  C   UNL A   1      35.021  33.711  33.677  1.00  0.00     0.224 C 
ATOM      4  O   UNL A   1      34.773  32.503  33.661  1.00  0.00    -0.275 OA
ATOM      5  H   UNL A   1      33.140  34.186  33.183  1.00  0.00     0.163 HD
BRANCH   3   6
ATOM      6  C   UNL A   1      36.378  34.243  34.105  1.00  0.00     0.137 C 
BRANCH   6   7
ATOM      7  C   UNL A   1      37.043  33.436  35.202  1.00  0.00    -0.015 A 
ATOM      8  C   UNL A   1      37.813  32.280  34.952  1.00  0.00     0.042 A 
ATOM      9  C   UNL A   1      38.307  31.548  36.049  1.00  0.00     0.026 A 
ATOM     10  C   UNL A   1      38.085  31.961  37.362  1.00  0.00     0.002 A 
ATOM     11  C   UNL A   1      36.850  33.854  36.537  1.00  0.00     0.006 A 
ATOM     12  C   UNL A   1      37.367  33.123  37.605  1.00  0.00     0.000 A 
BRANCH   8  13
ATOM     13  N   UNL A   1      38.182  31.826  33.671  1.00  0.00    -0.355 N 
ATOM     14  H   UNL A   1      38.076  32.507  32.967  1.00  0.00     0.167 HD
BRANCH  13  15
ATOM     15  C   UNL A   1      38.674  30.590  33.189  1.00  0.00     0.044 A 
ATOM     16  C   UNL A   1      40.990  31.277  34.043  1.00  0.00     0.046 C 
ATOM     17  C   UNL A   1      40.049  30.291  33.396  1.00  0.00    -0.027 A 
ATOM     18  C   UNL A   1      40.565  29.041  33.020  1.00  0.00     0.005 A 
ATOM     19  C   UNL A   1      39.745  28.080  32.445  1.00  0.00     0.001 A 
ATOM     20  C   UNL A   1      37.860  29.621  32.554  1.00  0.00    -0.027 A 
ATOM     21  C   UNL A   1      38.405  28.369  32.216  1.00  0.00     0.005 A 
ATOM     22  C   UNL A   1      36.422  29.859  32.174  1.00  0.00     0.046 C 
ENDBRANCH  13  15
ENDBRANCH   8  13
ENDBRANCH   6   7
ENDBRANCH   3   6
ENDBRANCH   1   2
BRANCH   1  23
ATOM     23  C   UNL A   1      33.131  36.515  32.089  1.00  0.00     0.042 C 
BRANCH  23  24
ATOM     24  C   UNL A   1      33.689  36.515  30.670  1.00  0.00     0.118 C 
BRANCH  24  25
ATOM     25  N   UNL A   1      32.862  35.748  29.748  1.00  0.00    -0.352 N 
ATOM     26  C   UNL A   1      33.179  34.667  28.969  1.00  0.00     0.251 C 
ATOM     27  H   UNL A   1      31.929  36.053  29.674  1.00  0.00     0.163 HD
ATOM     28  O   UNL A   1      32.389  34.290  28.100  1.00  0.00    -0.269 OA
BRANCH  26  29
ATOM     29  C   UNL A   1      34.462  33.960  29.147  1.00  0.00     0.039 A 
ATOM     30  C   UNL A   1      35.501  34.214  28.247  1.00  0.00     0.014 A 
ATOM     31  C   UNL A   1      34.639  33.030  30.177  1.00  0.00     0.014 A 
ATOM     32  C   UNL A   1      36.737  33.590  28.422  1.00  0.00     0.010 A 
ATOM     33  C   UNL A   1      35.892  32.461  30.390  1.00  0.00     0.010 A 
ATOM     34  C   UNL A   1      36.954  32.741  29.517  1.00  0.00    -0.014 A 
BRANCH  34  35
ATOM     35  C   UNL A   1      38.295  32.167  29.789  1.00  0.00     0.031 A 
ATOM     36  C   UNL A   1      39.345  32.978  30.494  1.00  0.00     0.074 A 
ATOM     37  C   UNL A   1      38.586  30.934  29.333  1.00  0.00     0.049 A 
ATOM     38  N   UNL A   1      40.591  32.671  30.752  1.00  0.00    -0.248 NA
ATOM     39  C   UNL A   1      38.950  34.322  30.948  1.00  0.00     0.031 C 
ATOM     40  C   UNL A   1      37.663  30.066  28.598  1.00  0.00     0.029 A 
ATOM     41  N   UNL A   1      39.743  30.200  29.408  1.00  0.00    -0.354 N 
ATOM     42  C   UNL A   1      41.131  33.782  31.385  1.00  0.00     0.074 A 
ATOM     43  C   UNL A   1      40.092  34.789  31.433  1.00  0.00     0.031 C 
ATOM     44  C   UNL A   1      38.283  28.911  28.309  1.00  0.00     0.029 A 
ATOM     45  C   UNL A   1      39.656  28.972  28.798  1.00  0.00     0.049 A 
ATOM     46  H   UNL A   1      40.557  30.523  29.858  1.00  0.00     0.167 HD
ATOM     47  C   UNL A   1      42.375  33.942  31.897  1.00  0.00     0.037 A 
ATOM     48  C   UNL A   1      40.584  28.010  28.637  1.00  0.00     0.037 A 
ATOM     49  C   UNL A   1      43.400  32.930  31.862  1.00  0.00     0.049 A 
ATOM     50  C   UNL A   1      41.964  28.223  29.191  1.00  0.00     0.074 A 
ATOM     51  C   UNL A   1      44.668  32.968  32.415  1.00  0.00     0.029 A 
ATOM     52  N   UNL A   1      43.277  31.702  31.230  1.00  0.00    -0.354 N 
ATOM     53  N   UNL A   1      42.439  29.250  29.854  1.00  0.00    -0.248 NA
ATOM     54  C   UNL A   1      42.939  27.145  28.971  1.00  0.00     0.031 C 
ATOM     55  C   UNL A   1      45.331  31.785  32.074  1.00  0.00     0.029 A 
ATOM     56  C   UNL A   1      44.458  30.988  31.349  1.00  0.00     0.049 A 
ATOM     57  H   UNL A   1      42.469  31.384  30.765  1.00  0.00     0.167 HD
ATOM     58  C   UNL A   1      43.759  28.935  30.146  1.00  0.00     0.074 A 
ATOM     59  C   UNL A   1      44.003  27.613  29.607  1.00  0.00     0.031 C 
ATOM     60  C   UNL A   1      44.688  29.676  30.799  1.00  0.00     0.037 A 
BRANCH  47  61
ATOM     61  C   UNL A   1      42.699  35.260  32.539  1.00  0.00     0.057 A 
ATOM     62  C   UNL A   1      42.342  35.544  33.864  1.00  0.00     0.134 A 
ATOM     63  C   UNL A   1      43.413  36.239  31.839  1.00  0.00     0.134 A 
ATOM     64  F   UNL A   1      41.648  34.653  34.587  1.00  0.00    -0.206 F 
ATOM     65  C   UNL A   1      42.662  36.766  34.460  1.00  0.00     0.040 A 
ATOM     66  C   UNL A   1      43.762  37.454  32.432  1.00  0.00     0.040 A 
ATOM     67  F   UNL A   1      43.793  36.030  30.569  1.00  0.00    -0.206 F 
ATOM     68  C   UNL A   1      43.380  37.722  33.746  1.00  0.00     0.006 A 
ENDBRANCH  47  61
BRANCH  48  69
ATOM     69  C   UNL A   1      40.235  26.753  27.929  1.00  0.00     0.057 A 
ATOM     70  C   UNL A   1      40.675  26.518  26.622  1.00  0.00     0.134 A 
ATOM     71  C   UNL A   1      39.455  25.761  28.536  1.00  0.00     0.134 A 
ATOM     72  F   UNL A   1      41.410  27.438  25.981  1.00  0.00    -0.206 F 
ATOM     73  C   UNL A   1      40.338  25.349  25.936  1.00  0.00     0.040 A 
ATOM     74  C   UNL A   1      39.131  24.578  27.872  1.00  0.00     0.040 A 
ATOM     75  F   UNL A   1      39.009  25.923  29.791  1.00  0.00    -0.206 F 
ATOM     76  C   UNL A   1      39.568  24.373  26.565  1.00  0.00     0.006 A 
ENDBRANCH  48  69
BRANCH  60  77
ATOM     77  C   UNL A   1      46.047  29.066  30.976  1.00  0.00     0.057 A 
ATOM     78  C   UNL A   1      46.354  28.259  32.078  1.00  0.00     0.134 A 
ATOM     79  C   UNL A   1      47.049  29.259  30.016  1.00  0.00     0.134 A 
ATOM     80  F   UNL A   1      45.443  28.048  33.042  1.00  0.00    -0.206 F 
ATOM     81  C   UNL A   1      47.617  27.684  32.232  1.00  0.00     0.040 A 
ATOM     82  C   UNL A   1      48.307  28.666  30.144  1.00  0.00     0.040 A 
ATOM     83  F   UNL A   1      46.818  30.014  28.932  1.00  0.00    -0.206 F 
ATOM     84  C   UNL A   1      48.595  27.881  31.258  1.00  0.00     0.006 A 
ENDBRANCH  60  77
ENDBRANCH  34  35
ENDBRANCH  26  29
ENDBRANCH  24  25
ENDBRANCH  23  24
ENDBRANCH   1  23
TORSDOF 13
ENDMDL
MODEL 3
REMARK VINA RESULT:      -9.4      3.620      6.652
REMARK SMILES Cc1cccc(C)c1Nc1ccccc1CC(=O)NCCCNC(=O)c1ccc(-c2c3nc(c(-c4c(F)cccc4F)c4ccc([nH]4)c(-c4c(F)cccc4F)c4nc(c(-c5c(F)cccc5F)c5ccc2[nH]5)C=C4)C=C3)cc1
REMARK SMILES IDX 20 1 19 2 17 3 18 4 16 6 15 7 10 8 11 9 12 10 14 11 13 12
REMARK SMILES IDX 9 13 8 15 1 16 2 17 3 18 4 19 6 20 5 21 7 22 21 23 22 24
REMARK SMILES IDX 23 25 24 26 25 28 26 29 27 30 79 31 28 32 78 33 29 34 30 35
REMARK SMILES IDX 31 36 72 37 32 38 77 39 71 40 73 41 33 42 76 43 70 44 69 45
REMARK SMILES IDX 34 47 60 48 43 49 59 50 44 51 47 52 58 53 74 54 45 55 46 56
REMARK SMILES IDX 57 58 75 59 48 60 35 61 36 62 41 63 37 64 38 65 40 66 42 67
REMARK SMILES IDX 39 68 61 69 62 70 67 71 63 72 64 73 66 74 68 75 65 76 49 77
REMARK SMILES IDX 50 78 55 79 51 80 52 81 54 82 56 83 53 84
REMARK H PARENT 19 5 9 14 23 27 73 46 47 57
REMARK Flexibility Score: inf
ROOT
ATOM      1  C   UNL A   1      31.656  30.668  25.850  1.00  0.00     0.117 C 
ENDROOT
BRANCH   1   2
ATOM      2  N   UNL A   1      31.791  29.585  26.804  1.00  0.00    -0.356 N 
ATOM      3  C   UNL A   1      32.717  28.582  26.818  1.00  0.00     0.224 C 
ATOM      4  O   UNL A   1      32.587  27.676  27.644  1.00  0.00    -0.275 OA
ATOM      5  H   UNL A   1      31.130  29.571  27.534  1.00  0.00     0.163 HD
BRANCH   3   6
ATOM      6  C   UNL A   1      33.889  28.623  25.853  1.00  0.00     0.137 C 
BRANCH   6   7
ATOM      7  C   UNL A   1      33.724  27.732  24.638  1.00  0.00    -0.015 A 
ATOM      8  C   UNL A   1      33.934  26.336  24.670  1.00  0.00     0.042 A 
ATOM      9  C   UNL A   1      33.848  25.613  23.464  1.00  0.00     0.026 A 
ATOM     10  C   UNL A   1      33.524  26.238  22.261  1.00  0.00     0.002 A 
ATOM     11  C   UNL A   1      33.371  28.343  23.416  1.00  0.00     0.006 A 
ATOM     12  C   UNL A   1      33.272  27.602  22.239  1.00  0.00     0.000 A 
BRANCH   8  13
ATOM     13  N   UNL A   1      34.169  25.588  25.840  1.00  0.00    -0.355 N 
ATOM     14  H   UNL A   1      34.550  26.120  26.576  1.00  0.00     0.167 HD
BRANCH  13  15
ATOM     15  C   UNL A   1      33.969  24.228  26.173  1.00  0.00     0.044 A 
ATOM     16  C   UNL A   1      36.462  23.841  25.728  1.00  0.00     0.046 C 
ATOM     17  C   UNL A   1      35.097  23.362  26.156  1.00  0.00    -0.027 A 
ATOM     18  C   UNL A   1      34.969  22.026  26.567  1.00  0.00     0.005 A 
ATOM     19  C   UNL A   1      33.746  21.532  26.999  1.00  0.00     0.001 A 
ATOM     20  C   UNL A   1      32.716  23.697  26.566  1.00  0.00    -0.027 A 
ATOM     21  C   UNL A   1      32.631  22.361  26.999  1.00  0.00     0.005 A 
ATOM     22  C   UNL A   1      31.428  24.476  26.517  1.00  0.00     0.046 C 
ENDBRANCH  13  15
ENDBRANCH   8  13
ENDBRANCH   6   7
ENDBRANCH   3   6
ENDBRANCH   1   2
BRANCH   1  23
ATOM     23  C   UNL A   1      31.354  31.996  26.538  1.00  0.00     0.042 C 
BRANCH  23  24
ATOM     24  C   UNL A   1      32.556  32.603  27.254  1.00  0.00     0.118 C 
BRANCH  24  25
ATOM     25  N   UNL A   1      32.355  34.007  27.586  1.00  0.00    -0.352 N 
ATOM     26  C   UNL A   1      32.991  34.796  28.507  1.00  0.00     0.251 C 
ATOM     27  H   UNL A   1      31.652  34.460  27.067  1.00  0.00     0.163 HD
ATOM     28  O   UNL A   1      32.530  35.907  28.779  1.00  0.00    -0.269 OA
BRANCH  26  29
ATOM     29  C   UNL A   1      34.212  34.323  29.189  1.00  0.00     0.039 A 
ATOM     30  C   UNL A   1      34.085  33.660  30.413  1.00  0.00     0.014 A 
ATOM     31  C   UNL A   1      35.480  34.554  28.645  1.00  0.00     0.014 A 
ATOM     32  C   UNL A   1      35.222  33.166  31.054  1.00  0.00     0.010 A 
ATOM     33  C   UNL A   1      36.605  34.001  29.251  1.00  0.00     0.010 A 
ATOM     34  C   UNL A   1      36.485  33.297  30.458  1.00  0.00    -0.014 A 
BRANCH  34  35
ATOM     35  C   UNL A   1      37.687  32.671  31.063  1.00  0.00     0.031 A 
ATOM     36  C   UNL A   1      38.305  31.450  30.445  1.00  0.00     0.074 A 
ATOM     37  C   UNL A   1      38.177  33.169  32.215  1.00  0.00     0.049 A 
ATOM     38  N   UNL A   1      39.309  30.726  30.872  1.00  0.00    -0.248 NA
ATOM     39  C   UNL A   1      37.701  30.962  29.194  1.00  0.00     0.031 C 
ATOM     40  C   UNL A   1      37.637  34.325  32.933  1.00  0.00     0.029 A 
ATOM     41  N   UNL A   1      39.231  32.759  32.991  1.00  0.00    -0.354 N 
ATOM     42  C   UNL A   1      39.450  29.695  29.953  1.00  0.00     0.074 A 
ATOM     43  C   UNL A   1      38.400  29.858  28.969  1.00  0.00     0.031 C 
ATOM     44  C   UNL A   1      38.375  34.543  34.032  1.00  0.00     0.029 A 
ATOM     45  C   UNL A   1      39.412  33.520  34.120  1.00  0.00     0.049 A 
ATOM     46  H   UNL A   1      39.804  31.992  32.760  1.00  0.00     0.167 HD
ATOM     47  C   UNL A   1      40.380  28.711  29.922  1.00  0.00     0.037 A 
ATOM     48  C   UNL A   1      40.303  33.399  35.122  1.00  0.00     0.037 A 
ATOM     49  C   UNL A   1      41.433  28.563  30.894  1.00  0.00     0.049 A 
ATOM     50  C   UNL A   1      41.307  32.283  35.077  1.00  0.00     0.074 A 
ATOM     51  C   UNL A   1      42.467  27.643  30.912  1.00  0.00     0.029 A 
ATOM     52  N   UNL A   1      41.580  29.349  32.027  1.00  0.00    -0.354 N 
ATOM     53  N   UNL A   1      41.476  31.359  34.163  1.00  0.00    -0.248 NA
ATOM     54  C   UNL A   1      42.244  32.191  36.206  1.00  0.00     0.031 C 
ATOM     55  C   UNL A   1      43.208  27.840  32.081  1.00  0.00     0.029 A 
ATOM     56  C   UNL A   1      42.666  28.915  32.769  1.00  0.00     0.049 A 
ATOM     57  H   UNL A   1      40.997  30.106  32.269  1.00  0.00     0.167 HD
ATOM     58  C   UNL A   1      42.547  30.587  34.595  1.00  0.00     0.074 A 
ATOM     59  C   UNL A   1      43.001  31.165  35.843  1.00  0.00     0.031 C 
ATOM     60  C   UNL A   1      43.101  29.496  34.013  1.00  0.00     0.037 A 
BRANCH  47  61
ATOM     61  C   UNL A   1      40.303  27.715  28.802  1.00  0.00     0.057 A 
ATOM     62  C   UNL A   1      39.534  26.547  28.902  1.00  0.00     0.134 A 
ATOM     63  C   UNL A   1      40.972  27.945  27.593  1.00  0.00     0.134 A 
ATOM     64  F   UNL A   1      38.878  26.261  30.036  1.00  0.00    -0.206 F 
ATOM     65  C   UNL A   1      39.454  25.633  27.850  1.00  0.00     0.040 A 
ATOM     66  C   UNL A   1      40.877  27.052  26.524  1.00  0.00     0.040 A 
ATOM     67  F   UNL A   1      41.720  29.047  27.426  1.00  0.00    -0.206 F 
ATOM     68  C   UNL A   1      40.122  25.888  26.654  1.00  0.00     0.006 A 
ENDBRANCH  47  61
BRANCH  48  69
ATOM     69  C   UNL A   1      40.291  34.366  36.247  1.00  0.00     0.057 A 
ATOM     70  C   UNL A   1      39.540  34.119  37.402  1.00  0.00     0.134 A 
ATOM     71  C   UNL A   1      41.024  35.558  36.198  1.00  0.00     0.134 A 
ATOM     72  F   UNL A   1      38.803  33.003  37.501  1.00  0.00    -0.206 F 
ATOM     73  C   UNL A   1      39.504  35.029  38.460  1.00  0.00     0.040 A 
ATOM     74  C   UNL A   1      41.017  36.466  37.258  1.00  0.00     0.040 A 
ATOM     75  F   UNL A   1      41.770  35.851  35.122  1.00  0.00    -0.206 F 
ATOM     76  C   UNL A   1      40.249  36.204  38.391  1.00  0.00     0.006 A 
ENDBRANCH  48  69
BRANCH  60  77
ATOM     77  C   UNL A   1      44.268  28.866  34.715  1.00  0.00     0.057 A 
ATOM     78  C   UNL A   1      44.099  27.822  35.632  1.00  0.00     0.134 A 
ATOM     79  C   UNL A   1      45.577  29.287  34.446  1.00  0.00     0.134 A 
ATOM     80  F   UNL A   1      42.870  27.383  35.945  1.00  0.00    -0.206 F 
ATOM     81  C   UNL A   1      45.189  27.231  36.274  1.00  0.00     0.040 A 
ATOM     82  C   UNL A   1      46.677  28.686  35.061  1.00  0.00     0.040 A 
ATOM     83  F   UNL A   1      45.809  30.278  33.572  1.00  0.00    -0.206 F 
ATOM     84  C   UNL A   1      46.484  27.659  35.982  1.00  0.00     0.006 A 
ENDBRANCH  60  77
ENDBRANCH  34  35
ENDBRANCH  26  29
ENDBRANCH  24  25
ENDBRANCH  23  24
ENDBRANCH   1  23
TORSDOF 13
ENDMDL
