MODEL 1
REMARK VINA RESULT:      -9.8      0.000      0.000
REMARK SMILES C[NH2+]CCCC(=O)NC[C@@H]1CC[C@H](C(=O)NCCCNC(=O)c2ccc(-c3c4nc(c(-c5c(F)cccc5F)c5ccc([nH]5)c(-c5c(F)cccc5F)c5nc(c(-c6c(F)cccc6F)c6ccc3[nH]6)C=C5)C=C4)cc2)O1
REMARK SMILES IDX 14 1 15 2 16 3 13 5 10 6 11 7 77 8 12 9 9 10 8 11 6 12 7 13
REMARK SMILES IDX 5 15 4 16 3 17 2 18 1 19 17 22 18 23 19 24 20 25 21 26 22 28
REMARK SMILES IDX 23 29 24 30 76 31 25 32 75 33 26 34 27 35 28 36 69 37 29 38
REMARK SMILES IDX 74 39 68 40 70 41 30 42 73 43 67 44 66 45 31 47 57 48 40 49
REMARK SMILES IDX 56 50 41 51 44 52 55 53 71 54 42 55 43 56 54 58 72 59 45 60
REMARK SMILES IDX 32 61 33 62 38 63 34 64 35 65 37 66 39 67 36 68 58 69 59 70
REMARK SMILES IDX 64 71 60 72 61 73 63 74 65 75 62 76 46 77 47 78 52 79 48 80
REMARK SMILES IDX 49 81 51 82 53 83 50 84
REMARK H PARENT 16 4 8 14 2 20 2 21 20 27 70 46 44 57
REMARK Flexibility Score: inf
ROOT
ATOM      1  C   UNL A   1      42.490  18.743  26.156  1.00  0.00     0.249 C 
ATOM      2  O   UNL A   1      42.359  17.639  25.619  1.00  0.00    -0.272 OA
ATOM      3  N   UNL A   1      41.458  19.197  26.933  1.00  0.00    -0.354 N 
ATOM      4  H   UNL A   1      40.570  18.800  26.783  1.00  0.00     0.163 HD
ENDROOT
BRANCH   1   5
ATOM      5  C   UNL A   1      43.742  19.623  25.887  1.00  0.00     0.207 C 
ATOM      6  C   UNL A   1      44.901  21.180  24.652  1.00  0.00     0.138 C 
ATOM      7  C   UNL A   1      45.307  19.841  24.065  1.00  0.00     0.037 C 
ATOM      8  O   UNL A   1      43.602  20.885  25.211  1.00  0.00    -0.363 OA
ATOM      9  C   UNL A   1      44.831  18.861  25.123  1.00  0.00     0.045 C 
BRANCH   6  10
ATOM     10  C   UNL A   1      44.937  22.397  23.696  1.00  0.00     0.147 C 
BRANCH  10  11
ATOM     11  N   UNL A   1      45.451  23.627  24.282  1.00  0.00    -0.353 N 
ATOM     12  C   UNL A   1      44.919  24.540  25.132  1.00  0.00     0.220 C 
ATOM     13  O   UNL A   1      45.644  25.483  25.463  1.00  0.00    -0.275 OA
ATOM     14  H   UNL A   1      46.371  23.839  24.003  1.00  0.00     0.163 HD
BRANCH  12  15
ATOM     15  C   UNL A   1      43.502  24.433  25.658  1.00  0.00     0.106 C 
BRANCH  15  16
ATOM     16  C   UNL A   1      43.452  24.123  27.149  1.00  0.00     0.071 C 
BRANCH  16  17
ATOM     17  C   UNL A   1      44.652  23.311  27.644  1.00  0.00     0.260 C 
BRANCH  17  18
ATOM     18  N   UNL A   1      44.480  22.734  28.972  1.00  0.00    -0.349 N 
ATOM     19  C   UNL A   1      43.297  23.270  29.631  1.00  0.00     0.330 C 
ATOM     20  H   UNL A   1      44.382  21.722  28.885  1.00  0.00     0.346 HD
ATOM     21  H   UNL A   1      45.298  22.970  29.534  1.00  0.00     0.346 HD
ENDBRANCH  17  18
ENDBRANCH  16  17
ENDBRANCH  15  16
ENDBRANCH  12  15
ENDBRANCH  10  11
ENDBRANCH   6  10
ENDBRANCH   1   5
BRANCH   3  22
ATOM     22  C   UNL A   1      41.567  20.207  27.949  1.00  0.00     0.117 C 
BRANCH  22  23
ATOM     23  C   UNL A   1      40.840  21.507  27.667  1.00  0.00     0.042 C 
BRANCH  23  24
ATOM     24  C   UNL A   1      40.671  21.793  26.178  1.00  0.00     0.118 C 
BRANCH  24  25
ATOM     25  N   UNL A   1      39.325  22.220  25.783  1.00  0.00    -0.352 N 
ATOM     26  C   UNL A   1      38.615  23.373  26.030  1.00  0.00     0.251 C 
ATOM     27  H   UNL A   1      38.837  21.558  25.241  1.00  0.00     0.163 HD
ATOM     28  O   UNL A   1      37.449  23.467  25.651  1.00  0.00    -0.269 OA
BRANCH  26  29
ATOM     29  C   UNL A   1      39.237  24.489  26.764  1.00  0.00     0.039 A 
ATOM     30  C   UNL A   1      40.012  25.431  26.078  1.00  0.00     0.014 A 
ATOM     31  C   UNL A   1      39.035  24.616  28.133  1.00  0.00     0.014 A 
ATOM     32  C   UNL A   1      40.484  26.559  26.756  1.00  0.00     0.010 A 
ATOM     33  C   UNL A   1      39.376  25.799  28.766  1.00  0.00     0.010 A 
ATOM     34  C   UNL A   1      40.114  26.782  28.090  1.00  0.00    -0.014 A 
BRANCH  34  35
ATOM     35  C   UNL A   1      40.477  28.013  28.839  1.00  0.00     0.031 A 
ATOM     36  C   UNL A   1      41.805  28.071  29.552  1.00  0.00     0.074 A 
ATOM     37  C   UNL A   1      39.569  28.995  29.007  1.00  0.00     0.049 A 
ATOM     38  N   UNL A   1      42.223  28.913  30.461  1.00  0.00    -0.248 NA
ATOM     39  C   UNL A   1      42.767  26.995  29.248  1.00  0.00     0.031 C 
ATOM     40  C   UNL A   1      38.225  29.027  28.426  1.00  0.00     0.029 A 
ATOM     41  N   UNL A   1      39.632  30.149  29.749  1.00  0.00    -0.354 N 
ATOM     42  C   UNL A   1      43.461  28.434  30.875  1.00  0.00     0.074 A 
ATOM     43  C   UNL A   1      43.702  27.201  30.162  1.00  0.00     0.031 C 
ATOM     44  C   UNL A   1      37.600  30.150  28.815  1.00  0.00     0.029 A 
ATOM     45  C   UNL A   1      38.474  30.891  29.715  1.00  0.00     0.049 A 
ATOM     46  H   UNL A   1      40.430  30.421  30.257  1.00  0.00     0.167 HD
ATOM     47  C   UNL A   1      44.330  28.989  31.751  1.00  0.00     0.037 A 
ATOM     48  C   UNL A   1      38.152  32.031  30.355  1.00  0.00     0.037 A 
ATOM     49  C   UNL A   1      44.118  30.261  32.387  1.00  0.00     0.049 A 
ATOM     50  C   UNL A   1      39.164  32.656  31.277  1.00  0.00     0.074 A 
ATOM     51  C   UNL A   1      44.980  30.969  33.204  1.00  0.00     0.029 A 
ATOM     52  N   UNL A   1      42.967  31.022  32.258  1.00  0.00    -0.354 N 
ATOM     53  N   UNL A   1      40.360  32.231  31.604  1.00  0.00    -0.248 NA
ATOM     54  C   UNL A   1      38.784  33.925  31.915  1.00  0.00     0.031 C 
ATOM     55  C   UNL A   1      44.335  32.143  33.602  1.00  0.00     0.029 A 
ATOM     56  C   UNL A   1      43.091  32.187  32.992  1.00  0.00     0.049 A 
ATOM     57  H   UNL A   1      42.178  30.771  31.723  1.00  0.00     0.167 HD
ATOM     58  C   UNL A   1      40.888  33.194  32.453  1.00  0.00     0.074 A 
ATOM     59  C   UNL A   1      39.887  34.233  32.580  1.00  0.00     0.031 C 
ATOM     60  C   UNL A   1      42.090  33.218  33.078  1.00  0.00     0.037 A 
BRANCH  47  61
ATOM     61  C   UNL A   1      45.600  28.247  32.052  1.00  0.00     0.057 A 
ATOM     62  C   UNL A   1      46.786  28.491  31.347  1.00  0.00     0.134 A 
ATOM     63  C   UNL A   1      45.653  27.322  33.101  1.00  0.00     0.134 A 
ATOM     64  F   UNL A   1      46.802  29.356  30.321  1.00  0.00    -0.206 F 
ATOM     65  C   UNL A   1      47.972  27.826  31.661  1.00  0.00     0.040 A 
ATOM     66  C   UNL A   1      46.841  26.673  33.445  1.00  0.00     0.040 A 
ATOM     67  F   UNL A   1      44.556  27.043  33.822  1.00  0.00    -0.206 F 
ATOM     68  C   UNL A   1      48.005  26.923  32.721  1.00  0.00     0.006 A 
ENDBRANCH  47  61
BRANCH  48  69
ATOM     69  C   UNL A   1      36.827  32.671  30.142  1.00  0.00     0.057 A 
ATOM     70  C   UNL A   1      36.631  33.588  29.100  1.00  0.00     0.134 A 
ATOM     71  C   UNL A   1      35.741  32.419  30.987  1.00  0.00     0.134 A 
ATOM     72  F   UNL A   1      37.638  33.885  28.266  1.00  0.00    -0.206 F 
ATOM     73  C   UNL A   1      35.417  34.256  28.930  1.00  0.00     0.040 A 
ATOM     74  C   UNL A   1      34.512  33.059  30.810  1.00  0.00     0.040 A 
ATOM     75  F   UNL A   1      35.857  31.545  31.998  1.00  0.00    -0.206 F 
ATOM     76  C   UNL A   1      34.352  33.990  29.786  1.00  0.00     0.006 A 
ENDBRANCH  48  69
BRANCH  60  77
ATOM     77  C   UNL A   1      42.411  34.428  33.904  1.00  0.00     0.057 A 
ATOM     78  C   UNL A   1      42.195  34.459  35.287  1.00  0.00     0.134 A 
ATOM     79  C   UNL A   1      42.993  35.556  33.310  1.00  0.00     0.134 A 
ATOM     80  F   UNL A   1      41.630  33.414  35.911  1.00  0.00    -0.206 F 
ATOM     81  C   UNL A   1      42.524  35.581  36.048  1.00  0.00     0.040 A 
ATOM     82  C   UNL A   1      43.354  36.671  34.066  1.00  0.00     0.040 A 
ATOM     83  F   UNL A   1      43.236  35.583  31.991  1.00  0.00    -0.206 F 
ATOM     84  C   UNL A   1      43.114  36.688  35.438  1.00  0.00     0.006 A 
ENDBRANCH  60  77
ENDBRANCH  34  35
ENDBRANCH  26  29
ENDBRANCH  24  25
ENDBRANCH  23  24
ENDBRANCH  22  23
ENDBRANCH   3  22
TORSDOF 16
ENDMDL
MODEL 2
REMARK VINA RESULT:      -9.6      4.094     11.477
REMARK SMILES C[NH2+]CCCC(=O)NC[C@@H]1CC[C@H](C(=O)NCCCNC(=O)c2ccc(-c3c4nc(c(-c5c(F)cccc5F)c5ccc([nH]5)c(-c5c(F)cccc5F)c5nc(c(-c6c(F)cccc6F)c6ccc3[nH]6)C=C5)C=C4)cc2)O1
REMARK SMILES IDX 14 1 15 2 16 3 13 5 10 6 11 7 77 8 12 9 9 10 8 11 6 12 7 13
REMARK SMILES IDX 5 15 4 16 3 17 2 18 1 19 17 22 18 23 19 24 20 25 21 26 22 28
REMARK SMILES IDX 23 29 24 30 76 31 25 32 75 33 26 34 27 35 28 36 69 37 29 38
REMARK SMILES IDX 74 39 68 40 70 41 30 42 73 43 67 44 66 45 31 47 57 48 40 49
REMARK SMILES IDX 56 50 41 51 44 52 55 53 71 54 42 55 43 56 54 58 72 59 45 60
REMARK SMILES IDX 32 61 33 62 38 63 34 64 35 65 37 66 39 67 36 68 58 69 59 70
REMARK SMILES IDX 64 71 60 72 61 73 63 74 65 75 62 76 46 77 47 78 52 79 48 80
REMARK SMILES IDX 49 81 51 82 53 83 50 84
REMARK H PARENT 16 4 8 14 2 20 2 21 20 27 70 46 44 57
REMARK Flexibility Score: inf
ROOT
ATOM      1  C   UNL A   1      32.941  35.887  30.247  1.00  0.00     0.249 C 
ATOM      2  O   UNL A   1      31.804  36.324  30.442  1.00  0.00    -0.272 OA
ATOM      3  N   UNL A   1      33.182  35.255  29.057  1.00  0.00    -0.354 N 
ATOM      4  H   UNL A   1      32.405  34.905  28.565  1.00  0.00     0.163 HD
ENDROOT
BRANCH   1   5
ATOM      5  C   UNL A   1      34.034  35.972  31.349  1.00  0.00     0.207 C 
ATOM      6  C   UNL A   1      34.987  35.269  33.321  1.00  0.00     0.138 C 
ATOM      7  C   UNL A   1      34.023  36.368  33.728  1.00  0.00     0.037 C 
ATOM      8  O   UNL A   1      34.405  34.795  32.087  1.00  0.00    -0.363 OA
ATOM      9  C   UNL A   1      33.712  37.039  32.401  1.00  0.00     0.045 C 
BRANCH   6  10
ATOM     10  C   UNL A   1      35.271  34.169  34.372  1.00  0.00     0.147 C 
BRANCH  10  11
ATOM     11  N   UNL A   1      36.676  33.827  34.545  1.00  0.00    -0.353 N 
ATOM     12  C   UNL A   1      37.500  32.953  33.917  1.00  0.00     0.220 C 
ATOM     13  O   UNL A   1      38.674  32.920  34.297  1.00  0.00    -0.275 OA
ATOM     14  H   UNL A   1      37.116  34.334  35.265  1.00  0.00     0.163 HD
BRANCH  12  15
ATOM     15  C   UNL A   1      37.023  32.043  32.803  1.00  0.00     0.106 C 
BRANCH  15  16
ATOM     16  C   UNL A   1      37.332  32.599  31.419  1.00  0.00     0.071 C 
BRANCH  16  17
ATOM     17  C   UNL A   1      37.878  34.029  31.444  1.00  0.00     0.260 C 
BRANCH  17  18
ATOM     18  N   UNL A   1      38.103  34.609  30.124  1.00  0.00    -0.349 N 
ATOM     19  C   UNL A   1      38.131  33.581  29.094  1.00  0.00     0.330 C 
ATOM     20  H   UNL A   1      37.350  35.267  29.919  1.00  0.00     0.346 HD
ATOM     21  H   UNL A   1      39.005  35.085  30.132  1.00  0.00     0.346 HD
ENDBRANCH  17  18
ENDBRANCH  16  17
ENDBRANCH  15  16
ENDBRANCH  12  15
ENDBRANCH  10  11
ENDBRANCH   6  10
ENDBRANCH   1   5
BRANCH   3  22
ATOM     22  C   UNL A   1      34.479  35.061  28.469  1.00  0.00     0.117 C 
BRANCH  22  23
ATOM     23  C   UNL A   1      34.747  33.679  27.906  1.00  0.00     0.042 C 
BRANCH  23  24
ATOM     24  C   UNL A   1      34.573  32.565  28.933  1.00  0.00     0.118 C 
BRANCH  24  25
ATOM     25  N   UNL A   1      34.062  31.302  28.388  1.00  0.00    -0.352 N 
ATOM     26  C   UNL A   1      34.674  30.099  28.123  1.00  0.00     0.251 C 
ATOM     27  H   UNL A   1      33.102  31.319  28.171  1.00  0.00     0.163 HD
ATOM     28  O   UNL A   1      34.039  29.195  27.583  1.00  0.00    -0.269 OA
BRANCH  26  29
ATOM     29  C   UNL A   1      36.092  29.892  28.466  1.00  0.00     0.039 A 
ATOM     30  C   UNL A   1      36.442  29.409  29.732  1.00  0.00     0.014 A 
ATOM     31  C   UNL A   1      37.079  30.157  27.524  1.00  0.00     0.014 A 
ATOM     32  C   UNL A   1      37.776  29.087  30.002  1.00  0.00     0.010 A 
ATOM     33  C   UNL A   1      38.368  29.704  27.740  1.00  0.00     0.010 A 
ATOM     34  C   UNL A   1      38.738  29.172  28.984  1.00  0.00    -0.014 A 
BRANCH  34  35
ATOM     35  C   UNL A   1      40.148  28.736  29.160  1.00  0.00     0.031 A 
ATOM     36  C   UNL A   1      41.166  29.733  29.653  1.00  0.00     0.074 A 
ATOM     37  C   UNL A   1      40.536  27.517  28.737  1.00  0.00     0.049 A 
ATOM     38  N   UNL A   1      42.472  29.662  29.639  1.00  0.00    -0.248 NA
ATOM     39  C   UNL A   1      40.644  31.012  30.170  1.00  0.00     0.031 C 
ATOM     40  C   UNL A   1      39.659  26.485  28.179  1.00  0.00     0.029 A 
ATOM     41  N   UNL A   1      41.785  26.949  28.684  1.00  0.00    -0.354 N 
ATOM     42  C   UNL A   1      42.919  30.900  30.086  1.00  0.00     0.074 A 
ATOM     43  C   UNL A   1      41.753  31.722  30.308  1.00  0.00     0.031 C 
ATOM     44  C   UNL A   1      40.392  25.406  27.858  1.00  0.00     0.029 A 
ATOM     45  C   UNL A   1      41.795  25.686  28.136  1.00  0.00     0.049 A 
ATOM     46  H   UNL A   1      42.598  27.401  29.006  1.00  0.00     0.167 HD
ATOM     47  C   UNL A   1      44.190  31.305  30.315  1.00  0.00     0.037 A 
ATOM     48  C   UNL A   1      42.825  24.859  27.873  1.00  0.00     0.037 A 
ATOM     49  C   UNL A   1      45.337  30.450  30.175  1.00  0.00     0.049 A 
ATOM     50  C   UNL A   1      44.222  25.315  28.196  1.00  0.00     0.074 A 
ATOM     51  C   UNL A   1      46.656  30.721  30.486  1.00  0.00     0.029 A 
ATOM     52  N   UNL A   1      45.293  29.148  29.699  1.00  0.00    -0.354 N 
ATOM     53  N   UNL A   1      44.626  26.463  28.686  1.00  0.00    -0.248 NA
ATOM     54  C   UNL A   1      45.308  24.360  27.935  1.00  0.00     0.031 C 
ATOM     55  C   UNL A   1      47.419  29.595  30.163  1.00  0.00     0.029 A 
ATOM     56  C   UNL A   1      46.566  28.608  29.696  1.00  0.00     0.049 A 
ATOM     57  H   UNL A   1      44.477  28.679  29.407  1.00  0.00     0.167 HD
ATOM     58  C   UNL A   1      46.003  26.353  28.826  1.00  0.00     0.074 A 
ATOM     59  C   UNL A   1      46.363  25.023  28.383  1.00  0.00     0.031 C 
ATOM     60  C   UNL A   1      46.893  27.271  29.276  1.00  0.00     0.037 A 
BRANCH  47  61
ATOM     61  C   UNL A   1      44.410  32.718  30.771  1.00  0.00     0.057 A 
ATOM     62  C   UNL A   1      44.454  33.062  32.129  1.00  0.00     0.134 A 
ATOM     63  C   UNL A   1      44.642  33.739  29.840  1.00  0.00     0.134 A 
ATOM     64  F   UNL A   1      44.227  32.135  33.072  1.00  0.00    -0.206 F 
ATOM     65  C   UNL A   1      44.700  34.372  32.543  1.00  0.00     0.040 A 
ATOM     66  C   UNL A   1      44.919  35.047  30.243  1.00  0.00     0.040 A 
ATOM     67  F   UNL A   1      44.619  33.480  28.524  1.00  0.00    -0.206 F 
ATOM     68  C   UNL A   1      44.945  35.366  31.599  1.00  0.00     0.006 A 
ENDBRANCH  47  61
BRANCH  48  69
ATOM     69  C   UNL A   1      42.585  23.513  27.290  1.00  0.00     0.057 A 
ATOM     70  C   UNL A   1      42.304  22.414  28.113  1.00  0.00     0.134 A 
ATOM     71  C   UNL A   1      42.669  23.279  25.914  1.00  0.00     0.134 A 
ATOM     72  F   UNL A   1      42.227  22.569  29.443  1.00  0.00    -0.206 F 
ATOM     73  C   UNL A   1      42.151  21.128  27.592  1.00  0.00     0.040 A 
ATOM     74  C   UNL A   1      42.489  22.002  25.376  1.00  0.00     0.040 A 
ATOM     75  F   UNL A   1      42.924  24.288  25.068  1.00  0.00    -0.206 F 
ATOM     76  C   UNL A   1      42.242  20.920  26.218  1.00  0.00     0.006 A 
ENDBRANCH  48  69
BRANCH  60  77
ATOM     77  C   UNL A   1      48.329  26.847  29.367  1.00  0.00     0.057 A 
ATOM     78  C   UNL A   1      49.242  27.100  28.337  1.00  0.00     0.134 A 
ATOM     79  C   UNL A   1      48.811  26.225  30.526  1.00  0.00     0.134 A 
ATOM     80  F   UNL A   1      48.838  27.682  27.197  1.00  0.00    -0.206 F 
ATOM     81  C   UNL A   1      50.581  26.727  28.445  1.00  0.00     0.040 A 
ATOM     82  C   UNL A   1      50.154  25.875  30.658  1.00  0.00     0.040 A 
ATOM     83  F   UNL A   1      47.988  25.967  31.554  1.00  0.00    -0.206 F 
ATOM     84  C   UNL A   1      51.042  26.120  29.613  1.00  0.00     0.006 A 
ENDBRANCH  60  77
ENDBRANCH  34  35
ENDBRANCH  26  29
ENDBRANCH  24  25
ENDBRANCH  23  24
ENDBRANCH  22  23
ENDBRANCH   3  22
TORSDOF 16
ENDMDL
MODEL 3
REMARK VINA RESULT:      -9.4      4.851      9.450
REMARK SMILES C[NH2+]CCCC(=O)NC[C@@H]1CC[C@H](C(=O)NCCCNC(=O)c2ccc(-c3c4nc(c(-c5c(F)cccc5F)c5ccc([nH]5)c(-c5c(F)cccc5F)c5nc(c(-c6c(F)cccc6F)c6ccc3[nH]6)C=C5)C=C4)cc2)O1
REMARK SMILES IDX 14 1 15 2 16 3 13 5 10 6 11 7 77 8 12 9 9 10 8 11 6 12 7 13
REMARK SMILES IDX 5 15 4 16 3 17 2 18 1 19 17 22 18 23 19 24 20 25 21 26 22 28
REMARK SMILES IDX 23 29 24 30 76 31 25 32 75 33 26 34 27 35 28 36 69 37 29 38
REMARK SMILES IDX 74 39 68 40 70 41 30 42 73 43 67 44 66 45 31 47 57 48 40 49
REMARK SMILES IDX 56 50 41 51 44 52 55 53 71 54 42 55 43 56 54 58 72 59 45 60
REMARK SMILES IDX 32 61 33 62 38 63 34 64 35 65 37 66 39 67 36 68 58 69 59 70
REMARK SMILES IDX 64 71 60 72 61 73 63 74 65 75 62 76 46 77 47 78 52 79 48 80
REMARK SMILES IDX 49 81 51 82 53 83 50 84
REMARK H PARENT 16 4 8 14 2 20 2 21 20 27 70 46 44 57
REMARK Flexibility Score: inf
ROOT
ATOM      1  C   UNL A   1      30.362  28.545  23.282  1.00  0.00     0.249 C 
ATOM      2  O   UNL A   1      29.519  28.578  22.382  1.00  0.00    -0.272 OA
ATOM      3  N   UNL A   1      30.776  29.740  23.808  1.00  0.00    -0.354 N 
ATOM      4  H   UNL A   1      30.638  30.546  23.262  1.00  0.00     0.163 HD
ENDROOT
BRANCH   1   5
ATOM      5  C   UNL A   1      30.997  27.202  23.739  1.00  0.00     0.207 C 
ATOM      6  C   UNL A   1      32.085  25.221  23.309  1.00  0.00     0.138 C 
ATOM      7  C   UNL A   1      30.610  24.877  23.226  1.00  0.00     0.037 C 
ATOM      8  O   UNL A   1      32.087  26.631  22.994  1.00  0.00    -0.363 OA
ATOM      9  C   UNL A   1      29.955  26.086  23.872  1.00  0.00     0.045 C 
BRANCH   6  10
ATOM     10  C   UNL A   1      33.048  24.362  22.454  1.00  0.00     0.147 C 
BRANCH  10  11
ATOM     11  N   UNL A   1      32.525  23.064  22.052  1.00  0.00    -0.353 N 
ATOM     12  C   UNL A   1      32.335  21.897  22.716  1.00  0.00     0.220 C 
ATOM     13  O   UNL A   1      31.837  20.966  22.077  1.00  0.00    -0.275 OA
ATOM     14  H   UNL A   1      32.256  23.026  21.106  1.00  0.00     0.163 HD
BRANCH  12  15
ATOM     15  C   UNL A   1      32.715  21.718  24.172  1.00  0.00     0.106 C 
BRANCH  15  16
ATOM     16  C   UNL A   1      33.204  20.309  24.482  1.00  0.00     0.071 C 
BRANCH  16  17
ATOM     17  C   UNL A   1      33.022  19.909  25.948  1.00  0.00     0.260 C 
BRANCH  17  18
ATOM     18  N   UNL A   1      32.904  18.471  26.168  1.00  0.00    -0.349 N 
ATOM     19  C   UNL A   1      32.437  17.791  24.969  1.00  0.00     0.330 C 
ATOM     20  H   UNL A   1      33.818  18.099  26.428  1.00  0.00     0.346 HD
ATOM     21  H   UNL A   1      32.226  18.314  26.914  1.00  0.00     0.346 HD
ENDBRANCH  17  18
ENDBRANCH  16  17
ENDBRANCH  15  16
ENDBRANCH  12  15
ENDBRANCH  10  11
ENDBRANCH   6  10
ENDBRANCH   1   5
BRANCH   3  22
ATOM     22  C   UNL A   1      31.398  29.909  25.092  1.00  0.00     0.117 C 
BRANCH  22  23
ATOM     23  C   UNL A   1      31.117  31.224  25.792  1.00  0.00     0.042 C 
BRANCH  23  24
ATOM     24  C   UNL A   1      32.199  31.618  26.793  1.00  0.00     0.118 C 
BRANCH  24  25
ATOM     25  N   UNL A   1      32.137  33.011  27.248  1.00  0.00    -0.352 N 
ATOM     26  C   UNL A   1      32.991  33.767  28.017  1.00  0.00     0.251 C 
ATOM     27  H   UNL A   1      31.334  33.495  26.947  1.00  0.00     0.163 HD
ATOM     28  O   UNL A   1      32.677  34.913  28.334  1.00  0.00    -0.269 OA
BRANCH  26  29
ATOM     29  C   UNL A   1      34.273  33.207  28.480  1.00  0.00     0.039 A 
ATOM     30  C   UNL A   1      35.453  33.944  28.332  1.00  0.00     0.014 A 
ATOM     31  C   UNL A   1      34.304  31.954  29.082  1.00  0.00     0.014 A 
ATOM     32  C   UNL A   1      36.640  33.465  28.895  1.00  0.00     0.010 A 
ATOM     33  C   UNL A   1      35.440  31.552  29.762  1.00  0.00     0.010 A 
ATOM     34  C   UNL A   1      36.627  32.296  29.670  1.00  0.00    -0.014 A 
BRANCH  34  35
ATOM     35  C   UNL A   1      37.820  31.789  30.396  1.00  0.00     0.031 A 
ATOM     36  C   UNL A   1      38.671  30.724  29.752  1.00  0.00     0.074 A 
ATOM     37  C   UNL A   1      38.045  32.163  31.672  1.00  0.00     0.049 A 
ATOM     38  N   UNL A   1      39.589  29.960  30.286  1.00  0.00    -0.248 NA
ATOM     39  C   UNL A   1      38.407  30.435  28.330  1.00  0.00     0.031 C 
ATOM     40  C   UNL A   1      37.254  33.135  32.430  1.00  0.00     0.029 A 
ATOM     41  N   UNL A   1      38.994  31.742  32.570  1.00  0.00    -0.354 N 
ATOM     42  C   UNL A   1      39.961  29.068  29.286  1.00  0.00     0.074 A 
ATOM     43  C   UNL A   1      39.135  29.346  28.135  1.00  0.00     0.031 C 
ATOM     44  C   UNL A   1      37.761  33.250  33.668  1.00  0.00     0.029 A 
ATOM     45  C   UNL A   1      38.876  32.323  33.811  1.00  0.00     0.049 A 
ATOM     46  H   UNL A   1      39.693  31.086  32.347  1.00  0.00     0.167 HD
ATOM     47  C   UNL A   1      40.926  28.121  29.318  1.00  0.00     0.037 A 
ATOM     48  C   UNL A   1      39.581  32.115  34.940  1.00  0.00     0.037 A 
ATOM     49  C   UNL A   1      41.802  27.912  30.439  1.00  0.00     0.049 A 
ATOM     50  C   UNL A   1      40.688  31.096  34.926  1.00  0.00     0.074 A 
ATOM     51  C   UNL A   1      42.885  27.057  30.539  1.00  0.00     0.029 A 
ATOM     52  N   UNL A   1      41.705  28.583  31.648  1.00  0.00    -0.354 N 
ATOM     53  N   UNL A   1      41.078  30.309  33.952  1.00  0.00    -0.248 NA
ATOM     54  C   UNL A   1      41.458  30.938  36.168  1.00  0.00     0.031 C 
ATOM     55  C   UNL A   1      43.420  27.183  31.824  1.00  0.00     0.029 A 
ATOM     56  C   UNL A   1      42.700  28.151  32.505  1.00  0.00     0.049 A 
ATOM     57  H   UNL A   1      41.028  29.266  31.864  1.00  0.00     0.167 HD
ATOM     58  C   UNL A   1      42.158  29.594  34.450  1.00  0.00     0.074 A 
ATOM     59  C   UNL A   1      42.372  30.049  35.808  1.00  0.00     0.031 C 
ATOM     60  C   UNL A   1      42.908  28.641  33.842  1.00  0.00     0.037 A 
BRANCH  47  61
ATOM     61  C   UNL A   1      41.111  27.259  28.103  1.00  0.00     0.057 A 
ATOM     62  C   UNL A   1      40.411  26.057  27.932  1.00  0.00     0.134 A 
ATOM     63  C   UNL A   1      41.954  27.666  27.062  1.00  0.00     0.134 A 
ATOM     64  F   UNL A   1      39.597  25.601  28.897  1.00  0.00    -0.206 F 
ATOM     65  C   UNL A   1      40.559  25.283  26.781  1.00  0.00     0.040 A 
ATOM     66  C   UNL A   1      42.087  26.915  25.892  1.00  0.00     0.040 A 
ATOM     67  F   UNL A   1      42.652  28.808  27.156  1.00  0.00    -0.206 F 
ATOM     68  C   UNL A   1      41.390  25.718  25.751  1.00  0.00     0.006 A 
ENDBRANCH  47  61
BRANCH  48  69
ATOM     69  C   UNL A   1      39.281  32.889  36.173  1.00  0.00     0.057 A 
ATOM     70  C   UNL A   1      39.898  34.124  36.413  1.00  0.00     0.134 A 
ATOM     71  C   UNL A   1      38.411  32.405  37.156  1.00  0.00     0.134 A 
ATOM     72  F   UNL A   1      40.756  34.635  35.518  1.00  0.00    -0.206 F 
ATOM     73  C   UNL A   1      39.689  34.831  37.599  1.00  0.00     0.040 A 
ATOM     74  C   UNL A   1      38.170  33.115  38.334  1.00  0.00     0.040 A 
ATOM     75  F   UNL A   1      37.779  31.234  36.986  1.00  0.00    -0.206 F 
ATOM     76  C   UNL A   1      38.820  34.327  38.564  1.00  0.00     0.006 A 
ENDBRANCH  48  69
BRANCH  60  77
ATOM     77  C   UNL A   1      44.058  28.074  34.619  1.00  0.00     0.057 A 
ATOM     78  C   UNL A   1      43.938  26.894  35.363  1.00  0.00     0.134 A 
ATOM     79  C   UNL A   1      45.314  28.691  34.575  1.00  0.00     0.134 A 
ATOM     80  F   UNL A   1      42.757  26.263  35.453  1.00  0.00    -0.206 F 
ATOM     81  C   UNL A   1      45.023  26.360  36.058  1.00  0.00     0.040 A 
ATOM     82  C   UNL A   1      46.414  28.151  35.240  1.00  0.00     0.040 A 
ATOM     83  F   UNL A   1      45.497  29.817  33.869  1.00  0.00    -0.206 F 
ATOM     84  C   UNL A   1      46.269  26.985  35.990  1.00  0.00     0.006 A 
ENDBRANCH  60  77
ENDBRANCH  34  35
ENDBRANCH  26  29
ENDBRANCH  24  25
ENDBRANCH  23  24
ENDBRANCH  22  23
ENDBRANCH   3  22
TORSDOF 16
ENDMDL
