MODEL 1
REMARK VINA RESULT:     -11.5      0.000      0.000
REMARK SMILES CC(C)(C)[N@@H+](CC(=O)NCCCNC(=O)c1ccc(-c2c3nc(c(-c4c(F)cccc4F)c4ccc([nH]4)c(-c4c(F)cccc4F)c4nc(c(-c5c(F)cccc5F)c5ccc2[nH]5)C=C4)C=C3)cc1)C[C@@H]1Cc2cc(F)ccc2O1
REMARK SMILES IDX 10 1 9 2 7 3 8 4 6 6 5 7 2 9 1 10 3 11 4 12 70 13 71 14
REMARK SMILES IDX 72 15 80 16 73 17 79 18 74 19 78 20 75 21 77 22 76 23 11 24
REMARK SMILES IDX 12 25 13 26 14 27 15 29 16 30 17 31 69 32 18 33 68 34 19 35
REMARK SMILES IDX 20 36 21 37 62 38 22 39 67 40 61 41 63 42 23 43 66 44 60 45
REMARK SMILES IDX 59 46 24 48 50 49 33 50 49 51 34 52 37 53 48 54 64 55 35 56
REMARK SMILES IDX 36 57 47 59 65 60 38 61 25 62 26 63 31 64 27 65 28 66 30 67
REMARK SMILES IDX 32 68 29 69 51 70 52 71 57 72 53 73 54 74 56 75 58 76 55 77
REMARK SMILES IDX 39 78 40 79 45 80 41 81 42 82 44 83 46 84 43 85
REMARK H PARENT 9 5 5 8 13 28 63 47 37 58
REMARK Flexibility Score: inf
ROOT
ATOM      1  C   UNL A   1      31.411  27.482  26.508  1.00  0.00     0.118 C 
ENDROOT
BRANCH   1   2
ATOM      2  N   UNL A   1      31.192  26.098  26.898  1.00  0.00    -0.351 N 
ATOM      3  C   UNL A   1      30.957  24.960  26.175  1.00  0.00     0.275 C 
ATOM      4  O   UNL A   1      30.931  23.896  26.800  1.00  0.00    -0.269 OA
ATOM      5  H   UNL A   1      31.217  25.951  27.872  1.00  0.00     0.163 HD
BRANCH   3   6
ATOM      6  C   UNL A   1      30.762  24.999  24.659  1.00  0.00     0.364 C 
BRANCH   6   7
ATOM      7  N   UNL A   1      32.028  24.906  23.899  1.00  0.00    -0.320 N 
ATOM      8  H   UNL A   1      32.910  25.377  24.104  1.00  0.00     0.349 HD
BRANCH   7   9
ATOM      9  C   UNL A   1      32.523  26.067  23.146  1.00  0.00     0.090 C 
ATOM     10  C   UNL A   1      33.023  25.629  21.742  1.00  0.00     0.078 C 
ATOM     11  C   UNL A   1      33.645  26.793  23.920  1.00  0.00     0.078 C 
ATOM     12  C   UNL A   1      31.449  27.125  22.814  1.00  0.00     0.078 C 
ENDBRANCH   7   9
BRANCH   7  13
ATOM     13  C   UNL A   1      32.625  23.564  23.858  1.00  0.00     0.309 C 
BRANCH  13  14
ATOM     14  C   UNL A   1      33.629  22.997  24.901  1.00  0.00     0.232 C 
ATOM     15  C   UNL A   1      34.604  24.027  25.504  1.00  0.00     0.090 C 
ATOM     16  O   UNL A   1      34.351  21.835  24.435  1.00  0.00    -0.484 OA
ATOM     17  C   UNL A   1      35.854  23.237  25.492  1.00  0.00     0.001 A 
ATOM     18  C   UNL A   1      35.619  21.995  24.923  1.00  0.00     0.123 A 
ATOM     19  C   UNL A   1      37.118  23.581  25.938  1.00  0.00     0.047 A 
ATOM     20  C   UNL A   1      36.609  21.035  24.822  1.00  0.00     0.050 A 
ATOM     21  C   UNL A   1      38.128  22.627  25.830  1.00  0.00     0.123 A 
ATOM     22  C   UNL A   1      37.883  21.358  25.291  1.00  0.00     0.043 A 
ATOM     23  F   UNL A   1      39.364  22.930  26.250  1.00  0.00    -0.207 F 
ENDBRANCH  13  14
ENDBRANCH   7  13
ENDBRANCH   6   7
ENDBRANCH   3   6
ENDBRANCH   1   2
BRANCH   1  24
ATOM     24  C   UNL A   1      32.044  28.363  27.589  1.00  0.00     0.042 C 
BRANCH  24  25
ATOM     25  C   UNL A   1      33.435  28.912  27.277  1.00  0.00     0.118 C 
BRANCH  25  26
ATOM     26  N   UNL A   1      33.583  30.278  27.743  1.00  0.00    -0.352 N 
ATOM     27  C   UNL A   1      34.630  30.855  28.416  1.00  0.00     0.251 C 
ATOM     28  H   UNL A   1      32.826  30.875  27.548  1.00  0.00     0.163 HD
ATOM     29  O   UNL A   1      34.455  31.942  28.972  1.00  0.00    -0.269 OA
BRANCH  27  30
ATOM     30  C   UNL A   1      35.970  30.217  28.481  1.00  0.00     0.039 A 
ATOM     31  C   UNL A   1      36.379  29.652  29.695  1.00  0.00     0.014 A 
ATOM     32  C   UNL A   1      36.875  30.288  27.416  1.00  0.00     0.014 A 
ATOM     33  C   UNL A   1      37.686  29.175  29.848  1.00  0.00     0.010 A 
ATOM     34  C   UNL A   1      38.168  29.772  27.557  1.00  0.00     0.010 A 
ATOM     35  C   UNL A   1      38.597  29.243  28.785  1.00  0.00    -0.014 A 
BRANCH  35  36
ATOM     36  C   UNL A   1      40.017  28.845  28.980  1.00  0.00     0.031 A 
ATOM     37  C   UNL A   1      40.976  29.778  29.671  1.00  0.00     0.074 A 
ATOM     38  C   UNL A   1      40.454  27.647  28.547  1.00  0.00     0.049 A 
ATOM     39  N   UNL A   1      42.246  29.612  29.945  1.00  0.00    -0.248 NA
ATOM     40  C   UNL A   1      40.435  31.077  30.103  1.00  0.00     0.031 C 
ATOM     41  C   UNL A   1      39.638  26.650  27.857  1.00  0.00     0.029 A 
ATOM     42  N   UNL A   1      41.695  27.066  28.632  1.00  0.00    -0.354 N 
ATOM     43  C   UNL A   1      42.657  30.782  30.571  1.00  0.00     0.074 A 
ATOM     44  C   UNL A   1      41.512  31.668  30.597  1.00  0.00     0.031 C 
ATOM     45  C   UNL A   1      40.395  25.568  27.602  1.00  0.00     0.029 A 
ATOM     46  C   UNL A   1      41.752  25.807  28.089  1.00  0.00     0.049 A 
ATOM     47  H   UNL A   1      42.472  27.512  29.042  1.00  0.00     0.167 HD
ATOM     48  C   UNL A   1      43.868  31.088  31.097  1.00  0.00     0.037 A 
ATOM     49  C   UNL A   1      42.778  24.940  27.997  1.00  0.00     0.037 A 
ATOM     50  C   UNL A   1      45.007  30.208  31.091  1.00  0.00     0.049 A 
ATOM     51  C   UNL A   1      44.122  25.312  28.560  1.00  0.00     0.074 A 
ATOM     52  C   UNL A   1      46.264  30.415  31.634  1.00  0.00     0.029 A 
ATOM     53  N   UNL A   1      45.027  28.948  30.512  1.00  0.00    -0.354 N 
ATOM     54  N   UNL A   1      44.482  26.404  29.188  1.00  0.00    -0.248 NA
ATOM     55  C   UNL A   1      45.201  24.325  28.403  1.00  0.00     0.031 C 
ATOM     56  C   UNL A   1      47.055  29.295  31.353  1.00  0.00     0.029 A 
ATOM     57  C   UNL A   1      46.279  28.375  30.668  1.00  0.00     0.049 A 
ATOM     58  H   UNL A   1      44.264  28.524  30.056  1.00  0.00     0.167 HD
ATOM     59  C   UNL A   1      45.818  26.225  29.526  1.00  0.00     0.074 A 
ATOM     60  C   UNL A   1      46.203  24.917  29.039  1.00  0.00     0.031 C 
ATOM     61  C   UNL A   1      46.649  27.070  30.186  1.00  0.00     0.037 A 
BRANCH  48  62
ATOM     62  C   UNL A   1      44.020  32.444  31.723  1.00  0.00     0.057 A 
ATOM     63  C   UNL A   1      44.441  33.554  30.979  1.00  0.00     0.134 A 
ATOM     64  C   UNL A   1      43.733  32.644  33.078  1.00  0.00     0.134 A 
ATOM     65  F   UNL A   1      44.744  33.426  29.678  1.00  0.00    -0.206 F 
ATOM     66  C   UNL A   1      44.602  34.810  31.569  1.00  0.00     0.040 A 
ATOM     67  C   UNL A   1      43.867  33.901  33.674  1.00  0.00     0.040 A 
ATOM     68  F   UNL A   1      43.317  31.626  33.845  1.00  0.00    -0.206 F 
ATOM     69  C   UNL A   1      44.311  34.985  32.921  1.00  0.00     0.006 A 
ENDBRANCH  48  62
BRANCH  49  70
ATOM     70  C   UNL A   1      42.566  23.609  27.378  1.00  0.00     0.057 A 
ATOM     71  C   UNL A   1      42.223  22.501  28.162  1.00  0.00     0.134 A 
ATOM     72  C   UNL A   1      42.696  23.412  25.999  1.00  0.00     0.134 A 
ATOM     73  F   UNL A   1      42.106  22.626  29.492  1.00  0.00    -0.206 F 
ATOM     74  C   UNL A   1      42.026  21.241  27.597  1.00  0.00     0.040 A 
ATOM     75  C   UNL A   1      42.484  22.161  25.419  1.00  0.00     0.040 A 
ATOM     76  F   UNL A   1      43.022  24.436  25.197  1.00  0.00    -0.206 F 
ATOM     77  C   UNL A   1      42.150  21.070  26.219  1.00  0.00     0.006 A 
ENDBRANCH  49  70
BRANCH  61  78
ATOM     78  C   UNL A   1      48.045  26.591  30.449  1.00  0.00     0.057 A 
ATOM     79  C   UNL A   1      49.097  26.859  29.564  1.00  0.00     0.134 A 
ATOM     80  C   UNL A   1      48.347  25.881  31.619  1.00  0.00     0.134 A 
ATOM     81  F   UNL A   1      48.870  27.523  28.421  1.00  0.00    -0.206 F 
ATOM     82  C   UNL A   1      50.397  26.422  29.825  1.00  0.00     0.040 A 
ATOM     83  C   UNL A   1      49.646  25.456  31.899  1.00  0.00     0.040 A 
ATOM     84  F   UNL A   1      47.386  25.597  32.510  1.00  0.00    -0.206 F 
ATOM     85  C   UNL A   1      50.676  25.723  30.998  1.00  0.00     0.006 A 
ENDBRANCH  61  78
ENDBRANCH  35  36
ENDBRANCH  27  30
ENDBRANCH  25  26
ENDBRANCH  24  25
ENDBRANCH   1  24
TORSDOF 14
ENDMDL
MODEL 2
REMARK VINA RESULT:     -11.4      2.649      7.477
REMARK SMILES CC(C)(C)[N@@H+](CC(=O)NCCCNC(=O)c1ccc(-c2c3nc(c(-c4c(F)cccc4F)c4ccc([nH]4)c(-c4c(F)cccc4F)c4nc(c(-c5c(F)cccc5F)c5ccc2[nH]5)C=C4)C=C3)cc1)C[C@@H]1Cc2cc(F)ccc2O1
REMARK SMILES IDX 10 1 9 2 7 3 8 4 6 6 5 7 2 9 1 10 3 11 4 12 70 13 71 14
REMARK SMILES IDX 72 15 80 16 73 17 79 18 74 19 78 20 75 21 77 22 76 23 11 24
REMARK SMILES IDX 12 25 13 26 14 27 15 29 16 30 17 31 69 32 18 33 68 34 19 35
REMARK SMILES IDX 20 36 21 37 62 38 22 39 67 40 61 41 63 42 23 43 66 44 60 45
REMARK SMILES IDX 59 46 24 48 50 49 33 50 49 51 34 52 37 53 48 54 64 55 35 56
REMARK SMILES IDX 36 57 47 59 65 60 38 61 25 62 26 63 31 64 27 65 28 66 30 67
REMARK SMILES IDX 32 68 29 69 51 70 52 71 57 72 53 73 54 74 56 75 58 76 55 77
REMARK SMILES IDX 39 78 40 79 45 80 41 81 42 82 44 83 46 84 43 85
REMARK H PARENT 9 5 5 8 13 28 63 47 37 58
REMARK Flexibility Score: inf
ROOT
ATOM      1  C   UNL A   1      36.632  20.637  24.872  1.00  0.00     0.118 C 
ENDROOT
BRANCH   1   2
ATOM      2  N   UNL A   1      36.795  21.956  25.465  1.00  0.00    -0.351 N 
ATOM      3  C   UNL A   1      36.171  23.152  25.244  1.00  0.00     0.275 C 
ATOM      4  O   UNL A   1      36.456  24.081  26.005  1.00  0.00    -0.269 OA
ATOM      5  H   UNL A   1      37.491  21.994  26.161  1.00  0.00     0.163 HD
BRANCH   3   6
ATOM      6  C   UNL A   1      35.146  23.327  24.121  1.00  0.00     0.364 C 
BRANCH   6   7
ATOM      7  N   UNL A   1      33.815  23.758  24.601  1.00  0.00    -0.320 N 
ATOM      8  H   UNL A   1      32.956  23.840  24.057  1.00  0.00     0.349 HD
BRANCH   7   9
ATOM      9  C   UNL A   1      33.252  25.042  24.159  1.00  0.00     0.090 C 
ATOM     10  C   UNL A   1      33.771  26.199  25.056  1.00  0.00     0.078 C 
ATOM     11  C   UNL A   1      31.708  25.001  24.165  1.00  0.00     0.078 C 
ATOM     12  C   UNL A   1      33.685  25.483  22.745  1.00  0.00     0.078 C 
ENDBRANCH   7   9
BRANCH   7  13
ATOM     13  C   UNL A   1      33.218  22.889  25.624  1.00  0.00     0.309 C 
BRANCH  13  14
ATOM     14  C   UNL A   1      32.549  21.513  25.352  1.00  0.00     0.232 C 
ATOM     15  C   UNL A   1      33.296  20.293  25.923  1.00  0.00     0.090 C 
ATOM     16  O   UNL A   1      32.221  21.295  23.960  1.00  0.00    -0.484 OA
ATOM     17  C   UNL A   1      33.163  19.354  24.788  1.00  0.00     0.001 A 
ATOM     18  C   UNL A   1      32.501  19.974  23.741  1.00  0.00     0.123 A 
ATOM     19  C   UNL A   1      33.601  18.046  24.671  1.00  0.00     0.047 A 
ATOM     20  C   UNL A   1      32.203  19.311  22.565  1.00  0.00     0.050 A 
ATOM     21  C   UNL A   1      33.319  17.370  23.485  1.00  0.00     0.123 A 
ATOM     22  C   UNL A   1      32.615  17.983  22.441  1.00  0.00     0.043 A 
ATOM     23  F   UNL A   1      33.732  16.103  23.339  1.00  0.00    -0.207 F 
ENDBRANCH  13  14
ENDBRANCH   7  13
ENDBRANCH   6   7
ENDBRANCH   3   6
ENDBRANCH   1   2
BRANCH   1  24
ATOM     24  C   UNL A   1      37.871  19.741  24.944  1.00  0.00     0.042 C 
BRANCH  24  25
ATOM     25  C   UNL A   1      39.060  20.300  25.722  1.00  0.00     0.118 C 
BRANCH  25  26
ATOM     26  N   UNL A   1      40.131  19.327  25.827  1.00  0.00    -0.352 N 
ATOM     27  C   UNL A   1      41.470  19.532  26.045  1.00  0.00     0.251 C 
ATOM     28  H   UNL A   1      39.858  18.386  25.729  1.00  0.00     0.163 HD
ATOM     29  O   UNL A   1      42.258  18.610  25.822  1.00  0.00    -0.269 OA
BRANCH  27  30
ATOM     30  C   UNL A   1      41.994  20.823  26.558  1.00  0.00     0.039 A 
ATOM     31  C   UNL A   1      41.878  21.091  27.928  1.00  0.00     0.014 A 
ATOM     32  C   UNL A   1      42.469  21.822  25.701  1.00  0.00     0.014 A 
ATOM     33  C   UNL A   1      42.219  22.350  28.433  1.00  0.00     0.010 A 
ATOM     34  C   UNL A   1      42.850  23.067  26.213  1.00  0.00     0.010 A 
ATOM     35  C   UNL A   1      42.696  23.355  27.579  1.00  0.00    -0.014 A 
BRANCH  35  36
ATOM     36  C   UNL A   1      42.949  24.728  28.094  1.00  0.00     0.031 A 
ATOM     37  C   UNL A   1      44.355  25.174  28.395  1.00  0.00     0.074 A 
ATOM     38  C   UNL A   1      41.926  25.582  28.286  1.00  0.00     0.049 A 
ATOM     39  N   UNL A   1      44.783  26.330  28.840  1.00  0.00    -0.248 NA
ATOM     40  C   UNL A   1      45.422  24.184  28.176  1.00  0.00     0.031 C 
ATOM     41  C   UNL A   1      40.517  25.280  28.044  1.00  0.00     0.029 A 
ATOM     42  N   UNL A   1      41.921  26.882  28.728  1.00  0.00    -0.354 N 
ATOM     43  C   UNL A   1      46.161  26.204  28.961  1.00  0.00     0.074 A 
ATOM     44  C   UNL A   1      46.493  24.846  28.587  1.00  0.00     0.031 C 
ATOM     45  C   UNL A   1      39.784  26.374  28.315  1.00  0.00     0.029 A 
ATOM     46  C   UNL A   1      40.669  27.442  28.774  1.00  0.00     0.049 A 
ATOM     47  H   UNL A   1      42.739  27.366  28.988  1.00  0.00     0.167 HD
ATOM     48  C   UNL A   1      47.073  27.136  29.331  1.00  0.00     0.037 A 
ATOM     49  C   UNL A   1      40.278  28.678  29.139  1.00  0.00     0.037 A 
ATOM     50  C   UNL A   1      46.755  28.494  29.688  1.00  0.00     0.049 A 
ATOM     51  C   UNL A   1      41.303  29.688  29.575  1.00  0.00     0.074 A 
ATOM     52  C   UNL A   1      47.615  29.521  30.039  1.00  0.00     0.029 A 
ATOM     53  N   UNL A   1      45.470  29.015  29.742  1.00  0.00    -0.354 N 
ATOM     54  N   UNL A   1      42.606  29.567  29.643  1.00  0.00    -0.248 NA
ATOM     55  C   UNL A   1      40.799  31.009  29.982  1.00  0.00     0.031 C 
ATOM     56  C   UNL A   1      46.848  30.654  30.338  1.00  0.00     0.029 A 
ATOM     57  C   UNL A   1      45.514  30.342  30.137  1.00  0.00     0.049 A 
ATOM     58  H   UNL A   1      44.649  28.514  29.532  1.00  0.00     0.167 HD
ATOM     59  C   UNL A   1      43.080  30.801  30.070  1.00  0.00     0.074 A 
ATOM     60  C   UNL A   1      41.926  31.658  30.241  1.00  0.00     0.031 C 
ATOM     61  C   UNL A   1      44.360  31.188  30.297  1.00  0.00     0.037 A 
BRANCH  48  62
ATOM     62  C   UNL A   1      48.512  26.710  29.368  1.00  0.00     0.057 A 
ATOM     63  C   UNL A   1      49.106  26.228  30.542  1.00  0.00     0.134 A 
ATOM     64  C   UNL A   1      49.308  26.771  28.218  1.00  0.00     0.134 A 
ATOM     65  F   UNL A   1      48.400  26.155  31.681  1.00  0.00    -0.206 F 
ATOM     66  C   UNL A   1      50.450  25.852  30.579  1.00  0.00     0.040 A 
ATOM     67  C   UNL A   1      50.647  26.375  28.237  1.00  0.00     0.040 A 
ATOM     68  F   UNL A   1      48.799  27.215  27.060  1.00  0.00    -0.206 F 
ATOM     69  C   UNL A   1      51.224  25.922  29.421  1.00  0.00     0.006 A 
ENDBRANCH  48  62
BRANCH  49  70
ATOM     70  C   UNL A   1      38.842  29.047  29.071  1.00  0.00     0.057 A 
ATOM     71  C   UNL A   1      38.013  28.902  30.190  1.00  0.00     0.134 A 
ATOM     72  C   UNL A   1      38.269  29.550  27.899  1.00  0.00     0.134 A 
ATOM     73  F   UNL A   1      38.503  28.404  31.334  1.00  0.00    -0.206 F 
ATOM     74  C   UNL A   1      36.659  29.237  30.142  1.00  0.00     0.040 A 
ATOM     75  C   UNL A   1      36.921  29.907  27.843  1.00  0.00     0.040 A 
ATOM     76  F   UNL A   1      39.014  29.710  26.796  1.00  0.00    -0.206 F 
ATOM     77  C   UNL A   1      36.111  29.748  28.966  1.00  0.00     0.006 A 
ENDBRANCH  49  70
BRANCH  61  78
ATOM     78  C   UNL A   1      44.582  32.610  30.719  1.00  0.00     0.057 A 
ATOM     79  C   UNL A   1      44.742  33.641  29.786  1.00  0.00     0.134 A 
ATOM     80  C   UNL A   1      44.601  32.956  32.077  1.00  0.00     0.134 A 
ATOM     81  F   UNL A   1      44.746  33.373  28.471  1.00  0.00    -0.206 F 
ATOM     82  C   UNL A   1      44.934  34.964  30.188  1.00  0.00     0.040 A 
ATOM     83  C   UNL A   1      44.772  34.277  32.491  1.00  0.00     0.040 A 
ATOM     84  F   UNL A   1      44.447  32.015  33.021  1.00  0.00    -0.206 F 
ATOM     85  C   UNL A   1      44.944  35.286  31.545  1.00  0.00     0.006 A 
ENDBRANCH  61  78
ENDBRANCH  35  36
ENDBRANCH  27  30
ENDBRANCH  25  26
ENDBRANCH  24  25
ENDBRANCH   1  24
TORSDOF 14
ENDMDL
MODEL 3
REMARK VINA RESULT:     -11.4      1.688      2.478
REMARK SMILES CC(C)(C)[N@@H+](CC(=O)NCCCNC(=O)c1ccc(-c2c3nc(c(-c4c(F)cccc4F)c4ccc([nH]4)c(-c4c(F)cccc4F)c4nc(c(-c5c(F)cccc5F)c5ccc2[nH]5)C=C4)C=C3)cc1)C[C@@H]1Cc2cc(F)ccc2O1
REMARK SMILES IDX 10 1 9 2 7 3 8 4 6 6 5 7 2 9 1 10 3 11 4 12 70 13 71 14
REMARK SMILES IDX 72 15 80 16 73 17 79 18 74 19 78 20 75 21 77 22 76 23 11 24
REMARK SMILES IDX 12 25 13 26 14 27 15 29 16 30 17 31 69 32 18 33 68 34 19 35
REMARK SMILES IDX 20 36 21 37 62 38 22 39 67 40 61 41 63 42 23 43 66 44 60 45
REMARK SMILES IDX 59 46 24 48 50 49 33 50 49 51 34 52 37 53 48 54 64 55 35 56
REMARK SMILES IDX 36 57 47 59 65 60 38 61 25 62 26 63 31 64 27 65 28 66 30 67
REMARK SMILES IDX 32 68 29 69 51 70 52 71 57 72 53 73 54 74 56 75 58 76 55 77
REMARK SMILES IDX 39 78 40 79 45 80 41 81 42 82 44 83 46 84 43 85
REMARK H PARENT 9 5 5 8 13 28 63 47 37 58
REMARK Flexibility Score: inf
ROOT
ATOM      1  C   UNL A   1      31.599  27.255  26.381  1.00  0.00     0.118 C 
ENDROOT
BRANCH   1   2
ATOM      2  N   UNL A   1      31.330  25.938  26.939  1.00  0.00    -0.351 N 
ATOM      3  C   UNL A   1      31.277  24.691  26.381  1.00  0.00     0.275 C 
ATOM      4  O   UNL A   1      31.139  23.738  27.153  1.00  0.00    -0.269 OA
ATOM      5  H   UNL A   1      31.149  25.948  27.907  1.00  0.00     0.163 HD
BRANCH   3   6
ATOM      6  C   UNL A   1      31.410  24.481  24.871  1.00  0.00     0.364 C 
BRANCH   6   7
ATOM      7  N   UNL A   1      32.618  23.718  24.487  1.00  0.00    -0.320 N 
ATOM      8  H   UNL A   1      33.445  23.538  25.056  1.00  0.00     0.349 HD
BRANCH   7   9
ATOM      9  C   UNL A   1      33.900  24.413  24.300  1.00  0.00     0.090 C 
ATOM     10  C   UNL A   1      34.716  24.407  25.621  1.00  0.00     0.078 C 
ATOM     11  C   UNL A   1      33.678  25.859  23.806  1.00  0.00     0.078 C 
ATOM     12  C   UNL A   1      34.860  23.737  23.299  1.00  0.00     0.078 C 
ENDBRANCH   7   9
BRANCH   7  13
ATOM     13  C   UNL A   1      32.381  22.300  24.183  1.00  0.00     0.309 C 
BRANCH  13  14
ATOM     14  C   UNL A   1      32.888  21.104  25.036  1.00  0.00     0.232 C 
ATOM     15  C   UNL A   1      34.292  20.583  24.671  1.00  0.00     0.090 C 
ATOM     16  O   UNL A   1      31.948  20.007  25.109  1.00  0.00    -0.484 OA
ATOM     17  C   UNL A   1      34.055  19.125  24.749  1.00  0.00     0.001 A 
ATOM     18  C   UNL A   1      32.724  18.881  25.051  1.00  0.00     0.123 A 
ATOM     19  C   UNL A   1      34.939  18.078  24.558  1.00  0.00     0.047 A 
ATOM     20  C   UNL A   1      32.234  17.601  25.225  1.00  0.00     0.050 A 
ATOM     21  C   UNL A   1      34.454  16.780  24.717  1.00  0.00     0.123 A 
ATOM     22  C   UNL A   1      33.119  16.533  25.061  1.00  0.00     0.043 A 
ATOM     23  F   UNL A   1      35.284  15.744  24.536  1.00  0.00    -0.207 F 
ENDBRANCH  13  14
ENDBRANCH   7  13
ENDBRANCH   6   7
ENDBRANCH   3   6
ENDBRANCH   1   2
BRANCH   1  24
ATOM     24  C   UNL A   1      32.075  28.299  27.394  1.00  0.00     0.042 C 
BRANCH  24  25
ATOM     25  C   UNL A   1      33.480  28.855  27.175  1.00  0.00     0.118 C 
BRANCH  25  26
ATOM     26  N   UNL A   1      33.604  30.205  27.693  1.00  0.00    -0.352 N 
ATOM     27  C   UNL A   1      34.631  30.769  28.406  1.00  0.00     0.251 C 
ATOM     28  H   UNL A   1      32.843  30.801  27.506  1.00  0.00     0.163 HD
ATOM     29  O   UNL A   1      34.433  31.834  28.997  1.00  0.00    -0.269 OA
BRANCH  27  30
ATOM     30  C   UNL A   1      35.977  30.146  28.472  1.00  0.00     0.039 A 
ATOM     31  C   UNL A   1      36.383  29.565  29.680  1.00  0.00     0.014 A 
ATOM     32  C   UNL A   1      36.891  30.243  27.416  1.00  0.00     0.014 A 
ATOM     33  C   UNL A   1      37.693  29.100  29.836  1.00  0.00     0.010 A 
ATOM     34  C   UNL A   1      38.188  29.740  27.559  1.00  0.00     0.010 A 
ATOM     35  C   UNL A   1      38.613  29.196  28.782  1.00  0.00    -0.014 A 
BRANCH  35  36
ATOM     36  C   UNL A   1      40.036  28.809  28.982  1.00  0.00     0.031 A 
ATOM     37  C   UNL A   1      40.978  29.743  29.695  1.00  0.00     0.074 A 
ATOM     38  C   UNL A   1      40.488  27.623  28.537  1.00  0.00     0.049 A 
ATOM     39  N   UNL A   1      42.248  29.586  29.976  1.00  0.00    -0.248 NA
ATOM     40  C   UNL A   1      40.420  31.029  30.141  1.00  0.00     0.031 C 
ATOM     41  C   UNL A   1      39.689  26.627  27.825  1.00  0.00     0.029 A 
ATOM     42  N   UNL A   1      41.735  27.054  28.623  1.00  0.00    -0.354 N 
ATOM     43  C   UNL A   1      42.641  30.752  30.622  1.00  0.00     0.074 A 
ATOM     44  C   UNL A   1      41.487  31.625  30.652  1.00  0.00     0.031 C 
ATOM     45  C   UNL A   1      40.459  25.557  27.561  1.00  0.00     0.029 A 
ATOM     46  C   UNL A   1      41.810  25.804  28.062  1.00  0.00     0.049 A 
ATOM     47  H   UNL A   1      42.504  27.502  29.046  1.00  0.00     0.167 HD
ATOM     48  C   UNL A   1      43.845  31.063  31.162  1.00  0.00     0.037 A 
ATOM     49  C   UNL A   1      42.846  24.949  27.967  1.00  0.00     0.037 A 
ATOM     50  C   UNL A   1      44.993  30.195  31.153  1.00  0.00     0.049 A 
ATOM     51  C   UNL A   1      44.181  25.327  28.546  1.00  0.00     0.074 A 
ATOM     52  C   UNL A   1      46.244  30.409  31.709  1.00  0.00     0.029 A 
ATOM     53  N   UNL A   1      45.031  28.944  30.556  1.00  0.00    -0.354 N 
ATOM     54  N   UNL A   1      44.525  26.414  29.191  1.00  0.00    -0.248 NA
ATOM     55  C   UNL A   1      45.272  24.354  28.383  1.00  0.00     0.031 C 
ATOM     56  C   UNL A   1      47.049  29.301  31.418  1.00  0.00     0.029 A 
ATOM     57  C   UNL A   1      46.288  28.383  30.714  1.00  0.00     0.049 A 
ATOM     58  H   UNL A   1      44.277  28.519  30.088  1.00  0.00     0.167 HD
ATOM     59  C   UNL A   1      45.859  26.244  29.538  1.00  0.00     0.074 A 
ATOM     60  C   UNL A   1      46.262  24.947  29.035  1.00  0.00     0.031 C 
ATOM     61  C   UNL A   1      46.676  27.088  30.216  1.00  0.00     0.037 A 
BRANCH  48  62
ATOM     62  C   UNL A   1      43.978  32.411  31.808  1.00  0.00     0.057 A 
ATOM     63  C   UNL A   1      43.703  32.605  33.169  1.00  0.00     0.134 A 
ATOM     64  C   UNL A   1      44.393  33.524  31.067  1.00  0.00     0.134 A 
ATOM     65  F   UNL A   1      43.290  31.581  33.931  1.00  0.00    -0.206 F 
ATOM     66  C   UNL A   1      43.807  33.865  33.763  1.00  0.00     0.040 A 
ATOM     67  C   UNL A   1      44.524  34.784  31.656  1.00  0.00     0.040 A 
ATOM     68  F   UNL A   1      44.679  33.407  29.763  1.00  0.00    -0.206 F 
ATOM     69  C   UNL A   1      44.222  34.958  33.004  1.00  0.00     0.006 A 
ENDBRANCH  48  62
BRANCH  49  70
ATOM     70  C   UNL A   1      42.653  23.625  27.327  1.00  0.00     0.057 A 
ATOM     71  C   UNL A   1      42.868  23.455  25.954  1.00  0.00     0.134 A 
ATOM     72  C   UNL A   1      42.252  22.505  28.064  1.00  0.00     0.134 A 
ATOM     73  F   UNL A   1      43.232  24.498  25.194  1.00  0.00    -0.206 F 
ATOM     74  C   UNL A   1      42.685  22.218  25.334  1.00  0.00     0.040 A 
ATOM     75  C   UNL A   1      42.084  21.258  27.460  1.00  0.00     0.040 A 
ATOM     76  F   UNL A   1      42.031  22.607  29.382  1.00  0.00    -0.206 F 
ATOM     77  C   UNL A   1      42.297  21.114  26.090  1.00  0.00     0.006 A 
ENDBRANCH  49  70
BRANCH  61  78
ATOM     78  C   UNL A   1      48.075  26.620  30.484  1.00  0.00     0.057 A 
ATOM     79  C   UNL A   1      49.131  26.915  29.613  1.00  0.00     0.134 A 
ATOM     80  C   UNL A   1      48.375  25.896  31.644  1.00  0.00     0.134 A 
ATOM     81  F   UNL A   1      48.907  27.594  28.478  1.00  0.00    -0.206 F 
ATOM     82  C   UNL A   1      50.434  26.488  29.877  1.00  0.00     0.040 A 
ATOM     83  C   UNL A   1      49.677  25.480  31.930  1.00  0.00     0.040 A 
ATOM     84  F   UNL A   1      47.410  25.586  32.523  1.00  0.00    -0.206 F 
ATOM     85  C   UNL A   1      50.711  25.772  31.042  1.00  0.00     0.006 A 
ENDBRANCH  61  78
ENDBRANCH  35  36
ENDBRANCH  27  30
ENDBRANCH  25  26
ENDBRANCH  24  25
ENDBRANCH   1  24
TORSDOF 14
ENDMDL
