MODEL 1
REMARK VINA RESULT:     -12.3      0.000      0.000
REMARK SMILES O=C(NCCCNC(=O)[C@H](NC(=O)c1ccc(Br)nc1)c1ccccc1)c1ccc(-c2c3nc(c(-c4c(F)cccc4F)c4ccc([nH]4)c(-c4c(F)cccc4F)c4nc(c(-c5c(F)cccc5F)c5ccc2[nH]5)C=C4)C=C3)cc1
REMARK SMILES IDX 5 1 4 2 3 3 1 4 2 5 27 7 28 8 80 9 29 10 79 11 30 12 31 13
REMARK SMILES IDX 32 14 73 15 33 16 78 17 72 18 74 19 34 20 77 21 71 22 70 23
REMARK SMILES IDX 35 25 61 26 44 27 60 28 45 29 48 30 59 31 75 32 46 33 47 34
REMARK SMILES IDX 58 36 76 37 49 38 36 39 37 40 42 41 38 42 39 43 41 44 43 45
REMARK SMILES IDX 40 46 62 47 63 48 68 49 64 50 65 51 67 52 69 53 66 54 50 55
REMARK SMILES IDX 51 56 56 57 52 58 53 59 55 60 57 61 54 62 6 63 7 64 8 65
REMARK SMILES IDX 9 67 10 68 21 69 22 70 26 71 23 72 25 73 24 74 11 75 12 76
REMARK SMILES IDX 13 78 14 79 15 80 20 81 16 82 19 83 17 84 18 85
REMARK H PARENT 3 6 74 24 48 35 7 66 11 77
REMARK Flexibility Score: inf
ROOT
ATOM      1  C   UNL A   1      37.199  19.746  24.951  1.00  0.00     0.042 C 
ENDROOT
BRANCH   1   2
ATOM      2  C   UNL A   1      38.499  20.428  25.337  1.00  0.00     0.118 C 
BRANCH   2   3
ATOM      3  N   UNL A   1      39.583  19.480  25.555  1.00  0.00    -0.352 N 
ATOM      4  O   UNL A   1      41.676  18.747  25.911  1.00  0.00    -0.269 OA
ATOM      5  C   UNL A   1      40.866  19.669  26.006  1.00  0.00     0.251 C 
ATOM      6  H   UNL A   1      39.357  18.545  25.345  1.00  0.00     0.163 HD
BRANCH   5   7
ATOM      7  C   UNL A   1      41.297  20.964  26.580  1.00  0.00     0.039 A 
ATOM      8  C   UNL A   1      41.195  21.222  27.946  1.00  0.00     0.014 A 
ATOM      9  C   UNL A   1      41.860  21.929  25.737  1.00  0.00     0.014 A 
ATOM     10  C   UNL A   1      41.472  22.492  28.437  1.00  0.00     0.010 A 
ATOM     11  C   UNL A   1      42.255  23.167  26.256  1.00  0.00     0.010 A 
ATOM     12  C   UNL A   1      42.025  23.476  27.605  1.00  0.00    -0.014 A 
BRANCH  12  13
ATOM     13  C   UNL A   1      42.396  24.794  28.183  1.00  0.00     0.031 A 
ATOM     14  C   UNL A   1      43.826  25.122  28.519  1.00  0.00     0.074 A 
ATOM     15  C   UNL A   1      41.431  25.715  28.377  1.00  0.00     0.049 A 
ATOM     16  N   UNL A   1      44.326  26.234  29.000  1.00  0.00    -0.248 NA
ATOM     17  C   UNL A   1      44.823  24.064  28.297  1.00  0.00     0.031 C 
ATOM     18  C   UNL A   1      40.006  25.514  28.098  1.00  0.00     0.029 A 
ATOM     19  N   UNL A   1      41.499  27.007  28.829  1.00  0.00    -0.354 N 
ATOM     20  C   UNL A   1      45.686  26.001  29.164  1.00  0.00     0.074 A 
ATOM     21  C   UNL A   1      45.928  24.633  28.758  1.00  0.00     0.031 C 
ATOM     22  C   UNL A   1      39.347  26.658  28.327  1.00  0.00     0.029 A 
ATOM     23  C   UNL A   1      40.285  27.650  28.837  1.00  0.00     0.049 A 
ATOM     24  H   UNL A   1      42.337  27.433  29.120  1.00  0.00     0.167 HD
ATOM     25  C   UNL A   1      46.644  26.852  29.606  1.00  0.00     0.037 A 
ATOM     26  C   UNL A   1      39.956  28.896  29.223  1.00  0.00     0.037 A 
ATOM     27  C   UNL A   1      46.396  28.217  29.997  1.00  0.00     0.049 A 
ATOM     28  C   UNL A   1      41.032  29.807  29.736  1.00  0.00     0.074 A 
ATOM     29  C   UNL A   1      47.306  29.172  30.419  1.00  0.00     0.029 A 
ATOM     30  N   UNL A   1      45.146  28.819  30.026  1.00  0.00    -0.354 N 
ATOM     31  N   UNL A   1      42.320  29.586  29.845  1.00  0.00    -0.248 NA
ATOM     32  C   UNL A   1      40.609  31.139  30.182  1.00  0.00     0.031 C 
ATOM     33  C   UNL A   1      46.599  30.331  30.758  1.00  0.00     0.029 A 
ATOM     34  C   UNL A   1      45.258  30.123  30.484  1.00  0.00     0.049 A 
ATOM     35  H   UNL A   1      44.304  28.385  29.759  1.00  0.00     0.167 HD
ATOM     36  C   UNL A   1      42.866  30.764  30.337  1.00  0.00     0.074 A 
ATOM     37  C   UNL A   1      41.769  31.697  30.496  1.00  0.00     0.031 C 
ATOM     38  C   UNL A   1      44.160  31.047  30.628  1.00  0.00     0.037 A 
BRANCH  25  39
ATOM     39  C   UNL A   1      48.045  26.319  29.724  1.00  0.00     0.057 A 
ATOM     40  C   UNL A   1      48.966  26.392  28.670  1.00  0.00     0.134 A 
ATOM     41  C   UNL A   1      48.489  25.746  30.924  1.00  0.00     0.134 A 
ATOM     42  F   UNL A   1      48.607  26.919  27.489  1.00  0.00    -0.206 F 
ATOM     43  C   UNL A   1      50.262  25.884  28.792  1.00  0.00     0.040 A 
ATOM     44  C   UNL A   1      49.791  25.262  31.069  1.00  0.00     0.040 A 
ATOM     45  F   UNL A   1      47.665  25.651  31.979  1.00  0.00    -0.206 F 
ATOM     46  C   UNL A   1      50.678  25.322  29.997  1.00  0.00     0.006 A 
ENDBRANCH  25  39
BRANCH  26  47
ATOM     47  C   UNL A   1      38.548  29.355  29.125  1.00  0.00     0.057 A 
ATOM     48  C   UNL A   1      38.012  29.788  27.907  1.00  0.00     0.134 A 
ATOM     49  C   UNL A   1      37.702  29.366  30.241  1.00  0.00     0.134 A 
ATOM     50  F   UNL A   1      38.777  29.814  26.805  1.00  0.00    -0.206 F 
ATOM     51  C   UNL A   1      36.694  30.234  27.805  1.00  0.00     0.040 A 
ATOM     52  C   UNL A   1      36.374  29.780  30.149  1.00  0.00     0.040 A 
ATOM     53  F   UNL A   1      38.152  28.953  31.436  1.00  0.00    -0.206 F 
ATOM     54  C   UNL A   1      35.868  30.223  28.927  1.00  0.00     0.006 A 
ENDBRANCH  26  47
BRANCH  38  55
ATOM     55  C   UNL A   1      44.467  32.443  31.090  1.00  0.00     0.057 A 
ATOM     56  C   UNL A   1      44.492  32.795  32.445  1.00  0.00     0.134 A 
ATOM     57  C   UNL A   1      44.756  33.447  30.157  1.00  0.00     0.134 A 
ATOM     58  F   UNL A   1      44.209  31.886  33.390  1.00  0.00    -0.206 F 
ATOM     59  C   UNL A   1      44.762  34.103  32.854  1.00  0.00     0.040 A 
ATOM     60  C   UNL A   1      45.060  34.750  30.554  1.00  0.00     0.040 A 
ATOM     61  F   UNL A   1      44.758  33.177  28.842  1.00  0.00    -0.206 F 
ATOM     62  C   UNL A   1      45.053  35.082  31.906  1.00  0.00     0.006 A 
ENDBRANCH  38  55
ENDBRANCH  12  13
ENDBRANCH   5   7
ENDBRANCH   2   3
ENDBRANCH   1   2
BRANCH   1  63
ATOM     63  C   UNL A   1      36.004  20.688  24.869  1.00  0.00     0.117 C 
BRANCH  63  64
ATOM     64  N   UNL A   1      35.465  21.008  26.183  1.00  0.00    -0.354 N 
ATOM     65  C   UNL A   1      34.221  21.402  26.591  1.00  0.00     0.247 C 
ATOM     66  H   UNL A   1      36.119  20.924  26.914  1.00  0.00     0.163 HD
ATOM     67  O   UNL A   1      34.139  21.844  27.744  1.00  0.00    -0.272 OA
BRANCH  65  68
ATOM     68  C   UNL A   1      32.984  21.424  25.646  1.00  0.00     0.202 C 
BRANCH  68  69
ATOM     69  C   UNL A   1      32.794  20.072  24.976  1.00  0.00    -0.016 A 
ATOM     70  C   UNL A   1      32.816  18.865  25.692  1.00  0.00     0.006 A 
ATOM     71  C   UNL A   1      32.575  20.017  23.588  1.00  0.00     0.006 A 
ATOM     72  C   UNL A   1      32.631  17.642  25.044  1.00  0.00     0.000 A 
ATOM     73  C   UNL A   1      32.364  18.795  22.946  1.00  0.00     0.000 A 
ATOM     74  C   UNL A   1      32.397  17.608  23.673  1.00  0.00     0.000 A 
ENDBRANCH  68  69
BRANCH  68  75
ATOM     75  N   UNL A   1      31.789  21.965  26.303  1.00  0.00    -0.336 N 
ATOM     76  C   UNL A   1      31.362  23.258  26.442  1.00  0.00     0.253 C 
ATOM     77  H   UNL A   1      31.200  21.289  26.710  1.00  0.00     0.165 HD
ATOM     78  O   UNL A   1      30.457  23.514  27.232  1.00  0.00    -0.269 OA
BRANCH  76  79
ATOM     79  C   UNL A   1      32.011  24.358  25.719  1.00  0.00     0.058 A 
ATOM     80  C   UNL A   1      33.155  24.999  26.181  1.00  0.00     0.018 A 
ATOM     81  C   UNL A   1      31.503  24.741  24.488  1.00  0.00     0.126 A 
ATOM     82  C   UNL A   1      33.671  26.079  25.470  1.00  0.00     0.037 A 
ATOM     83  N   UNL A   1      31.996  25.774  23.761  1.00  0.00    -0.249 NA
ATOM     84  C   UNL A   1      33.059  26.434  24.278  1.00  0.00     0.106 A 
ATOM     85  Br  UNL A   1      33.734  27.919  23.315  1.00  0.00    -0.029 Br
ENDBRANCH  76  79
ENDBRANCH  68  75
ENDBRANCH  65  68
ENDBRANCH  63  64
ENDBRANCH   1  63
TORSDOF 13
ENDMDL
MODEL 2
REMARK VINA RESULT:     -12.2      3.970      9.174
REMARK SMILES O=C(NCCCNC(=O)[C@H](NC(=O)c1ccc(Br)nc1)c1ccccc1)c1ccc(-c2c3nc(c(-c4c(F)cccc4F)c4ccc([nH]4)c(-c4c(F)cccc4F)c4nc(c(-c5c(F)cccc5F)c5ccc2[nH]5)C=C4)C=C3)cc1
REMARK SMILES IDX 5 1 4 2 3 3 1 4 2 5 27 7 28 8 80 9 29 10 79 11 30 12 31 13
REMARK SMILES IDX 32 14 73 15 33 16 78 17 72 18 74 19 34 20 77 21 71 22 70 23
REMARK SMILES IDX 35 25 61 26 44 27 60 28 45 29 48 30 59 31 75 32 46 33 47 34
REMARK SMILES IDX 58 36 76 37 49 38 36 39 37 40 42 41 38 42 39 43 41 44 43 45
REMARK SMILES IDX 40 46 62 47 63 48 68 49 64 50 65 51 67 52 69 53 66 54 50 55
REMARK SMILES IDX 51 56 56 57 52 58 53 59 55 60 57 61 54 62 6 63 7 64 8 65
REMARK SMILES IDX 9 67 10 68 21 69 22 70 26 71 23 72 25 73 24 74 11 75 12 76
REMARK SMILES IDX 13 78 14 79 15 80 20 81 16 82 19 83 17 84 18 85
REMARK H PARENT 3 6 74 24 48 35 7 66 11 77
REMARK Flexibility Score: inf
ROOT
ATOM      1  C   UNL A   1      31.208  31.358  25.941  1.00  0.00     0.042 C 
ENDROOT
BRANCH   1   2
ATOM      2  C   UNL A   1      32.277  31.788  26.931  1.00  0.00     0.118 C 
BRANCH   2   3
ATOM      3  N   UNL A   1      32.193  33.204  27.262  1.00  0.00    -0.352 N 
ATOM      4  O   UNL A   1      32.593  35.117  28.369  1.00  0.00    -0.269 OA
ATOM      5  C   UNL A   1      32.979  33.987  28.070  1.00  0.00     0.251 C 
ATOM      6  H   UNL A   1      31.447  33.681  26.831  1.00  0.00     0.163 HD
BRANCH   5   7
ATOM      7  C   UNL A   1      34.265  33.488  28.608  1.00  0.00     0.039 A 
ATOM      8  C   UNL A   1      35.477  33.798  27.993  1.00  0.00     0.014 A 
ATOM      9  C   UNL A   1      34.265  32.731  29.785  1.00  0.00     0.014 A 
ATOM     10  C   UNL A   1      36.654  33.202  28.432  1.00  0.00     0.010 A 
ATOM     11  C   UNL A   1      35.468  32.233  30.298  1.00  0.00     0.010 A 
ATOM     12  C   UNL A   1      36.669  32.429  29.602  1.00  0.00    -0.014 A 
BRANCH  12  13
ATOM     13  C   UNL A   1      37.961  31.884  30.096  1.00  0.00     0.031 A 
ATOM     14  C   UNL A   1      38.698  32.538  31.233  1.00  0.00     0.074 A 
ATOM     15  C   UNL A   1      38.456  30.766  29.528  1.00  0.00     0.049 A 
ATOM     16  N   UNL A   1      39.819  32.175  31.807  1.00  0.00    -0.248 NA
ATOM     17  C   UNL A   1      38.109  33.762  31.794  1.00  0.00     0.031 C 
ATOM     18  C   UNL A   1      37.838  30.043  28.412  1.00  0.00     0.029 A 
ATOM     19  N   UNL A   1      39.573  30.027  29.821  1.00  0.00    -0.354 N 
ATOM     20  C   UNL A   1      40.082  33.137  32.774  1.00  0.00     0.074 A 
ATOM     21  C   UNL A   1      39.020  34.117  32.689  1.00  0.00     0.031 C 
ATOM     22  C   UNL A   1      38.549  28.936  28.156  1.00  0.00     0.029 A 
ATOM     23  C   UNL A   1      39.710  28.907  29.037  1.00  0.00     0.049 A 
ATOM     24  H   UNL A   1      40.214  30.275  30.525  1.00  0.00     0.167 HD
ATOM     25  C   UNL A   1      41.111  33.195  33.653  1.00  0.00     0.037 A 
ATOM     26  C   UNL A   1      40.670  27.965  29.017  1.00  0.00     0.037 A 
ATOM     27  C   UNL A   1      42.161  32.209  33.738  1.00  0.00     0.049 A 
ATOM     28  C   UNL A   1      41.814  28.071  29.982  1.00  0.00     0.074 A 
ATOM     29  C   UNL A   1      43.224  32.157  34.623  1.00  0.00     0.029 A 
ATOM     30  N   UNL A   1      42.284  31.109  32.902  1.00  0.00    -0.354 N 
ATOM     31  N   UNL A   1      42.027  28.964  30.918  1.00  0.00    -0.248 NA
ATOM     32  C   UNL A   1      42.852  27.038  29.887  1.00  0.00     0.031 C 
ATOM     33  C   UNL A   1      44.023  31.058  34.284  1.00  0.00     0.029 A 
ATOM     34  C   UNL A   1      43.422  30.388  33.232  1.00  0.00     0.049 A 
ATOM     35  H   UNL A   1      41.657  30.876  32.181  1.00  0.00     0.167 HD
ATOM     36  C   UNL A   1      43.204  28.580  31.547  1.00  0.00     0.074 A 
ATOM     37  C   UNL A   1      43.651  27.369  30.891  1.00  0.00     0.031 C 
ATOM     38  C   UNL A   1      43.852  29.177  32.578  1.00  0.00     0.037 A 
BRANCH  25  39
ATOM     39  C   UNL A   1      41.174  34.384  34.572  1.00  0.00     0.057 A 
ATOM     40  C   UNL A   1      40.591  34.378  35.847  1.00  0.00     0.134 A 
ATOM     41  C   UNL A   1      41.853  35.548  34.184  1.00  0.00     0.134 A 
ATOM     42  F   UNL A   1      39.916  33.302  36.280  1.00  0.00    -0.206 F 
ATOM     43  C   UNL A   1      40.649  35.495  36.685  1.00  0.00     0.040 A 
ATOM     44  C   UNL A   1      41.945  36.659  35.024  1.00  0.00     0.040 A 
ATOM     45  F   UNL A   1      42.444  35.622  32.981  1.00  0.00    -0.206 F 
ATOM     46  C   UNL A   1      41.333  36.637  36.275  1.00  0.00     0.006 A 
ENDBRANCH  25  39
BRANCH  26  47
ATOM     47  C   UNL A   1      40.580  26.835  28.058  1.00  0.00     0.057 A 
ATOM     48  C   UNL A   1      39.789  25.714  28.335  1.00  0.00     0.134 A 
ATOM     49  C   UNL A   1      41.275  26.849  26.842  1.00  0.00     0.134 A 
ATOM     50  F   UNL A   1      39.112  25.636  29.490  1.00  0.00    -0.206 F 
ATOM     51  C   UNL A   1      39.707  24.641  27.447  1.00  0.00     0.040 A 
ATOM     52  C   UNL A   1      41.178  25.798  25.932  1.00  0.00     0.040 A 
ATOM     53  F   UNL A   1      42.042  27.900  26.513  1.00  0.00    -0.206 F 
ATOM     54  C   UNL A   1      40.397  24.684  26.238  1.00  0.00     0.006 A 
ENDBRANCH  26  47
BRANCH  38  55
ATOM     55  C   UNL A   1      45.083  28.492  33.099  1.00  0.00     0.057 A 
ATOM     56  C   UNL A   1      46.366  28.798  32.628  1.00  0.00     0.134 A 
ATOM     57  C   UNL A   1      44.979  27.519  34.101  1.00  0.00     0.134 A 
ATOM     58  F   UNL A   1      46.536  29.709  31.658  1.00  0.00    -0.206 F 
ATOM     59  C   UNL A   1      47.497  28.137  33.112  1.00  0.00     0.040 A 
ATOM     60  C   UNL A   1      46.104  26.875  34.617  1.00  0.00     0.040 A 
ATOM     61  F   UNL A   1      43.781  27.183  34.604  1.00  0.00    -0.206 F 
ATOM     62  C   UNL A   1      47.368  27.178  34.114  1.00  0.00     0.006 A 
ENDBRANCH  38  55
ENDBRANCH  12  13
ENDBRANCH   5   7
ENDBRANCH   2   3
ENDBRANCH   1   2
BRANCH   1  63
ATOM     63  C   UNL A   1      31.379  29.935  25.424  1.00  0.00     0.117 C 
BRANCH  63  64
ATOM     64  N   UNL A   1      32.415  29.841  24.405  1.00  0.00    -0.354 N 
ATOM     65  C   UNL A   1      32.592  28.984  23.355  1.00  0.00     0.247 C 
ATOM     66  H   UNL A   1      33.120  30.524  24.488  1.00  0.00     0.163 HD
ATOM     67  O   UNL A   1      33.706  29.000  22.817  1.00  0.00    -0.272 OA
BRANCH  65  68
ATOM     68  C   UNL A   1      31.518  27.947  22.915  1.00  0.00     0.202 C 
BRANCH  68  69
ATOM     69  C   UNL A   1      30.184  28.630  22.653  1.00  0.00    -0.016 A 
ATOM     70  C   UNL A   1      28.976  28.157  23.188  1.00  0.00     0.006 A 
ATOM     71  C   UNL A   1      30.149  29.787  21.856  1.00  0.00     0.006 A 
ATOM     72  C   UNL A   1      27.771  28.813  22.931  1.00  0.00     0.000 A 
ATOM     73  C   UNL A   1      28.946  30.458  21.622  1.00  0.00     0.000 A 
ATOM     74  C   UNL A   1      27.757  29.968  22.155  1.00  0.00     0.000 A 
ENDBRANCH  68  69
BRANCH  68  75
ATOM     75  N   UNL A   1      31.992  27.077  21.833  1.00  0.00    -0.336 N 
ATOM     76  C   UNL A   1      32.731  25.926  21.880  1.00  0.00     0.253 C 
ATOM     77  H   UNL A   1      31.738  27.368  20.928  1.00  0.00     0.165 HD
ATOM     78  O   UNL A   1      33.222  25.480  20.846  1.00  0.00    -0.269 OA
BRANCH  76  79
ATOM     79  C   UNL A   1      33.009  25.249  23.152  1.00  0.00     0.058 A 
ATOM     80  C   UNL A   1      34.067  25.602  23.983  1.00  0.00     0.018 A 
ATOM     81  C   UNL A   1      32.147  24.254  23.584  1.00  0.00     0.126 A 
ATOM     82  C   UNL A   1      34.304  24.866  25.142  1.00  0.00     0.037 A 
ATOM     83  N   UNL A   1      32.338  23.535  24.717  1.00  0.00    -0.249 NA
ATOM     84  C   UNL A   1      33.425  23.843  25.462  1.00  0.00     0.106 A 
ATOM     85  Br  UNL A   1      33.753  22.818  27.021  1.00  0.00    -0.029 Br
ENDBRANCH  76  79
ENDBRANCH  68  75
ENDBRANCH  65  68
ENDBRANCH  63  64
ENDBRANCH   1  63
TORSDOF 13
ENDMDL
MODEL 3
REMARK VINA RESULT:     -12.2      0.326      6.217
REMARK SMILES O=C(NCCCNC(=O)[C@H](NC(=O)c1ccc(Br)nc1)c1ccccc1)c1ccc(-c2c3nc(c(-c4c(F)cccc4F)c4ccc([nH]4)c(-c4c(F)cccc4F)c4nc(c(-c5c(F)cccc5F)c5ccc2[nH]5)C=C4)C=C3)cc1
REMARK SMILES IDX 5 1 4 2 3 3 1 4 2 5 27 7 28 8 80 9 29 10 79 11 30 12 31 13
REMARK SMILES IDX 32 14 73 15 33 16 78 17 72 18 74 19 34 20 77 21 71 22 70 23
REMARK SMILES IDX 35 25 61 26 44 27 60 28 45 29 48 30 59 31 75 32 46 33 47 34
REMARK SMILES IDX 58 36 76 37 49 38 36 39 37 40 42 41 38 42 39 43 41 44 43 45
REMARK SMILES IDX 40 46 62 47 63 48 68 49 64 50 65 51 67 52 69 53 66 54 50 55
REMARK SMILES IDX 51 56 56 57 52 58 53 59 55 60 57 61 54 62 6 63 7 64 8 65
REMARK SMILES IDX 9 67 10 68 21 69 22 70 26 71 23 72 25 73 24 74 11 75 12 76
REMARK SMILES IDX 13 78 14 79 15 80 20 81 16 82 19 83 17 84 18 85
REMARK H PARENT 3 6 74 24 48 35 7 66 11 77
REMARK Flexibility Score: inf
ROOT
ATOM      1  C   UNL A   1      37.179  19.793  24.973  1.00  0.00     0.042 C 
ENDROOT
BRANCH   1   2
ATOM      2  C   UNL A   1      38.511  20.456  25.279  1.00  0.00     0.118 C 
BRANCH   2   3
ATOM      3  N   UNL A   1      39.569  19.489  25.536  1.00  0.00    -0.352 N 
ATOM      4  O   UNL A   1      41.639  18.718  25.946  1.00  0.00    -0.269 OA
ATOM      5  C   UNL A   1      40.847  19.659  26.008  1.00  0.00     0.251 C 
ATOM      6  H   UNL A   1      39.326  18.555  25.339  1.00  0.00     0.163 HD
BRANCH   5   7
ATOM      7  C   UNL A   1      41.296  20.955  26.565  1.00  0.00     0.039 A 
ATOM      8  C   UNL A   1      41.202  21.231  27.928  1.00  0.00     0.014 A 
ATOM      9  C   UNL A   1      41.869  21.903  25.709  1.00  0.00     0.014 A 
ATOM     10  C   UNL A   1      41.495  22.503  28.403  1.00  0.00     0.010 A 
ATOM     11  C   UNL A   1      42.280  23.142  26.212  1.00  0.00     0.010 A 
ATOM     12  C   UNL A   1      42.058  23.470  27.557  1.00  0.00    -0.014 A 
BRANCH  12  13
ATOM     13  C   UNL A   1      42.447  24.789  28.119  1.00  0.00     0.031 A 
ATOM     14  C   UNL A   1      41.421  25.859  28.378  1.00  0.00     0.074 A 
ATOM     15  C   UNL A   1      43.741  25.010  28.427  1.00  0.00     0.049 A 
ATOM     16  N   UNL A   1      41.585  27.053  28.893  1.00  0.00    -0.248 NA
ATOM     17  C   UNL A   1      40.032  25.556  28.003  1.00  0.00     0.031 C 
ATOM     18  C   UNL A   1      44.832  24.054  28.216  1.00  0.00     0.029 A 
ATOM     19  N   UNL A   1      44.357  26.091  29.004  1.00  0.00    -0.354 N 
ATOM     20  C   UNL A   1      40.331  27.652  28.877  1.00  0.00     0.074 A 
ATOM     21  C   UNL A   1      39.421  26.700  28.275  1.00  0.00     0.031 C 
ATOM     22  C   UNL A   1      45.968  24.566  28.710  1.00  0.00     0.029 A 
ATOM     23  C   UNL A   1      45.704  25.911  29.206  1.00  0.00     0.049 A 
ATOM     24  H   UNL A   1      43.880  26.916  29.249  1.00  0.00     0.167 HD
ATOM     25  C   UNL A   1      39.972  28.878  29.328  1.00  0.00     0.037 A 
ATOM     26  C   UNL A   1      46.630  26.739  29.721  1.00  0.00     0.037 A 
ATOM     27  C   UNL A   1      40.884  29.815  29.937  1.00  0.00     0.049 A 
ATOM     28  C   UNL A   1      46.209  28.103  30.185  1.00  0.00     0.074 A 
ATOM     29  C   UNL A   1      40.609  31.066  30.464  1.00  0.00     0.029 A 
ATOM     30  N   UNL A   1      42.247  29.610  30.090  1.00  0.00    -0.354 N 
ATOM     31  N   UNL A   1      45.012  28.638  30.203  1.00  0.00    -0.248 NA
ATOM     32  C   UNL A   1      47.269  28.978  30.700  1.00  0.00     0.031 C 
ATOM     33  C   UNL A   1      41.815  31.640  30.882  1.00  0.00     0.029 A 
ATOM     34  C   UNL A   1      42.831  30.722  30.677  1.00  0.00     0.049 A 
ATOM     35  H   UNL A   1      42.729  28.795  29.821  1.00  0.00     0.167 HD
ATOM     36  C   UNL A   1      45.169  29.898  30.763  1.00  0.00     0.074 A 
ATOM     37  C   UNL A   1      46.576  30.041  31.080  1.00  0.00     0.031 C 
ATOM     38  C   UNL A   1      44.232  30.850  30.998  1.00  0.00     0.037 A 
BRANCH  25  39
ATOM     39  C   UNL A   1      38.538  29.292  29.148  1.00  0.00     0.057 A 
ATOM     40  C   UNL A   1      37.617  29.281  30.204  1.00  0.00     0.134 A 
ATOM     41  C   UNL A   1      38.077  29.734  27.900  1.00  0.00     0.134 A 
ATOM     42  F   UNL A   1      37.985  28.860  31.424  1.00  0.00    -0.206 F 
ATOM     43  C   UNL A   1      36.284  29.659  30.018  1.00  0.00     0.040 A 
ATOM     44  C   UNL A   1      36.756  30.144  27.709  1.00  0.00     0.040 A 
ATOM     45  F   UNL A   1      38.906  29.781  26.845  1.00  0.00    -0.206 F 
ATOM     46  C   UNL A   1      35.854  30.098  28.768  1.00  0.00     0.006 A 
ENDBRANCH  25  39
BRANCH  26  47
ATOM     47  C   UNL A   1      48.041  26.294  29.836  1.00  0.00     0.057 A 
ATOM     48  C   UNL A   1      48.942  26.471  28.779  1.00  0.00     0.134 A 
ATOM     49  C   UNL A   1      48.526  25.689  31.001  1.00  0.00     0.134 A 
ATOM     50  F   UNL A   1      48.533  27.031  27.631  1.00  0.00    -0.206 F 
ATOM     51  C   UNL A   1      50.268  26.045  28.870  1.00  0.00     0.040 A 
ATOM     52  C   UNL A   1      49.856  25.286  31.118  1.00  0.00     0.040 A 
ATOM     53  F   UNL A   1      47.715  25.500  32.054  1.00  0.00    -0.206 F 
ATOM     54  C   UNL A   1      50.730  25.457  30.045  1.00  0.00     0.006 A 
ENDBRANCH  26  47
BRANCH  38  55
ATOM     55  C   UNL A   1      44.688  32.105  31.683  1.00  0.00     0.057 A 
ATOM     56  C   UNL A   1      44.709  32.231  33.078  1.00  0.00     0.134 A 
ATOM     57  C   UNL A   1      45.129  33.201  30.930  1.00  0.00     0.134 A 
ATOM     58  F   UNL A   1      44.286  31.226  33.859  1.00  0.00    -0.206 F 
ATOM     59  C   UNL A   1      45.121  33.414  33.697  1.00  0.00     0.040 A 
ATOM     60  C   UNL A   1      45.574  34.376  31.537  1.00  0.00     0.040 A 
ATOM     61  F   UNL A   1      45.144  33.146  29.589  1.00  0.00    -0.206 F 
ATOM     62  C   UNL A   1      45.561  34.487  32.925  1.00  0.00     0.006 A 
ENDBRANCH  38  55
ENDBRANCH  12  13
ENDBRANCH   5   7
ENDBRANCH   2   3
ENDBRANCH   1   2
BRANCH   1  63
ATOM     63  C   UNL A   1      36.005  20.762  24.908  1.00  0.00     0.117 C 
BRANCH  63  64
ATOM     64  N   UNL A   1      35.445  21.038  26.223  1.00  0.00    -0.354 N 
ATOM     65  C   UNL A   1      34.194  21.413  26.625  1.00  0.00     0.247 C 
ATOM     66  H   UNL A   1      36.089  20.932  26.961  1.00  0.00     0.163 HD
ATOM     67  O   UNL A   1      34.093  21.818  27.790  1.00  0.00    -0.272 OA
BRANCH  65  68
ATOM     68  C   UNL A   1      32.971  21.460  25.664  1.00  0.00     0.202 C 
BRANCH  68  69
ATOM     69  C   UNL A   1      32.779  20.120  24.970  1.00  0.00    -0.016 A 
ATOM     70  C   UNL A   1      32.812  18.899  25.662  1.00  0.00     0.006 A 
ATOM     71  C   UNL A   1      32.549  20.090  23.583  1.00  0.00     0.006 A 
ATOM     72  C   UNL A   1      32.627  17.688  24.992  1.00  0.00     0.000 A 
ATOM     73  C   UNL A   1      32.337  18.880  22.919  1.00  0.00     0.000 A 
ATOM     74  C   UNL A   1      32.381  17.679  23.623  1.00  0.00     0.000 A 
ENDBRANCH  68  69
BRANCH  68  75
ATOM     75  N   UNL A   1      31.771  21.999  26.313  1.00  0.00    -0.336 N 
ATOM     76  C   UNL A   1      31.345  23.292  26.458  1.00  0.00     0.253 C 
ATOM     77  H   UNL A   1      31.176  21.321  26.708  1.00  0.00     0.165 HD
ATOM     78  O   UNL A   1      30.433  23.545  27.240  1.00  0.00    -0.269 OA
BRANCH  76  79
ATOM     79  C   UNL A   1      32.004  24.395  25.749  1.00  0.00     0.058 A 
ATOM     80  C   UNL A   1      33.210  24.950  26.163  1.00  0.00     0.018 A 
ATOM     81  C   UNL A   1      31.439  24.871  24.577  1.00  0.00     0.126 A 
ATOM     82  C   UNL A   1      33.737  26.040  25.475  1.00  0.00     0.037 A 
ATOM     83  N   UNL A   1      31.939  25.916  23.872  1.00  0.00    -0.249 NA
ATOM     84  C   UNL A   1      33.068  26.491  24.349  1.00  0.00     0.106 A 
ATOM     85  Br  UNL A   1      33.759  27.990  23.420  1.00  0.00    -0.029 Br
ENDBRANCH  76  79
ENDBRANCH  68  75
ENDBRANCH  65  68
ENDBRANCH  63  64
ENDBRANCH   1  63
TORSDOF 13
ENDMDL
