MODEL 1
REMARK VINA RESULT:     -12.0      0.000      0.000
REMARK SMILES CC(C)(C)OC(=O)N1CCN(N[C@@H](C(=O)NCCCNC(=O)c2ccc(-c3c4nc(c(-c5c(F)cccc5F)c5ccc([nH]5)c(-c5c(F)cccc5F)c5nc(c(-c6c(F)cccc6F)c6ccc3[nH]6)C=C5)C=C4)cc2)c2ccccc2Cl)CC1
REMARK SMILES IDX 17 1 16 2 14 3 15 4 13 6 12 7 11 9 6 10 7 11 8 12 9 13 85 14
REMARK SMILES IDX 10 15 84 16 5 17 2 18 1 19 3 20 4 21 77 22 78 23 82 24 79 25
REMARK SMILES IDX 81 26 83 27 80 28 18 29 19 30 20 31 21 32 22 34 23 35 24 36
REMARK SMILES IDX 76 37 25 38 75 39 26 40 27 41 28 42 69 43 29 44 74 45 68 46
REMARK SMILES IDX 70 47 30 48 73 49 67 50 66 51 31 53 57 54 40 55 56 56 41 57
REMARK SMILES IDX 44 58 55 59 71 60 42 61 43 62 54 64 72 65 45 66 32 67 33 68
REMARK SMILES IDX 38 69 34 70 35 71 37 72 39 73 36 74 58 75 59 76 64 77 60 78
REMARK SMILES IDX 61 79 63 80 65 81 62 82 46 83 47 84 52 85 48 86 49 87 51 88
REMARK SMILES IDX 53 89 50 90
REMARK H PARENT 16 5 12 8 20 33 70 52 44 63
REMARK Flexibility Score: inf
ROOT
ATOM      1  C   UNL A   1      31.693  28.917  25.859  1.00  0.00     0.117 C 
ENDROOT
BRANCH   1   2
ATOM      2  N   UNL A   1      32.452  29.207  24.662  1.00  0.00    -0.354 N 
ATOM      3  C   UNL A   1      32.290  28.773  23.375  1.00  0.00     0.243 C 
ATOM      4  O   UNL A   1      33.135  29.208  22.584  1.00  0.00    -0.273 OA
ATOM      5  H   UNL A   1      33.211  29.819  24.796  1.00  0.00     0.163 HD
BRANCH   3   6
ATOM      6  C   UNL A   1      31.064  27.905  22.928  1.00  0.00     0.190 C 
BRANCH   6   7
ATOM      7  N   UNL A   1      31.234  27.199  21.620  1.00  0.00    -0.238 NA
ATOM      8  H   UNL A   1      30.422  27.411  21.040  1.00  0.00     0.143 HD
BRANCH   7   9
ATOM      9  N   UNL A   1      31.356  25.757  21.715  1.00  0.00    -0.240 NA
ATOM     10  C   UNL A   1      34.324  23.714  23.660  1.00  0.00     0.410 C 
ATOM     11  O   UNL A   1      35.336  23.356  23.079  1.00  0.00    -0.224 OA
ATOM     12  N   UNL A   1      33.627  24.856  23.319  1.00  0.00    -0.306 N 
ATOM     13  C   UNL A   1      33.867  25.474  22.027  1.00  0.00     0.140 C 
ATOM     14  C   UNL A   1      32.465  25.392  24.017  1.00  0.00     0.140 C 
ATOM     15  C   UNL A   1      32.632  25.250  21.147  1.00  0.00     0.124 C 
ATOM     16  C   UNL A   1      31.204  25.309  23.131  1.00  0.00     0.124 C 
BRANCH  10  17
ATOM     17  O   UNL A   1      33.734  23.024  24.672  1.00  0.00    -0.444 OA
BRANCH  17  18
ATOM     18  C   UNL A   1      33.004  21.797  24.396  1.00  0.00     0.106 C 
ATOM     19  C   UNL A   1      31.820  21.810  25.373  1.00  0.00     0.056 C 
ATOM     20  C   UNL A   1      33.899  20.595  24.706  1.00  0.00     0.056 C 
ATOM     21  C   UNL A   1      32.433  21.727  22.971  1.00  0.00     0.056 C 
ENDBRANCH  17  18
ENDBRANCH  10  17
ENDBRANCH   7   9
ENDBRANCH   6   7
BRANCH   6  22
ATOM     22  C   UNL A   1      29.777  28.741  22.843  1.00  0.00    -0.002 A 
ATOM     23  C   UNL A   1      29.875  30.080  22.411  1.00  0.00     0.007 A 
ATOM     24  C   UNL A   1      28.502  28.254  23.198  1.00  0.00     0.046 A 
ATOM     25  C   UNL A   1      28.741  30.889  22.303  1.00  0.00     0.000 A 
ATOM     26  C   UNL A   1      27.367  29.062  23.060  1.00  0.00     0.021 A 
ATOM     27  Cl  UNL A   1      28.247  26.681  23.879  1.00  0.00    -0.084 Cl
ATOM     28  C   UNL A   1      27.485  30.376  22.612  1.00  0.00     0.002 A 
ENDBRANCH   6  22
ENDBRANCH   3   6
ENDBRANCH   1   2
BRANCH   1  29
ATOM     29  C   UNL A   1      32.479  28.018  26.809  1.00  0.00     0.042 C 
BRANCH  29  30
ATOM     30  C   UNL A   1      33.840  28.567  27.201  1.00  0.00     0.118 C 
BRANCH  30  31
ATOM     31  N   UNL A   1      33.767  29.933  27.694  1.00  0.00    -0.352 N 
ATOM     32  C   UNL A   1      34.700  30.680  28.366  1.00  0.00     0.251 C 
ATOM     33  H   UNL A   1      32.915  30.393  27.515  1.00  0.00     0.163 HD
ATOM     34  O   UNL A   1      34.366  31.756  28.857  1.00  0.00    -0.269 OA
BRANCH  32  35
ATOM     35  C   UNL A   1      36.096  30.207  28.523  1.00  0.00     0.039 A 
ATOM     36  C   UNL A   1      36.487  29.674  29.757  1.00  0.00     0.014 A 
ATOM     37  C   UNL A   1      37.036  30.328  27.496  1.00  0.00     0.014 A 
ATOM     38  C   UNL A   1      37.800  29.234  29.947  1.00  0.00     0.010 A 
ATOM     39  C   UNL A   1      38.319  29.810  27.656  1.00  0.00     0.010 A 
ATOM     40  C   UNL A   1      38.722  29.279  28.890  1.00  0.00    -0.014 A 
BRANCH  40  41
ATOM     41  C   UNL A   1      40.126  28.829  29.067  1.00  0.00     0.031 A 
ATOM     42  C   UNL A   1      41.145  29.771  29.653  1.00  0.00     0.074 A 
ATOM     43  C   UNL A   1      40.499  27.604  28.653  1.00  0.00     0.049 A 
ATOM     44  N   UNL A   1      42.434  29.605  29.809  1.00  0.00    -0.248 NA
ATOM     45  C   UNL A   1      40.653  31.086  30.094  1.00  0.00     0.031 C 
ATOM     46  C   UNL A   1      39.618  26.613  28.032  1.00  0.00     0.029 A 
ATOM     47  N   UNL A   1      41.724  26.985  28.683  1.00  0.00    -0.354 N 
ATOM     48  C   UNL A   1      42.907  30.799  30.339  1.00  0.00     0.074 A 
ATOM     49  C   UNL A   1      41.778  31.699  30.430  1.00  0.00     0.031 C 
ATOM     50  C   UNL A   1      40.325  25.506  27.760  1.00  0.00     0.029 A 
ATOM     51  C   UNL A   1      41.713  25.718  28.154  1.00  0.00     0.049 A 
ATOM     52  H   UNL A   1      42.533  27.410  29.049  1.00  0.00     0.167 HD
ATOM     53  C   UNL A   1      44.163  31.112  30.737  1.00  0.00     0.037 A 
ATOM     54  C   UNL A   1      42.714  24.830  28.002  1.00  0.00     0.037 A 
ATOM     55  C   UNL A   1      45.276  30.203  30.684  1.00  0.00     0.049 A 
ATOM     56  C   UNL A   1      44.097  25.193  28.469  1.00  0.00     0.074 A 
ATOM     57  C   UNL A   1      46.576  30.402  31.115  1.00  0.00     0.029 A 
ATOM     58  N   UNL A   1      45.217  28.915  30.173  1.00  0.00    -0.354 N 
ATOM     59  N   UNL A   1      44.518  26.308  29.015  1.00  0.00    -0.248 NA
ATOM     60  C   UNL A   1      45.141  24.171  28.305  1.00  0.00     0.031 C 
ATOM     61  C   UNL A   1      47.311  29.245  30.836  1.00  0.00     0.029 A 
ATOM     62  C   UNL A   1      46.459  28.311  30.269  1.00  0.00     0.049 A 
ATOM     63  H   UNL A   1      44.410  28.492  29.798  1.00  0.00     0.167 HD
ATOM     64  C   UNL A   1      45.867  26.112  29.288  1.00  0.00     0.074 A 
ATOM     65  C   UNL A   1      46.189  24.767  28.855  1.00  0.00     0.031 C 
ATOM     66  C   UNL A   1      46.757  26.967  29.846  1.00  0.00     0.037 A 
BRANCH  53  67
ATOM     67  C   UNL A   1      44.395  32.496  31.270  1.00  0.00     0.057 A 
ATOM     68  C   UNL A   1      44.758  33.559  30.432  1.00  0.00     0.134 A 
ATOM     69  C   UNL A   1      44.231  32.776  32.632  1.00  0.00     0.134 A 
ATOM     70  F   UNL A   1      44.944  33.357  29.120  1.00  0.00    -0.206 F 
ATOM     71  C   UNL A   1      44.979  34.843  30.935  1.00  0.00     0.040 A 
ATOM     72  C   UNL A   1      44.423  34.061  33.142  1.00  0.00     0.040 A 
ATOM     73  F   UNL A   1      43.879  31.806  33.490  1.00  0.00    -0.206 F 
ATOM     74  C   UNL A   1      44.805  35.098  32.293  1.00  0.00     0.006 A 
ENDBRANCH  53  67
BRANCH  54  75
ATOM     75  C   UNL A   1      42.440  23.498  27.409  1.00  0.00     0.057 A 
ATOM     76  C   UNL A   1      42.538  23.291  26.027  1.00  0.00     0.134 A 
ATOM     77  C   UNL A   1      42.073  22.403  28.200  1.00  0.00     0.134 A 
ATOM     78  F   UNL A   1      42.868  24.307  25.215  1.00  0.00    -0.206 F 
ATOM     79  C   UNL A   1      42.262  22.050  25.452  1.00  0.00     0.040 A 
ATOM     80  C   UNL A   1      41.818  21.150  27.641  1.00  0.00     0.040 A 
ATOM     81  F   UNL A   1      41.971  22.535  29.531  1.00  0.00    -0.206 F 
ATOM     82  C   UNL A   1      41.906  20.973  26.261  1.00  0.00     0.006 A 
ENDBRANCH  54  75
BRANCH  66  83
ATOM     83  C   UNL A   1      48.152  26.461  30.059  1.00  0.00     0.057 A 
ATOM     84  C   UNL A   1      49.157  26.640  29.102  1.00  0.00     0.134 A 
ATOM     85  C   UNL A   1      48.500  25.824  31.258  1.00  0.00     0.134 A 
ATOM     86  F   UNL A   1      48.883  27.231  27.930  1.00  0.00    -0.206 F 
ATOM     87  C   UNL A   1      50.458  26.184  29.321  1.00  0.00     0.040 A 
ATOM     88  C   UNL A   1      49.804  25.386  31.497  1.00  0.00     0.040 A 
ATOM     89  F   UNL A   1      47.585  25.631  32.218  1.00  0.00    -0.206 F 
ATOM     90  C   UNL A   1      50.786  25.561  30.524  1.00  0.00     0.006 A 
ENDBRANCH  66  83
ENDBRANCH  40  41
ENDBRANCH  32  35
ENDBRANCH  30  31
ENDBRANCH  29  30
ENDBRANCH   1  29
TORSDOF 15
ENDMDL
MODEL 2
REMARK VINA RESULT:     -11.9      2.466      6.858
REMARK SMILES CC(C)(C)OC(=O)N1CCN(N[C@@H](C(=O)NCCCNC(=O)c2ccc(-c3c4nc(c(-c5c(F)cccc5F)c5ccc([nH]5)c(-c5c(F)cccc5F)c5nc(c(-c6c(F)cccc6F)c6ccc3[nH]6)C=C5)C=C4)cc2)c2ccccc2Cl)CC1
REMARK SMILES IDX 17 1 16 2 14 3 15 4 13 6 12 7 11 9 6 10 7 11 8 12 9 13 85 14
REMARK SMILES IDX 10 15 84 16 5 17 2 18 1 19 3 20 4 21 77 22 78 23 82 24 79 25
REMARK SMILES IDX 81 26 83 27 80 28 18 29 19 30 20 31 21 32 22 34 23 35 24 36
REMARK SMILES IDX 76 37 25 38 75 39 26 40 27 41 28 42 69 43 29 44 74 45 68 46
REMARK SMILES IDX 70 47 30 48 73 49 67 50 66 51 31 53 57 54 40 55 56 56 41 57
REMARK SMILES IDX 44 58 55 59 71 60 42 61 43 62 54 64 72 65 45 66 32 67 33 68
REMARK SMILES IDX 38 69 34 70 35 71 37 72 39 73 36 74 58 75 59 76 64 77 60 78
REMARK SMILES IDX 61 79 63 80 65 81 62 82 46 83 47 84 52 85 48 86 49 87 51 88
REMARK SMILES IDX 53 89 50 90
REMARK H PARENT 16 5 12 8 20 33 70 52 44 63
REMARK Flexibility Score: inf
ROOT
ATOM      1  C   UNL A   1      31.461  29.631  25.484  1.00  0.00     0.117 C 
ENDROOT
BRANCH   1   2
ATOM      2  N   UNL A   1      32.392  29.580  24.379  1.00  0.00    -0.354 N 
ATOM      3  C   UNL A   1      32.364  28.854  23.220  1.00  0.00     0.243 C 
ATOM      4  O   UNL A   1      33.339  29.038  22.483  1.00  0.00    -0.273 OA
ATOM      5  H   UNL A   1      33.177  30.166  24.476  1.00  0.00     0.163 HD
BRANCH   3   6
ATOM      6  C   UNL A   1      31.137  27.968  22.813  1.00  0.00     0.190 C 
BRANCH   6   7
ATOM      7  N   UNL A   1      31.326  27.161  21.568  1.00  0.00    -0.238 NA
ATOM      8  H   UNL A   1      30.508  27.301  20.974  1.00  0.00     0.143 HD
BRANCH   7   9
ATOM      9  N   UNL A   1      31.487  25.736  21.783  1.00  0.00    -0.240 NA
ATOM     10  C   UNL A   1      34.124  23.973  24.372  1.00  0.00     0.410 C 
ATOM     11  O   UNL A   1      35.240  23.635  24.011  1.00  0.00    -0.224 OA
ATOM     12  N   UNL A   1      33.457  25.053  23.832  1.00  0.00    -0.306 N 
ATOM     13  C   UNL A   1      33.907  25.605  22.566  1.00  0.00     0.140 C 
ATOM     14  C   UNL A   1      32.164  25.568  24.267  1.00  0.00     0.140 C 
ATOM     15  C   UNL A   1      32.866  25.264  21.493  1.00  0.00     0.124 C 
ATOM     16  C   UNL A   1      31.093  25.365  23.174  1.00  0.00     0.124 C 
BRANCH  10  17
ATOM     17  O   UNL A   1      33.386  23.314  25.304  1.00  0.00    -0.444 OA
BRANCH  17  18
ATOM     18  C   UNL A   1      32.780  22.031  24.987  1.00  0.00     0.106 C 
ATOM     19  C   UNL A   1      31.396  22.068  25.652  1.00  0.00     0.056 C 
ATOM     20  C   UNL A   1      33.610  20.909  25.618  1.00  0.00     0.056 C 
ATOM     21  C   UNL A   1      32.569  21.803  23.482  1.00  0.00     0.056 C 
ENDBRANCH  17  18
ENDBRANCH  10  17
ENDBRANCH   7   9
ENDBRANCH   6   7
BRANCH   6  22
ATOM     22  C   UNL A   1      29.863  28.809  22.634  1.00  0.00    -0.002 A 
ATOM     23  C   UNL A   1      29.980  30.083  22.040  1.00  0.00     0.007 A 
ATOM     24  C   UNL A   1      28.583  28.393  23.053  1.00  0.00     0.046 A 
ATOM     25  C   UNL A   1      28.858  30.893  21.840  1.00  0.00     0.000 A 
ATOM     26  C   UNL A   1      27.460  29.198  22.824  1.00  0.00     0.021 A 
ATOM     27  Cl  UNL A   1      28.306  26.920  23.924  1.00  0.00    -0.084 Cl
ATOM     28  C   UNL A   1      27.597  30.444  22.218  1.00  0.00     0.002 A 
ENDBRANCH   6  22
ENDBRANCH   3   6
ENDBRANCH   1   2
BRANCH   1  29
ATOM     29  C   UNL A   1      31.268  31.061  25.982  1.00  0.00     0.042 C 
BRANCH  29  30
ATOM     30  C   UNL A   1      32.361  31.547  26.919  1.00  0.00     0.118 C 
BRANCH  30  31
ATOM     31  N   UNL A   1      32.200  32.946  27.280  1.00  0.00    -0.352 N 
ATOM     32  C   UNL A   1      32.974  33.744  28.084  1.00  0.00     0.251 C 
ATOM     33  H   UNL A   1      31.414  33.388  26.886  1.00  0.00     0.163 HD
ATOM     34  O   UNL A   1      32.556  34.853  28.408  1.00  0.00    -0.269 OA
BRANCH  32  35
ATOM     35  C   UNL A   1      34.295  33.287  28.578  1.00  0.00     0.039 A 
ATOM     36  C   UNL A   1      35.439  33.638  27.852  1.00  0.00     0.014 A 
ATOM     37  C   UNL A   1      34.419  32.476  29.710  1.00  0.00     0.014 A 
ATOM     38  C   UNL A   1      36.699  33.210  28.279  1.00  0.00     0.010 A 
ATOM     39  C   UNL A   1      35.680  32.123  30.184  1.00  0.00     0.010 A 
ATOM     40  C   UNL A   1      36.832  32.466  29.461  1.00  0.00    -0.014 A 
BRANCH  40  41
ATOM     41  C   UNL A   1      38.157  31.987  29.930  1.00  0.00     0.031 A 
ATOM     42  C   UNL A   1      38.708  30.684  29.415  1.00  0.00     0.074 A 
ATOM     43  C   UNL A   1      38.838  32.689  30.856  1.00  0.00     0.049 A 
ATOM     44  N   UNL A   1      39.798  30.049  29.763  1.00  0.00    -0.248 NA
ATOM     45  C   UNL A   1      37.909  29.986  28.395  1.00  0.00     0.031 C 
ATOM     46  C   UNL A   1      38.394  33.945  31.464  1.00  0.00     0.029 A 
ATOM     47  N   UNL A   1      40.046  32.438  31.456  1.00  0.00    -0.354 N 
ATOM     48  C   UNL A   1      39.800  28.871  29.027  1.00  0.00     0.074 A 
ATOM     49  C   UNL A   1      38.580  28.853  28.251  1.00  0.00     0.031 C 
ATOM     50  C   UNL A   1      39.327  34.364  32.334  1.00  0.00     0.029 A 
ATOM     51  C   UNL A   1      40.416  33.394  32.370  1.00  0.00     0.049 A 
ATOM     52  H   UNL A   1      40.597  31.648  31.250  1.00  0.00     0.167 HD
ATOM     53  C   UNL A   1      40.746  27.901  28.980  1.00  0.00     0.037 A 
ATOM     54  C   UNL A   1      41.509  33.474  33.152  1.00  0.00     0.037 A 
ATOM     55  C   UNL A   1      41.978  27.940  29.720  1.00  0.00     0.049 A 
ATOM     56  C   UNL A   1      42.554  32.395  33.069  1.00  0.00     0.074 A 
ATOM     57  C   UNL A   1      43.026  27.037  29.701  1.00  0.00     0.029 A 
ATOM     58  N   UNL A   1      42.331  28.944  30.611  1.00  0.00    -0.354 N 
ATOM     59  N   UNL A   1      42.566  31.313  32.330  1.00  0.00    -0.248 NA
ATOM     60  C   UNL A   1      43.739  32.554  33.924  1.00  0.00     0.031 C 
ATOM     61  C   UNL A   1      44.000  27.479  30.602  1.00  0.00     0.029 A 
ATOM     62  C   UNL A   1      43.576  28.678  31.153  1.00  0.00     0.049 A 
ATOM     63  H   UNL A   1      41.777  29.729  30.825  1.00  0.00     0.167 HD
ATOM     64  C   UNL A   1      43.771  30.678  32.606  1.00  0.00     0.074 A 
ATOM     65  C   UNL A   1      44.465  31.502  33.574  1.00  0.00     0.031 C 
ATOM     66  C   UNL A   1      44.257  29.517  32.104  1.00  0.00     0.037 A 
BRANCH  53  67
ATOM     67  C   UNL A   1      40.481  26.720  28.093  1.00  0.00     0.057 A 
ATOM     68  C   UNL A   1      41.092  26.587  26.839  1.00  0.00     0.134 A 
ATOM     69  C   UNL A   1      39.623  25.693  28.503  1.00  0.00     0.134 A 
ATOM     70  F   UNL A   1      41.914  27.542  26.379  1.00  0.00    -0.206 F 
ATOM     71  C   UNL A   1      40.837  25.491  26.013  1.00  0.00     0.040 A 
ATOM     72  C   UNL A   1      39.380  24.578  27.698  1.00  0.00     0.040 A 
ATOM     73  F   UNL A   1      39.009  25.753  29.694  1.00  0.00    -0.206 F 
ATOM     74  C   UNL A   1      39.983  24.478  26.446  1.00  0.00     0.006 A 
ENDBRANCH  53  67
BRANCH  54  75
ATOM     75  C   UNL A   1      41.688  34.635  34.060  1.00  0.00     0.057 A 
ATOM     76  C   UNL A   1      42.357  35.787  33.630  1.00  0.00     0.134 A 
ATOM     77  C   UNL A   1      41.203  34.623  35.373  1.00  0.00     0.134 A 
ATOM     78  F   UNL A   1      42.860  35.851  32.388  1.00  0.00    -0.206 F 
ATOM     79  C   UNL A   1      42.552  36.878  34.478  1.00  0.00     0.040 A 
ATOM     80  C   UNL A   1      41.370  35.716  36.224  1.00  0.00     0.040 A 
ATOM     81  F   UNL A   1      40.546  33.551  35.841  1.00  0.00    -0.206 F 
ATOM     82  C   UNL A   1      42.054  36.846  35.778  1.00  0.00     0.006 A 
ENDBRANCH  54  75
BRANCH  66  83
ATOM     83  C   UNL A   1      45.621  29.092  32.560  1.00  0.00     0.057 A 
ATOM     84  C   UNL A   1      45.802  28.239  33.654  1.00  0.00     0.134 A 
ATOM     85  C   UNL A   1      46.764  29.511  31.865  1.00  0.00     0.134 A 
ATOM     86  F   UNL A   1      44.748  27.814  34.367  1.00  0.00    -0.206 F 
ATOM     87  C   UNL A   1      47.076  27.832  34.056  1.00  0.00     0.040 A 
ATOM     88  C   UNL A   1      48.040  29.091  32.243  1.00  0.00     0.040 A 
ATOM     89  F   UNL A   1      46.656  30.322  30.803  1.00  0.00    -0.206 F 
ATOM     90  C   UNL A   1      48.199  28.253  33.345  1.00  0.00     0.006 A 
ENDBRANCH  66  83
ENDBRANCH  40  41
ENDBRANCH  32  35
ENDBRANCH  30  31
ENDBRANCH  29  30
ENDBRANCH   1  29
TORSDOF 15
ENDMDL
MODEL 3
REMARK VINA RESULT:     -11.7      3.535      7.242
REMARK SMILES CC(C)(C)OC(=O)N1CCN(N[C@@H](C(=O)NCCCNC(=O)c2ccc(-c3c4nc(c(-c5c(F)cccc5F)c5ccc([nH]5)c(-c5c(F)cccc5F)c5nc(c(-c6c(F)cccc6F)c6ccc3[nH]6)C=C5)C=C4)cc2)c2ccccc2Cl)CC1
REMARK SMILES IDX 17 1 16 2 14 3 15 4 13 6 12 7 11 9 6 10 7 11 8 12 9 13 85 14
REMARK SMILES IDX 10 15 84 16 5 17 2 18 1 19 3 20 4 21 77 22 78 23 82 24 79 25
REMARK SMILES IDX 81 26 83 27 80 28 18 29 19 30 20 31 21 32 22 34 23 35 24 36
REMARK SMILES IDX 76 37 25 38 75 39 26 40 27 41 28 42 69 43 29 44 74 45 68 46
REMARK SMILES IDX 70 47 30 48 73 49 67 50 66 51 31 53 57 54 40 55 56 56 41 57
REMARK SMILES IDX 44 58 55 59 71 60 42 61 43 62 54 64 72 65 45 66 32 67 33 68
REMARK SMILES IDX 38 69 34 70 35 71 37 72 39 73 36 74 58 75 59 76 64 77 60 78
REMARK SMILES IDX 61 79 63 80 65 81 62 82 46 83 47 84 52 85 48 86 49 87 51 88
REMARK SMILES IDX 53 89 50 90
REMARK H PARENT 16 5 12 8 20 33 70 52 44 63
REMARK Flexibility Score: inf
ROOT
ATOM      1  C   UNL A   1      31.692  30.443  26.551  1.00  0.00     0.117 C 
ENDROOT
BRANCH   1   2
ATOM      2  N   UNL A   1      32.453  30.164  25.354  1.00  0.00    -0.354 N 
ATOM      3  C   UNL A   1      32.297  29.195  24.402  1.00  0.00     0.243 C 
ATOM      4  O   UNL A   1      33.143  29.228  23.501  1.00  0.00    -0.273 OA
ATOM      5  H   UNL A   1      33.210  30.773  25.197  1.00  0.00     0.163 HD
BRANCH   3   6
ATOM      6  C   UNL A   1      31.075  28.213  24.393  1.00  0.00     0.190 C 
BRANCH   6   7
ATOM      7  N   UNL A   1      31.343  26.877  23.776  1.00  0.00    -0.238 NA
ATOM      8  H   UNL A   1      30.450  26.395  23.667  1.00  0.00     0.143 HD
BRANCH   7   9
ATOM      9  N   UNL A   1      32.227  26.017  24.540  1.00  0.00    -0.240 NA
ATOM     10  C   UNL A   1      32.850  22.022  23.897  1.00  0.00     0.410 C 
ATOM     11  O   UNL A   1      32.188  21.174  24.473  1.00  0.00    -0.224 OA
ATOM     12  N   UNL A   1      32.351  23.265  23.564  1.00  0.00    -0.306 N 
ATOM     13  C   UNL A   1      31.139  23.738  24.210  1.00  0.00     0.140 C 
ATOM     14  C   UNL A   1      33.049  24.294  22.804  1.00  0.00     0.140 C 
ATOM     15  C   UNL A   1      31.515  24.874  25.169  1.00  0.00     0.124 C 
ATOM     16  C   UNL A   1      33.348  25.524  23.687  1.00  0.00     0.124 C 
BRANCH  10  17
ATOM     17  O   UNL A   1      34.157  21.874  23.553  1.00  0.00    -0.444 OA
BRANCH  17  18
ATOM     18  C   UNL A   1      35.194  21.928  24.571  1.00  0.00     0.106 C 
ATOM     19  C   UNL A   1      36.398  22.586  23.879  1.00  0.00     0.056 C 
ATOM     20  C   UNL A   1      35.571  20.504  24.987  1.00  0.00     0.056 C 
ATOM     21  C   UNL A   1      34.822  22.794  25.784  1.00  0.00     0.056 C 
ENDBRANCH  17  18
ENDBRANCH  10  17
ENDBRANCH   7   9
ENDBRANCH   6   7
BRANCH   6  22
ATOM     22  C   UNL A   1      29.861  28.823  23.675  1.00  0.00    -0.002 A 
ATOM     23  C   UNL A   1      29.925  30.176  23.283  1.00  0.00     0.007 A 
ATOM     24  C   UNL A   1      28.672  28.114  23.407  1.00  0.00     0.046 A 
ATOM     25  C   UNL A   1      28.858  30.787  22.617  1.00  0.00     0.000 A 
ATOM     26  C   UNL A   1      27.619  28.725  22.715  1.00  0.00     0.021 A 
ATOM     27  Cl  UNL A   1      28.393  26.494  23.954  1.00  0.00    -0.084 Cl
ATOM     28  C   UNL A   1      27.712  30.057  22.320  1.00  0.00     0.002 A 
ENDBRANCH   6  22
ENDBRANCH   3   6
ENDBRANCH   1   2
BRANCH   1  29
ATOM     29  C   UNL A   1      31.509  31.944  26.755  1.00  0.00     0.042 C 
BRANCH  29  30
ATOM     30  C   UNL A   1      32.806  32.706  26.965  1.00  0.00     0.118 C 
BRANCH  30  31
ATOM     31  N   UNL A   1      32.594  34.000  27.592  1.00  0.00    -0.352 N 
ATOM     32  C   UNL A   1      33.195  34.557  28.693  1.00  0.00     0.251 C 
ATOM     33  H   UNL A   1      31.915  34.565  27.158  1.00  0.00     0.163 HD
ATOM     34  O   UNL A   1      32.734  35.592  29.168  1.00  0.00    -0.269 OA
BRANCH  32  35
ATOM     35  C   UNL A   1      34.376  33.924  29.327  1.00  0.00     0.039 A 
ATOM     36  C   UNL A   1      35.652  34.364  28.955  1.00  0.00     0.014 A 
ATOM     37  C   UNL A   1      34.249  32.871  30.237  1.00  0.00     0.014 A 
ATOM     38  C   UNL A   1      36.788  33.778  29.518  1.00  0.00     0.010 A 
ATOM     39  C   UNL A   1      35.377  32.346  30.864  1.00  0.00     0.010 A 
ATOM     40  C   UNL A   1      36.660  32.777  30.494  1.00  0.00    -0.014 A 
BRANCH  40  41
ATOM     41  C   UNL A   1      37.850  32.129  31.100  1.00  0.00     0.031 A 
ATOM     42  C   UNL A   1      38.565  31.032  30.356  1.00  0.00     0.074 A 
ATOM     43  C   UNL A   1      38.255  32.482  32.335  1.00  0.00     0.049 A 
ATOM     44  N   UNL A   1      39.564  30.282  30.744  1.00  0.00    -0.248 NA
ATOM     45  C   UNL A   1      38.069  30.717  29.006  1.00  0.00     0.031 C 
ATOM     46  C   UNL A   1      37.622  33.499  33.176  1.00  0.00     0.029 A 
ATOM     47  N   UNL A   1      39.290  32.013  33.103  1.00  0.00    -0.354 N 
ATOM     48  C   UNL A   1      39.797  29.393  29.702  1.00  0.00     0.074 A 
ATOM     49  C   UNL A   1      38.804  29.663  28.686  1.00  0.00     0.031 C 
ATOM     50  C   UNL A   1      38.296  33.593  34.333  1.00  0.00     0.029 A 
ATOM     51  C   UNL A   1      39.385  32.621  34.331  1.00  0.00     0.049 A 
ATOM     52  H   UNL A   1      39.908  31.307  32.802  1.00  0.00     0.167 HD
ATOM     53  C   UNL A   1      40.766  28.453  29.588  1.00  0.00     0.037 A 
ATOM     54  C   UNL A   1      40.250  32.413  35.341  1.00  0.00     0.037 A 
ATOM     55  C   UNL A   1      41.779  28.215  30.581  1.00  0.00     0.049 A 
ATOM     56  C   UNL A   1      41.329  31.378  35.184  1.00  0.00     0.074 A 
ATOM     57  C   UNL A   1      42.838  27.326  30.538  1.00  0.00     0.029 A 
ATOM     58  N   UNL A   1      41.860  28.877  31.797  1.00  0.00    -0.354 N 
ATOM     59  N   UNL A   1      41.568  30.581  34.171  1.00  0.00    -0.248 NA
ATOM     60  C   UNL A   1      42.263  31.219  36.308  1.00  0.00     0.031 C 
ATOM     61  C   UNL A   1      43.543  27.429  31.742  1.00  0.00     0.029 A 
ATOM     62  C   UNL A   1      42.947  28.410  32.517  1.00  0.00     0.049 A 
ATOM     63  H   UNL A   1      41.238  29.576  32.103  1.00  0.00     0.167 HD
ATOM     64  C   UNL A   1      42.695  29.848  34.521  1.00  0.00     0.074 A 
ATOM     65  C   UNL A   1      43.097  30.303  35.837  1.00  0.00     0.031 C 
ATOM     66  C   UNL A   1      43.339  28.885  33.818  1.00  0.00     0.037 A 
BRANCH  53  67
ATOM     67  C   UNL A   1      40.776  27.619  28.341  1.00  0.00     0.057 A 
ATOM     68  C   UNL A   1      40.047  26.426  28.244  1.00  0.00     0.134 A 
ATOM     69  C   UNL A   1      41.504  28.022  27.215  1.00  0.00     0.134 A 
ATOM     70  F   UNL A   1      39.339  25.975  29.291  1.00  0.00    -0.206 F 
ATOM     71  C   UNL A   1      40.066  25.649  27.084  1.00  0.00     0.040 A 
ATOM     72  C   UNL A   1      41.509  27.268  26.040  1.00  0.00     0.040 A 
ATOM     73  F   UNL A   1      42.220  29.156  27.236  1.00  0.00    -0.206 F 
ATOM     74  C   UNL A   1      40.794  26.074  25.975  1.00  0.00     0.006 A 
ENDBRANCH  53  67
BRANCH  54  75
ATOM     75  C   UNL A   1      40.153  33.225  36.579  1.00  0.00     0.057 A 
ATOM     76  C   UNL A   1      40.963  34.352  36.766  1.00  0.00     0.134 A 
ATOM     77  C   UNL A   1      39.257  32.898  37.604  1.00  0.00     0.134 A 
ATOM     78  F   UNL A   1      41.854  34.705  35.828  1.00  0.00    -0.206 F 
ATOM     79  C   UNL A   1      40.899  35.113  37.934  1.00  0.00     0.040 A 
ATOM     80  C   UNL A   1      39.165  33.665  38.767  1.00  0.00     0.040 A 
ATOM     81  F   UNL A   1      38.448  31.836  37.481  1.00  0.00    -0.206 F 
ATOM     82  C   UNL A   1      39.994  34.773  38.937  1.00  0.00     0.006 A 
ENDBRANCH  54  75
BRANCH  66  83
ATOM     83  C   UNL A   1      44.568  28.291  34.437  1.00  0.00     0.057 A 
ATOM     84  C   UNL A   1      45.836  28.851  34.247  1.00  0.00     0.134 A 
ATOM     85  C   UNL A   1      44.472  27.167  35.270  1.00  0.00     0.134 A 
ATOM     86  F   UNL A   1      45.995  29.919  33.451  1.00  0.00    -0.206 F 
ATOM     87  C   UNL A   1      46.971  28.302  34.846  1.00  0.00     0.040 A 
ATOM     88  C   UNL A   1      45.596  26.624  35.893  1.00  0.00     0.040 A 
ATOM     89  F   UNL A   1      43.284  26.589  35.499  1.00  0.00    -0.206 F 
ATOM     90  C   UNL A   1      46.851  27.189  35.678  1.00  0.00     0.006 A 
ENDBRANCH  66  83
ENDBRANCH  40  41
ENDBRANCH  32  35
ENDBRANCH  30  31
ENDBRANCH  29  30
ENDBRANCH   1  29
TORSDOF 15
ENDMDL
