MODEL 1
REMARK VINA RESULT:     -12.6      0.000      0.000
REMARK SMILES Cc1nn(C)c(=O)c(C(=O)N2CC[C@@H](C(=O)NCCCNC(=O)c3ccc(-c4c5nc(c(-c6c(F)cccc6F)c6ccc([nH]6)c(-c6c(F)cccc6F)c6nc(c(-c7c(F)cccc7F)c7ccc4[nH]7)C=C6)C=C5)cc3)[C@@H]2C)c1C
REMARK SMILES IDX 19 1 18 2 17 3 15 4 16 5 14 7 11 8 12 9 78 10 13 11 79 12
REMARK SMILES IDX 9 13 10 14 8 15 1 16 2 17 3 18 80 19 4 20 81 21 5 22 6 23
REMARK SMILES IDX 7 24 20 25 21 26 22 27 23 29 24 30 25 31 77 32 26 33 76 34
REMARK SMILES IDX 27 35 28 36 29 37 70 38 30 39 75 40 69 41 71 42 31 43 74 44
REMARK SMILES IDX 68 45 67 46 32 48 58 49 41 50 57 51 42 52 45 53 56 54 72 55
REMARK SMILES IDX 43 56 44 57 55 59 73 60 46 61 33 62 34 63 39 64 35 65 36 66
REMARK SMILES IDX 38 67 40 68 37 69 59 70 60 71 65 72 61 73 62 74 64 75 66 76
REMARK SMILES IDX 63 77 47 78 48 79 53 80 49 81 50 82 52 83 54 84 51 85
REMARK H PARENT 17 6 21 28 71 47 45 58
REMARK Flexibility Score: inf
ROOT
ATOM      1  C   UNL A   1      30.895  31.140  25.342  1.00  0.00     0.042 C 
ENDROOT
BRANCH   1   2
ATOM      2  C   UNL A   1      31.024  29.780  24.655  1.00  0.00     0.117 C 
BRANCH   2   3
ATOM      3  N   UNL A   1      32.392  29.466  24.273  1.00  0.00    -0.356 N 
ATOM      4  C   UNL A   1      33.131  28.332  24.278  1.00  0.00     0.225 C 
ATOM      5  O   UNL A   1      34.265  28.439  23.795  1.00  0.00    -0.275 OA
ATOM      6  H   UNL A   1      32.888  30.248  23.938  1.00  0.00     0.163 HD
BRANCH   4   7
ATOM      7  C   UNL A   1      32.726  27.004  24.903  1.00  0.00     0.102 C 
ATOM      8  N   UNL A   1      33.649  25.061  23.929  1.00  0.00    -0.335 N 
ATOM      9  C   UNL A   1      34.143  25.056  25.294  1.00  0.00     0.121 C 
ATOM     10  C   UNL A   1      32.490  25.944  23.823  1.00  0.00     0.094 C 
ATOM     11  C   UNL A   1      33.643  26.352  25.936  1.00  0.00     0.037 C 
ATOM     12  C   UNL A   1      31.148  25.236  24.022  1.00  0.00     0.032 C 
BRANCH   8  13
ATOM     13  C   UNL A   1      33.784  23.923  23.156  1.00  0.00     0.260 C 
ATOM     14  O   UNL A   1      33.687  23.905  21.919  1.00  0.00    -0.269 OA
BRANCH  13  15
ATOM     15  C   UNL A   1      34.246  22.726  23.889  1.00  0.00     0.111 A 
ATOM     16  C   UNL A   1      37.350  21.106  25.231  1.00  0.00     0.069 C 
ATOM     17  C   UNL A   1      35.943  21.240  24.695  1.00  0.00     0.062 A 
ATOM     18  N   UNL A   1      35.123  20.279  24.973  1.00  0.00    -0.175 NA
ATOM     19  C   UNL A   1      35.569  22.460  23.937  1.00  0.00    -0.010 A 
ATOM     20  N   UNL A   1      33.804  20.461  24.648  1.00  0.00    -0.232 N 
ATOM     21  C   UNL A   1      36.636  23.192  23.184  1.00  0.00     0.047 C 
ATOM     22  C   UNL A   1      32.950  19.297  24.802  1.00  0.00     0.178 C 
ATOM     23  C   UNL A   1      33.270  21.699  24.321  1.00  0.00     0.279 A 
ATOM     24  O   UNL A   1      32.054  21.952  24.330  1.00  0.00    -0.267 OA
ENDBRANCH  13  15
ENDBRANCH   8  13
ENDBRANCH   4   7
ENDBRANCH   2   3
ENDBRANCH   1   2
BRANCH   1  25
ATOM     25  C   UNL A   1      31.862  31.358  26.504  1.00  0.00     0.118 C 
BRANCH  25  26
ATOM     26  N   UNL A   1      31.944  32.748  26.912  1.00  0.00    -0.352 N 
ATOM     27  C   UNL A   1      32.860  33.431  27.669  1.00  0.00     0.251 C 
ATOM     28  H   UNL A   1      31.202  33.305  26.584  1.00  0.00     0.163 HD
ATOM     29  O   UNL A   1      32.586  34.593  27.993  1.00  0.00    -0.269 OA
BRANCH  27  30
ATOM     30  C   UNL A   1      34.143  32.848  28.138  1.00  0.00     0.039 A 
ATOM     31  C   UNL A   1      34.127  31.513  28.567  1.00  0.00     0.014 A 
ATOM     32  C   UNL A   1      35.314  33.592  28.304  1.00  0.00     0.014 A 
ATOM     33  C   UNL A   1      35.262  30.931  29.143  1.00  0.00     0.010 A 
ATOM     34  C   UNL A   1      36.470  32.993  28.826  1.00  0.00     0.010 A 
ATOM     35  C   UNL A   1      36.450  31.663  29.275  1.00  0.00    -0.014 A 
BRANCH  35  36
ATOM     36  C   UNL A   1      37.637  31.072  29.953  1.00  0.00     0.031 A 
ATOM     37  C   UNL A   1      37.936  31.406  31.392  1.00  0.00     0.074 A 
ATOM     38  C   UNL A   1      38.446  30.217  29.296  1.00  0.00     0.049 A 
ATOM     39  N   UNL A   1      38.944  31.028  32.139  1.00  0.00    -0.248 NA
ATOM     40  C   UNL A   1      36.978  32.285  32.082  1.00  0.00     0.031 C 
ATOM     41  C   UNL A   1      38.274  29.778  27.912  1.00  0.00     0.029 A 
ATOM     42  N   UNL A   1      39.573  29.553  29.718  1.00  0.00    -0.354 N 
ATOM     43  C   UNL A   1      38.750  31.630  33.375  1.00  0.00     0.074 A 
ATOM     44  C   UNL A   1      37.544  32.425  33.272  1.00  0.00     0.031 C 
ATOM     45  C   UNL A   1      39.243  28.900  27.606  1.00  0.00     0.029 A 
ATOM     46  C   UNL A   1      40.118  28.730  28.764  1.00  0.00     0.049 A 
ATOM     47  H   UNL A   1      39.954  29.660  30.620  1.00  0.00     0.167 HD
ATOM     48  C   UNL A   1      39.493  31.521  34.503  1.00  0.00     0.037 A 
ATOM     49  C   UNL A   1      41.195  27.924  28.814  1.00  0.00     0.037 A 
ATOM     50  C   UNL A   1      40.671  30.708  34.638  1.00  0.00     0.049 A 
ATOM     51  C   UNL A   1      42.017  27.840  30.068  1.00  0.00     0.074 A 
ATOM     52  C   UNL A   1      41.478  30.538  35.752  1.00  0.00     0.029 A 
ATOM     53  N   UNL A   1      41.201  29.913  33.637  1.00  0.00    -0.354 N 
ATOM     54  N   UNL A   1      41.832  28.437  31.218  1.00  0.00    -0.248 NA
ATOM     55  C   UNL A   1      43.205  26.972  30.025  1.00  0.00     0.031 C 
ATOM     56  C   UNL A   1      42.505  29.648  35.419  1.00  0.00     0.029 A 
ATOM     57  C   UNL A   1      42.325  29.252  34.105  1.00  0.00     0.049 A 
ATOM     58  H   UNL A   1      40.835  29.831  32.726  1.00  0.00     0.167 HD
ATOM     59  C   UNL A   1      42.864  28.004  32.040  1.00  0.00     0.074 A 
ATOM     60  C   UNL A   1      43.672  27.090  31.260  1.00  0.00     0.031 C 
ATOM     61  C   UNL A   1      43.116  28.338  33.328  1.00  0.00     0.037 A 
BRANCH  48  62
ATOM     62  C   UNL A   1      39.045  32.301  35.698  1.00  0.00     0.057 A 
ATOM     63  C   UNL A   1      39.397  33.646  35.865  1.00  0.00     0.134 A 
ATOM     64  C   UNL A   1      38.210  31.721  36.661  1.00  0.00     0.134 A 
ATOM     65  F   UNL A   1      40.203  34.252  34.981  1.00  0.00    -0.206 F 
ATOM     66  C   UNL A   1      38.940  34.386  36.956  1.00  0.00     0.040 A 
ATOM     67  C   UNL A   1      37.735  32.456  37.749  1.00  0.00     0.040 A 
ATOM     68  F   UNL A   1      37.835  30.438  36.553  1.00  0.00    -0.206 F 
ATOM     69  C   UNL A   1      38.102  33.792  37.898  1.00  0.00     0.006 A 
ENDBRANCH  48  62
BRANCH  49  70
ATOM     70  C   UNL A   1      41.552  27.099  27.637  1.00  0.00     0.057 A 
ATOM     71  C   UNL A   1      42.340  27.625  26.608  1.00  0.00     0.134 A 
ATOM     72  C   UNL A   1      41.106  25.780  27.506  1.00  0.00     0.134 A 
ATOM     73  F   UNL A   1      42.775  28.893  26.672  1.00  0.00    -0.206 F 
ATOM     74  C   UNL A   1      42.668  26.869  25.483  1.00  0.00     0.040 A 
ATOM     75  C   UNL A   1      41.438  25.007  26.393  1.00  0.00     0.040 A 
ATOM     76  F   UNL A   1      40.342  25.226  28.460  1.00  0.00    -0.206 F 
ATOM     77  C   UNL A   1      42.219  25.554  25.375  1.00  0.00     0.006 A 
ENDBRANCH  49  70
BRANCH  61  78
ATOM     78  C   UNL A   1      44.298  27.698  33.987  1.00  0.00     0.057 A 
ATOM     79  C   UNL A   1      44.196  26.455  34.623  1.00  0.00     0.134 A 
ATOM     80  C   UNL A   1      45.559  28.305  33.939  1.00  0.00     0.134 A 
ATOM     81  F   UNL A   1      43.011  25.832  34.709  1.00  0.00    -0.206 F 
ATOM     82  C   UNL A   1      45.309  25.840  35.197  1.00  0.00     0.040 A 
ATOM     83  C   UNL A   1      46.681  27.693  34.498  1.00  0.00     0.040 A 
ATOM     84  F   UNL A   1      45.720  29.494  33.339  1.00  0.00    -0.206 F 
ATOM     85  C   UNL A   1      46.557  26.457  35.130  1.00  0.00     0.006 A 
ENDBRANCH  61  78
ENDBRANCH  35  36
ENDBRANCH  27  30
ENDBRANCH  25  26
ENDBRANCH   1  25
TORSDOF 12
ENDMDL
MODEL 2
REMARK VINA RESULT:     -12.5      4.220      7.775
REMARK SMILES Cc1nn(C)c(=O)c(C(=O)N2CC[C@@H](C(=O)NCCCNC(=O)c3ccc(-c4c5nc(c(-c6c(F)cccc6F)c6ccc([nH]6)c(-c6c(F)cccc6F)c6nc(c(-c7c(F)cccc7F)c7ccc4[nH]7)C=C6)C=C5)cc3)[C@@H]2C)c1C
REMARK SMILES IDX 19 1 18 2 17 3 15 4 16 5 14 7 11 8 12 9 78 10 13 11 79 12
REMARK SMILES IDX 9 13 10 14 8 15 1 16 2 17 3 18 80 19 4 20 81 21 5 22 6 23
REMARK SMILES IDX 7 24 20 25 21 26 22 27 23 29 24 30 25 31 77 32 26 33 76 34
REMARK SMILES IDX 27 35 28 36 29 37 70 38 30 39 75 40 69 41 71 42 31 43 74 44
REMARK SMILES IDX 68 45 67 46 32 48 58 49 41 50 57 51 42 52 45 53 56 54 72 55
REMARK SMILES IDX 43 56 44 57 55 59 73 60 46 61 33 62 34 63 39 64 35 65 36 66
REMARK SMILES IDX 38 67 40 68 37 69 59 70 60 71 65 72 61 73 62 74 64 75 66 76
REMARK SMILES IDX 63 77 47 78 48 79 53 80 49 81 50 82 52 83 54 84 51 85
REMARK H PARENT 17 6 21 28 71 47 45 58
REMARK Flexibility Score: inf
ROOT
ATOM      1  C   UNL A   1      34.500  29.781  27.426  1.00  0.00     0.042 C 
ENDROOT
BRANCH   1   2
ATOM      2  C   UNL A   1      33.368  29.843  26.400  1.00  0.00     0.117 C 
BRANCH   2   3
ATOM      3  N   UNL A   1      33.783  29.414  25.073  1.00  0.00    -0.356 N 
ATOM      4  C   UNL A   1      33.563  28.302  24.335  1.00  0.00     0.225 C 
ATOM      5  O   UNL A   1      34.028  28.329  23.188  1.00  0.00    -0.275 OA
ATOM      6  H   UNL A   1      34.345  30.078  24.612  1.00  0.00     0.163 HD
BRANCH   4   7
ATOM      7  C   UNL A   1      32.898  27.021  24.823  1.00  0.00     0.102 C 
ATOM      8  N   UNL A   1      33.756  24.999  23.958  1.00  0.00    -0.335 N 
ATOM      9  C   UNL A   1      33.982  24.910  25.389  1.00  0.00     0.121 C 
ATOM     10  C   UNL A   1      32.746  26.017  23.676  1.00  0.00     0.094 C 
ATOM     11  C   UNL A   1      33.524  26.246  25.979  1.00  0.00     0.037 C 
ATOM     12  C   UNL A   1      31.318  25.473  23.597  1.00  0.00     0.032 C 
BRANCH   8  13
ATOM     13  C   UNL A   1      33.900  23.866  23.178  1.00  0.00     0.260 C 
ATOM     14  O   UNL A   1      33.816  23.856  21.940  1.00  0.00    -0.269 OA
BRANCH  13  15
ATOM     15  C   UNL A   1      34.355  22.664  23.908  1.00  0.00     0.111 A 
ATOM     16  C   UNL A   1      37.452  21.018  25.236  1.00  0.00     0.069 C 
ATOM     17  C   UNL A   1      36.043  21.164  24.706  1.00  0.00     0.062 A 
ATOM     18  N   UNL A   1      35.217  20.209  24.985  1.00  0.00    -0.175 NA
ATOM     19  C   UNL A   1      35.676  22.388  23.950  1.00  0.00    -0.010 A 
ATOM     20  N   UNL A   1      33.898  20.401  24.666  1.00  0.00    -0.232 N 
ATOM     21  C   UNL A   1      36.746  23.113  23.195  1.00  0.00     0.047 C 
ATOM     22  C   UNL A   1      33.035  19.244  24.821  1.00  0.00     0.178 C 
ATOM     23  C   UNL A   1      33.373  21.645  24.342  1.00  0.00     0.279 A 
ATOM     24  O   UNL A   1      32.158  21.907  24.355  1.00  0.00    -0.267 OA
ENDBRANCH  13  15
ENDBRANCH   8  13
ENDBRANCH   4   7
ENDBRANCH   2   3
ENDBRANCH   1   2
BRANCH   1  25
ATOM     25  C   UNL A   1      35.036  31.143  27.863  1.00  0.00     0.118 C 
BRANCH  25  26
ATOM     26  N   UNL A   1      35.185  31.253  29.302  1.00  0.00    -0.352 N 
ATOM     27  C   UNL A   1      36.158  30.813  30.161  1.00  0.00     0.251 C 
ATOM     28  H   UNL A   1      34.449  31.733  29.745  1.00  0.00     0.163 HD
ATOM     29  O   UNL A   1      35.941  30.910  31.374  1.00  0.00    -0.269 OA
BRANCH  27  30
ATOM     30  C   UNL A   1      37.441  30.209  29.716  1.00  0.00     0.039 A 
ATOM     31  C   UNL A   1      38.267  29.650  30.701  1.00  0.00     0.014 A 
ATOM     32  C   UNL A   1      37.921  30.297  28.407  1.00  0.00     0.014 A 
ATOM     33  C   UNL A   1      39.546  29.179  30.382  1.00  0.00     0.010 A 
ATOM     34  C   UNL A   1      39.179  29.771  28.074  1.00  0.00     0.010 A 
ATOM     35  C   UNL A   1      40.016  29.230  29.062  1.00  0.00    -0.014 A 
BRANCH  35  36
ATOM     36  C   UNL A   1      41.402  28.797  28.731  1.00  0.00     0.031 A 
ATOM     37  C   UNL A   1      41.679  27.367  28.340  1.00  0.00     0.074 A 
ATOM     38  C   UNL A   1      42.420  29.679  28.757  1.00  0.00     0.049 A 
ATOM     39  N   UNL A   1      42.822  26.790  28.062  1.00  0.00    -0.248 NA
ATOM     40  C   UNL A   1      40.519  26.466  28.255  1.00  0.00     0.031 C 
ATOM     41  C   UNL A   1      42.307  31.098  29.091  1.00  0.00     0.029 A 
ATOM     42  N   UNL A   1      43.756  29.507  28.483  1.00  0.00    -0.354 N 
ATOM     43  C   UNL A   1      42.523  25.464  27.784  1.00  0.00     0.074 A 
ATOM     44  C   UNL A   1      41.093  25.309  27.956  1.00  0.00     0.031 C 
ATOM     45  C   UNL A   1      43.515  31.674  28.978  1.00  0.00     0.029 A 
ATOM     46  C   UNL A   1      44.492  30.662  28.585  1.00  0.00     0.049 A 
ATOM     47  H   UNL A   1      44.148  28.638  28.238  1.00  0.00     0.167 HD
ATOM     48  C   UNL A   1      43.353  24.463  27.401  1.00  0.00     0.037 A 
ATOM     49  C   UNL A   1      45.804  30.884  28.382  1.00  0.00     0.037 A 
ATOM     50  C   UNL A   1      44.768  24.604  27.187  1.00  0.00     0.049 A 
ATOM     51  C   UNL A   1      46.709  29.754  27.983  1.00  0.00     0.074 A 
ATOM     52  C   UNL A   1      45.680  23.638  26.791  1.00  0.00     0.029 A 
ATOM     53  N   UNL A   1      45.475  25.785  27.330  1.00  0.00    -0.354 N 
ATOM     54  N   UNL A   1      46.411  28.501  27.750  1.00  0.00    -0.248 NA
ATOM     55  C   UNL A   1      48.138  30.072  27.825  1.00  0.00     0.031 C 
ATOM     56  C   UNL A   1      46.943  24.235  26.706  1.00  0.00     0.029 A 
ATOM     57  C   UNL A   1      46.811  25.574  27.032  1.00  0.00     0.049 A 
ATOM     58  H   UNL A   1      45.086  26.647  27.603  1.00  0.00     0.167 HD
ATOM     59  C   UNL A   1      47.606  27.886  27.400  1.00  0.00     0.074 A 
ATOM     60  C   UNL A   1      48.636  28.902  27.447  1.00  0.00     0.031 C 
ATOM     61  C   UNL A   1      47.826  26.590  27.071  1.00  0.00     0.037 A 
BRANCH  48  62
ATOM     62  C   UNL A   1      42.746  23.114  27.177  1.00  0.00     0.057 A 
ATOM     63  C   UNL A   1      42.422  22.273  28.249  1.00  0.00     0.134 A 
ATOM     64  C   UNL A   1      42.431  22.675  25.886  1.00  0.00     0.134 A 
ATOM     65  F   UNL A   1      42.711  22.636  29.508  1.00  0.00    -0.206 F 
ATOM     66  C   UNL A   1      41.813  21.035  28.043  1.00  0.00     0.040 A 
ATOM     67  C   UNL A   1      41.808  21.445  25.668  1.00  0.00     0.040 A 
ATOM     68  F   UNL A   1      42.712  23.439  24.820  1.00  0.00    -0.206 F 
ATOM     69  C   UNL A   1      41.499  20.621  26.749  1.00  0.00     0.006 A 
ENDBRANCH  48  62
BRANCH  49  70
ATOM     70  C   UNL A   1      46.349  32.254  28.525  1.00  0.00     0.057 A 
ATOM     71  C   UNL A   1      46.837  32.703  29.757  1.00  0.00     0.134 A 
ATOM     72  C   UNL A   1      46.381  33.145  27.448  1.00  0.00     0.134 A 
ATOM     73  F   UNL A   1      46.808  31.896  30.829  1.00  0.00    -0.206 F 
ATOM     74  C   UNL A   1      47.335  33.996  29.916  1.00  0.00     0.040 A 
ATOM     75  C   UNL A   1      46.889  34.437  27.589  1.00  0.00     0.040 A 
ATOM     76  F   UNL A   1      45.921  32.770  26.246  1.00  0.00    -0.206 F 
ATOM     77  C   UNL A   1      47.364  34.867  28.828  1.00  0.00     0.006 A 
ENDBRANCH  49  70
BRANCH  61  78
ATOM     78  C   UNL A   1      49.225  26.199  26.712  1.00  0.00     0.057 A 
ATOM     79  C   UNL A   1      49.718  26.361  25.411  1.00  0.00     0.134 A 
ATOM     80  C   UNL A   1      50.102  25.706  27.685  1.00  0.00     0.134 A 
ATOM     81  F   UNL A   1      48.920  26.821  24.435  1.00  0.00    -0.206 F 
ATOM     82  C   UNL A   1      51.037  26.038  25.089  1.00  0.00     0.040 A 
ATOM     83  C   UNL A   1      51.426  25.391  27.377  1.00  0.00     0.040 A 
ATOM     84  F   UNL A   1      49.687  25.533  28.949  1.00  0.00    -0.206 F 
ATOM     85  C   UNL A   1      51.896  25.557  26.076  1.00  0.00     0.006 A 
ENDBRANCH  61  78
ENDBRANCH  35  36
ENDBRANCH  27  30
ENDBRANCH  25  26
ENDBRANCH   1  25
TORSDOF 12
ENDMDL
MODEL 3
REMARK VINA RESULT:     -12.5      3.692      9.022
REMARK SMILES Cc1nn(C)c(=O)c(C(=O)N2CC[C@@H](C(=O)NCCCNC(=O)c3ccc(-c4c5nc(c(-c6c(F)cccc6F)c6ccc([nH]6)c(-c6c(F)cccc6F)c6nc(c(-c7c(F)cccc7F)c7ccc4[nH]7)C=C6)C=C5)cc3)[C@@H]2C)c1C
REMARK SMILES IDX 19 1 18 2 17 3 15 4 16 5 14 7 11 8 12 9 78 10 13 11 79 12
REMARK SMILES IDX 9 13 10 14 8 15 1 16 2 17 3 18 80 19 4 20 81 21 5 22 6 23
REMARK SMILES IDX 7 24 20 25 21 26 22 27 23 29 24 30 25 31 77 32 26 33 76 34
REMARK SMILES IDX 27 35 28 36 29 37 70 38 30 39 75 40 69 41 71 42 31 43 74 44
REMARK SMILES IDX 68 45 67 46 32 48 58 49 41 50 57 51 42 52 45 53 56 54 72 55
REMARK SMILES IDX 43 56 44 57 55 59 73 60 46 61 33 62 34 63 39 64 35 65 36 66
REMARK SMILES IDX 38 67 40 68 37 69 59 70 60 71 65 72 61 73 62 74 64 75 66 76
REMARK SMILES IDX 63 77 47 78 48 79 53 80 49 81 50 82 52 83 54 84 51 85
REMARK H PARENT 17 6 21 28 71 47 45 58
REMARK Flexibility Score: inf
ROOT
ATOM      1  C   UNL A   1      37.304  19.524  25.008  1.00  0.00     0.042 C 
ENDROOT
BRANCH   1   2
ATOM      2  C   UNL A   1      36.110  20.443  24.748  1.00  0.00     0.117 C 
BRANCH   2   3
ATOM      3  N   UNL A   1      35.682  21.166  25.936  1.00  0.00    -0.356 N 
ATOM      4  C   UNL A   1      34.906  22.255  26.143  1.00  0.00     0.225 C 
ATOM      5  O   UNL A   1      34.699  22.538  27.330  1.00  0.00    -0.275 OA
ATOM      6  H   UNL A   1      36.032  20.778  26.770  1.00  0.00     0.163 HD
BRANCH   4   7
ATOM      7  C   UNL A   1      34.370  23.190  25.066  1.00  0.00     0.102 C 
ATOM      8  N   UNL A   1      32.801  24.808  25.768  1.00  0.00    -0.335 N 
ATOM      9  C   UNL A   1      33.923  25.579  25.265  1.00  0.00     0.121 C 
ATOM     10  C   UNL A   1      32.872  23.439  25.260  1.00  0.00     0.094 C 
ATOM     11  C   UNL A   1      35.005  24.567  24.885  1.00  0.00     0.037 C 
ATOM     12  C   UNL A   1      32.097  23.216  23.960  1.00  0.00     0.032 C 
BRANCH   8  13
ATOM     13  C   UNL A   1      31.597  25.443  26.013  1.00  0.00     0.260 C 
ATOM     14  O   UNL A   1      30.724  25.010  26.781  1.00  0.00    -0.269 OA
BRANCH  13  15
ATOM     15  C   UNL A   1      31.482  26.798  25.436  1.00  0.00     0.111 A 
ATOM     16  C   UNL A   1      32.330  30.384  26.135  1.00  0.00     0.069 C 
ATOM     17  C   UNL A   1      31.609  29.187  25.555  1.00  0.00     0.062 A 
ATOM     18  N   UNL A   1      30.934  29.387  24.470  1.00  0.00    -0.175 NA
ATOM     19  C   UNL A   1      31.749  27.866  26.217  1.00  0.00    -0.010 A 
ATOM     20  N   UNL A   1      30.420  28.287  23.835  1.00  0.00    -0.232 N 
ATOM     21  C   UNL A   1      32.019  27.827  27.689  1.00  0.00     0.047 C 
ATOM     22  C   UNL A   1      29.518  28.559  22.731  1.00  0.00     0.178 C 
ATOM     23  C   UNL A   1      30.825  26.991  24.122  1.00  0.00     0.279 A 
ATOM     24  O   UNL A   1      30.622  26.020  23.373  1.00  0.00    -0.267 OA
ENDBRANCH  13  15
ENDBRANCH   8  13
ENDBRANCH   4   7
ENDBRANCH   2   3
ENDBRANCH   1   2
BRANCH   1  25
ATOM     25  C   UNL A   1      38.541  20.231  25.558  1.00  0.00     0.118 C 
BRANCH  25  26
ATOM     26  N   UNL A   1      39.685  19.346  25.681  1.00  0.00    -0.352 N 
ATOM     27  C   UNL A   1      40.989  19.574  26.033  1.00  0.00     0.251 C 
ATOM     28  H   UNL A   1      39.486  18.406  25.471  1.00  0.00     0.163 HD
ATOM     29  O   UNL A   1      41.793  18.645  25.894  1.00  0.00    -0.269 OA
BRANCH  27  30
ATOM     30  C   UNL A   1      41.490  20.875  26.546  1.00  0.00     0.039 A 
ATOM     31  C   UNL A   1      41.384  21.109  27.924  1.00  0.00     0.014 A 
ATOM     32  C   UNL A   1      41.922  21.916  25.720  1.00  0.00     0.014 A 
ATOM     33  C   UNL A   1      41.712  22.357  28.468  1.00  0.00     0.010 A 
ATOM     34  C   UNL A   1      42.308  23.148  26.270  1.00  0.00     0.010 A 
ATOM     35  C   UNL A   1      42.184  23.390  27.646  1.00  0.00    -0.014 A 
BRANCH  35  36
ATOM     36  C   UNL A   1      42.465  24.741  28.209  1.00  0.00     0.031 A 
ATOM     37  C   UNL A   1      43.872  25.128  28.587  1.00  0.00     0.074 A 
ATOM     38  C   UNL A   1      41.472  25.638  28.369  1.00  0.00     0.049 A 
ATOM     39  N   UNL A   1      44.308  26.237  29.133  1.00  0.00    -0.248 NA
ATOM     40  C   UNL A   1      44.928  24.138  28.322  1.00  0.00     0.031 C 
ATOM     41  C   UNL A   1      40.067  25.419  28.027  1.00  0.00     0.029 A 
ATOM     42  N   UNL A   1      41.501  26.924  28.851  1.00  0.00    -0.354 N 
ATOM     43  C   UNL A   1      45.678  26.073  29.287  1.00  0.00     0.074 A 
ATOM     44  C   UNL A   1      46.001  24.746  28.807  1.00  0.00     0.031 C 
ATOM     45  C   UNL A   1      39.373  26.540  28.285  1.00  0.00     0.029 A 
ATOM     46  C   UNL A   1      40.278  27.548  28.831  1.00  0.00     0.049 A 
ATOM     47  H   UNL A   1      42.322  27.356  29.181  1.00  0.00     0.167 HD
ATOM     48  C   UNL A   1      46.594  26.949  29.767  1.00  0.00     0.037 A 
ATOM     49  C   UNL A   1      39.924  28.792  29.205  1.00  0.00     0.037 A 
ATOM     50  C   UNL A   1      46.301  28.285  30.212  1.00  0.00     0.049 A 
ATOM     51  C   UNL A   1      40.952  29.737  29.757  1.00  0.00     0.074 A 
ATOM     52  C   UNL A   1      47.176  29.240  30.706  1.00  0.00     0.029 A 
ATOM     53  N   UNL A   1      45.044  28.864  30.200  1.00  0.00    -0.354 N 
ATOM     54  N   UNL A   1      42.238  29.554  29.919  1.00  0.00    -0.248 NA
ATOM     55  C   UNL A   1      40.474  31.061  30.185  1.00  0.00     0.031 C 
ATOM     56  C   UNL A   1      46.444  30.394  31.005  1.00  0.00     0.029 A 
ATOM     57  C   UNL A   1      45.118  30.161  30.679  1.00  0.00     0.049 A 
ATOM     58  H   UNL A   1      44.220  28.419  29.897  1.00  0.00     0.167 HD
ATOM     59  C   UNL A   1      42.726  30.741  30.448  1.00  0.00     0.074 A 
ATOM     60  C   UNL A   1      41.600  31.642  30.576  1.00  0.00     0.031 C 
ATOM     61  C   UNL A   1      43.998  31.054  30.795  1.00  0.00     0.037 A 
BRANCH  48  62
ATOM     62  C   UNL A   1      48.017  26.492  29.827  1.00  0.00     0.057 A 
ATOM     63  C   UNL A   1      48.522  25.826  30.951  1.00  0.00     0.134 A 
ATOM     64  C   UNL A   1      48.874  26.667  28.734  1.00  0.00     0.134 A 
ATOM     65  F   UNL A   1      47.751  25.639  32.032  1.00  0.00    -0.206 F 
ATOM     66  C   UNL A   1      49.836  25.358  30.988  1.00  0.00     0.040 A 
ATOM     67  C   UNL A   1      50.185  26.191  28.754  1.00  0.00     0.040 A 
ATOM     68  F   UNL A   1      48.446  27.294  27.627  1.00  0.00    -0.206 F 
ATOM     69  C   UNL A   1      50.669  25.535  29.885  1.00  0.00     0.006 A 
ENDBRANCH  48  62
BRANCH  49  70
ATOM     70  C   UNL A   1      38.520  29.236  29.043  1.00  0.00     0.057 A 
ATOM     71  C   UNL A   1      38.053  29.690  27.805  1.00  0.00     0.134 A 
ATOM     72  C   UNL A   1      37.623  29.232  30.116  1.00  0.00     0.134 A 
ATOM     73  F   UNL A   1      38.879  29.737  26.748  1.00  0.00    -0.206 F 
ATOM     74  C   UNL A   1      36.741  30.132  27.639  1.00  0.00     0.040 A 
ATOM     75  C   UNL A   1      36.303  29.658  29.961  1.00  0.00     0.040 A 
ATOM     76  F   UNL A   1      38.018  28.812  31.327  1.00  0.00    -0.206 F 
ATOM     77  C   UNL A   1      35.861  30.113  28.720  1.00  0.00     0.006 A 
ENDBRANCH  49  70
BRANCH  61  78
ATOM     78  C   UNL A   1      44.248  32.431  31.325  1.00  0.00     0.057 A 
ATOM     79  C   UNL A   1      44.528  33.503  30.470  1.00  0.00     0.134 A 
ATOM     80  C   UNL A   1      44.158  32.696  32.696  1.00  0.00     0.134 A 
ATOM     81  F   UNL A   1      44.637  33.306  29.147  1.00  0.00    -0.206 F 
ATOM     82  C   UNL A   1      44.717  34.795  30.963  1.00  0.00     0.040 A 
ATOM     83  C   UNL A   1      44.332  33.986  33.200  1.00  0.00     0.040 A 
ATOM     84  F   UNL A   1      43.888  31.709  33.565  1.00  0.00    -0.206 F 
ATOM     85  C   UNL A   1      44.613  35.039  32.332  1.00  0.00     0.006 A 
ENDBRANCH  61  78
ENDBRANCH  35  36
ENDBRANCH  27  30
ENDBRANCH  25  26
ENDBRANCH   1  25
TORSDOF 12
ENDMDL
