MODEL 1
REMARK VINA RESULT:     -13.8      0.000      0.000
REMARK SMILES O=C(NCCCNC(=O)[C@H](CO)NC(=O)[C@H](Cc1c[nH]c2ccccc12)NC(=O)[C@H](Cc1ccc(O)cc1)NC(=O)c1ccc(F)cc1)c1ccc(-c2c3nc(c(-c4c(F)cccc4F)c4ccc([nH]4)c(-c4c(F)cccc4F)c4nc(c(-c5c(F)cccc5F)c5ccc2[nH]5)C=C4)C=C3)cc1
REMARK SMILES IDX 7 1 8 2 9 3 6 5 5 6 4 7 3 8 1 9 2 10 49 12 50 13 102 14
REMARK SMILES IDX 51 15 101 16 52 17 53 18 54 19 95 20 55 21 100 22 94 23
REMARK SMILES IDX 96 24 56 25 99 26 93 27 92 28 57 30 83 31 66 32 82 33 67 34
REMARK SMILES IDX 70 35 81 36 97 37 68 38 69 39 80 41 98 42 71 43 58 44 59 45
REMARK SMILES IDX 64 46 60 47 61 48 63 49 65 50 62 51 84 52 85 53 90 54 86 55
REMARK SMILES IDX 87 56 89 57 91 58 88 59 72 60 73 61 78 62 74 63 75 64 77 65
REMARK SMILES IDX 79 66 76 67 10 68 13 69 14 70 15 72 16 73 27 74 28 75 29 77
REMARK SMILES IDX 30 78 39 79 40 80 41 82 42 83 43 84 48 85 44 86 47 87 45 88
REMARK SMILES IDX 46 89 31 90 32 91 33 92 38 93 34 94 37 95 35 96 36 97 17 99
REMARK SMILES IDX 18 100 19 101 26 102 20 103 21 104 25 105 22 107 24 108
REMARK SMILES IDX 23 109 11 110 12 111
REMARK H PARENT 7 4 3 11 96 29 70 40 13 71 27 76 39 81 36 98 20 106 12 112
REMARK Flexibility Score: inf
ROOT
ATOM      1  N   UNL A   1      33.099  27.573  26.830  1.00  0.00    -0.354 N 
ATOM      2  C   UNL A   1      33.103  26.417  26.018  1.00  0.00     0.244 C 
ATOM      3  O   UNL A   1      34.184  26.221  25.433  1.00  0.00    -0.273 OA
ATOM      4  H   UNL A   1      33.993  27.983  26.877  1.00  0.00     0.163 HD
ENDROOT
BRANCH   1   5
ATOM      5  C   UNL A   1      32.084  28.355  27.651  1.00  0.00     0.117 C 
BRANCH   5   6
ATOM      6  C   UNL A   1      31.694  29.718  27.172  1.00  0.00     0.042 C 
BRANCH   6   7
ATOM      7  C   UNL A   1      32.899  30.572  26.876  1.00  0.00     0.118 C 
BRANCH   7   8
ATOM      8  N   UNL A   1      32.853  31.943  27.406  1.00  0.00    -0.352 N 
ATOM      9  O   UNL A   1      33.608  33.944  28.158  1.00  0.00    -0.269 OA
ATOM     10  C   UNL A   1      33.843  32.783  27.849  1.00  0.00     0.251 C 
ATOM     11  H   UNL A   1      31.948  32.327  27.450  1.00  0.00     0.163 HD
BRANCH  10  12
ATOM     12  C   UNL A   1      35.159  32.194  28.070  1.00  0.00     0.039 A 
ATOM     13  C   UNL A   1      35.219  30.890  28.534  1.00  0.00     0.014 A 
ATOM     14  C   UNL A   1      36.253  33.052  28.131  1.00  0.00     0.014 A 
ATOM     15  C   UNL A   1      36.243  30.570  29.395  1.00  0.00     0.010 A 
ATOM     16  C   UNL A   1      37.401  32.611  28.770  1.00  0.00     0.010 A 
ATOM     17  C   UNL A   1      37.380  31.384  29.451  1.00  0.00    -0.014 A 
BRANCH  17  18
ATOM     18  C   UNL A   1      38.595  30.860  30.099  1.00  0.00     0.031 A 
ATOM     19  C   UNL A   1      39.506  29.906  29.397  1.00  0.00     0.074 A 
ATOM     20  C   UNL A   1      38.802  31.222  31.379  1.00  0.00     0.049 A 
ATOM     21  N   UNL A   1      40.494  29.214  29.896  1.00  0.00    -0.248 NA
ATOM     22  C   UNL A   1      39.271  29.678  27.961  1.00  0.00     0.031 C 
ATOM     23  C   UNL A   1      37.967  32.161  32.139  1.00  0.00     0.029 A 
ATOM     24  N   UNL A   1      39.761  30.844  32.275  1.00  0.00    -0.354 N 
ATOM     25  C   UNL A   1      40.970  28.430  28.854  1.00  0.00     0.074 A 
ATOM     26  C   UNL A   1      40.154  28.724  27.695  1.00  0.00     0.031 C 
ATOM     27  C   UNL A   1      38.471  32.319  33.363  1.00  0.00     0.029 A 
ATOM     28  C   UNL A   1      39.574  31.389  33.520  1.00  0.00     0.049 A 
ATOM     29  H   UNL A   1      40.508  30.242  32.051  1.00  0.00     0.167 HD
ATOM     30  C   UNL A   1      41.990  27.543  28.888  1.00  0.00     0.037 A 
ATOM     31  C   UNL A   1      40.166  31.122  34.694  1.00  0.00     0.037 A 
ATOM     32  C   UNL A   1      42.774  27.284  30.069  1.00  0.00     0.049 A 
ATOM     33  C   UNL A   1      41.242  30.092  34.720  1.00  0.00     0.074 A 
ATOM     34  C   UNL A   1      43.862  26.443  30.207  1.00  0.00     0.029 A 
ATOM     35  N   UNL A   1      42.538  27.846  31.319  1.00  0.00    -0.354 N 
ATOM     36  N   UNL A   1      41.703  29.370  33.728  1.00  0.00    -0.248 NA
ATOM     37  C   UNL A   1      41.880  29.832  36.012  1.00  0.00     0.031 C 
ATOM     38  C   UNL A   1      44.224  26.422  31.556  1.00  0.00     0.029 A 
ATOM     39  C   UNL A   1      43.431  27.329  32.244  1.00  0.00     0.049 A 
ATOM     40  H   UNL A   1      41.841  28.512  31.518  1.00  0.00     0.167 HD
ATOM     41  C   UNL A   1      42.707  28.585  34.268  1.00  0.00     0.074 A 
ATOM     42  C   UNL A   1      42.784  28.920  35.676  1.00  0.00     0.031 C 
ATOM     43  C   UNL A   1      43.497  27.681  33.642  1.00  0.00     0.037 A 
BRANCH  30  44
ATOM     44  C   UNL A   1      42.285  26.753  27.644  1.00  0.00     0.057 A 
ATOM     45  C   UNL A   1      41.850  25.423  27.532  1.00  0.00     0.134 A 
ATOM     46  C   UNL A   1      43.030  27.274  26.579  1.00  0.00     0.134 A 
ATOM     47  F   UNL A   1      41.138  24.853  28.516  1.00  0.00    -0.206 F 
ATOM     48  C   UNL A   1      42.151  24.644  26.415  1.00  0.00     0.040 A 
ATOM     49  C   UNL A   1      43.306  26.515  25.438  1.00  0.00     0.040 A 
ATOM     50  F   UNL A   1      43.474  28.539  26.612  1.00  0.00    -0.206 F 
ATOM     51  C   UNL A   1      42.874  25.193  25.359  1.00  0.00     0.006 A 
ENDBRANCH  30  44
BRANCH  31  52
ATOM     52  C   UNL A   1      39.713  31.862  35.895  1.00  0.00     0.057 A 
ATOM     53  C   UNL A   1      38.558  31.482  36.596  1.00  0.00     0.134 A 
ATOM     54  C   UNL A   1      40.332  33.059  36.263  1.00  0.00     0.134 A 
ATOM     55  F   UNL A   1      37.896  30.365  36.258  1.00  0.00    -0.206 F 
ATOM     56  C   UNL A   1      38.014  32.289  37.594  1.00  0.00     0.040 A 
ATOM     57  C   UNL A   1      39.814  33.860  37.281  1.00  0.00     0.040 A 
ATOM     58  F   UNL A   1      41.431  33.474  35.619  1.00  0.00    -0.206 F 
ATOM     59  C   UNL A   1      38.644  33.483  37.938  1.00  0.00     0.006 A 
ENDBRANCH  31  52
BRANCH  43  60
ATOM     60  C   UNL A   1      44.556  26.999  34.454  1.00  0.00     0.057 A 
ATOM     61  C   UNL A   1      44.261  25.805  35.126  1.00  0.00     0.134 A 
ATOM     62  C   UNL A   1      45.797  27.596  34.699  1.00  0.00     0.134 A 
ATOM     63  F   UNL A   1      43.084  25.189  34.934  1.00  0.00    -0.206 F 
ATOM     64  C   UNL A   1      45.141  25.258  36.057  1.00  0.00     0.040 A 
ATOM     65  C   UNL A   1      46.700  27.039  35.605  1.00  0.00     0.040 A 
ATOM     66  F   UNL A   1      46.144  28.730  34.071  1.00  0.00    -0.206 F 
ATOM     67  C   UNL A   1      46.363  25.880  36.303  1.00  0.00     0.006 A 
ENDBRANCH  43  60
ENDBRANCH  17  18
ENDBRANCH  10  12
ENDBRANCH   7   8
ENDBRANCH   6   7
ENDBRANCH   5   6
ENDBRANCH   1   5
BRANCH   2  68
ATOM     68  C   UNL A   1      31.809  25.075  25.896  1.00  0.00     0.197 C 
BRANCH  68  69
ATOM     69  N   UNL A   1      32.669  24.215  27.034  1.00  0.00    -0.340 N 
ATOM     70  C   UNL A   1      33.675  23.302  26.966  1.00  0.00     0.243 C 
ATOM     71  H   UNL A   1      32.387  24.411  27.957  1.00  0.00     0.164 HD
ATOM     72  O   UNL A   1      34.177  22.964  28.043  1.00  0.00    -0.273 OA
BRANCH  70  73
ATOM     73  C   UNL A   1      34.159  22.672  25.626  1.00  0.00     0.175 C 
BRANCH  73  74
ATOM     74  N   UNL A   1      34.678  23.453  24.504  1.00  0.00    -0.342 N 
ATOM     75  C   UNL A   1      34.015  23.559  23.300  1.00  0.00     0.243 C 
ATOM     76  H   UNL A   1      35.537  23.923  24.613  1.00  0.00     0.164 HD
ATOM     77  O   UNL A   1      34.649  23.532  22.243  1.00  0.00    -0.273 OA
BRANCH  75  78
ATOM     78  C   UNL A   1      32.486  23.791  23.327  1.00  0.00     0.176 C 
BRANCH  78  79
ATOM     79  N   UNL A   1      32.064  24.316  22.002  1.00  0.00    -0.340 N 
ATOM     80  C   UNL A   1      32.021  25.578  21.483  1.00  0.00     0.251 C 
ATOM     81  H   UNL A   1      31.755  23.619  21.378  1.00  0.00     0.164 HD
ATOM     82  O   UNL A   1      32.087  25.729  20.265  1.00  0.00    -0.269 OA
BRANCH  80  83
ATOM     83  C   UNL A   1      31.647  26.702  22.344  1.00  0.00     0.040 A 
ATOM     84  C   UNL A   1      30.349  26.900  22.810  1.00  0.00     0.017 A 
ATOM     85  C   UNL A   1      32.663  27.633  22.606  1.00  0.00     0.017 A 
ATOM     86  C   UNL A   1      30.044  28.096  23.455  1.00  0.00     0.040 A 
ATOM     87  C   UNL A   1      32.354  28.819  23.262  1.00  0.00     0.040 A 
ATOM     88  C   UNL A   1      31.042  29.049  23.658  1.00  0.00     0.123 A 
ATOM     89  F   UNL A   1      30.730  30.214  24.239  1.00  0.00    -0.207 F 
ENDBRANCH  80  83
ENDBRANCH  78  79
BRANCH  78  90
ATOM     90  C   UNL A   1      31.730  22.495  23.791  1.00  0.00     0.070 C 
BRANCH  90  91
ATOM     91  C   UNL A   1      32.241  21.152  23.251  1.00  0.00    -0.045 A 
ATOM     92  C   UNL A   1      32.778  20.219  24.152  1.00  0.00     0.007 A 
ATOM     93  C   UNL A   1      31.985  20.723  21.937  1.00  0.00     0.007 A 
ATOM     94  C   UNL A   1      32.818  18.856  23.832  1.00  0.00     0.046 A 
ATOM     95  C   UNL A   1      31.994  19.355  21.628  1.00  0.00     0.046 A 
ATOM     96  C   UNL A   1      32.357  18.429  22.596  1.00  0.00     0.115 A 
BRANCH  96  97
ATOM     97  O   UNL A   1      32.196  17.103  22.317  1.00  0.00    -0.508 OA
ATOM     98  H   UNL A   1      32.250  16.802  21.432  1.00  0.00     0.293 HD
ENDBRANCH  96  97
ENDBRANCH  90  91
ENDBRANCH  78  90
ENDBRANCH  75  78
ENDBRANCH  73  74
BRANCH  73  99
ATOM     99  C   UNL A   1      35.188  21.593  25.820  1.00  0.00     0.072 C 
BRANCH  99 100
ATOM    100  C   UNL A   1      36.497  22.259  25.650  1.00  0.00    -0.020 A 
ATOM    101  C   UNL A   1      36.993  23.849  26.304  1.00  0.00     0.087 A 
ATOM    102  C   UNL A   1      38.017  21.142  25.474  1.00  0.00     0.003 A 
ATOM    103  N   UNL A   1      38.809  23.700  26.727  1.00  0.00    -0.361 N 
ATOM    104  C   UNL A   1      39.393  21.976  26.213  1.00  0.00     0.046 A 
ATOM    105  C   UNL A   1      38.133  19.805  25.094  1.00  0.00     0.010 A 
ATOM    106  H   UNL A   1      39.364  24.398  27.144  1.00  0.00     0.166 HD
ATOM    107  C   UNL A   1      40.392  21.063  26.606  1.00  0.00     0.026 A 
ATOM    108  C   UNL A   1      39.313  19.139  25.413  1.00  0.00     0.001 A 
ATOM    109  C   UNL A   1      40.350  19.720  26.167  1.00  0.00     0.002 A 
ENDBRANCH  99 100
ENDBRANCH  73  99
ENDBRANCH  70  73
ENDBRANCH  68  69
BRANCH  68 110
ATOM    110  C   UNL A   1      29.563  25.430  25.743  1.00  0.00     0.191 C 
BRANCH 110 111
ATOM    111  O   UNL A   1      28.473  24.946  26.879  1.00  0.00    -0.394 OA
ATOM    112  H   UNL A   1      27.854  24.313  26.483  1.00  0.00     0.210 HD
ENDBRANCH 110 111
ENDBRANCH  68 110
ENDBRANCH   2  68
TORSDOF 23
ENDMDL
MODEL 2
REMARK VINA RESULT:     -13.4      5.549     12.125
REMARK SMILES O=C(NCCCNC(=O)[C@H](CO)NC(=O)[C@H](Cc1c[nH]c2ccccc12)NC(=O)[C@H](Cc1ccc(O)cc1)NC(=O)c1ccc(F)cc1)c1ccc(-c2c3nc(c(-c4c(F)cccc4F)c4ccc([nH]4)c(-c4c(F)cccc4F)c4nc(c(-c5c(F)cccc5F)c5ccc2[nH]5)C=C4)C=C3)cc1
REMARK SMILES IDX 7 1 8 2 9 3 6 5 5 6 4 7 3 8 1 9 2 10 49 12 50 13 102 14
REMARK SMILES IDX 51 15 101 16 52 17 53 18 54 19 95 20 55 21 100 22 94 23
REMARK SMILES IDX 96 24 56 25 99 26 93 27 92 28 57 30 83 31 66 32 82 33 67 34
REMARK SMILES IDX 70 35 81 36 97 37 68 38 69 39 80 41 98 42 71 43 58 44 59 45
REMARK SMILES IDX 64 46 60 47 61 48 63 49 65 50 62 51 84 52 85 53 90 54 86 55
REMARK SMILES IDX 87 56 89 57 91 58 88 59 72 60 73 61 78 62 74 63 75 64 77 65
REMARK SMILES IDX 79 66 76 67 10 68 13 69 14 70 15 72 16 73 27 74 28 75 29 77
REMARK SMILES IDX 30 78 39 79 40 80 41 82 42 83 43 84 48 85 44 86 47 87 45 88
REMARK SMILES IDX 46 89 31 90 32 91 33 92 38 93 34 94 37 95 35 96 36 97 17 99
REMARK SMILES IDX 18 100 19 101 26 102 20 103 21 104 25 105 22 107 24 108
REMARK SMILES IDX 23 109 11 110 12 111
REMARK H PARENT 7 4 3 11 96 29 70 40 13 71 27 76 39 81 36 98 20 106 12 112
REMARK Flexibility Score: inf
ROOT
ATOM      1  N   UNL A   1      36.587  33.176  33.343  1.00  0.00    -0.354 N 
ATOM      2  C   UNL A   1      37.479  33.312  34.429  1.00  0.00     0.244 C 
ATOM      3  O   UNL A   1      37.957  34.456  34.544  1.00  0.00    -0.273 OA
ATOM      4  H   UNL A   1      36.412  34.043  32.910  1.00  0.00     0.163 HD
ENDROOT
BRANCH   1   5
ATOM      5  C   UNL A   1      35.825  32.049  32.662  1.00  0.00     0.117 C 
BRANCH   5   6
ATOM      6  C   UNL A   1      34.849  32.411  31.586  1.00  0.00     0.042 C 
BRANCH   6   7
ATOM      7  C   UNL A   1      35.484  32.370  30.220  1.00  0.00     0.118 C 
BRANCH   7   8
ATOM      8  N   UNL A   1      35.026  31.284  29.338  1.00  0.00    -0.352 N 
ATOM      9  O   UNL A   1      35.077  29.327  28.196  1.00  0.00    -0.269 OA
ATOM     10  C   UNL A   1      35.672  30.182  28.838  1.00  0.00     0.251 C 
ATOM     11  H   UNL A   1      34.087  31.364  29.056  1.00  0.00     0.163 HD
BRANCH  10  12
ATOM     12  C   UNL A   1      37.123  30.144  28.986  1.00  0.00     0.039 A 
ATOM     13  C   UNL A   1      37.898  30.324  27.851  1.00  0.00     0.014 A 
ATOM     14  C   UNL A   1      37.643  29.604  30.159  1.00  0.00     0.014 A 
ATOM     15  C   UNL A   1      39.077  29.620  27.772  1.00  0.00     0.010 A 
ATOM     16  C   UNL A   1      38.949  29.142  30.149  1.00  0.00     0.010 A 
ATOM     17  C   UNL A   1      39.654  29.101  28.936  1.00  0.00    -0.014 A 
BRANCH  17  18
ATOM     18  C   UNL A   1      41.061  28.663  28.895  1.00  0.00     0.031 A 
ATOM     19  C   UNL A   1      42.185  29.630  29.073  1.00  0.00     0.074 A 
ATOM     20  C   UNL A   1      41.282  27.365  28.614  1.00  0.00     0.049 A 
ATOM     21  N   UNL A   1      43.461  29.435  28.871  1.00  0.00    -0.248 NA
ATOM     22  C   UNL A   1      41.844  30.994  29.509  1.00  0.00     0.031 C 
ATOM     23  C   UNL A   1      40.238  26.347  28.438  1.00  0.00     0.029 A 
ATOM     24  N   UNL A   1      42.444  26.676  28.414  1.00  0.00    -0.354 N 
ATOM     25  C   UNL A   1      44.072  30.658  29.104  1.00  0.00     0.074 A 
ATOM     26  C   UNL A   1      43.026  31.595  29.453  1.00  0.00     0.031 C 
ATOM     27  C   UNL A   1      40.803  25.163  28.202  1.00  0.00     0.029 A 
ATOM     28  C   UNL A   1      42.234  25.365  28.067  1.00  0.00     0.049 A 
ATOM     29  H   UNL A   1      43.338  27.077  28.508  1.00  0.00     0.167 HD
ATOM     30  C   UNL A   1      45.389  30.953  29.018  1.00  0.00     0.037 A 
ATOM     31  C   UNL A   1      43.082  24.430  27.611  1.00  0.00     0.037 A 
ATOM     32  C   UNL A   1      46.395  29.983  28.665  1.00  0.00     0.049 A 
ATOM     33  C   UNL A   1      44.517  24.798  27.460  1.00  0.00     0.074 A 
ATOM     34  C   UNL A   1      47.764  30.157  28.594  1.00  0.00     0.029 A 
ATOM     35  N   UNL A   1      46.137  28.666  28.302  1.00  0.00    -0.354 N 
ATOM     36  N   UNL A   1      45.093  25.949  27.704  1.00  0.00    -0.248 NA
ATOM     37  C   UNL A   1      45.421  23.753  26.974  1.00  0.00     0.031 C 
ATOM     38  C   UNL A   1      48.324  28.978  28.097  1.00  0.00     0.029 A 
ATOM     39  C   UNL A   1      47.319  28.032  27.958  1.00  0.00     0.049 A 
ATOM     40  H   UNL A   1      45.247  28.246  28.291  1.00  0.00     0.167 HD
ATOM     41  C   UNL A   1      46.437  25.765  27.427  1.00  0.00     0.074 A 
ATOM     42  C   UNL A   1      46.587  24.389  26.994  1.00  0.00     0.031 C 
ATOM     43  C   UNL A   1      47.449  26.657  27.536  1.00  0.00     0.037 A 
BRANCH  30  44
ATOM     44  C   UNL A   1      45.815  32.375  29.253  1.00  0.00     0.057 A 
ATOM     45  C   UNL A   1      46.242  32.783  30.525  1.00  0.00     0.134 A 
ATOM     46  C   UNL A   1      45.764  33.353  28.251  1.00  0.00     0.134 A 
ATOM     47  F   UNL A   1      46.308  31.904  31.537  1.00  0.00    -0.206 F 
ATOM     48  C   UNL A   1      46.593  34.106  30.793  1.00  0.00     0.040 A 
ATOM     49  C   UNL A   1      46.150  34.673  28.497  1.00  0.00     0.040 A 
ATOM     50  F   UNL A   1      45.372  33.036  27.008  1.00  0.00    -0.206 F 
ATOM     51  C   UNL A   1      46.557  35.054  29.774  1.00  0.00     0.006 A 
ENDBRANCH  30  44
BRANCH  31  52
ATOM     52  C   UNL A   1      42.541  23.092  27.280  1.00  0.00     0.057 A 
ATOM     53  C   UNL A   1      42.290  22.137  28.278  1.00  0.00     0.134 A 
ATOM     54  C   UNL A   1      42.425  22.684  25.949  1.00  0.00     0.134 A 
ATOM     55  F   UNL A   1      42.428  22.458  29.574  1.00  0.00    -0.206 F 
ATOM     56  C   UNL A   1      41.981  20.815  27.961  1.00  0.00     0.040 A 
ATOM     57  C   UNL A   1      42.087  21.372  25.618  1.00  0.00     0.040 A 
ATOM     58  F   UNL A   1      42.665  23.552  24.957  1.00  0.00    -0.206 F 
ATOM     59  C   UNL A   1      41.879  20.430  26.625  1.00  0.00     0.006 A 
ENDBRANCH  31  52
BRANCH  43  60
ATOM     60  C   UNL A   1      48.835  26.182  27.222  1.00  0.00     0.057 A 
ATOM     61  C   UNL A   1      49.656  25.694  28.249  1.00  0.00     0.134 A 
ATOM     62  C   UNL A   1      49.406  26.356  25.957  1.00  0.00     0.134 A 
ATOM     63  F   UNL A   1      49.165  25.512  29.484  1.00  0.00    -0.206 F 
ATOM     64  C   UNL A   1      51.012  25.449  28.041  1.00  0.00     0.040 A 
ATOM     65  C   UNL A   1      50.756  26.081  25.730  1.00  0.00     0.040 A 
ATOM     66  F   UNL A   1      48.667  26.802  24.931  1.00  0.00    -0.206 F 
ATOM     67  C   UNL A   1      51.566  25.648  26.778  1.00  0.00     0.006 A 
ENDBRANCH  43  60
ENDBRANCH  17  18
ENDBRANCH  10  12
ENDBRANCH   7   8
ENDBRANCH   6   7
ENDBRANCH   5   6
ENDBRANCH   1   5
BRANCH   2  68
ATOM     68  C   UNL A   1      37.843  32.093  35.798  1.00  0.00     0.197 C 
BRANCH  68  69
ATOM     69  N   UNL A   1      38.508  31.085  34.652  1.00  0.00    -0.340 N 
ATOM     70  C   UNL A   1      39.744  30.974  34.093  1.00  0.00     0.243 C 
ATOM     71  H   UNL A   1      37.867  30.424  34.302  1.00  0.00     0.164 HD
ATOM     72  O   UNL A   1      39.923  30.000  33.355  1.00  0.00    -0.273 OA
BRANCH  70  73
ATOM     73  C   UNL A   1      40.874  32.022  34.322  1.00  0.00     0.175 C 
BRANCH  73  74
ATOM     74  N   UNL A   1      41.626  32.145  35.570  1.00  0.00    -0.342 N 
ATOM     75  C   UNL A   1      41.994  31.054  36.328  1.00  0.00     0.243 C 
ATOM     76  H   UNL A   1      41.880  33.044  35.882  1.00  0.00     0.164 HD
ATOM     77  O   UNL A   1      41.930  31.108  37.558  1.00  0.00    -0.273 OA
BRANCH  75  78
ATOM     78  C   UNL A   1      42.556  29.813  35.596  1.00  0.00     0.176 C 
BRANCH  78  79
ATOM     79  N   UNL A   1      44.024  29.981  35.438  1.00  0.00    -0.340 N 
ATOM     80  C   UNL A   1      44.856  29.844  34.363  1.00  0.00     0.251 C 
ATOM     81  H   UNL A   1      44.487  30.242  36.267  1.00  0.00     0.164 HD
ATOM     82  O   UNL A   1      45.916  30.464  34.342  1.00  0.00    -0.269 OA
BRANCH  80  83
ATOM     83  C   UNL A   1      44.604  28.784  33.385  1.00  0.00     0.040 A 
ATOM     84  C   UNL A   1      43.493  28.776  32.544  1.00  0.00     0.017 A 
ATOM     85  C   UNL A   1      45.509  27.712  33.402  1.00  0.00     0.017 A 
ATOM     86  C   UNL A   1      43.231  27.635  31.789  1.00  0.00     0.040 A 
ATOM     87  C   UNL A   1      45.248  26.582  32.636  1.00  0.00     0.040 A 
ATOM     88  C   UNL A   1      44.099  26.545  31.856  1.00  0.00     0.123 A 
ATOM     89  F   UNL A   1      43.814  25.436  31.162  1.00  0.00    -0.207 F 
ENDBRANCH  80  83
ENDBRANCH  78  79
BRANCH  78  90
ATOM     90  C   UNL A   1      42.121  28.489  36.322  1.00  0.00     0.070 C 
BRANCH  90  91
ATOM     91  C   UNL A   1      42.783  27.185  35.859  1.00  0.00    -0.045 A 
ATOM     92  C   UNL A   1      43.948  26.748  36.509  1.00  0.00     0.007 A 
ATOM     93  C   UNL A   1      42.152  26.291  34.975  1.00  0.00     0.007 A 
ATOM     94  C   UNL A   1      44.324  25.399  36.478  1.00  0.00     0.046 A 
ATOM     95  C   UNL A   1      42.508  24.935  34.971  1.00  0.00     0.046 A 
ATOM     96  C   UNL A   1      43.555  24.491  35.765  1.00  0.00     0.115 A 
BRANCH  96  97
ATOM     97  O   UNL A   1      43.768  23.148  35.865  1.00  0.00    -0.508 OA
ATOM     98  H   UNL A   1      44.297  22.709  35.228  1.00  0.00     0.293 HD
ENDBRANCH  96  97
ENDBRANCH  90  91
ENDBRANCH  78  90
ENDBRANCH  75  78
ENDBRANCH  73  74
BRANCH  73  99
ATOM     99  C   UNL A   1      41.940  31.979  33.262  1.00  0.00     0.072 C 
BRANCH  99 100
ATOM    100  C   UNL A   1      42.014  33.352  32.718  1.00  0.00    -0.020 A 
ATOM    101  C   UNL A   1      43.485  34.339  32.471  1.00  0.00     0.087 A 
ATOM    102  C   UNL A   1      40.693  33.851  31.455  1.00  0.00     0.003 A 
ATOM    103  N   UNL A   1      43.186  35.350  30.925  1.00  0.00    -0.361 N 
ATOM    104  C   UNL A   1      41.434  34.986  30.314  1.00  0.00     0.046 A 
ATOM    105  C   UNL A   1      39.429  33.324  31.194  1.00  0.00     0.010 A 
ATOM    106  H   UNL A   1      43.829  35.965  30.504  1.00  0.00     0.166 HD
ATOM    107  C   UNL A   1      40.745  34.997  29.085  1.00  0.00     0.026 A 
ATOM    108  C   UNL A   1      38.835  33.635  29.974  1.00  0.00     0.001 A 
ATOM    109  C   UNL A   1      39.478  34.380  28.967  1.00  0.00     0.002 A 
ENDBRANCH  99 100
ENDBRANCH  73  99
ENDBRANCH  70  73
ENDBRANCH  68  69
BRANCH  68 110
ATOM    110  C   UNL A   1      38.622  32.643  37.868  1.00  0.00     0.191 C 
BRANCH 110 111
ATOM    111  O   UNL A   1      40.008  33.490  38.138  1.00  0.00    -0.394 OA
ATOM    112  H   UNL A   1      40.073  33.711  39.080  1.00  0.00     0.210 HD
ENDBRANCH 110 111
ENDBRANCH  68 110
ENDBRANCH   2  68
TORSDOF 23
ENDMDL
MODEL 3
REMARK VINA RESULT:     -12.5      1.532      5.781
REMARK SMILES O=C(NCCCNC(=O)[C@H](CO)NC(=O)[C@H](Cc1c[nH]c2ccccc12)NC(=O)[C@H](Cc1ccc(O)cc1)NC(=O)c1ccc(F)cc1)c1ccc(-c2c3nc(c(-c4c(F)cccc4F)c4ccc([nH]4)c(-c4c(F)cccc4F)c4nc(c(-c5c(F)cccc5F)c5ccc2[nH]5)C=C4)C=C3)cc1
REMARK SMILES IDX 7 1 8 2 9 3 6 5 5 6 4 7 3 8 1 9 2 10 49 12 50 13 102 14
REMARK SMILES IDX 51 15 101 16 52 17 53 18 54 19 95 20 55 21 100 22 94 23
REMARK SMILES IDX 96 24 56 25 99 26 93 27 92 28 57 30 83 31 66 32 82 33 67 34
REMARK SMILES IDX 70 35 81 36 97 37 68 38 69 39 80 41 98 42 71 43 58 44 59 45
REMARK SMILES IDX 64 46 60 47 61 48 63 49 65 50 62 51 84 52 85 53 90 54 86 55
REMARK SMILES IDX 87 56 89 57 91 58 88 59 72 60 73 61 78 62 74 63 75 64 77 65
REMARK SMILES IDX 79 66 76 67 10 68 13 69 14 70 15 72 16 73 27 74 28 75 29 77
REMARK SMILES IDX 30 78 39 79 40 80 41 82 42 83 43 84 48 85 44 86 47 87 45 88
REMARK SMILES IDX 46 89 31 90 32 91 33 92 38 93 34 94 37 95 35 96 36 97 17 99
REMARK SMILES IDX 18 100 19 101 26 102 20 103 21 104 25 105 22 107 24 108
REMARK SMILES IDX 23 109 11 110 12 111
REMARK H PARENT 7 4 3 11 96 29 70 40 13 71 27 76 39 81 36 98 20 106 12 112
REMARK Flexibility Score: inf
ROOT
ATOM      1  N   UNL A   1      33.480  27.635  26.758  1.00  0.00    -0.354 N 
ATOM      2  C   UNL A   1      33.452  26.428  26.026  1.00  0.00     0.244 C 
ATOM      3  O   UNL A   1      34.557  26.102  25.556  1.00  0.00    -0.273 OA
ATOM      4  H   UNL A   1      34.399  27.973  26.861  1.00  0.00     0.163 HD
ENDROOT
BRANCH   1   5
ATOM      5  C   UNL A   1      32.471  28.554  27.431  1.00  0.00     0.117 C 
BRANCH   5   6
ATOM      6  C   UNL A   1      32.280  29.924  26.861  1.00  0.00     0.042 C 
BRANCH   6   7
ATOM      7  C   UNL A   1      33.216  30.925  27.487  1.00  0.00     0.118 C 
BRANCH   7   8
ATOM      8  N   UNL A   1      32.774  32.327  27.439  1.00  0.00    -0.352 N 
ATOM      9  O   UNL A   1      32.860  34.579  27.682  1.00  0.00    -0.269 OA
ATOM     10  C   UNL A   1      33.341  33.480  27.920  1.00  0.00     0.251 C 
ATOM     11  H   UNL A   1      31.915  32.463  26.977  1.00  0.00     0.163 HD
BRANCH  10  12
ATOM     12  C   UNL A   1      34.461  33.328  28.843  1.00  0.00     0.039 A 
ATOM     13  C   UNL A   1      35.695  33.825  28.456  1.00  0.00     0.014 A 
ATOM     14  C   UNL A   1      34.324  32.417  29.887  1.00  0.00     0.014 A 
ATOM     15  C   UNL A   1      36.812  33.129  28.857  1.00  0.00     0.010 A 
ATOM     16  C   UNL A   1      35.472  31.922  30.483  1.00  0.00     0.010 A 
ATOM     17  C   UNL A   1      36.724  32.238  29.933  1.00  0.00    -0.014 A 
BRANCH  17  18
ATOM     18  C   UNL A   1      37.968  31.770  30.569  1.00  0.00     0.031 A 
ATOM     19  C   UNL A   1      38.439  32.332  31.871  1.00  0.00     0.074 A 
ATOM     20  C   UNL A   1      38.697  30.870  29.883  1.00  0.00     0.049 A 
ATOM     21  N   UNL A   1      39.596  32.167  32.453  1.00  0.00    -0.248 NA
ATOM     22  C   UNL A   1      37.511  33.206  32.607  1.00  0.00     0.031 C 
ATOM     23  C   UNL A   1      38.304  30.258  28.607  1.00  0.00     0.029 A 
ATOM     24  N   UNL A   1      39.918  30.317  30.144  1.00  0.00    -0.354 N 
ATOM     25  C   UNL A   1      39.559  32.953  33.596  1.00  0.00     0.074 A 
ATOM     26  C   UNL A   1      38.268  33.605  33.621  1.00  0.00     0.031 C 
ATOM     27  C   UNL A   1      39.237  29.389  28.221  1.00  0.00     0.029 A 
ATOM     28  C   UNL A   1      40.354  29.488  29.142  1.00  0.00     0.049 A 
ATOM     29  H   UNL A   1      40.432  30.496  30.965  1.00  0.00     0.167 HD
ATOM     30  C   UNL A   1      40.533  33.110  34.521  1.00  0.00     0.037 A 
ATOM     31  C   UNL A   1      41.552  28.920  28.930  1.00  0.00     0.037 A 
ATOM     32  C   UNL A   1      41.806  32.437  34.452  1.00  0.00     0.049 A 
ATOM     33  C   UNL A   1      42.630  29.162  29.929  1.00  0.00     0.074 A 
ATOM     34  C   UNL A   1      42.849  32.483  35.358  1.00  0.00     0.029 A 
ATOM     35  N   UNL A   1      42.216  31.617  33.407  1.00  0.00    -0.354 N 
ATOM     36  N   UNL A   1      42.583  29.887  31.019  1.00  0.00    -0.248 NA
ATOM     37  C   UNL A   1      43.921  28.518  29.679  1.00  0.00     0.031 C 
ATOM     38  C   UNL A   1      43.921  31.770  34.818  1.00  0.00     0.029 A 
ATOM     39  C   UNL A   1      43.516  31.191  33.624  1.00  0.00     0.049 A 
ATOM     40  H   UNL A   1      41.664  31.374  32.628  1.00  0.00     0.167 HD
ATOM     41  C   UNL A   1      43.831  29.769  31.606  1.00  0.00     0.074 A 
ATOM     42  C   UNL A   1      44.613  28.901  30.746  1.00  0.00     0.031 C 
ATOM     43  C   UNL A   1      44.276  30.321  32.759  1.00  0.00     0.037 A 
BRANCH  30  44
ATOM     44  C   UNL A   1      40.291  34.073  35.649  1.00  0.00     0.057 A 
ATOM     45  C   UNL A   1      39.659  33.639  36.824  1.00  0.00     0.134 A 
ATOM     46  C   UNL A   1      40.633  35.429  35.570  1.00  0.00     0.134 A 
ATOM     47  F   UNL A   1      39.295  32.356  36.970  1.00  0.00    -0.206 F 
ATOM     48  C   UNL A   1      39.371  34.517  37.870  1.00  0.00     0.040 A 
ATOM     49  C   UNL A   1      40.383  36.309  36.626  1.00  0.00     0.040 A 
ATOM     50  F   UNL A   1      41.245  35.915  34.480  1.00  0.00    -0.206 F 
ATOM     51  C   UNL A   1      39.742  35.855  37.776  1.00  0.00     0.006 A 
ENDBRANCH  30  44
BRANCH  31  52
ATOM     52  C   UNL A   1      41.732  28.092  27.716  1.00  0.00     0.057 A 
ATOM     53  C   UNL A   1      42.186  28.649  26.510  1.00  0.00     0.134 A 
ATOM     54  C   UNL A   1      41.297  26.765  27.694  1.00  0.00     0.134 A 
ATOM     55  F   UNL A   1      42.574  29.933  26.460  1.00  0.00    -0.206 F 
ATOM     56  C   UNL A   1      42.160  27.926  25.318  1.00  0.00     0.040 A 
ATOM     57  C   UNL A   1      41.296  26.020  26.514  1.00  0.00     0.040 A 
ATOM     58  F   UNL A   1      40.844  26.186  28.815  1.00  0.00    -0.206 F 
ATOM     59  C   UNL A   1      41.714  26.606  25.319  1.00  0.00     0.006 A 
ENDBRANCH  31  52
BRANCH  43  60
ATOM     60  C   UNL A   1      45.667  29.986  33.203  1.00  0.00     0.057 A 
ATOM     61  C   UNL A   1      45.883  28.904  34.068  1.00  0.00     0.134 A 
ATOM     62  C   UNL A   1      46.755  30.815  32.910  1.00  0.00     0.134 A 
ATOM     63  F   UNL A   1      44.877  28.078  34.389  1.00  0.00    -0.206 F 
ATOM     64  C   UNL A   1      47.121  28.693  34.673  1.00  0.00     0.040 A 
ATOM     65  C   UNL A   1      48.008  30.592  33.484  1.00  0.00     0.040 A 
ATOM     66  F   UNL A   1      46.615  31.854  32.074  1.00  0.00    -0.206 F 
ATOM     67  C   UNL A   1      48.186  29.543  34.384  1.00  0.00     0.006 A 
ENDBRANCH  43  60
ENDBRANCH  17  18
ENDBRANCH  10  12
ENDBRANCH   7   8
ENDBRANCH   6   7
ENDBRANCH   5   6
ENDBRANCH   1   5
BRANCH   2  68
ATOM     68  C   UNL A   1      32.060  25.190  25.872  1.00  0.00     0.197 C 
BRANCH  68  69
ATOM     69  N   UNL A   1      32.806  24.284  27.054  1.00  0.00    -0.340 N 
ATOM     70  C   UNL A   1      33.727  23.283  27.036  1.00  0.00     0.243 C 
ATOM     71  H   UNL A   1      32.516  24.525  27.963  1.00  0.00     0.164 HD
ATOM     72  O   UNL A   1      34.165  22.926  28.135  1.00  0.00    -0.273 OA
BRANCH  70  73
ATOM     73  C   UNL A   1      34.192  22.583  25.725  1.00  0.00     0.175 C 
BRANCH  73  74
ATOM     74  N   UNL A   1      34.678  23.303  24.549  1.00  0.00    -0.342 N 
ATOM     75  C   UNL A   1      33.996  23.322  23.352  1.00  0.00     0.243 C 
ATOM     76  H   UNL A   1      35.529  23.796  24.615  1.00  0.00     0.164 HD
ATOM     77  O   UNL A   1      34.614  23.242  22.288  1.00  0.00    -0.273 OA
BRANCH  75  78
ATOM     78  C   UNL A   1      32.463  23.524  23.388  1.00  0.00     0.176 C 
BRANCH  78  79
ATOM     79  N   UNL A   1      32.028  24.088  22.083  1.00  0.00    -0.340 N 
ATOM     80  C   UNL A   1      32.324  25.257  21.441  1.00  0.00     0.251 C 
ATOM     81  H   UNL A   1      31.407  23.508  21.586  1.00  0.00     0.164 HD
ATOM     82  O   UNL A   1      32.235  25.307  20.217  1.00  0.00    -0.269 OA
BRANCH  80  83
ATOM     83  C   UNL A   1      32.491  26.486  22.218  1.00  0.00     0.040 A 
ATOM     84  C   UNL A   1      31.419  27.192  22.762  1.00  0.00     0.017 A 
ATOM     85  C   UNL A   1      33.803  26.973  22.313  1.00  0.00     0.017 A 
ATOM     86  C   UNL A   1      31.654  28.449  23.312  1.00  0.00     0.040 A 
ATOM     87  C   UNL A   1      34.032  28.223  22.876  1.00  0.00     0.040 A 
ATOM     88  C   UNL A   1      32.952  28.960  23.347  1.00  0.00     0.123 A 
ATOM     89  F   UNL A   1      33.162  30.187  23.837  1.00  0.00    -0.207 F 
ENDBRANCH  80  83
ENDBRANCH  78  79
BRANCH  78  90
ATOM     90  C   UNL A   1      31.732  22.198  23.807  1.00  0.00     0.070 C 
BRANCH  90  91
ATOM     91  C   UNL A   1      32.338  20.877  23.317  1.00  0.00    -0.045 A 
ATOM     92  C   UNL A   1      33.024  20.064  24.233  1.00  0.00     0.007 A 
ATOM     93  C   UNL A   1      32.041  20.335  22.054  1.00  0.00     0.007 A 
ATOM     94  C   UNL A   1      33.180  18.692  23.998  1.00  0.00     0.046 A 
ATOM     95  C   UNL A   1      32.167  18.956  21.832  1.00  0.00     0.046 A 
ATOM     96  C   UNL A   1      32.684  18.139  22.827  1.00  0.00     0.115 A 
BRANCH  96  97
ATOM     97  O   UNL A   1      32.639  16.787  22.644  1.00  0.00    -0.508 OA
ATOM     98  H   UNL A   1      33.312  16.359  22.152  1.00  0.00     0.293 HD
ENDBRANCH  96  97
ENDBRANCH  90  91
ENDBRANCH  78  90
ENDBRANCH  75  78
ENDBRANCH  73  74
BRANCH  73  99
ATOM     99  C   UNL A   1      35.239  21.528  25.959  1.00  0.00     0.072 C 
BRANCH  99 100
ATOM    100  C   UNL A   1      36.537  22.209  25.763  1.00  0.00    -0.020 A 
ATOM    101  C   UNL A   1      37.033  23.799  26.416  1.00  0.00     0.087 A 
ATOM    102  C   UNL A   1      38.063  21.109  25.540  1.00  0.00     0.003 A 
ATOM    103  N   UNL A   1      38.860  23.665  26.793  1.00  0.00    -0.361 N 
ATOM    104  C   UNL A   1      39.449  21.951  26.252  1.00  0.00     0.046 A 
ATOM    105  C   UNL A   1      38.183  19.776  25.147  1.00  0.00     0.010 A 
ATOM    106  H   UNL A   1      39.418  24.366  27.202  1.00  0.00     0.166 HD
ATOM    107  C   UNL A   1      40.466  21.046  26.613  1.00  0.00     0.026 A 
ATOM    108  C   UNL A   1      39.377  19.120  25.433  1.00  0.00     0.001 A 
ATOM    109  C   UNL A   1      40.427  19.705  26.165  1.00  0.00     0.002 A 
ENDBRANCH  99 100
ENDBRANCH  73  99
ENDBRANCH  70  73
ENDBRANCH  68  69
BRANCH  68 110
ATOM    110  C   UNL A   1      29.857  25.720  25.629  1.00  0.00     0.191 C 
BRANCH 110 111
ATOM    111  O   UNL A   1      28.679  25.279  26.692  1.00  0.00    -0.394 OA
ATOM    112  H   UNL A   1      28.151  24.562  26.309  1.00  0.00     0.210 HD
ENDBRANCH 110 111
ENDBRANCH  68 110
ENDBRANCH   2  68
TORSDOF 23
ENDMDL
