MODEL 1
REMARK VINA RESULT:     -12.0      0.000      0.000
REMARK SMILES O=C(NCCCNC(=O)[C@H]1CCCCN1S(=O)(=O)c1cc[nH]c1)c1ccc(-c2c3nc(c(-c4c(F)cccc4F)c4ccc([nH]4)c(-c4c(F)cccc4F)c4nc(c(-c5c(F)cccc5F)c5ccc2[nH]5)C=C4)C=C3)cc1
REMARK SMILES IDX 5 1 4 2 3 3 1 4 2 5 24 7 25 8 77 9 26 10 76 11 27 12 28 13
REMARK SMILES IDX 29 14 70 15 30 16 75 17 69 18 71 19 31 20 74 21 68 22 67 23
REMARK SMILES IDX 32 25 58 26 41 27 57 28 42 29 45 30 56 31 72 32 43 33 44 34
REMARK SMILES IDX 55 36 73 37 46 38 33 39 34 40 39 41 35 42 36 43 38 44 40 45
REMARK SMILES IDX 37 46 59 47 60 48 65 49 61 50 62 51 64 52 66 53 63 54 47 55
REMARK SMILES IDX 48 56 53 57 49 58 50 59 52 60 54 61 51 62 6 63 7 64 8 65
REMARK SMILES IDX 9 67 10 68 11 69 15 70 12 71 14 72 13 73 16 74 17 75 18 76
REMARK SMILES IDX 19 77 20 78 23 79 21 80 22 81
REMARK H PARENT 3 6 71 24 45 35 7 66 22 82
REMARK Flexibility Score: inf
ROOT
ATOM      1  C   UNL A   1      31.411  31.958  26.522  1.00  0.00     0.042 C 
ENDROOT
BRANCH   1   2
ATOM      2  C   UNL A   1      32.647  32.647  27.106  1.00  0.00     0.118 C 
BRANCH   2   3
ATOM      3  N   UNL A   1      32.410  33.974  27.651  1.00  0.00    -0.352 N 
ATOM      4  O   UNL A   1      32.659  35.889  28.761  1.00  0.00    -0.269 OA
ATOM      5  C   UNL A   1      33.081  34.750  28.561  1.00  0.00     0.251 C 
ATOM      6  H   UNL A   1      31.600  34.404  27.293  1.00  0.00     0.163 HD
BRANCH   5   7
ATOM      7  C   UNL A   1      34.253  34.276  29.346  1.00  0.00     0.039 A 
ATOM      8  C   UNL A   1      34.160  33.637  30.585  1.00  0.00     0.014 A 
ATOM      9  C   UNL A   1      35.521  34.442  28.761  1.00  0.00     0.014 A 
ATOM     10  C   UNL A   1      35.308  33.218  31.254  1.00  0.00     0.010 A 
ATOM     11  C   UNL A   1      36.674  33.994  29.410  1.00  0.00     0.010 A 
ATOM     12  C   UNL A   1      36.563  33.369  30.656  1.00  0.00    -0.014 A 
BRANCH  12  13
ATOM     13  C   UNL A   1      37.711  32.663  31.274  1.00  0.00     0.031 A 
ATOM     14  C   UNL A   1      38.039  31.342  30.571  1.00  0.00     0.074 A 
ATOM     15  C   UNL A   1      38.286  33.226  32.375  1.00  0.00     0.049 A 
ATOM     16  N   UNL A   1      38.631  30.278  31.028  1.00  0.00    -0.248 NA
ATOM     17  C   UNL A   1      37.586  31.149  29.167  1.00  0.00     0.031 C 
ATOM     18  C   UNL A   1      37.879  34.526  32.933  1.00  0.00     0.029 A 
ATOM     19  N   UNL A   1      39.304  32.853  33.237  1.00  0.00    -0.354 N 
ATOM     20  C   UNL A   1      38.802  29.398  29.939  1.00  0.00     0.074 A 
ATOM     21  C   UNL A   1      38.030  29.931  28.858  1.00  0.00     0.031 C 
ATOM     22  C   UNL A   1      38.585  34.805  34.046  1.00  0.00     0.029 A 
ATOM     23  C   UNL A   1      39.522  33.734  34.327  1.00  0.00     0.049 A 
ATOM     24  H   UNL A   1      39.836  32.035  33.103  1.00  0.00     0.167 HD
ATOM     25  C   UNL A   1      39.687  28.360  29.938  1.00  0.00     0.037 A 
ATOM     26  C   UNL A   1      40.368  33.608  35.398  1.00  0.00     0.037 A 
ATOM     27  C   UNL A   1      40.336  28.247  31.198  1.00  0.00     0.049 A 
ATOM     28  C   UNL A   1      41.200  32.421  35.131  1.00  0.00     0.074 A 
ATOM     29  C   UNL A   1      39.947  27.800  32.431  1.00  0.00     0.029 A 
ATOM     30  N   UNL A   1      41.549  28.878  31.321  1.00  0.00    -0.354 N 
ATOM     31  N   UNL A   1      42.164  32.377  34.261  1.00  0.00    -0.248 NA
ATOM     32  C   UNL A   1      40.924  31.175  35.857  1.00  0.00     0.031 C 
ATOM     33  C   UNL A   1      40.769  28.502  33.339  1.00  0.00     0.029 A 
ATOM     34  C   UNL A   1      41.664  29.301  32.620  1.00  0.00     0.049 A 
ATOM     35  H   UNL A   1      42.213  29.005  30.606  1.00  0.00     0.167 HD
ATOM     36  C   UNL A   1      42.372  31.025  34.113  1.00  0.00     0.074 A 
ATOM     37  C   UNL A   1      41.842  30.393  35.297  1.00  0.00     0.031 C 
ATOM     38  C   UNL A   1      42.439  30.497  32.866  1.00  0.00     0.037 A 
BRANCH  25  39
ATOM     39  C   UNL A   1      40.247  27.537  28.808  1.00  0.00     0.057 A 
ATOM     40  C   UNL A   1      41.024  28.191  27.822  1.00  0.00     0.134 A 
ATOM     41  C   UNL A   1      39.785  26.261  28.466  1.00  0.00     0.134 A 
ATOM     42  F   UNL A   1      41.551  29.405  28.050  1.00  0.00    -0.206 F 
ATOM     43  C   UNL A   1      41.219  27.664  26.543  1.00  0.00     0.040 A 
ATOM     44  C   UNL A   1      40.019  25.702  27.202  1.00  0.00     0.040 A 
ATOM     45  F   UNL A   1      39.013  25.550  29.298  1.00  0.00    -0.206 F 
ATOM     46  C   UNL A   1      40.700  26.419  26.223  1.00  0.00     0.006 A 
ENDBRANCH  25  39
BRANCH  26  47
ATOM     47  C   UNL A   1      40.617  34.311  36.721  1.00  0.00     0.057 A 
ATOM     48  C   UNL A   1      41.819  34.889  37.140  1.00  0.00     0.134 A 
ATOM     49  C   UNL A   1      39.550  34.505  37.646  1.00  0.00     0.134 A 
ATOM     50  F   UNL A   1      42.955  34.726  36.459  1.00  0.00    -0.206 F 
ATOM     51  C   UNL A   1      41.928  35.670  38.309  1.00  0.00     0.040 A 
ATOM     52  C   UNL A   1      39.632  35.309  38.789  1.00  0.00     0.040 A 
ATOM     53  F   UNL A   1      38.353  33.925  37.484  1.00  0.00    -0.206 F 
ATOM     54  C   UNL A   1      40.827  35.913  39.118  1.00  0.00     0.006 A 
ENDBRANCH  26  47
BRANCH  38  55
ATOM     55  C   UNL A   1      42.903  31.487  31.815  1.00  0.00     0.057 A 
ATOM     56  C   UNL A   1      44.243  31.887  31.762  1.00  0.00     0.134 A 
ATOM     57  C   UNL A   1      42.032  32.156  30.944  1.00  0.00     0.134 A 
ATOM     58  F   UNL A   1      45.152  31.307  32.559  1.00  0.00    -0.206 F 
ATOM     59  C   UNL A   1      44.682  32.900  30.898  1.00  0.00     0.040 A 
ATOM     60  C   UNL A   1      42.454  33.157  30.064  1.00  0.00     0.040 A 
ATOM     61  F   UNL A   1      40.732  31.867  30.929  1.00  0.00    -0.206 F 
ATOM     62  C   UNL A   1      43.787  33.541  30.046  1.00  0.00     0.006 A 
ENDBRANCH  38  55
ENDBRANCH  12  13
ENDBRANCH   5   7
ENDBRANCH   2   3
ENDBRANCH   1   2
BRANCH   1  63
ATOM     63  C   UNL A   1      31.717  30.572  25.965  1.00  0.00     0.117 C 
BRANCH  63  64
ATOM     64  N   UNL A   1      31.641  29.557  26.995  1.00  0.00    -0.355 N 
ATOM     65  C   UNL A   1      31.632  28.197  26.895  1.00  0.00     0.238 C 
ATOM     66  H   UNL A   1      31.587  29.904  27.915  1.00  0.00     0.163 HD
ATOM     67  O   UNL A   1      31.588  27.586  27.967  1.00  0.00    -0.273 OA
BRANCH  65  68
ATOM     68  C   UNL A   1      31.710  27.482  25.532  1.00  0.00     0.162 C 
ATOM     69  C   UNL A   1      33.060  26.752  25.375  1.00  0.00     0.030 C 
ATOM     70  N   UNL A   1      30.550  26.543  25.307  1.00  0.00    -0.185 NA
ATOM     71  C   UNL A   1      33.168  25.512  26.252  1.00  0.00     0.004 C 
ATOM     72  C   UNL A   1      30.664  25.233  25.987  1.00  0.00     0.103 C 
ATOM     73  C   UNL A   1      32.029  24.567  25.939  1.00  0.00     0.017 C 
BRANCH  70  74
ATOM     74  S   UNL A   1      29.875  26.641  23.751  1.00  0.00     0.245 S 
ATOM     75  O   UNL A   1      30.709  25.847  22.875  1.00  0.00    -0.207 OA
ATOM     76  O   UNL A   1      28.456  26.371  23.866  1.00  0.00    -0.207 OA
BRANCH  74  77
ATOM     77  C   UNL A   1      29.945  28.205  23.000  1.00  0.00     0.100 A 
ATOM     78  C   UNL A   1      29.000  29.263  23.014  1.00  0.00     0.041 A 
ATOM     79  C   UNL A   1      31.038  28.661  22.281  1.00  0.00     0.104 A 
ATOM     80  C   UNL A   1      29.530  30.305  22.279  1.00  0.00     0.083 A 
ATOM     81  N   UNL A   1      30.784  29.940  21.863  1.00  0.00    -0.366 N 
ATOM     82  H   UNL A   1      31.402  30.507  21.348  1.00  0.00     0.165 HD
ENDBRANCH  74  77
ENDBRANCH  70  74
ENDBRANCH  65  68
ENDBRANCH  63  64
ENDBRANCH   1  63
TORSDOF 12
ENDMDL
MODEL 2
REMARK VINA RESULT:     -11.8      4.346      6.948
REMARK SMILES O=C(NCCCNC(=O)[C@H]1CCCCN1S(=O)(=O)c1cc[nH]c1)c1ccc(-c2c3nc(c(-c4c(F)cccc4F)c4ccc([nH]4)c(-c4c(F)cccc4F)c4nc(c(-c5c(F)cccc5F)c5ccc2[nH]5)C=C4)C=C3)cc1
REMARK SMILES IDX 5 1 4 2 3 3 1 4 2 5 24 7 25 8 77 9 26 10 76 11 27 12 28 13
REMARK SMILES IDX 29 14 70 15 30 16 75 17 69 18 71 19 31 20 74 21 68 22 67 23
REMARK SMILES IDX 32 25 58 26 41 27 57 28 42 29 45 30 56 31 72 32 43 33 44 34
REMARK SMILES IDX 55 36 73 37 46 38 33 39 34 40 39 41 35 42 36 43 38 44 40 45
REMARK SMILES IDX 37 46 59 47 60 48 65 49 61 50 62 51 64 52 66 53 63 54 47 55
REMARK SMILES IDX 48 56 53 57 49 58 50 59 52 60 54 61 51 62 6 63 7 64 8 65
REMARK SMILES IDX 9 67 10 68 11 69 15 70 12 71 14 72 13 73 16 74 17 75 18 76
REMARK SMILES IDX 19 77 20 78 23 79 21 80 22 81
REMARK H PARENT 3 6 71 24 45 35 7 66 22 82
REMARK Flexibility Score: inf
ROOT
ATOM      1  C   UNL A   1      33.356  29.113  25.717  1.00  0.00     0.042 C 
ENDROOT
BRANCH   1   2
ATOM      2  C   UNL A   1      34.554  28.991  26.664  1.00  0.00     0.118 C 
BRANCH   2   3
ATOM      3  N   UNL A   1      34.966  30.233  27.295  1.00  0.00    -0.352 N 
ATOM      4  O   UNL A   1      36.210  31.840  28.207  1.00  0.00    -0.269 OA
ATOM      5  C   UNL A   1      36.161  30.680  27.797  1.00  0.00     0.251 C 
ATOM      6  H   UNL A   1      34.238  30.890  27.378  1.00  0.00     0.163 HD
BRANCH   5   7
ATOM      7  C   UNL A   1      37.378  29.831  27.915  1.00  0.00     0.039 A 
ATOM      8  C   UNL A   1      38.393  29.778  26.956  1.00  0.00     0.014 A 
ATOM      9  C   UNL A   1      37.522  29.086  29.099  1.00  0.00     0.014 A 
ATOM     10  C   UNL A   1      39.505  28.960  27.146  1.00  0.00     0.010 A 
ATOM     11  C   UNL A   1      38.650  28.290  29.311  1.00  0.00     0.010 A 
ATOM     12  C   UNL A   1      39.650  28.238  28.334  1.00  0.00    -0.014 A 
BRANCH  12  13
ATOM     13  C   UNL A   1      40.966  27.612  28.606  1.00  0.00     0.031 A 
ATOM     14  C   UNL A   1      40.998  26.124  28.241  1.00  0.00     0.074 A 
ATOM     15  C   UNL A   1      41.937  28.389  29.165  1.00  0.00     0.049 A 
ATOM     16  N   UNL A   1      41.749  25.168  28.702  1.00  0.00    -0.248 NA
ATOM     17  C   UNL A   1      40.003  25.608  27.262  1.00  0.00     0.031 C 
ATOM     18  C   UNL A   1      41.773  29.825  29.443  1.00  0.00     0.029 A 
ATOM     19  N   UNL A   1      43.229  28.160  29.607  1.00  0.00    -0.354 N 
ATOM     20  C   UNL A   1      41.468  24.015  27.939  1.00  0.00     0.074 A 
ATOM     21  C   UNL A   1      40.304  24.313  27.162  1.00  0.00     0.031 C 
ATOM     22  C   UNL A   1      42.873  30.321  30.042  1.00  0.00     0.029 A 
ATOM     23  C   UNL A   1      43.865  29.275  30.212  1.00  0.00     0.049 A 
ATOM     24  H   UNL A   1      43.674  27.287  29.509  1.00  0.00     0.167 HD
ATOM     25  C   UNL A   1      42.293  22.931  27.876  1.00  0.00     0.037 A 
ATOM     26  C   UNL A   1      45.084  29.357  30.833  1.00  0.00     0.037 A 
ATOM     27  C   UNL A   1      43.413  23.096  28.738  1.00  0.00     0.049 A 
ATOM     28  C   UNL A   1      45.753  28.064  30.603  1.00  0.00     0.074 A 
ATOM     29  C   UNL A   1      43.584  23.039  30.093  1.00  0.00     0.029 A 
ATOM     30  N   UNL A   1      44.551  23.611  28.170  1.00  0.00    -0.354 N 
ATOM     31  N   UNL A   1      46.265  27.690  29.469  1.00  0.00    -0.248 NA
ATOM     32  C   UNL A   1      45.833  27.093  31.703  1.00  0.00     0.031 C 
ATOM     33  C   UNL A   1      44.696  23.872  30.346  1.00  0.00     0.029 A 
ATOM     34  C   UNL A   1      45.191  24.353  29.130  1.00  0.00     0.049 A 
ATOM     35  H   UNL A   1      44.853  23.473  27.244  1.00  0.00     0.167 HD
ATOM     36  C   UNL A   1      46.421  26.334  29.644  1.00  0.00     0.074 A 
ATOM     37  C   UNL A   1      46.449  26.101  31.067  1.00  0.00     0.031 C 
ATOM     38  C   UNL A   1      45.972  25.487  28.685  1.00  0.00     0.037 A 
BRANCH  25  39
ATOM     39  C   UNL A   1      42.347  21.783  26.904  1.00  0.00     0.057 A 
ATOM     40  C   UNL A   1      41.721  20.566  27.266  1.00  0.00     0.134 A 
ATOM     41  C   UNL A   1      43.247  21.705  25.835  1.00  0.00     0.134 A 
ATOM     42  F   UNL A   1      40.813  20.523  28.253  1.00  0.00    -0.206 F 
ATOM     43  C   UNL A   1      42.062  19.340  26.688  1.00  0.00     0.040 A 
ATOM     44  C   UNL A   1      43.558  20.488  25.213  1.00  0.00     0.040 A 
ATOM     45  F   UNL A   1      43.929  22.778  25.415  1.00  0.00    -0.206 F 
ATOM     46  C   UNL A   1      42.998  19.296  25.666  1.00  0.00     0.006 A 
ENDBRANCH  25  39
BRANCH  26  47
ATOM     47  C   UNL A   1      45.848  30.361  31.678  1.00  0.00     0.057 A 
ATOM     48  C   UNL A   1      46.823  31.255  31.226  1.00  0.00     0.134 A 
ATOM     49  C   UNL A   1      45.544  30.517  33.062  1.00  0.00     0.134 A 
ATOM     50  F   UNL A   1      47.314  31.194  29.986  1.00  0.00    -0.206 F 
ATOM     51  C   UNL A   1      47.368  32.271  32.037  1.00  0.00     0.040 A 
ATOM     52  C   UNL A   1      46.047  31.544  33.869  1.00  0.00     0.040 A 
ATOM     53  F   UNL A   1      44.727  29.677  33.711  1.00  0.00    -0.206 F 
ATOM     54  C   UNL A   1      46.955  32.442  33.351  1.00  0.00     0.006 A 
ENDBRANCH  26  47
BRANCH  38  55
ATOM     55  C   UNL A   1      45.932  26.105  27.302  1.00  0.00     0.057 A 
ATOM     56  C   UNL A   1      47.117  26.331  26.593  1.00  0.00     0.134 A 
ATOM     57  C   UNL A   1      44.764  26.608  26.711  1.00  0.00     0.134 A 
ATOM     58  F   UNL A   1      48.288  25.891  27.078  1.00  0.00    -0.206 F 
ATOM     59  C   UNL A   1      47.134  27.024  25.375  1.00  0.00     0.040 A 
ATOM     60  C   UNL A   1      44.758  27.287  25.489  1.00  0.00     0.040 A 
ATOM     61  F   UNL A   1      43.584  26.466  27.313  1.00  0.00    -0.206 F 
ATOM     62  C   UNL A   1      45.952  27.507  24.818  1.00  0.00     0.006 A 
ENDBRANCH  38  55
ENDBRANCH  12  13
ENDBRANCH   5   7
ENDBRANCH   2   3
ENDBRANCH   1   2
BRANCH   1  63
ATOM     63  C   UNL A   1      33.562  28.361  24.407  1.00  0.00     0.117 C 
BRANCH  63  64
ATOM     64  N   UNL A   1      32.310  27.853  23.884  1.00  0.00    -0.355 N 
ATOM     65  C   UNL A   1      31.864  26.572  23.747  1.00  0.00     0.238 C 
ATOM     66  H   UNL A   1      31.679  28.545  23.578  1.00  0.00     0.163 HD
ATOM     67  O   UNL A   1      30.725  26.452  23.289  1.00  0.00    -0.273 OA
BRANCH  65  68
ATOM     68  C   UNL A   1      32.722  25.364  24.175  1.00  0.00     0.162 C 
ATOM     69  C   UNL A   1      32.973  25.385  25.697  1.00  0.00     0.030 C 
ATOM     70  N   UNL A   1      32.124  24.050  23.736  1.00  0.00    -0.185 NA
ATOM     71  C   UNL A   1      31.731  25.039  26.507  1.00  0.00     0.004 C 
ATOM     72  C   UNL A   1      31.018  23.551  24.585  1.00  0.00     0.103 C 
ATOM     73  C   UNL A   1      31.211  23.683  26.087  1.00  0.00     0.017 C 
BRANCH  70  74
ATOM     74  S   UNL A   1      33.252  22.963  23.079  1.00  0.00     0.245 S 
ATOM     75  O   UNL A   1      32.500  21.902  22.445  1.00  0.00    -0.207 OA
ATOM     76  O   UNL A   1      34.224  23.733  22.329  1.00  0.00    -0.207 OA
BRANCH  74  77
ATOM     77  C   UNL A   1      34.211  22.089  24.233  1.00  0.00     0.100 A 
ATOM     78  C   UNL A   1      35.313  22.522  25.014  1.00  0.00     0.041 A 
ATOM     79  C   UNL A   1      33.965  20.774  24.594  1.00  0.00     0.104 A 
ATOM     80  C   UNL A   1      35.720  21.456  25.790  1.00  0.00     0.083 A 
ATOM     81  N   UNL A   1      34.873  20.405  25.550  1.00  0.00    -0.366 N 
ATOM     82  H   UNL A   1      34.912  19.528  25.994  1.00  0.00     0.165 HD
ENDBRANCH  74  77
ENDBRANCH  70  74
ENDBRANCH  65  68
ENDBRANCH  63  64
ENDBRANCH   1  63
TORSDOF 12
ENDMDL
MODEL 3
REMARK VINA RESULT:     -11.7      5.744     10.573
REMARK SMILES O=C(NCCCNC(=O)[C@H]1CCCCN1S(=O)(=O)c1cc[nH]c1)c1ccc(-c2c3nc(c(-c4c(F)cccc4F)c4ccc([nH]4)c(-c4c(F)cccc4F)c4nc(c(-c5c(F)cccc5F)c5ccc2[nH]5)C=C4)C=C3)cc1
REMARK SMILES IDX 5 1 4 2 3 3 1 4 2 5 24 7 25 8 77 9 26 10 76 11 27 12 28 13
REMARK SMILES IDX 29 14 70 15 30 16 75 17 69 18 71 19 31 20 74 21 68 22 67 23
REMARK SMILES IDX 32 25 58 26 41 27 57 28 42 29 45 30 56 31 72 32 43 33 44 34
REMARK SMILES IDX 55 36 73 37 46 38 33 39 34 40 39 41 35 42 36 43 38 44 40 45
REMARK SMILES IDX 37 46 59 47 60 48 65 49 61 50 62 51 64 52 66 53 63 54 47 55
REMARK SMILES IDX 48 56 53 57 49 58 50 59 52 60 54 61 51 62 6 63 7 64 8 65
REMARK SMILES IDX 9 67 10 68 11 69 15 70 12 71 14 72 13 73 16 74 17 75 18 76
REMARK SMILES IDX 19 77 20 78 23 79 21 80 22 81
REMARK H PARENT 3 6 71 24 45 35 7 66 22 82
REMARK Flexibility Score: inf
ROOT
ATOM      1  C   UNL A   1      37.988  19.500  24.946  1.00  0.00     0.042 C 
ENDROOT
BRANCH   1   2
ATOM      2  C   UNL A   1      39.199  20.022  25.723  1.00  0.00     0.118 C 
BRANCH   2   3
ATOM      3  N   UNL A   1      40.313  19.093  25.820  1.00  0.00    -0.352 N 
ATOM      4  O   UNL A   1      42.320  18.220  26.235  1.00  0.00    -0.269 OA
ATOM      5  C   UNL A   1      41.629  19.238  26.176  1.00  0.00     0.251 C 
ATOM      6  H   UNL A   1      40.073  18.168  25.581  1.00  0.00     0.163 HD
BRANCH   5   7
ATOM      7  C   UNL A   1      42.273  20.552  26.446  1.00  0.00     0.039 A 
ATOM      8  C   UNL A   1      42.851  21.359  25.463  1.00  0.00     0.014 A 
ATOM      9  C   UNL A   1      42.236  21.018  27.772  1.00  0.00     0.014 A 
ATOM     10  C   UNL A   1      43.429  22.581  25.799  1.00  0.00     0.010 A 
ATOM     11  C   UNL A   1      42.783  22.258  28.111  1.00  0.00     0.010 A 
ATOM     12  C   UNL A   1      43.371  23.046  27.116  1.00  0.00    -0.014 A 
BRANCH  12  13
ATOM     13  C   UNL A   1      43.745  24.459  27.366  1.00  0.00     0.031 A 
ATOM     14  C   UNL A   1      42.526  25.376  27.512  1.00  0.00     0.074 A 
ATOM     15  C   UNL A   1      45.073  24.770  27.392  1.00  0.00     0.049 A 
ATOM     16  N   UNL A   1      42.414  26.654  27.304  1.00  0.00    -0.248 NA
ATOM     17  C   UNL A   1      41.218  24.770  27.883  1.00  0.00     0.031 C 
ATOM     18  C   UNL A   1      46.147  23.773  27.260  1.00  0.00     0.029 A 
ATOM     19  N   UNL A   1      45.792  25.945  27.532  1.00  0.00    -0.354 N 
ATOM     20  C   UNL A   1      41.116  27.029  27.711  1.00  0.00     0.074 A 
ATOM     21  C   UNL A   1      40.392  25.814  27.934  1.00  0.00     0.031 C 
ATOM     22  C   UNL A   1      47.353  24.372  27.271  1.00  0.00     0.029 A 
ATOM     23  C   UNL A   1      47.199  25.807  27.416  1.00  0.00     0.049 A 
ATOM     24  H   UNL A   1      45.357  26.812  27.700  1.00  0.00     0.167 HD
ATOM     25  C   UNL A   1      40.751  28.314  27.986  1.00  0.00     0.037 A 
ATOM     26  C   UNL A   1      48.174  26.769  27.404  1.00  0.00     0.037 A 
ATOM     27  C   UNL A   1      41.825  29.211  27.728  1.00  0.00     0.049 A 
ATOM     28  C   UNL A   1      47.505  28.041  27.732  1.00  0.00     0.074 A 
ATOM     29  C   UNL A   1      42.394  29.708  26.588  1.00  0.00     0.029 A 
ATOM     30  N   UNL A   1      42.624  29.533  28.796  1.00  0.00    -0.354 N 
ATOM     31  N   UNL A   1      47.083  28.368  28.918  1.00  0.00    -0.248 NA
ATOM     32  C   UNL A   1      47.252  29.014  26.662  1.00  0.00     0.031 C 
ATOM     33  C   UNL A   1      43.725  30.004  26.955  1.00  0.00     0.029 A 
ATOM     34  C   UNL A   1      43.893  29.733  28.317  1.00  0.00     0.049 A 
ATOM     35  H   UNL A   1      42.338  29.607  29.735  1.00  0.00     0.167 HD
ATOM     36  C   UNL A   1      46.236  29.419  28.654  1.00  0.00     0.074 A 
ATOM     37  C   UNL A   1      46.621  29.948  27.367  1.00  0.00     0.031 C 
ATOM     38  C   UNL A   1      44.995  29.424  29.201  1.00  0.00     0.037 A 
BRANCH  25  39
ATOM     39  C   UNL A   1      39.564  28.870  28.726  1.00  0.00     0.057 A 
ATOM     40  C   UNL A   1      39.387  28.505  30.083  1.00  0.00     0.134 A 
ATOM     41  C   UNL A   1      38.446  29.432  28.100  1.00  0.00     0.134 A 
ATOM     42  F   UNL A   1      40.400  27.990  30.797  1.00  0.00    -0.206 F 
ATOM     43  C   UNL A   1      38.151  28.580  30.729  1.00  0.00     0.040 A 
ATOM     44  C   UNL A   1      37.213  29.557  28.756  1.00  0.00     0.040 A 
ATOM     45  F   UNL A   1      38.472  29.789  26.810  1.00  0.00    -0.206 F 
ATOM     46  C   UNL A   1      37.051  29.093  30.058  1.00  0.00     0.006 A 
ENDBRANCH  25  39
BRANCH  26  47
ATOM     47  C   UNL A   1      49.663  26.856  27.115  1.00  0.00     0.057 A 
ATOM     48  C   UNL A   1      50.666  27.203  28.025  1.00  0.00     0.134 A 
ATOM     49  C   UNL A   1      50.170  26.489  25.835  1.00  0.00     0.134 A 
ATOM     50  F   UNL A   1      50.383  27.672  29.242  1.00  0.00    -0.206 F 
ATOM     51  C   UNL A   1      52.040  27.098  27.728  1.00  0.00     0.040 A 
ATOM     52  C   UNL A   1      51.531  26.344  25.537  1.00  0.00     0.040 A 
ATOM     53  F   UNL A   1      49.365  26.243  24.794  1.00  0.00    -0.206 F 
ATOM     54  C   UNL A   1      52.478  26.634  26.496  1.00  0.00     0.006 A 
ENDBRANCH  26  47
BRANCH  38  55
ATOM     55  C   UNL A   1      44.904  28.641  30.496  1.00  0.00     0.057 A 
ATOM     56  C   UNL A   1      45.468  29.149  31.672  1.00  0.00     0.134 A 
ATOM     57  C   UNL A   1      44.392  27.339  30.579  1.00  0.00     0.134 A 
ATOM     58  F   UNL A   1      45.986  30.386  31.692  1.00  0.00    -0.206 F 
ATOM     59  C   UNL A   1      45.525  28.398  32.854  1.00  0.00     0.040 A 
ATOM     60  C   UNL A   1      44.425  26.580  31.753  1.00  0.00     0.040 A 
ATOM     61  F   UNL A   1      43.852  26.752  29.512  1.00  0.00    -0.206 F 
ATOM     62  C   UNL A   1      45.004  27.107  32.898  1.00  0.00     0.006 A 
ENDBRANCH  38  55
ENDBRANCH  12  13
ENDBRANCH   5   7
ENDBRANCH   2   3
ENDBRANCH   1   2
BRANCH   1  63
ATOM     63  C   UNL A   1      36.806  20.462  24.982  1.00  0.00     0.117 C 
BRANCH  63  64
ATOM     64  N   UNL A   1      37.235  21.821  25.241  1.00  0.00    -0.355 N 
ATOM     65  C   UNL A   1      36.510  22.929  25.565  1.00  0.00     0.238 C 
ATOM     66  H   UNL A   1      38.206  21.969  25.171  1.00  0.00     0.163 HD
ATOM     67  O   UNL A   1      37.167  23.957  25.756  1.00  0.00    -0.273 OA
BRANCH  65  68
ATOM     68  C   UNL A   1      34.976  22.881  25.716  1.00  0.00     0.162 C 
ATOM     69  C   UNL A   1      34.398  24.303  25.869  1.00  0.00     0.030 C 
ATOM     70  N   UNL A   1      34.309  22.138  24.585  1.00  0.00    -0.185 NA
ATOM     71  C   UNL A   1      34.442  25.103  24.574  1.00  0.00     0.004 C 
ATOM     72  C   UNL A   1      34.150  22.913  23.334  1.00  0.00     0.103 C 
ATOM     73  C   UNL A   1      33.698  24.356  23.490  1.00  0.00     0.017 C 
BRANCH  70  74
ATOM     74  S   UNL A   1      33.089  21.068  25.086  1.00  0.00     0.245 S 
ATOM     75  O   UNL A   1      33.410  20.660  26.437  1.00  0.00    -0.207 OA
ATOM     76  O   UNL A   1      31.811  21.680  24.783  1.00  0.00    -0.207 OA
BRANCH  74  77
ATOM     77  C   UNL A   1      33.035  19.547  24.250  1.00  0.00     0.100 A 
ATOM     78  C   UNL A   1      33.782  18.361  24.471  1.00  0.00     0.041 A 
ATOM     79  C   UNL A   1      32.155  19.272  23.216  1.00  0.00     0.104 A 
ATOM     80  C   UNL A   1      33.360  17.424  23.550  1.00  0.00     0.083 A 
ATOM     81  N   UNL A   1      32.346  17.978  22.811  1.00  0.00    -0.366 N 
ATOM     82  H   UNL A   1      31.839  17.519  22.103  1.00  0.00     0.165 HD
ENDBRANCH  74  77
ENDBRANCH  70  74
ENDBRANCH  65  68
ENDBRANCH  63  64
ENDBRANCH   1  63
TORSDOF 12
ENDMDL
