MODEL 1
REMARK VINA RESULT:     -12.3      0.000      0.000
REMARK SMILES CC1(C)CCCC[C@H]1NC(=O)Nc1ccccc1C(=O)NCCCNC(=O)c1ccc(-c2c3nc(c(-c4c(F)cccc4F)c4ccc([nH]4)c(-c4c(F)cccc4F)c4nc(c(-c5c(F)cccc5F)c5ccc2[nH]5)C=C4)C=C3)cc1
REMARK SMILES IDX 23 1 22 2 21 3 19 4 20 5 18 7 13 8 14 9 15 10 17 11 16 12
REMARK SMILES IDX 12 13 9 14 10 15 11 17 8 19 1 20 2 21 3 22 4 23 5 24 7 25
REMARK SMILES IDX 6 26 24 27 25 28 26 29 27 31 28 32 29 33 81 34 30 35 80 36
REMARK SMILES IDX 31 37 32 38 33 39 74 40 34 41 79 42 73 43 75 44 35 45 78 46
REMARK SMILES IDX 72 47 71 48 36 50 62 51 45 52 61 53 46 54 49 55 60 56 76 57
REMARK SMILES IDX 47 58 48 59 59 61 77 62 50 63 37 64 38 65 43 66 39 67 40 68
REMARK SMILES IDX 42 69 44 70 41 71 63 72 64 73 69 74 65 75 66 76 68 77 70 78
REMARK SMILES IDX 67 79 51 80 52 81 57 82 53 83 54 84 56 85 58 86 55 87
REMARK H PARENT 21 6 9 16 12 18 25 30 75 49 49 60
REMARK Flexibility Score: inf
ROOT
ATOM      1  C   UNL A   1      31.827  30.089  26.902  1.00  0.00     0.042 C 
ENDROOT
BRANCH   1   2
ATOM      2  C   UNL A   1      32.146  28.768  27.571  1.00  0.00     0.118 C 
BRANCH   2   3
ATOM      3  N   UNL A   1      32.954  27.884  26.766  1.00  0.00    -0.352 N 
ATOM      4  C   UNL A   1      32.641  27.146  25.657  1.00  0.00     0.253 C 
ATOM      5  O   UNL A   1      33.563  26.489  25.164  1.00  0.00    -0.269 OA
ATOM      6  H   UNL A   1      33.888  27.797  27.066  1.00  0.00     0.163 HD
BRANCH   4   7
ATOM      7  C   UNL A   1      31.268  26.999  25.088  1.00  0.00     0.063 A 
ATOM      8  C   UNL A   1      30.265  26.051  25.371  1.00  0.00     0.055 A 
ATOM      9  C   UNL A   1      29.126  26.007  24.534  1.00  0.00     0.027 A 
ATOM     10  C   UNL A   1      28.896  26.968  23.549  1.00  0.00     0.002 A 
ATOM     11  C   UNL A   1      30.996  27.978  24.097  1.00  0.00     0.016 A 
ATOM     12  C   UNL A   1      29.818  27.979  23.353  1.00  0.00     0.001 A 
BRANCH   8  13
ATOM     13  N   UNL A   1      30.182  25.123  26.431  1.00  0.00    -0.307 N 
ATOM     14  N   UNL A   1      31.013  23.033  25.677  1.00  0.00    -0.335 N 
ATOM     15  C   UNL A   1      30.340  23.791  26.558  1.00  0.00     0.319 C 
ATOM     16  H   UNL A   1      30.753  22.083  25.650  1.00  0.00     0.165 HD
ATOM     17  O   UNL A   1      29.878  23.243  27.563  1.00  0.00    -0.248 OA
ATOM     18  H   UNL A   1      29.952  25.554  27.285  1.00  0.00     0.171 HD
BRANCH  14  19
ATOM     19  C   UNL A   1      32.067  23.418  24.761  1.00  0.00     0.089 C 
ATOM     20  C   UNL A   1      33.190  21.095  24.622  1.00  0.00     0.013 C 
ATOM     21  C   UNL A   1      33.376  22.593  24.942  1.00  0.00    -0.015 C 
ATOM     22  C   UNL A   1      33.898  22.693  26.393  1.00  0.00     0.013 C 
ATOM     23  C   UNL A   1      34.432  23.225  23.999  1.00  0.00     0.008 C 
ATOM     24  C   UNL A   1      33.969  23.342  22.544  1.00  0.00     0.001 C 
ATOM     25  C   UNL A   1      31.567  23.393  23.314  1.00  0.00     0.025 C 
ATOM     26  C   UNL A   1      32.612  24.029  22.405  1.00  0.00     0.002 C 
ENDBRANCH  14  19
ENDBRANCH   8  13
ENDBRANCH   4   7
ENDBRANCH   2   3
ENDBRANCH   1   2
BRANCH   1  27
ATOM     27  C   UNL A   1      32.935  31.121  27.092  1.00  0.00     0.118 C 
BRANCH  27  28
ATOM     28  N   UNL A   1      32.460  32.473  27.390  1.00  0.00    -0.352 N 
ATOM     29  C   UNL A   1      33.036  33.511  28.096  1.00  0.00     0.251 C 
ATOM     30  H   UNL A   1      31.571  32.679  27.023  1.00  0.00     0.163 HD
ATOM     31  O   UNL A   1      32.434  34.558  28.268  1.00  0.00    -0.269 OA
BRANCH  29  32
ATOM     32  C   UNL A   1      34.373  33.330  28.699  1.00  0.00     0.039 A 
ATOM     33  C   UNL A   1      34.489  32.630  29.902  1.00  0.00     0.014 A 
ATOM     34  C   UNL A   1      35.512  33.789  28.046  1.00  0.00     0.014 A 
ATOM     35  C   UNL A   1      35.756  32.279  30.376  1.00  0.00     0.010 A 
ATOM     36  C   UNL A   1      36.754  33.311  28.433  1.00  0.00     0.010 A 
ATOM     37  C   UNL A   1      36.895  32.554  29.604  1.00  0.00    -0.014 A 
BRANCH  37  38
ATOM     38  C   UNL A   1      38.250  32.085  29.996  1.00  0.00     0.031 A 
ATOM     39  C   UNL A   1      38.775  30.785  29.443  1.00  0.00     0.074 A 
ATOM     40  C   UNL A   1      38.960  32.759  30.923  1.00  0.00     0.049 A 
ATOM     41  N   UNL A   1      39.845  30.113  29.779  1.00  0.00    -0.248 NA
ATOM     42  C   UNL A   1      37.952  30.122  28.417  1.00  0.00     0.031 C 
ATOM     43  C   UNL A   1      38.534  33.987  31.599  1.00  0.00     0.029 A 
ATOM     44  N   UNL A   1      40.191  32.495  31.470  1.00  0.00    -0.354 N 
ATOM     45  C   UNL A   1      39.792  28.932  29.048  1.00  0.00     0.074 A 
ATOM     46  C   UNL A   1      38.554  28.948  28.302  1.00  0.00     0.031 C 
ATOM     47  C   UNL A   1      39.505  34.391  32.436  1.00  0.00     0.029 A 
ATOM     48  C   UNL A   1      40.602  33.430  32.389  1.00  0.00     0.049 A 
ATOM     49  H   UNL A   1      40.730  31.707  31.226  1.00  0.00     0.167 HD
ATOM     50  C   UNL A   1      40.707  27.938  28.974  1.00  0.00     0.037 A 
ATOM     51  C   UNL A   1      41.737  33.505  33.108  1.00  0.00     0.037 A 
ATOM     52  C   UNL A   1      41.976  27.966  29.645  1.00  0.00     0.049 A 
ATOM     53  C   UNL A   1      42.775  32.429  32.947  1.00  0.00     0.074 A 
ATOM     54  C   UNL A   1      43.017  27.059  29.563  1.00  0.00     0.029 A 
ATOM     55  N   UNL A   1      42.386  28.972  30.507  1.00  0.00    -0.354 N 
ATOM     56  N   UNL A   1      42.738  31.350  32.204  1.00  0.00    -0.248 NA
ATOM     57  C   UNL A   1      44.016  32.585  33.719  1.00  0.00     0.031 C 
ATOM     58  C   UNL A   1      44.051  27.508  30.391  1.00  0.00     0.029 A 
ATOM     59  C   UNL A   1      43.665  28.709  30.964  1.00  0.00     0.049 A 
ATOM     60  H   UNL A   1      41.846  29.757  30.756  1.00  0.00     0.167 HD
ATOM     61  C   UNL A   1      43.958  30.714  32.396  1.00  0.00     0.074 A 
ATOM     62  C   UNL A   1      44.717  31.535  33.316  1.00  0.00     0.031 C 
ATOM     63  C   UNL A   1      44.408  29.553  31.863  1.00  0.00     0.037 A 
BRANCH  50  64
ATOM     64  C   UNL A   1      40.375  26.758  28.109  1.00  0.00     0.057 A 
ATOM     65  C   UNL A   1      40.917  26.608  26.825  1.00  0.00     0.134 A 
ATOM     66  C   UNL A   1      39.514  25.753  28.567  1.00  0.00     0.134 A 
ATOM     67  F   UNL A   1      41.736  27.542  26.320  1.00  0.00    -0.206 F 
ATOM     68  C   UNL A   1      40.587  25.521  26.015  1.00  0.00     0.040 A 
ATOM     69  C   UNL A   1      39.199  24.647  27.777  1.00  0.00     0.040 A 
ATOM     70  F   UNL A   1      38.963  25.832  29.788  1.00  0.00    -0.206 F 
ATOM     71  C   UNL A   1      39.729  24.533  26.493  1.00  0.00     0.006 A 
ENDBRANCH  50  64
BRANCH  51  72
ATOM     72  C   UNL A   1      41.978  34.658  34.013  1.00  0.00     0.057 A 
ATOM     73  C   UNL A   1      41.639  34.586  35.368  1.00  0.00     0.134 A 
ATOM     74  C   UNL A   1      42.533  35.855  33.549  1.00  0.00     0.134 A 
ATOM     75  F   UNL A   1      41.087  33.471  35.868  1.00  0.00    -0.206 F 
ATOM     76  C   UNL A   1      41.820  35.672  36.227  1.00  0.00     0.040 A 
ATOM     77  C   UNL A   1      42.741  36.942  34.401  1.00  0.00     0.040 A 
ATOM     78  F   UNL A   1      42.888  35.985  32.262  1.00  0.00    -0.206 F 
ATOM     79  C   UNL A   1      42.376  36.854  35.743  1.00  0.00     0.006 A 
ENDBRANCH  51  72
BRANCH  63  80
ATOM     80  C   UNL A   1      45.796  29.124  32.228  1.00  0.00     0.057 A 
ATOM     81  C   UNL A   1      46.044  28.287  33.320  1.00  0.00     0.134 A 
ATOM     82  C   UNL A   1      46.888  29.517  31.445  1.00  0.00     0.134 A 
ATOM     83  F   UNL A   1      45.038  27.887  34.114  1.00  0.00    -0.206 F 
ATOM     84  C   UNL A   1      47.337  27.864  33.632  1.00  0.00     0.040 A 
ATOM     85  C   UNL A   1      48.182  29.083  31.734  1.00  0.00     0.040 A 
ATOM     86  F   UNL A   1      46.713  30.313  30.380  1.00  0.00    -0.206 F 
ATOM     87  C   UNL A   1      48.409  28.258  32.833  1.00  0.00     0.006 A 
ENDBRANCH  63  80
ENDBRANCH  37  38
ENDBRANCH  29  32
ENDBRANCH  27  28
ENDBRANCH   1  27
TORSDOF 12
ENDMDL
MODEL 2
REMARK VINA RESULT:     -12.3      3.117      8.173
REMARK SMILES CC1(C)CCCC[C@H]1NC(=O)Nc1ccccc1C(=O)NCCCNC(=O)c1ccc(-c2c3nc(c(-c4c(F)cccc4F)c4ccc([nH]4)c(-c4c(F)cccc4F)c4nc(c(-c5c(F)cccc5F)c5ccc2[nH]5)C=C4)C=C3)cc1
REMARK SMILES IDX 23 1 22 2 21 3 19 4 20 5 18 7 13 8 14 9 15 10 17 11 16 12
REMARK SMILES IDX 12 13 9 14 10 15 11 17 8 19 1 20 2 21 3 22 4 23 5 24 7 25
REMARK SMILES IDX 6 26 24 27 25 28 26 29 27 31 28 32 29 33 81 34 30 35 80 36
REMARK SMILES IDX 31 37 32 38 33 39 74 40 34 41 79 42 73 43 75 44 35 45 78 46
REMARK SMILES IDX 72 47 71 48 36 50 62 51 45 52 61 53 46 54 49 55 60 56 76 57
REMARK SMILES IDX 47 58 48 59 59 61 77 62 50 63 37 64 38 65 43 66 39 67 40 68
REMARK SMILES IDX 42 69 44 70 41 71 63 72 64 73 69 74 65 75 66 76 68 77 70 78
REMARK SMILES IDX 67 79 51 80 52 81 57 82 53 83 54 84 56 85 58 86 55 87
REMARK H PARENT 21 6 9 16 12 18 25 30 75 49 49 60
REMARK Flexibility Score: inf
ROOT
ATOM      1  C   UNL A   1      37.712  20.606  24.674  1.00  0.00     0.042 C 
ENDROOT
BRANCH   1   2
ATOM      2  C   UNL A   1      36.312  20.371  25.199  1.00  0.00     0.118 C 
BRANCH   2   3
ATOM      3  N   UNL A   1      35.870  21.359  26.155  1.00  0.00    -0.352 N 
ATOM      4  C   UNL A   1      34.865  22.284  26.085  1.00  0.00     0.253 C 
ATOM      5  O   UNL A   1      34.707  22.992  27.084  1.00  0.00    -0.269 OA
ATOM      6  H   UNL A   1      36.378  21.369  26.997  1.00  0.00     0.163 HD
BRANCH   4   7
ATOM      7  C   UNL A   1      34.041  22.562  24.870  1.00  0.00     0.063 A 
ATOM      8  C   UNL A   1      32.642  22.601  24.711  1.00  0.00     0.055 A 
ATOM      9  C   UNL A   1      32.117  22.680  23.401  1.00  0.00     0.027 A 
ATOM     10  C   UNL A   1      32.933  22.881  22.288  1.00  0.00     0.002 A 
ATOM     11  C   UNL A   1      34.847  22.793  23.724  1.00  0.00     0.016 A 
ATOM     12  C   UNL A   1      34.303  22.973  22.454  1.00  0.00     0.001 A 
BRANCH   8  13
ATOM     13  N   UNL A   1      31.629  22.621  25.692  1.00  0.00    -0.307 N 
ATOM     14  N   UNL A   1      31.708  24.707  26.822  1.00  0.00    -0.335 N 
ATOM     15  C   UNL A   1      31.299  23.432  26.717  1.00  0.00     0.319 C 
ATOM     16  H   UNL A   1      31.740  25.068  27.737  1.00  0.00     0.165 HD
ATOM     17  O   UNL A   1      30.543  22.991  27.587  1.00  0.00    -0.248 OA
ATOM     18  H   UNL A   1      31.014  21.858  25.609  1.00  0.00     0.171 HD
BRANCH  14  19
ATOM     19  C   UNL A   1      32.109  25.623  25.774  1.00  0.00     0.089 C 
ATOM     20  C   UNL A   1      31.123  27.751  26.861  1.00  0.00     0.013 C 
ATOM     21  C   UNL A   1      31.148  26.840  25.616  1.00  0.00    -0.015 C 
ATOM     22  C   UNL A   1      29.698  26.372  25.358  1.00  0.00     0.013 C 
ATOM     23  C   UNL A   1      31.634  27.630  24.373  1.00  0.00     0.008 C 
ATOM     24  C   UNL A   1      33.116  28.012  24.425  1.00  0.00     0.001 C 
ATOM     25  C   UNL A   1      33.564  26.061  25.960  1.00  0.00     0.025 C 
ATOM     26  C   UNL A   1      34.027  26.823  24.725  1.00  0.00     0.002 C 
ENDBRANCH  14  19
ENDBRANCH   8  13
ENDBRANCH   4   7
ENDBRANCH   2   3
ENDBRANCH   1   2
BRANCH   1  27
ATOM     27  C   UNL A   1      38.750  20.678  25.792  1.00  0.00     0.118 C 
BRANCH  27  28
ATOM     28  N   UNL A   1      39.790  19.650  25.720  1.00  0.00    -0.352 N 
ATOM     29  C   UNL A   1      41.130  19.679  26.049  1.00  0.00     0.251 C 
ATOM     30  H   UNL A   1      39.477  18.783  25.375  1.00  0.00     0.163 HD
ATOM     31  O   UNL A   1      41.840  18.704  25.862  1.00  0.00    -0.269 OA
BRANCH  29  32
ATOM     32  C   UNL A   1      41.724  20.924  26.579  1.00  0.00     0.039 A 
ATOM     33  C   UNL A   1      42.209  21.882  25.685  1.00  0.00     0.014 A 
ATOM     34  C   UNL A   1      41.742  21.174  27.947  1.00  0.00     0.014 A 
ATOM     35  C   UNL A   1      42.585  23.141  26.162  1.00  0.00     0.010 A 
ATOM     36  C   UNL A   1      41.968  22.464  28.398  1.00  0.00     0.010 A 
ATOM     37  C   UNL A   1      42.397  23.465  27.514  1.00  0.00    -0.014 A 
BRANCH  37  38
ATOM     38  C   UNL A   1      42.654  24.829  28.046  1.00  0.00     0.031 A 
ATOM     39  C   UNL A   1      44.045  25.206  28.484  1.00  0.00     0.074 A 
ATOM     40  C   UNL A   1      41.631  25.686  28.237  1.00  0.00     0.049 A 
ATOM     41  N   UNL A   1      44.452  26.269  29.127  1.00  0.00    -0.248 NA
ATOM     42  C   UNL A   1      45.112  24.224  28.219  1.00  0.00     0.031 C 
ATOM     43  C   UNL A   1      40.223  25.419  27.931  1.00  0.00     0.029 A 
ATOM     44  N   UNL A   1      41.618  26.959  28.752  1.00  0.00    -0.354 N 
ATOM     45  C   UNL A   1      45.801  26.058  29.386  1.00  0.00     0.074 A 
ATOM     46  C   UNL A   1      46.129  24.740  28.892  1.00  0.00     0.031 C 
ATOM     47  C   UNL A   1      39.492  26.508  28.224  1.00  0.00     0.029 A 
ATOM     48  C   UNL A   1      40.370  27.534  28.777  1.00  0.00     0.049 A 
ATOM     49  H   UNL A   1      42.428  27.417  29.073  1.00  0.00     0.167 HD
ATOM     50  C   UNL A   1      46.698  26.898  29.951  1.00  0.00     0.037 A 
ATOM     51  C   UNL A   1      39.980  28.752  29.196  1.00  0.00     0.037 A 
ATOM     52  C   UNL A   1      46.392  28.241  30.359  1.00  0.00     0.049 A 
ATOM     53  C   UNL A   1      41.011  29.699  29.746  1.00  0.00     0.074 A 
ATOM     54  C   UNL A   1      47.246  29.210  30.853  1.00  0.00     0.029 A 
ATOM     55  N   UNL A   1      45.130  28.812  30.295  1.00  0.00    -0.354 N 
ATOM     56  N   UNL A   1      42.296  29.508  29.926  1.00  0.00    -0.248 NA
ATOM     57  C   UNL A   1      40.540  31.033  30.143  1.00  0.00     0.031 C 
ATOM     58  C   UNL A   1      46.496  30.363  31.105  1.00  0.00     0.029 A 
ATOM     59  C   UNL A   1      45.182  30.120  30.740  1.00  0.00     0.049 A 
ATOM     60  H   UNL A   1      44.318  28.353  29.979  1.00  0.00     0.167 HD
ATOM     61  C   UNL A   1      42.790  30.704  30.430  1.00  0.00     0.074 A 
ATOM     62  C   UNL A   1      41.670  31.618  30.514  1.00  0.00     0.031 C 
ATOM     63  C   UNL A   1      44.057  31.017  30.794  1.00  0.00     0.037 A 
BRANCH  50  64
ATOM     64  C   UNL A   1      48.101  26.395  30.126  1.00  0.00     0.057 A 
ATOM     65  C   UNL A   1      49.067  26.533  29.120  1.00  0.00     0.134 A 
ATOM     66  C   UNL A   1      48.496  25.774  31.317  1.00  0.00     0.134 A 
ATOM     67  F   UNL A   1      48.749  27.105  27.948  1.00  0.00    -0.206 F 
ATOM     68  C   UNL A   1      50.363  26.043  29.277  1.00  0.00     0.040 A 
ATOM     69  C   UNL A   1      49.798  25.304  31.498  1.00  0.00     0.040 A 
ATOM     70  F   UNL A   1      47.624  25.612  32.323  1.00  0.00    -0.206 F 
ATOM     71  C   UNL A   1      50.733  25.430  30.472  1.00  0.00     0.006 A 
ENDBRANCH  50  64
BRANCH  51  72
ATOM     72  C   UNL A   1      38.560  29.169  29.074  1.00  0.00     0.057 A 
ATOM     73  C   UNL A   1      38.057  29.645  27.858  1.00  0.00     0.134 A 
ATOM     74  C   UNL A   1      37.681  29.118  30.160  1.00  0.00     0.134 A 
ATOM     75  F   UNL A   1      38.857  29.733  26.785  1.00  0.00    -0.206 F 
ATOM     76  C   UNL A   1      36.737  30.080  27.731  1.00  0.00     0.040 A 
ATOM     77  C   UNL A   1      36.350  29.529  30.043  1.00  0.00     0.040 A 
ATOM     78  F   UNL A   1      38.098  28.663  31.351  1.00  0.00    -0.206 F 
ATOM     79  C   UNL A   1      35.878  30.019  28.826  1.00  0.00     0.006 A 
ENDBRANCH  51  72
BRANCH  63  80
ATOM     80  C   UNL A   1      44.306  32.413  31.277  1.00  0.00     0.057 A 
ATOM     81  C   UNL A   1      44.245  32.743  32.635  1.00  0.00     0.134 A 
ATOM     82  C   UNL A   1      44.657  33.423  30.374  1.00  0.00     0.134 A 
ATOM     83  F   UNL A   1      43.901  31.820  33.546  1.00  0.00    -0.206 F 
ATOM     84  C   UNL A   1      44.512  34.039  33.079  1.00  0.00     0.040 A 
ATOM     85  C   UNL A   1      44.948  34.716  30.809  1.00  0.00     0.040 A 
ATOM     86  F   UNL A   1      44.740  33.166  29.060  1.00  0.00    -0.206 F 
ATOM     87  C   UNL A   1      44.872  35.028  32.164  1.00  0.00     0.006 A 
ENDBRANCH  63  80
ENDBRANCH  37  38
ENDBRANCH  29  32
ENDBRANCH  27  28
ENDBRANCH   1  27
TORSDOF 12
ENDMDL
MODEL 3
REMARK VINA RESULT:     -12.2      3.515      7.628
REMARK SMILES CC1(C)CCCC[C@H]1NC(=O)Nc1ccccc1C(=O)NCCCNC(=O)c1ccc(-c2c3nc(c(-c4c(F)cccc4F)c4ccc([nH]4)c(-c4c(F)cccc4F)c4nc(c(-c5c(F)cccc5F)c5ccc2[nH]5)C=C4)C=C3)cc1
REMARK SMILES IDX 23 1 22 2 21 3 19 4 20 5 18 7 13 8 14 9 15 10 17 11 16 12
REMARK SMILES IDX 12 13 9 14 10 15 11 17 8 19 1 20 2 21 3 22 4 23 5 24 7 25
REMARK SMILES IDX 6 26 24 27 25 28 26 29 27 31 28 32 29 33 81 34 30 35 80 36
REMARK SMILES IDX 31 37 32 38 33 39 74 40 34 41 79 42 73 43 75 44 35 45 78 46
REMARK SMILES IDX 72 47 71 48 36 50 62 51 45 52 61 53 46 54 49 55 60 56 76 57
REMARK SMILES IDX 47 58 48 59 59 61 77 62 50 63 37 64 38 65 43 66 39 67 40 68
REMARK SMILES IDX 42 69 44 70 41 71 63 72 64 73 69 74 65 75 66 76 68 77 70 78
REMARK SMILES IDX 67 79 51 80 52 81 57 82 53 83 54 84 56 85 58 86 55 87
REMARK H PARENT 21 6 9 16 12 18 25 30 75 49 49 60
REMARK Flexibility Score: inf
ROOT
ATOM      1  C   UNL A   1      33.268  30.416  27.081  1.00  0.00     0.042 C 
ENDROOT
BRANCH   1   2
ATOM      2  C   UNL A   1      32.431  29.168  27.276  1.00  0.00     0.118 C 
BRANCH   2   3
ATOM      3  N   UNL A   1      33.077  27.955  26.833  1.00  0.00    -0.352 N 
ATOM      4  C   UNL A   1      32.678  27.006  25.933  1.00  0.00     0.253 C 
ATOM      5  O   UNL A   1      33.464  26.074  25.741  1.00  0.00    -0.269 OA
ATOM      6  H   UNL A   1      33.952  27.782  27.250  1.00  0.00     0.163 HD
BRANCH   4   7
ATOM      7  C   UNL A   1      31.339  26.966  25.270  1.00  0.00     0.063 A 
ATOM      8  C   UNL A   1      30.255  26.088  25.468  1.00  0.00     0.055 A 
ATOM      9  C   UNL A   1      29.176  26.138  24.556  1.00  0.00     0.027 A 
ATOM     10  C   UNL A   1      29.081  27.126  23.576  1.00  0.00     0.002 A 
ATOM     11  C   UNL A   1      31.206  27.976  24.282  1.00  0.00     0.016 A 
ATOM     12  C   UNL A   1      30.084  28.071  23.460  1.00  0.00     0.001 A 
BRANCH   8  13
ATOM     13  N   UNL A   1      30.035  25.154  26.502  1.00  0.00    -0.307 N 
ATOM     14  N   UNL A   1      30.619  22.995  25.712  1.00  0.00    -0.335 N 
ATOM     15  C   UNL A   1      30.025  23.810  26.598  1.00  0.00     0.319 C 
ATOM     16  H   UNL A   1      30.245  22.086  25.656  1.00  0.00     0.165 HD
ATOM     17  O   UNL A   1      29.476  23.301  27.580  1.00  0.00    -0.248 OA
ATOM     18  H   UNL A   1      29.839  25.590  27.362  1.00  0.00     0.171 HD
BRANCH  14  19
ATOM     19  C   UNL A   1      31.733  23.268  24.827  1.00  0.00     0.089 C 
ATOM     20  C   UNL A   1      32.516  20.817  24.586  1.00  0.00     0.013 C 
ATOM     21  C   UNL A   1      32.908  22.256  24.981  1.00  0.00    -0.015 C 
ATOM     22  C   UNL A   1      33.414  22.212  26.440  1.00  0.00     0.013 C 
ATOM     23  C   UNL A   1      34.060  22.774  24.082  1.00  0.00     0.008 C 
ATOM     24  C   UNL A   1      33.643  23.025  22.629  1.00  0.00     0.001 C 
ATOM     25  C   UNL A   1      31.260  23.383  23.375  1.00  0.00     0.025 C 
ATOM     26  C   UNL A   1      32.401  23.905  22.510  1.00  0.00     0.002 C 
ENDBRANCH  14  19
ENDBRANCH   8  13
ENDBRANCH   4   7
ENDBRANCH   2   3
ENDBRANCH   1   2
BRANCH   1  27
ATOM     27  C   UNL A   1      34.674  30.271  27.657  1.00  0.00     0.118 C 
BRANCH  27  28
ATOM     28  N   UNL A   1      34.848  30.860  28.986  1.00  0.00    -0.352 N 
ATOM     29  C   UNL A   1      35.901  30.813  29.878  1.00  0.00     0.251 C 
ATOM     30  H   UNL A   1      34.075  31.383  29.301  1.00  0.00     0.163 HD
ATOM     31  O   UNL A   1      35.817  31.345  30.972  1.00  0.00    -0.269 OA
BRANCH  29  32
ATOM     32  C   UNL A   1      37.123  30.060  29.524  1.00  0.00     0.039 A 
ATOM     33  C   UNL A   1      37.613  30.130  28.218  1.00  0.00     0.014 A 
ATOM     34  C   UNL A   1      37.817  29.343  30.493  1.00  0.00     0.014 A 
ATOM     35  C   UNL A   1      38.868  29.591  27.923  1.00  0.00     0.010 A 
ATOM     36  C   UNL A   1      39.120  28.946  30.238  1.00  0.00     0.010 A 
ATOM     37  C   UNL A   1      39.663  29.059  28.950  1.00  0.00    -0.014 A 
BRANCH  37  38
ATOM     38  C   UNL A   1      41.055  28.596  28.716  1.00  0.00     0.031 A 
ATOM     39  C   UNL A   1      42.189  29.586  28.784  1.00  0.00     0.074 A 
ATOM     40  C   UNL A   1      41.292  27.324  28.337  1.00  0.00     0.049 A 
ATOM     41  N   UNL A   1      43.445  29.433  28.450  1.00  0.00    -0.248 NA
ATOM     42  C   UNL A   1      41.852  30.949  29.229  1.00  0.00     0.031 C 
ATOM     43  C   UNL A   1      40.277  26.283  28.153  1.00  0.00     0.029 A 
ATOM     44  N   UNL A   1      42.470  26.691  28.023  1.00  0.00    -0.354 N 
ATOM     45  C   UNL A   1      44.026  30.687  28.594  1.00  0.00     0.074 A 
ATOM     46  C   UNL A   1      42.977  31.602  28.980  1.00  0.00     0.031 C 
ATOM     47  C   UNL A   1      40.880  25.134  27.801  1.00  0.00     0.029 A 
ATOM     48  C   UNL A   1      42.316  25.366  27.692  1.00  0.00     0.049 A 
ATOM     49  H   UNL A   1      43.343  27.146  28.033  1.00  0.00     0.167 HD
ATOM     50  C   UNL A   1      45.325  31.040  28.455  1.00  0.00     0.037 A 
ATOM     51  C   UNL A   1      43.232  24.443  27.343  1.00  0.00     0.037 A 
ATOM     52  C   UNL A   1      46.380  30.113  28.160  1.00  0.00     0.049 A 
ATOM     53  C   UNL A   1      44.680  24.842  27.274  1.00  0.00     0.074 A 
ATOM     54  C   UNL A   1      47.742  30.346  28.092  1.00  0.00     0.029 A 
ATOM     55  N   UNL A   1      46.191  28.763  27.908  1.00  0.00    -0.354 N 
ATOM     56  N   UNL A   1      45.224  26.018  27.475  1.00  0.00    -0.248 NA
ATOM     57  C   UNL A   1      45.643  23.784  26.937  1.00  0.00     0.031 C 
ATOM     58  C   UNL A   1      48.376  29.139  27.780  1.00  0.00     0.029 A 
ATOM     59  C   UNL A   1      47.411  28.149  27.684  1.00  0.00     0.049 A 
ATOM     60  H   UNL A   1      45.317  28.308  27.892  1.00  0.00     0.167 HD
ATOM     61  C   UNL A   1      46.591  25.836  27.317  1.00  0.00     0.074 A 
ATOM     62  C   UNL A   1      46.795  24.434  27.017  1.00  0.00     0.031 C 
ATOM     63  C   UNL A   1      47.589  26.748  27.408  1.00  0.00     0.037 A 
BRANCH  50  64
ATOM     64  C   UNL A   1      45.672  32.487  28.654  1.00  0.00     0.057 A 
ATOM     65  C   UNL A   1      45.681  33.398  27.590  1.00  0.00     0.134 A 
ATOM     66  C   UNL A   1      45.990  32.978  29.927  1.00  0.00     0.134 A 
ATOM     67  F   UNL A   1      45.401  32.989  26.343  1.00  0.00    -0.206 F 
ATOM     68  C   UNL A   1      46.027  34.736  27.776  1.00  0.00     0.040 A 
ATOM     69  C   UNL A   1      46.310  34.321  30.130  1.00  0.00     0.040 A 
ATOM     70  F   UNL A   1      45.996  32.162  30.991  1.00  0.00    -0.206 F 
ATOM     71  C   UNL A   1      46.338  35.203  29.051  1.00  0.00     0.006 A 
ENDBRANCH  50  64
BRANCH  51  72
ATOM     72  C   UNL A   1      42.821  23.041  27.077  1.00  0.00     0.057 A 
ATOM     73  C   UNL A   1      42.737  22.557  25.767  1.00  0.00     0.134 A 
ATOM     74  C   UNL A   1      42.489  22.162  28.112  1.00  0.00     0.134 A 
ATOM     75  F   UNL A   1      43.027  23.359  24.732  1.00  0.00    -0.206 F 
ATOM     76  C   UNL A   1      42.315  21.255  25.492  1.00  0.00     0.040 A 
ATOM     77  C   UNL A   1      42.086  20.849  27.854  1.00  0.00     0.040 A 
ATOM     78  F   UNL A   1      42.557  22.561  29.391  1.00  0.00    -0.206 F 
ATOM     79  C   UNL A   1      41.990  20.396  26.540  1.00  0.00     0.006 A 
ENDBRANCH  51  72
BRANCH  63  80
ATOM     80  C   UNL A   1      48.990  26.251  27.222  1.00  0.00     0.057 A 
ATOM     81  C   UNL A   1      49.604  26.238  25.965  1.00  0.00     0.134 A 
ATOM     82  C   UNL A   1      49.745  25.828  28.322  1.00  0.00     0.134 A 
ATOM     83  F   UNL A   1      48.927  26.621  24.872  1.00  0.00    -0.206 F 
ATOM     84  C   UNL A   1      50.922  25.806  25.806  1.00  0.00     0.040 A 
ATOM     85  C   UNL A   1      51.069  25.415  28.179  1.00  0.00     0.040 A 
ATOM     86  F   UNL A   1      49.214  25.825  29.554  1.00  0.00    -0.206 F 
ATOM     87  C   UNL A   1      51.660  25.399  26.917  1.00  0.00     0.006 A 
ENDBRANCH  63  80
ENDBRANCH  37  38
ENDBRANCH  29  32
ENDBRANCH  27  28
ENDBRANCH   1  27
TORSDOF 12
ENDMDL
