MODEL 1
REMARK VINA RESULT:     -12.8      0.000      0.000
REMARK SMILES CC(C)c1cc2c(cc1Cl)C=C(C(=O)NCCCNC(=O)c1ccc(-c3c4nc(c(-c5c(F)cccc5F)c5ccc([nH]5)c(-c5c(F)cccc5F)c5nc(c(-c6c(F)cccc6F)c6ccc3[nH]6)C=C5)C=C4)cc1)[C@@H](C(F)(F)F)O2
REMARK SMILES IDX 17 1 16 2 15 3 13 4 14 5 12 7 4 8 5 9 9 10 6 11 8 12 10 13
REMARK SMILES IDX 7 14 81 15 11 16 76 17 2 18 1 19 3 20 77 21 78 22 79 23
REMARK SMILES IDX 80 24 18 25 19 26 20 27 21 29 22 30 23 31 75 32 24 33 74 34
REMARK SMILES IDX 25 35 26 36 27 37 68 38 28 39 73 40 67 41 69 42 29 43 72 44
REMARK SMILES IDX 66 45 65 46 30 48 56 49 39 50 55 51 40 52 43 53 54 54 70 55
REMARK SMILES IDX 41 56 42 57 53 59 71 60 44 61 31 62 32 63 37 64 33 65 34 66
REMARK SMILES IDX 36 67 38 68 35 69 57 70 58 71 63 72 59 73 60 74 62 75 64 76
REMARK SMILES IDX 61 77 45 78 46 79 51 80 47 81 48 82 50 83 52 84 49 85
REMARK H PARENT 15 6 19 28 69 47 43 58
REMARK Flexibility Score: inf
ROOT
ATOM      1  C   UNL A   1      37.792  19.903  24.757  1.00  0.00     0.042 C 
ENDROOT
BRANCH   1   2
ATOM      2  C   UNL A   1      36.477  20.565  25.138  1.00  0.00     0.118 C 
BRANCH   2   3
ATOM      3  N   UNL A   1      35.349  19.657  25.001  1.00  0.00    -0.352 N 
ATOM      4  C   UNL A   1      34.006  19.760  24.864  1.00  0.00     0.251 C 
ATOM      5  O   UNL A   1      33.404  18.686  24.773  1.00  0.00    -0.270 OA
ATOM      6  H   UNL A   1      35.640  18.718  25.008  1.00  0.00     0.163 HD
BRANCH   4   7
ATOM      7  C   UNL A   1      33.244  21.041  24.828  1.00  0.00     0.067 C 
ATOM      8  C   UNL A   1      31.034  25.369  23.431  1.00  0.00    -0.023 A 
ATOM      9  C   UNL A   1      30.906  24.489  24.519  1.00  0.00     0.052 A 
ATOM     10  C   UNL A   1      31.938  25.017  22.409  1.00  0.00     0.045 A 
ATOM     11  C   UNL A   1      31.643  23.311  24.581  1.00  0.00     0.128 A 
ATOM     12  C   UNL A   1      32.669  23.820  22.471  1.00  0.00     0.032 A 
ATOM     13  Cl  UNL A   1      32.214  26.027  21.034  1.00  0.00    -0.084 Cl
ATOM     14  C   UNL A   1      32.524  22.962  23.561  1.00  0.00     0.019 A 
ATOM     15  O   UNL A   1      31.424  22.515  25.668  1.00  0.00    -0.475 OA
ATOM     16  C   UNL A   1      33.247  21.699  23.653  1.00  0.00     0.025 C 
ATOM     17  C   UNL A   1      32.515  21.620  26.009  1.00  0.00     0.314 C 
BRANCH   8  18
ATOM     18  C   UNL A   1      30.232  26.663  23.424  1.00  0.00     0.014 C 
ATOM     19  C   UNL A   1      28.780  26.460  23.877  1.00  0.00     0.012 C 
ATOM     20  C   UNL A   1      30.923  27.719  24.292  1.00  0.00     0.012 C 
ENDBRANCH   8  18
BRANCH  17  21
ATOM     21  C   UNL A   1      33.457  22.318  27.009  1.00  0.00     0.429 C 
ATOM     22  F   UNL A   1      32.736  22.953  27.968  1.00  0.00    -0.167 F 
ATOM     23  F   UNL A   1      34.270  21.447  27.654  1.00  0.00    -0.167 F 
ATOM     24  F   UNL A   1      34.256  23.238  26.426  1.00  0.00    -0.167 F 
ENDBRANCH  17  21
ENDBRANCH   4   7
ENDBRANCH   2   3
ENDBRANCH   1   2
BRANCH   1  25
ATOM     25  C   UNL A   1      38.912  20.241  25.730  1.00  0.00     0.118 C 
BRANCH  25  26
ATOM     26  N   UNL A   1      39.926  19.189  25.793  1.00  0.00    -0.352 N 
ATOM     27  C   UNL A   1      41.285  19.272  25.969  1.00  0.00     0.251 C 
ATOM     28  H   UNL A   1      39.578  18.274  25.692  1.00  0.00     0.163 HD
ATOM     29  O   UNL A   1      41.987  18.281  25.784  1.00  0.00    -0.269 OA
BRANCH  27  30
ATOM     30  C   UNL A   1      41.904  20.553  26.362  1.00  0.00     0.039 A 
ATOM     31  C   UNL A   1      42.088  20.858  27.708  1.00  0.00     0.014 A 
ATOM     32  C   UNL A   1      42.295  21.464  25.376  1.00  0.00     0.014 A 
ATOM     33  C   UNL A   1      42.460  22.142  28.075  1.00  0.00     0.010 A 
ATOM     34  C   UNL A   1      42.789  22.717  25.749  1.00  0.00     0.010 A 
ATOM     35  C   UNL A   1      42.823  23.086  27.102  1.00  0.00    -0.014 A 
BRANCH  35  36
ATOM     36  C   UNL A   1      43.233  24.443  27.547  1.00  0.00     0.031 A 
ATOM     37  C   UNL A   1      44.667  24.888  27.459  1.00  0.00     0.074 A 
ATOM     38  C   UNL A   1      42.278  25.306  27.949  1.00  0.00     0.049 A 
ATOM     39  N   UNL A   1      45.185  26.057  27.744  1.00  0.00    -0.248 NA
ATOM     40  C   UNL A   1      45.651  23.896  26.998  1.00  0.00     0.031 C 
ATOM     41  C   UNL A   1      40.853  24.988  28.073  1.00  0.00     0.029 A 
ATOM     42  N   UNL A   1      42.351  26.633  28.281  1.00  0.00    -0.354 N 
ATOM     43  C   UNL A   1      46.551  25.933  27.521  1.00  0.00     0.074 A 
ATOM     44  C   UNL A   1      46.788  24.567  27.106  1.00  0.00     0.031 C 
ATOM     45  C   UNL A   1      40.177  26.105  28.372  1.00  0.00     0.029 A 
ATOM     46  C   UNL A   1      41.125  27.199  28.540  1.00  0.00     0.049 A 
ATOM     47  H   UNL A   1      43.197  27.133  28.330  1.00  0.00     0.167 HD
ATOM     48  C   UNL A   1      47.518  26.875  27.642  1.00  0.00     0.037 A 
ATOM     49  C   UNL A   1      40.802  28.458  28.885  1.00  0.00     0.037 A 
ATOM     50  C   UNL A   1      47.274  28.240  28.035  1.00  0.00     0.049 A 
ATOM     51  C   UNL A   1      41.898  29.470  29.041  1.00  0.00     0.074 A 
ATOM     52  C   UNL A   1      48.182  29.275  28.169  1.00  0.00     0.029 A 
ATOM     53  N   UNL A   1      46.028  28.757  28.354  1.00  0.00    -0.354 N 
ATOM     54  N   UNL A   1      43.183  29.337  28.823  1.00  0.00    -0.248 NA
ATOM     55  C   UNL A   1      41.497  30.803  29.507  1.00  0.00     0.031 C 
ATOM     56  C   UNL A   1      47.491  30.411  28.608  1.00  0.00     0.029 A 
ATOM     57  C   UNL A   1      46.146  30.093  28.706  1.00  0.00     0.049 A 
ATOM     58  H   UNL A   1      45.184  28.251  28.335  1.00  0.00     0.167 HD
ATOM     59  C   UNL A   1      43.746  30.569  29.122  1.00  0.00     0.074 A 
ATOM     60  C   UNL A   1      42.655  31.445  29.502  1.00  0.00     0.031 C 
ATOM     61  C   UNL A   1      45.049  30.942  29.094  1.00  0.00     0.037 A 
BRANCH  48  62
ATOM     62  C   UNL A   1      48.933  26.451  27.367  1.00  0.00     0.057 A 
ATOM     63  C   UNL A   1      49.453  26.508  26.067  1.00  0.00     0.134 A 
ATOM     64  C   UNL A   1      49.775  25.972  28.378  1.00  0.00     0.134 A 
ATOM     65  F   UNL A   1      48.700  26.952  25.050  1.00  0.00    -0.206 F 
ATOM     66  C   UNL A   1      50.760  26.106  25.785  1.00  0.00     0.040 A 
ATOM     67  C   UNL A   1      51.092  25.590  28.112  1.00  0.00     0.040 A 
ATOM     68  F   UNL A   1      49.345  25.906  29.647  1.00  0.00    -0.206 F 
ATOM     69  C   UNL A   1      51.586  25.651  26.811  1.00  0.00     0.006 A 
ENDBRANCH  48  62
BRANCH  49  70
ATOM     70  C   UNL A   1      39.384  28.822  29.126  1.00  0.00     0.057 A 
ATOM     71  C   UNL A   1      38.585  29.355  28.107  1.00  0.00     0.134 A 
ATOM     72  C   UNL A   1      38.791  28.638  30.380  1.00  0.00     0.134 A 
ATOM     73  F   UNL A   1      39.097  29.562  26.884  1.00  0.00    -0.206 F 
ATOM     74  C   UNL A   1      37.253  29.702  28.327  1.00  0.00     0.040 A 
ATOM     75  C   UNL A   1      37.450  28.953  30.607  1.00  0.00     0.040 A 
ATOM     76  F   UNL A   1      39.500  28.114  31.391  1.00  0.00    -0.206 F 
ATOM     77  C   UNL A   1      36.679  29.493  29.579  1.00  0.00     0.006 A 
ENDBRANCH  49  70
BRANCH  61  78
ATOM     78  C   UNL A   1      45.347  32.360  29.478  1.00  0.00     0.057 A 
ATOM     79  C   UNL A   1      45.665  32.692  30.800  1.00  0.00     0.134 A 
ATOM     80  C   UNL A   1      45.328  33.396  28.535  1.00  0.00     0.134 A 
ATOM     81  F   UNL A   1      45.696  31.747  31.752  1.00  0.00    -0.206 F 
ATOM     82  C   UNL A   1      45.960  34.005  31.170  1.00  0.00     0.040 A 
ATOM     83  C   UNL A   1      45.646  34.707  28.887  1.00  0.00     0.040 A 
ATOM     84  F   UNL A   1      45.048  33.139  27.248  1.00  0.00    -0.206 F 
ATOM     85  C   UNL A   1      45.961  35.015  30.210  1.00  0.00     0.006 A 
ENDBRANCH  61  78
ENDBRANCH  35  36
ENDBRANCH  27  30
ENDBRANCH  25  26
ENDBRANCH   1  25
TORSDOF 12
ENDMDL
MODEL 2
REMARK VINA RESULT:     -12.6      5.242      9.970
REMARK SMILES CC(C)c1cc2c(cc1Cl)C=C(C(=O)NCCCNC(=O)c1ccc(-c3c4nc(c(-c5c(F)cccc5F)c5ccc([nH]5)c(-c5c(F)cccc5F)c5nc(c(-c6c(F)cccc6F)c6ccc3[nH]6)C=C5)C=C4)cc1)[C@@H](C(F)(F)F)O2
REMARK SMILES IDX 17 1 16 2 15 3 13 4 14 5 12 7 4 8 5 9 9 10 6 11 8 12 10 13
REMARK SMILES IDX 7 14 81 15 11 16 76 17 2 18 1 19 3 20 77 21 78 22 79 23
REMARK SMILES IDX 80 24 18 25 19 26 20 27 21 29 22 30 23 31 75 32 24 33 74 34
REMARK SMILES IDX 25 35 26 36 27 37 68 38 28 39 73 40 67 41 69 42 29 43 72 44
REMARK SMILES IDX 66 45 65 46 30 48 56 49 39 50 55 51 40 52 43 53 54 54 70 55
REMARK SMILES IDX 41 56 42 57 53 59 71 60 44 61 31 62 32 63 37 64 33 65 34 66
REMARK SMILES IDX 36 67 38 68 35 69 57 70 58 71 63 72 59 73 60 74 62 75 64 76
REMARK SMILES IDX 61 77 45 78 46 79 51 80 47 81 48 82 50 83 52 84 49 85
REMARK H PARENT 15 6 19 28 69 47 43 58
REMARK Flexibility Score: inf
ROOT
ATOM      1  C   UNL A   1      31.420  31.584  26.596  1.00  0.00     0.042 C 
ENDROOT
BRANCH   1   2
ATOM      2  C   UNL A   1      31.668  30.437  25.629  1.00  0.00     0.118 C 
BRANCH   2   3
ATOM      3  N   UNL A   1      30.701  30.421  24.542  1.00  0.00    -0.352 N 
ATOM      4  C   UNL A   1      30.265  29.532  23.618  1.00  0.00     0.251 C 
ATOM      5  O   UNL A   1      29.390  29.955  22.858  1.00  0.00    -0.270 OA
ATOM      6  H   UNL A   1      30.241  31.286  24.457  1.00  0.00     0.163 HD
BRANCH   4   7
ATOM      7  C   UNL A   1      30.766  28.136  23.468  1.00  0.00     0.067 C 
ATOM      8  C   UNL A   1      31.602  23.172  23.943  1.00  0.00    -0.023 A 
ATOM      9  C   UNL A   1      31.872  24.140  22.961  1.00  0.00     0.052 A 
ATOM     10  C   UNL A   1      30.887  23.583  25.085  1.00  0.00     0.045 A 
ATOM     11  C   UNL A   1      31.443  25.455  23.110  1.00  0.00     0.128 A 
ATOM     12  C   UNL A   1      30.444  24.908  25.224  1.00  0.00     0.032 A 
ATOM     13  Cl  UNL A   1      30.519  22.500  26.381  1.00  0.00    -0.084 Cl
ATOM     14  C   UNL A   1      30.724  25.850  24.235  1.00  0.00     0.019 A 
ATOM     15  O   UNL A   1      31.734  26.309  22.086  1.00  0.00    -0.475 OA
ATOM     16  C   UNL A   1      30.264  27.232  24.330  1.00  0.00     0.025 C 
ATOM     17  C   UNL A   1      31.785  27.714  22.447  1.00  0.00     0.314 C 
BRANCH   8  18
ATOM     18  C   UNL A   1      32.121  21.754  23.750  1.00  0.00     0.014 C 
ATOM     19  C   UNL A   1      32.114  21.317  22.279  1.00  0.00     0.012 C 
ATOM     20  C   UNL A   1      33.526  21.620  24.342  1.00  0.00     0.012 C 
ENDBRANCH   8  18
BRANCH  17  21
ATOM     21  C   UNL A   1      33.226  28.086  22.851  1.00  0.00     0.429 C 
ATOM     22  F   UNL A   1      34.116  27.490  22.018  1.00  0.00    -0.167 F 
ATOM     23  F   UNL A   1      33.460  29.419  22.773  1.00  0.00    -0.167 F 
ATOM     24  F   UNL A   1      33.534  27.710  24.111  1.00  0.00    -0.167 F 
ENDBRANCH  17  21
ENDBRANCH   4   7
ENDBRANCH   2   3
ENDBRANCH   1   2
BRANCH   1  25
ATOM     25  C   UNL A   1      32.713  32.234  27.066  1.00  0.00     0.118 C 
BRANCH  25  26
ATOM     26  N   UNL A   1      32.532  33.647  27.400  1.00  0.00    -0.352 N 
ATOM     27  C   UNL A   1      33.145  34.422  28.352  1.00  0.00     0.251 C 
ATOM     28  H   UNL A   1      31.863  34.118  26.852  1.00  0.00     0.163 HD
ATOM     29  O   UNL A   1      32.702  35.538  28.611  1.00  0.00    -0.269 OA
BRANCH  27  30
ATOM     30  C   UNL A   1      34.323  33.908  29.079  1.00  0.00     0.039 A 
ATOM     31  C   UNL A   1      35.597  34.376  28.766  1.00  0.00     0.014 A 
ATOM     32  C   UNL A   1      34.154  32.943  30.076  1.00  0.00     0.014 A 
ATOM     33  C   UNL A   1      36.709  33.735  29.290  1.00  0.00     0.010 A 
ATOM     34  C   UNL A   1      35.277  32.384  30.695  1.00  0.00     0.010 A 
ATOM     35  C   UNL A   1      36.565  32.737  30.267  1.00  0.00    -0.014 A 
BRANCH  35  36
ATOM     36  C   UNL A   1      37.789  32.094  30.810  1.00  0.00     0.031 A 
ATOM     37  C   UNL A   1      38.284  32.415  32.193  1.00  0.00     0.074 A 
ATOM     38  C   UNL A   1      38.401  31.144  30.074  1.00  0.00     0.049 A 
ATOM     39  N   UNL A   1      39.297  31.900  32.846  1.00  0.00    -0.248 NA
ATOM     40  C   UNL A   1      37.558  33.452  32.943  1.00  0.00     0.031 C 
ATOM     41  C   UNL A   1      38.009  30.745  28.719  1.00  0.00     0.029 A 
ATOM     42  N   UNL A   1      39.446  30.312  30.374  1.00  0.00    -0.354 N 
ATOM     43  C   UNL A   1      39.342  32.564  34.066  1.00  0.00     0.074 A 
ATOM     44  C   UNL A   1      38.275  33.541  34.053  1.00  0.00     0.031 C 
ATOM     45  C   UNL A   1      38.747  29.694  28.339  1.00  0.00     0.029 A 
ATOM     46  C   UNL A   1      39.715  29.395  29.386  1.00  0.00     0.049 A 
ATOM     47  H   UNL A   1      39.955  30.364  31.215  1.00  0.00     0.167 HD
ATOM     48  C   UNL A   1      40.189  32.369  35.105  1.00  0.00     0.037 A 
ATOM     49  C   UNL A   1      40.646  28.427  29.326  1.00  0.00     0.037 A 
ATOM     50  C   UNL A   1      41.237  31.380  35.122  1.00  0.00     0.049 A 
ATOM     51  C   UNL A   1      41.589  28.257  30.479  1.00  0.00     0.074 A 
ATOM     52  C   UNL A   1      42.137  31.090  36.132  1.00  0.00     0.029 A 
ATOM     53  N   UNL A   1      41.521  30.516  34.075  1.00  0.00    -0.354 N 
ATOM     54  N   UNL A   1      41.616  28.890  31.626  1.00  0.00    -0.248 NA
ATOM     55  C   UNL A   1      42.643  27.246  30.320  1.00  0.00     0.031 C 
ATOM     56  C   UNL A   1      42.992  30.077  35.682  1.00  0.00     0.029 A 
ATOM     57  C   UNL A   1      42.597  29.706  34.407  1.00  0.00     0.049 A 
ATOM     58  H   UNL A   1      41.032  30.482  33.221  1.00  0.00     0.167 HD
ATOM     59  C   UNL A   1      42.686  28.354  32.328  1.00  0.00     0.074 A 
ATOM     60  C   UNL A   1      43.259  27.319  31.490  1.00  0.00     0.031 C 
ATOM     61  C   UNL A   1      43.159  28.693  33.552  1.00  0.00     0.037 A 
BRANCH  48  62
ATOM     62  C   UNL A   1      40.030  33.262  36.303  1.00  0.00     0.057 A 
ATOM     63  C   UNL A   1      40.778  34.442  36.416  1.00  0.00     0.134 A 
ATOM     64  C   UNL A   1      39.154  32.951  37.350  1.00  0.00     0.134 A 
ATOM     65  F   UNL A   1      41.640  34.798  35.451  1.00  0.00    -0.206 F 
ATOM     66  C   UNL A   1      40.659  35.279  37.526  1.00  0.00     0.040 A 
ATOM     67  C   UNL A   1      39.008  33.794  38.455  1.00  0.00     0.040 A 
ATOM     68  F   UNL A   1      38.397  31.845  37.298  1.00  0.00    -0.206 F 
ATOM     69  C   UNL A   1      39.766  34.959  38.547  1.00  0.00     0.006 A 
ENDBRANCH  48  62
BRANCH  49  70
ATOM     70  C   UNL A   1      40.743  27.562  28.124  1.00  0.00     0.057 A 
ATOM     71  C   UNL A   1      40.084  26.329  28.058  1.00  0.00     0.134 A 
ATOM     72  C   UNL A   1      41.491  27.954  27.008  1.00  0.00     0.134 A 
ATOM     73  F   UNL A   1      39.356  25.894  29.098  1.00  0.00    -0.206 F 
ATOM     74  C   UNL A   1      40.173  25.510  26.933  1.00  0.00     0.040 A 
ATOM     75  C   UNL A   1      41.565  27.158  25.863  1.00  0.00     0.040 A 
ATOM     76  F   UNL A   1      42.130  29.132  27.003  1.00  0.00    -0.206 F 
ATOM     77  C   UNL A   1      40.909  25.929  25.826  1.00  0.00     0.006 A 
ENDBRANCH  49  70
BRANCH  61  78
ATOM     78  C   UNL A   1      44.346  27.922  34.047  1.00  0.00     0.057 A 
ATOM     79  C   UNL A   1      44.182  26.703  34.713  1.00  0.00     0.134 A 
ATOM     80  C   UNL A   1      45.655  28.386  33.853  1.00  0.00     0.134 A 
ATOM     81  F   UNL A   1      42.955  26.207  34.934  1.00  0.00    -0.206 F 
ATOM     82  C   UNL A   1      45.278  25.967  35.166  1.00  0.00     0.040 A 
ATOM     83  C   UNL A   1      46.759  27.646  34.278  1.00  0.00     0.040 A 
ATOM     84  F   UNL A   1      45.879  29.539  33.205  1.00  0.00    -0.206 F 
ATOM     85  C   UNL A   1      46.572  26.434  34.939  1.00  0.00     0.006 A 
ENDBRANCH  61  78
ENDBRANCH  35  36
ENDBRANCH  27  30
ENDBRANCH  25  26
ENDBRANCH   1  25
TORSDOF 12
ENDMDL
MODEL 3
REMARK VINA RESULT:     -12.5      1.589      2.320
REMARK SMILES CC(C)c1cc2c(cc1Cl)C=C(C(=O)NCCCNC(=O)c1ccc(-c3c4nc(c(-c5c(F)cccc5F)c5ccc([nH]5)c(-c5c(F)cccc5F)c5nc(c(-c6c(F)cccc6F)c6ccc3[nH]6)C=C5)C=C4)cc1)[C@@H](C(F)(F)F)O2
REMARK SMILES IDX 17 1 16 2 15 3 13 4 14 5 12 7 4 8 5 9 9 10 6 11 8 12 10 13
REMARK SMILES IDX 7 14 81 15 11 16 76 17 2 18 1 19 3 20 77 21 78 22 79 23
REMARK SMILES IDX 80 24 18 25 19 26 20 27 21 29 22 30 23 31 75 32 24 33 74 34
REMARK SMILES IDX 25 35 26 36 27 37 68 38 28 39 73 40 67 41 69 42 29 43 72 44
REMARK SMILES IDX 66 45 65 46 30 48 56 49 39 50 55 51 40 52 43 53 54 54 70 55
REMARK SMILES IDX 41 56 42 57 53 59 71 60 44 61 31 62 32 63 37 64 33 65 34 66
REMARK SMILES IDX 36 67 38 68 35 69 57 70 58 71 63 72 59 73 60 74 62 75 64 76
REMARK SMILES IDX 61 77 45 78 46 79 51 80 47 81 48 82 50 83 52 84 49 85
REMARK H PARENT 15 6 19 28 69 47 43 58
REMARK Flexibility Score: inf
ROOT
ATOM      1  C   UNL A   1      38.024  19.581  25.000  1.00  0.00     0.042 C 
ENDROOT
BRANCH   1   2
ATOM      2  C   UNL A   1      37.021  20.702  24.781  1.00  0.00     0.118 C 
BRANCH   2   3
ATOM      3  N   UNL A   1      35.677  20.318  25.185  1.00  0.00    -0.352 N 
ATOM      4  C   UNL A   1      34.448  20.886  25.202  1.00  0.00     0.251 C 
ATOM      5  O   UNL A   1      33.546  20.168  25.644  1.00  0.00    -0.270 OA
ATOM      6  H   UNL A   1      35.656  19.400  25.539  1.00  0.00     0.163 HD
BRANCH   4   7
ATOM      7  C   UNL A   1      34.137  22.270  24.746  1.00  0.00     0.067 C 
ATOM      8  C   UNL A   1      33.544  27.280  24.405  1.00  0.00    -0.023 A 
ATOM      9  C   UNL A   1      33.581  26.215  23.489  1.00  0.00     0.052 A 
ATOM     10  C   UNL A   1      33.762  26.980  25.764  1.00  0.00     0.045 A 
ATOM     11  C   UNL A   1      33.831  24.913  23.910  1.00  0.00     0.128 A 
ATOM     12  C   UNL A   1      34.028  25.667  26.181  1.00  0.00     0.032 A 
ATOM     13  Cl  UNL A   1      33.709  28.192  26.995  1.00  0.00    -0.084 Cl
ATOM     14  C   UNL A   1      34.061  24.627  25.253  1.00  0.00     0.019 A 
ATOM     15  O   UNL A   1      33.872  23.957  22.937  1.00  0.00    -0.475 OA
ATOM     16  C   UNL A   1      34.354  23.251  25.642  1.00  0.00     0.025 C 
ATOM     17  C   UNL A   1      33.593  22.605  23.385  1.00  0.00     0.314 C 
BRANCH   8  18
ATOM     18  C   UNL A   1      33.233  28.683  23.900  1.00  0.00     0.014 C 
ATOM     19  C   UNL A   1      33.677  28.900  22.447  1.00  0.00     0.012 C 
ATOM     20  C   UNL A   1      31.739  28.982  24.054  1.00  0.00     0.012 C 
ENDBRANCH   8  18
BRANCH  17  21
ATOM     21  C   UNL A   1      32.082  22.327  23.261  1.00  0.00     0.429 C 
ATOM     22  F   UNL A   1      31.869  21.210  22.521  1.00  0.00    -0.167 F 
ATOM     23  F   UNL A   1      31.492  22.109  24.462  1.00  0.00    -0.167 F 
ATOM     24  F   UNL A   1      31.405  23.338  22.674  1.00  0.00    -0.167 F 
ENDBRANCH  17  21
ENDBRANCH   4   7
ENDBRANCH   2   3
ENDBRANCH   1   2
BRANCH   1  25
ATOM     25  C   UNL A   1      39.245  20.043  25.783  1.00  0.00     0.118 C 
BRANCH  25  26
ATOM     26  N   UNL A   1      40.269  19.002  25.876  1.00  0.00    -0.352 N 
ATOM     27  C   UNL A   1      41.622  19.101  26.083  1.00  0.00     0.251 C 
ATOM     28  H   UNL A   1      39.933  18.082  25.774  1.00  0.00     0.163 HD
ATOM     29  O   UNL A   1      42.339  18.117  25.921  1.00  0.00    -0.269 OA
BRANCH  27  30
ATOM     30  C   UNL A   1      42.218  20.391  26.482  1.00  0.00     0.039 A 
ATOM     31  C   UNL A   1      42.228  20.773  27.821  1.00  0.00     0.014 A 
ATOM     32  C   UNL A   1      42.763  21.233  25.507  1.00  0.00     0.014 A 
ATOM     33  C   UNL A   1      42.583  22.070  28.160  1.00  0.00     0.010 A 
ATOM     34  C   UNL A   1      43.237  22.496  25.871  1.00  0.00     0.010 A 
ATOM     35  C   UNL A   1      43.100  22.946  27.193  1.00  0.00    -0.014 A 
BRANCH  35  36
ATOM     36  C   UNL A   1      43.483  24.319  27.610  1.00  0.00     0.031 A 
ATOM     37  C   UNL A   1      44.911  24.784  27.527  1.00  0.00     0.074 A 
ATOM     38  C   UNL A   1      42.511  25.176  27.982  1.00  0.00     0.049 A 
ATOM     39  N   UNL A   1      45.408  25.968  27.790  1.00  0.00    -0.248 NA
ATOM     40  C   UNL A   1      45.915  23.798  27.100  1.00  0.00     0.031 C 
ATOM     41  C   UNL A   1      41.089  24.839  28.098  1.00  0.00     0.029 A 
ATOM     42  N   UNL A   1      42.559  26.511  28.284  1.00  0.00    -0.354 N 
ATOM     43  C   UNL A   1      46.778  25.860  27.586  1.00  0.00     0.074 A 
ATOM     44  C   UNL A   1      47.040  24.489  27.205  1.00  0.00     0.031 C 
ATOM     45  C   UNL A   1      40.393  25.951  28.364  1.00  0.00     0.029 A 
ATOM     46  C   UNL A   1      41.322  27.063  28.516  1.00  0.00     0.049 A 
ATOM     47  H   UNL A   1      43.397  27.025  28.331  1.00  0.00     0.167 HD
ATOM     48  C   UNL A   1      47.728  26.819  27.694  1.00  0.00     0.037 A 
ATOM     49  C   UNL A   1      40.976  28.324  28.829  1.00  0.00     0.037 A 
ATOM     50  C   UNL A   1      47.459  28.189  28.053  1.00  0.00     0.049 A 
ATOM     51  C   UNL A   1      42.053  29.357  28.972  1.00  0.00     0.074 A 
ATOM     52  C   UNL A   1      48.349  29.242  28.173  1.00  0.00     0.029 A 
ATOM     53  N   UNL A   1      46.202  28.695  28.347  1.00  0.00    -0.354 N 
ATOM     54  N   UNL A   1      43.343  29.240  28.771  1.00  0.00    -0.248 NA
ATOM     55  C   UNL A   1      41.627  30.694  29.403  1.00  0.00     0.031 C 
ATOM     56  C   UNL A   1      47.636  30.376  28.578  1.00  0.00     0.029 A 
ATOM     57  C   UNL A   1      46.295  30.040  28.669  1.00  0.00     0.049 A 
ATOM     58  H   UNL A   1      45.366  28.175  28.330  1.00  0.00     0.167 HD
ATOM     59  C   UNL A   1      43.883  30.487  29.047  1.00  0.00     0.074 A 
ATOM     60  C   UNL A   1      42.775  31.354  29.396  1.00  0.00     0.031 C 
ATOM     61  C   UNL A   1      45.181  30.879  29.025  1.00  0.00     0.037 A 
BRANCH  48  62
ATOM     62  C   UNL A   1      49.153  26.412  27.444  1.00  0.00     0.057 A 
ATOM     63  C   UNL A   1      49.976  26.012  28.505  1.00  0.00     0.134 A 
ATOM     64  C   UNL A   1      49.716  26.431  26.162  1.00  0.00     0.134 A 
ATOM     65  F   UNL A   1      49.503  25.976  29.759  1.00  0.00    -0.206 F 
ATOM     66  C   UNL A   1      51.307  25.645  28.298  1.00  0.00     0.040 A 
ATOM     67  C   UNL A   1      51.039  26.041  25.939  1.00  0.00     0.040 A 
ATOM     68  F   UNL A   1      48.978  26.788  25.100  1.00  0.00    -0.206 F 
ATOM     69  C   UNL A   1      51.840  25.652  27.011  1.00  0.00     0.006 A 
ENDBRANCH  48  62
BRANCH  49  70
ATOM     70  C   UNL A   1      39.549  28.672  29.046  1.00  0.00     0.057 A 
ATOM     71  C   UNL A   1      38.939  28.500  30.293  1.00  0.00     0.134 A 
ATOM     72  C   UNL A   1      38.765  29.194  28.010  1.00  0.00     0.134 A 
ATOM     73  F   UNL A   1      39.635  27.998  31.325  1.00  0.00    -0.206 F 
ATOM     74  C   UNL A   1      37.599  28.823  30.503  1.00  0.00     0.040 A 
ATOM     75  C   UNL A   1      37.431  29.549  28.214  1.00  0.00     0.040 A 
ATOM     76  F   UNL A   1      39.298  29.399  26.797  1.00  0.00    -0.206 F 
ATOM     77  C   UNL A   1      36.842  29.358  29.463  1.00  0.00     0.006 A 
ENDBRANCH  49  70
BRANCH  61  78
ATOM     78  C   UNL A   1      45.452  32.311  29.379  1.00  0.00     0.057 A 
ATOM     79  C   UNL A   1      45.742  32.680  30.697  1.00  0.00     0.134 A 
ATOM     80  C   UNL A   1      45.436  33.323  28.410  1.00  0.00     0.134 A 
ATOM     81  F   UNL A   1      45.768  31.759  31.673  1.00  0.00    -0.206 F 
ATOM     82  C   UNL A   1      46.012  34.006  31.040  1.00  0.00     0.040 A 
ATOM     83  C   UNL A   1      45.730  34.647  28.736  1.00  0.00     0.040 A 
ATOM     84  F   UNL A   1      45.184  33.030  27.125  1.00  0.00    -0.206 F 
ATOM     85  C   UNL A   1      46.017  34.992  30.055  1.00  0.00     0.006 A 
ENDBRANCH  61  78
ENDBRANCH  35  36
ENDBRANCH  27  30
ENDBRANCH  25  26
ENDBRANCH   1  25
TORSDOF 12
ENDMDL
