MODEL 1
REMARK VINA RESULT:     -11.1      0.000      0.000
REMARK SMILES CCc1cc(Oc2cncc(C(=O)NCCCNC(=O)c3ccc(-c4c5nc(c(-c6c(F)cccc6F)c6ccc([nH]6)c(-c6c(F)cccc6F)c6nc(c(-c7c(F)cccc7F)c7ccc4[nH]7)C=C6)C=C5)cc3)n2)ccc1Cl
REMARK SMILES IDX 15 1 14 2 12 3 13 4 11 6 7 7 8 8 75 9 9 10 10 11 6 12 5 13
REMARK SMILES IDX 3 14 4 15 78 16 77 17 79 18 76 19 2 20 1 21 16 22 17 23
REMARK SMILES IDX 18 24 19 25 20 27 21 28 22 29 74 30 23 31 73 32 24 33 25 34
REMARK SMILES IDX 26 35 67 36 27 37 72 38 66 39 68 40 28 41 71 42 65 43 64 44
REMARK SMILES IDX 29 46 55 47 38 48 54 49 39 50 42 51 53 52 69 53 40 54 41 55
REMARK SMILES IDX 52 57 70 58 43 59 30 60 31 61 36 62 32 63 33 64 35 65 37 66
REMARK SMILES IDX 34 67 56 68 57 69 62 70 58 71 59 72 61 73 63 74 60 75 44 76
REMARK SMILES IDX 45 77 50 78 46 79 47 80 49 81 51 82 48 83
REMARK H PARENT 14 5 18 26 68 45 42 56
REMARK Flexibility Score: inf
ROOT
ATOM      1  C   UNL A   1      35.153  34.929  28.461  1.00  0.00     0.118 C 
ENDROOT
BRANCH   1   2
ATOM      2  N   UNL A   1      33.812  35.464  28.281  1.00  0.00    -0.351 N 
ATOM      3  C   UNL A   1      32.932  36.011  29.185  1.00  0.00     0.271 C 
ATOM      4  O   UNL A   1      31.863  36.450  28.753  1.00  0.00    -0.267 OA
ATOM      5  H   UNL A   1      33.479  35.429  27.355  1.00  0.00     0.163 HD
BRANCH   3   6
ATOM      6  C   UNL A   1      33.227  36.126  30.640  1.00  0.00     0.150 A 
ATOM      7  C   UNL A   1      33.749  35.221  32.673  1.00  0.00     0.238 A 
ATOM      8  C   UNL A   1      33.860  36.493  33.223  1.00  0.00     0.179 A 
ATOM      9  N   UNL A   1      33.439  35.006  31.375  1.00  0.00    -0.205 NA
ATOM     10  N   UNL A   1      33.608  37.613  32.507  1.00  0.00    -0.257 NA
ATOM     11  C   UNL A   1      33.287  37.398  31.203  1.00  0.00     0.145 A 
BRANCH   7  12
ATOM     12  O   UNL A   1      34.030  34.105  33.425  1.00  0.00    -0.437 OA
BRANCH  12  13
ATOM     13  C   UNL A   1      35.353  33.755  33.579  1.00  0.00     0.129 A 
ATOM     14  C   UNL A   1      37.377  33.008  32.376  1.00  0.00    -0.026 A 
ATOM     15  C   UNL A   1      36.015  33.397  32.398  1.00  0.00     0.052 A 
ATOM     16  C   UNL A   1      38.057  32.992  33.603  1.00  0.00     0.044 A 
ATOM     17  C   UNL A   1      37.392  33.345  34.788  1.00  0.00     0.024 A 
ATOM     18  Cl  UNL A   1      39.710  32.542  33.802  1.00  0.00    -0.084 Cl
ATOM     19  C   UNL A   1      36.047  33.714  34.783  1.00  0.00     0.049 A 
BRANCH  14  20
ATOM     20  C   UNL A   1      37.896  32.608  31.007  1.00  0.00     0.034 C 
ATOM     21  C   UNL A   1      38.326  33.646  29.984  1.00  0.00     0.009 C 
ENDBRANCH  14  20
ENDBRANCH  12  13
ENDBRANCH   7  12
ENDBRANCH   3   6
ENDBRANCH   1   2
BRANCH   1  22
ATOM     22  C   UNL A   1      35.245  33.471  28.018  1.00  0.00     0.042 C 
BRANCH  22  23
ATOM     23  C   UNL A   1      34.776  32.478  29.080  1.00  0.00     0.118 C 
BRANCH  23  24
ATOM     24  N   UNL A   1      34.144  31.296  28.499  1.00  0.00    -0.352 N 
ATOM     25  C   UNL A   1      34.691  30.130  28.037  1.00  0.00     0.251 C 
ATOM     26  H   UNL A   1      33.162  31.345  28.427  1.00  0.00     0.163 HD
ATOM     27  O   UNL A   1      33.989  29.340  27.405  1.00  0.00    -0.269 OA
BRANCH  25  28
ATOM     28  C   UNL A   1      36.112  29.806  28.278  1.00  0.00     0.039 A 
ATOM     29  C   UNL A   1      36.486  29.308  29.532  1.00  0.00     0.014 A 
ATOM     30  C   UNL A   1      37.084  30.036  27.300  1.00  0.00     0.014 A 
ATOM     31  C   UNL A   1      37.823  28.987  29.783  1.00  0.00     0.010 A 
ATOM     32  C   UNL A   1      38.404  29.654  27.531  1.00  0.00     0.010 A 
ATOM     33  C   UNL A   1      38.787  29.129  28.774  1.00  0.00    -0.014 A 
BRANCH  33  34
ATOM     34  C   UNL A   1      40.201  28.733  28.998  1.00  0.00     0.031 A 
ATOM     35  C   UNL A   1      41.177  29.711  29.590  1.00  0.00     0.074 A 
ATOM     36  C   UNL A   1      40.622  27.518  28.598  1.00  0.00     0.049 A 
ATOM     37  N   UNL A   1      42.467  29.584  29.772  1.00  0.00    -0.248 NA
ATOM     38  C   UNL A   1      40.636  31.013  30.011  1.00  0.00     0.031 C 
ATOM     39  C   UNL A   1      39.783  26.496  27.970  1.00  0.00     0.029 A 
ATOM     40  N   UNL A   1      41.866  26.943  28.647  1.00  0.00    -0.354 N 
ATOM     41  C   UNL A   1      42.894  30.794  30.305  1.00  0.00     0.074 A 
ATOM     42  C   UNL A   1      41.734  31.656  30.381  1.00  0.00     0.031 C 
ATOM     43  C   UNL A   1      40.533  25.414  27.705  1.00  0.00     0.029 A 
ATOM     44  C   UNL A   1      41.910  25.679  28.109  1.00  0.00     0.049 A 
ATOM     45  H   UNL A   1      42.654  27.393  29.029  1.00  0.00     0.167 HD
ATOM     46  C   UNL A   1      44.137  31.148  30.712  1.00  0.00     0.037 A 
ATOM     47  C   UNL A   1      42.945  24.833  27.951  1.00  0.00     0.037 A 
ATOM     48  C   UNL A   1      45.283  30.279  30.666  1.00  0.00     0.049 A 
ATOM     49  C   UNL A   1      44.313  25.247  28.417  1.00  0.00     0.074 A 
ATOM     50  C   UNL A   1      46.570  30.524  31.113  1.00  0.00     0.029 A 
ATOM     51  N   UNL A   1      45.280  28.995  30.142  1.00  0.00    -0.354 N 
ATOM     52  N   UNL A   1      44.690  26.372  28.974  1.00  0.00    -0.248 NA
ATOM     53  C   UNL A   1      45.396  24.270  28.239  1.00  0.00     0.031 C 
ATOM     54  C   UNL A   1      47.354  29.401  30.827  1.00  0.00     0.029 A 
ATOM     55  C   UNL A   1      46.545  28.442  30.239  1.00  0.00     0.049 A 
ATOM     56  H   UNL A   1      44.493  28.544  29.757  1.00  0.00     0.167 HD
ATOM     57  C   UNL A   1      46.046  26.230  29.235  1.00  0.00     0.074 A 
ATOM     58  C   UNL A   1      46.422  24.905  28.788  1.00  0.00     0.031 C 
ATOM     59  C   UNL A   1      46.902  27.118  29.797  1.00  0.00     0.037 A 
BRANCH  46  60
ATOM     60  C   UNL A   1      44.319  32.538  31.247  1.00  0.00     0.057 A 
ATOM     61  C   UNL A   1      44.677  33.607  30.417  1.00  0.00     0.134 A 
ATOM     62  C   UNL A   1      44.103  32.816  32.603  1.00  0.00     0.134 A 
ATOM     63  F   UNL A   1      44.910  33.406  29.111  1.00  0.00    -0.206 F 
ATOM     64  C   UNL A   1      44.839  34.900  30.919  1.00  0.00     0.040 A 
ATOM     65  C   UNL A   1      44.237  34.108  33.112  1.00  0.00     0.040 A 
ATOM     66  F   UNL A   1      43.751  31.839  33.452  1.00  0.00    -0.206 F 
ATOM     67  C   UNL A   1      44.612  35.154  32.271  1.00  0.00     0.006 A 
ENDBRANCH  46  60
BRANCH  47  68
ATOM     68  C   UNL A   1      42.725  23.500  27.339  1.00  0.00     0.057 A 
ATOM     69  C   UNL A   1      42.351  22.403  28.123  1.00  0.00     0.134 A 
ATOM     70  C   UNL A   1      42.880  23.290  25.964  1.00  0.00     0.134 A 
ATOM     71  F   UNL A   1      42.206  22.539  29.449  1.00  0.00    -0.206 F 
ATOM     72  C   UNL A   1      42.157  21.138  27.565  1.00  0.00     0.040 A 
ATOM     73  C   UNL A   1      42.666  22.036  25.389  1.00  0.00     0.040 A 
ATOM     74  F   UNL A   1      43.229  24.304  25.159  1.00  0.00    -0.206 F 
ATOM     75  C   UNL A   1      42.310  20.954  26.192  1.00  0.00     0.006 A 
ENDBRANCH  47  68
BRANCH  59  76
ATOM     76  C   UNL A   1      48.321  26.673  29.990  1.00  0.00     0.057 A 
ATOM     77  C   UNL A   1      48.722  25.951  31.121  1.00  0.00     0.134 A 
ATOM     78  C   UNL A   1      49.288  26.940  29.013  1.00  0.00     0.134 A 
ATOM     79  F   UNL A   1      47.844  25.677  32.097  1.00  0.00    -0.206 F 
ATOM     80  C   UNL A   1      50.041  25.524  31.281  1.00  0.00     0.040 A 
ATOM     81  C   UNL A   1      50.605  26.499  29.152  1.00  0.00     0.040 A 
ATOM     82  F   UNL A   1      48.967  27.621  27.903  1.00  0.00    -0.206 F 
ATOM     83  C   UNL A   1      50.985  25.792  30.291  1.00  0.00     0.006 A 
ENDBRANCH  59  76
ENDBRANCH  33  34
ENDBRANCH  25  28
ENDBRANCH  23  24
ENDBRANCH  22  23
ENDBRANCH   1  22
TORSDOF 13
ENDMDL
MODEL 2
REMARK VINA RESULT:     -10.9      4.849     12.245
REMARK SMILES CCc1cc(Oc2cncc(C(=O)NCCCNC(=O)c3ccc(-c4c5nc(c(-c6c(F)cccc6F)c6ccc([nH]6)c(-c6c(F)cccc6F)c6nc(c(-c7c(F)cccc7F)c7ccc4[nH]7)C=C6)C=C5)cc3)n2)ccc1Cl
REMARK SMILES IDX 15 1 14 2 12 3 13 4 11 6 7 7 8 8 75 9 9 10 10 11 6 12 5 13
REMARK SMILES IDX 3 14 4 15 78 16 77 17 79 18 76 19 2 20 1 21 16 22 17 23
REMARK SMILES IDX 18 24 19 25 20 27 21 28 22 29 74 30 23 31 73 32 24 33 25 34
REMARK SMILES IDX 26 35 67 36 27 37 72 38 66 39 68 40 28 41 71 42 65 43 64 44
REMARK SMILES IDX 29 46 55 47 38 48 54 49 39 50 42 51 53 52 69 53 40 54 41 55
REMARK SMILES IDX 52 57 70 58 43 59 30 60 31 61 36 62 32 63 33 64 35 65 37 66
REMARK SMILES IDX 34 67 56 68 57 69 62 70 58 71 59 72 61 73 63 74 60 75 44 76
REMARK SMILES IDX 45 77 50 78 46 79 47 80 49 81 51 82 48 83
REMARK H PARENT 14 5 18 26 68 45 42 56
REMARK Flexibility Score: inf
ROOT
ATOM      1  C   UNL A   1      41.730  20.713  27.365  1.00  0.00     0.118 C 
ENDROOT
BRANCH   1   2
ATOM      2  N   UNL A   1      41.750  19.359  26.833  1.00  0.00    -0.351 N 
ATOM      3  C   UNL A   1      42.663  18.723  26.024  1.00  0.00     0.271 C 
ATOM      4  O   UNL A   1      42.468  17.533  25.764  1.00  0.00    -0.267 OA
ATOM      5  H   UNL A   1      40.980  18.805  27.096  1.00  0.00     0.163 HD
BRANCH   3   6
ATOM      6  C   UNL A   1      43.879  19.392  25.488  1.00  0.00     0.150 A 
ATOM      7  C   UNL A   1      44.979  21.211  24.644  1.00  0.00     0.238 A 
ATOM      8  C   UNL A   1      46.176  20.504  24.651  1.00  0.00     0.179 A 
ATOM      9  N   UNL A   1      43.809  20.680  25.066  1.00  0.00    -0.205 NA
ATOM     10  N   UNL A   1      46.245  19.207  25.030  1.00  0.00    -0.257 NA
ATOM     11  C   UNL A   1      45.067  18.668  25.446  1.00  0.00     0.145 A 
BRANCH   7  12
ATOM     12  O   UNL A   1      44.947  22.533  24.270  1.00  0.00    -0.437 OA
BRANCH  12  13
ATOM     13  C   UNL A   1      45.102  23.480  25.258  1.00  0.00     0.129 A 
ATOM     14  C   UNL A   1      44.910  23.885  27.687  1.00  0.00    -0.026 A 
ATOM     15  C   UNL A   1      44.806  23.040  26.554  1.00  0.00     0.052 A 
ATOM     16  C   UNL A   1      45.327  25.206  27.463  1.00  0.00     0.044 A 
ATOM     17  C   UNL A   1      45.617  25.648  26.163  1.00  0.00     0.024 A 
ATOM     18  Cl  UNL A   1      45.509  26.398  28.696  1.00  0.00    -0.084 Cl
ATOM     19  C   UNL A   1      45.496  24.798  25.064  1.00  0.00     0.049 A 
BRANCH  14  20
ATOM     20  C   UNL A   1      44.497  23.237  28.996  1.00  0.00     0.034 C 
ATOM     21  C   UNL A   1      43.112  23.444  29.585  1.00  0.00     0.009 C 
ENDBRANCH  14  20
ENDBRANCH  12  13
ENDBRANCH   7  12
ENDBRANCH   3   6
ENDBRANCH   1   2
BRANCH   1  22
ATOM     22  C   UNL A   1      40.459  21.459  26.968  1.00  0.00     0.042 C 
BRANCH  22  23
ATOM     23  C   UNL A   1      40.531  22.965  27.213  1.00  0.00     0.118 C 
BRANCH  23  24
ATOM     24  N   UNL A   1      41.303  23.662  26.187  1.00  0.00    -0.352 N 
ATOM     25  C   UNL A   1      41.612  24.988  26.054  1.00  0.00     0.251 C 
ATOM     26  H   UNL A   1      41.659  23.084  25.474  1.00  0.00     0.163 HD
ATOM     27  O   UNL A   1      42.112  25.392  25.002  1.00  0.00    -0.269 OA
BRANCH  25  28
ATOM     28  C   UNL A   1      41.350  25.947  27.147  1.00  0.00     0.039 A 
ATOM     29  C   UNL A   1      40.271  25.710  28.007  1.00  0.00     0.014 A 
ATOM     30  C   UNL A   1      42.123  27.102  27.300  1.00  0.00     0.014 A 
ATOM     31  C   UNL A   1      40.006  26.598  29.053  1.00  0.00     0.010 A 
ATOM     32  C   UNL A   1      41.897  27.950  28.381  1.00  0.00     0.010 A 
ATOM     33  C   UNL A   1      40.835  27.709  29.266  1.00  0.00    -0.014 A 
BRANCH  33  34
ATOM     34  C   UNL A   1      40.612  28.630  30.409  1.00  0.00     0.031 A 
ATOM     35  C   UNL A   1      39.538  29.680  30.339  1.00  0.00     0.074 A 
ATOM     36  C   UNL A   1      41.425  28.568  31.482  1.00  0.00     0.049 A 
ATOM     37  N   UNL A   1      39.255  30.632  31.190  1.00  0.00    -0.248 NA
ATOM     38  C   UNL A   1      38.686  29.673  29.139  1.00  0.00     0.031 C 
ATOM     39  C   UNL A   1      42.531  27.624  31.652  1.00  0.00     0.029 A 
ATOM     40  N   UNL A   1      41.456  29.327  32.624  1.00  0.00    -0.354 N 
ATOM     41  C   UNL A   1      38.211  31.350  30.621  1.00  0.00     0.074 A 
ATOM     42  C   UNL A   1      37.936  30.748  29.334  1.00  0.00     0.031 C 
ATOM     43  C   UNL A   1      43.123  27.851  32.836  1.00  0.00     0.029 A 
ATOM     44  C   UNL A   1      42.464  28.977  33.490  1.00  0.00     0.049 A 
ATOM     45  H   UNL A   1      40.818  30.054  32.806  1.00  0.00     0.167 HD
ATOM     46  C   UNL A   1      37.531  32.404  31.133  1.00  0.00     0.037 A 
ATOM     47  C   UNL A   1      42.823  29.509  34.673  1.00  0.00     0.037 A 
ATOM     48  C   UNL A   1      37.784  32.981  32.427  1.00  0.00     0.049 A 
ATOM     49  C   UNL A   1      42.047  30.673  35.222  1.00  0.00     0.074 A 
ATOM     50  C   UNL A   1      37.107  34.009  33.060  1.00  0.00     0.029 A 
ATOM     51  N   UNL A   1      38.794  32.578  33.287  1.00  0.00    -0.354 N 
ATOM     52  N   UNL A   1      41.025  31.304  34.700  1.00  0.00    -0.248 NA
ATOM     53  C   UNL A   1      42.473  31.194  36.529  1.00  0.00     0.031 C 
ATOM     54  C   UNL A   1      37.730  34.252  34.289  1.00  0.00     0.029 A 
ATOM     55  C   UNL A   1      38.769  33.348  34.438  1.00  0.00     0.049 A 
ATOM     56  H   UNL A   1      39.435  31.853  33.105  1.00  0.00     0.167 HD
ATOM     57  C   UNL A   1      40.667  32.279  35.623  1.00  0.00     0.074 A 
ATOM     58  C   UNL A   1      41.576  32.146  36.743  1.00  0.00     0.031 C 
ATOM     59  C   UNL A   1      39.675  33.198  35.548  1.00  0.00     0.037 A 
BRANCH  46  60
ATOM     60  C   UNL A   1      36.442  32.999  30.289  1.00  0.00     0.057 A 
ATOM     61  C   UNL A   1      35.088  32.759  30.555  1.00  0.00     0.134 A 
ATOM     62  C   UNL A   1      36.749  33.849  29.219  1.00  0.00     0.134 A 
ATOM     63  F   UNL A   1      34.727  31.945  31.559  1.00  0.00    -0.206 F 
ATOM     64  C   UNL A   1      34.078  33.321  29.772  1.00  0.00     0.040 A 
ATOM     65  C   UNL A   1      35.748  34.437  28.444  1.00  0.00     0.040 A 
ATOM     66  F   UNL A   1      38.026  34.126  28.913  1.00  0.00    -0.206 F 
ATOM     67  C   UNL A   1      34.408  34.168  28.716  1.00  0.00     0.006 A 
ENDBRANCH  46  60
BRANCH  47  68
ATOM     68  C   UNL A   1      43.962  28.933  35.429  1.00  0.00     0.057 A 
ATOM     69  C   UNL A   1      43.757  27.933  36.385  1.00  0.00     0.134 A 
ATOM     70  C   UNL A   1      45.276  29.365  35.216  1.00  0.00     0.134 A 
ATOM     71  F   UNL A   1      42.518  27.493  36.646  1.00  0.00    -0.206 F 
ATOM     72  C   UNL A   1      44.817  27.393  37.117  1.00  0.00     0.040 A 
ATOM     73  C   UNL A   1      46.348  28.818  35.923  1.00  0.00     0.040 A 
ATOM     74  F   UNL A   1      45.538  30.316  34.306  1.00  0.00    -0.206 F 
ATOM     75  C   UNL A   1      46.118  27.833  36.882  1.00  0.00     0.006 A 
ENDBRANCH  47  68
BRANCH  59  76
ATOM     76  C   UNL A   1      39.499  34.112  36.724  1.00  0.00     0.057 A 
ATOM     77  C   UNL A   1      38.808  33.711  37.874  1.00  0.00     0.134 A 
ATOM     78  C   UNL A   1      40.061  35.395  36.718  1.00  0.00     0.134 A 
ATOM     79  F   UNL A   1      38.236  32.500  37.935  1.00  0.00    -0.206 F 
ATOM     80  C   UNL A   1      38.667  34.562  38.971  1.00  0.00     0.040 A 
ATOM     81  C   UNL A   1      39.946  36.246  37.818  1.00  0.00     0.040 A 
ATOM     82  F   UNL A   1      40.742  35.836  35.650  1.00  0.00    -0.206 F 
ATOM     83  C   UNL A   1      39.243  35.831  38.947  1.00  0.00     0.006 A 
ENDBRANCH  59  76
ENDBRANCH  33  34
ENDBRANCH  25  28
ENDBRANCH  23  24
ENDBRANCH  22  23
ENDBRANCH   1  22
TORSDOF 13
ENDMDL
MODEL 3
REMARK VINA RESULT:     -10.6      2.057      6.623
REMARK SMILES CCc1cc(Oc2cncc(C(=O)NCCCNC(=O)c3ccc(-c4c5nc(c(-c6c(F)cccc6F)c6ccc([nH]6)c(-c6c(F)cccc6F)c6nc(c(-c7c(F)cccc7F)c7ccc4[nH]7)C=C6)C=C5)cc3)n2)ccc1Cl
REMARK SMILES IDX 15 1 14 2 12 3 13 4 11 6 7 7 8 8 75 9 9 10 10 11 6 12 5 13
REMARK SMILES IDX 3 14 4 15 78 16 77 17 79 18 76 19 2 20 1 21 16 22 17 23
REMARK SMILES IDX 18 24 19 25 20 27 21 28 22 29 74 30 23 31 73 32 24 33 25 34
REMARK SMILES IDX 26 35 67 36 27 37 72 38 66 39 68 40 28 41 71 42 65 43 64 44
REMARK SMILES IDX 29 46 55 47 38 48 54 49 39 50 42 51 53 52 69 53 40 54 41 55
REMARK SMILES IDX 52 57 70 58 43 59 30 60 31 61 36 62 32 63 33 64 35 65 37 66
REMARK SMILES IDX 34 67 56 68 57 69 62 70 58 71 59 72 61 73 63 74 60 75 44 76
REMARK SMILES IDX 45 77 50 78 46 79 47 80 49 81 51 82 48 83
REMARK H PARENT 14 5 18 26 68 45 42 56
REMARK Flexibility Score: inf
ROOT
ATOM      1  C   UNL A   1      34.901  34.145  28.351  1.00  0.00     0.118 C 
ENDROOT
BRANCH   1   2
ATOM      2  N   UNL A   1      33.744  35.015  28.212  1.00  0.00    -0.351 N 
ATOM      3  C   UNL A   1      33.042  35.736  29.149  1.00  0.00     0.271 C 
ATOM      4  O   UNL A   1      32.121  36.453  28.751  1.00  0.00    -0.267 OA
ATOM      5  H   UNL A   1      33.407  35.102  27.291  1.00  0.00     0.163 HD
BRANCH   3   6
ATOM      6  C   UNL A   1      33.367  35.715  30.602  1.00  0.00     0.150 A 
ATOM      7  C   UNL A   1      34.069  34.651  32.500  1.00  0.00     0.238 A 
ATOM      8  C   UNL A   1      34.030  35.852  33.200  1.00  0.00     0.179 A 
ATOM      9  N   UNL A   1      33.748  34.553  31.191  1.00  0.00    -0.205 NA
ATOM     10  N   UNL A   1      33.611  37.005  32.631  1.00  0.00    -0.257 NA
ATOM     11  C   UNL A   1      33.279  36.907  31.316  1.00  0.00     0.145 A 
BRANCH   7  12
ATOM     12  O   UNL A   1      34.517  33.501  33.104  1.00  0.00    -0.437 OA
BRANCH  12  13
ATOM     13  C   UNL A   1      35.868  33.240  33.058  1.00  0.00     0.129 A 
ATOM     14  C   UNL A   1      37.946  33.674  31.794  1.00  0.00    -0.026 A 
ATOM     15  C   UNL A   1      36.553  33.840  31.994  1.00  0.00     0.052 A 
ATOM     16  C   UNL A   1      38.633  32.872  32.718  1.00  0.00     0.044 A 
ATOM     17  C   UNL A   1      37.945  32.265  33.781  1.00  0.00     0.024 A 
ATOM     18  Cl  UNL A   1      40.323  32.531  32.655  1.00  0.00    -0.084 Cl
ATOM     19  C   UNL A   1      36.571  32.436  33.948  1.00  0.00     0.049 A 
BRANCH  14  20
ATOM     20  C   UNL A   1      38.492  34.362  30.557  1.00  0.00     0.034 C 
ATOM     21  C   UNL A   1      38.779  33.593  29.279  1.00  0.00     0.009 C 
ENDBRANCH  14  20
ENDBRANCH  12  13
ENDBRANCH   7  12
ENDBRANCH   3   6
ENDBRANCH   1   2
BRANCH   1  22
ATOM     22  C   UNL A   1      34.528  32.674  28.181  1.00  0.00     0.042 C 
BRANCH  22  23
ATOM     23  C   UNL A   1      35.657  31.710  28.541  1.00  0.00     0.118 C 
BRANCH  23  24
ATOM     24  N   UNL A   1      35.529  31.180  29.896  1.00  0.00    -0.352 N 
ATOM     25  C   UNL A   1      36.349  30.347  30.607  1.00  0.00     0.251 C 
ATOM     26  H   UNL A   1      34.719  31.467  30.377  1.00  0.00     0.163 HD
ATOM     27  O   UNL A   1      35.952  29.866  31.669  1.00  0.00    -0.269 OA
BRANCH  25  28
ATOM     28  C   UNL A   1      37.703  30.009  30.119  1.00  0.00     0.039 A 
ATOM     29  C   UNL A   1      38.705  29.725  31.055  1.00  0.00     0.014 A 
ATOM     30  C   UNL A   1      38.006  30.021  28.755  1.00  0.00     0.014 A 
ATOM     31  C   UNL A   1      39.991  29.396  30.620  1.00  0.00     0.010 A 
ATOM     32  C   UNL A   1      39.271  29.629  28.321  1.00  0.00     0.010 A 
ATOM     33  C   UNL A   1      40.276  29.317  29.249  1.00  0.00    -0.014 A 
BRANCH  33  34
ATOM     34  C   UNL A   1      41.617  28.906  28.763  1.00  0.00     0.031 A 
ATOM     35  C   UNL A   1      41.871  27.483  28.349  1.00  0.00     0.074 A 
ATOM     36  C   UNL A   1      42.627  29.797  28.765  1.00  0.00     0.049 A 
ATOM     37  N   UNL A   1      42.993  26.913  27.990  1.00  0.00    -0.248 NA
ATOM     38  C   UNL A   1      40.713  26.574  28.364  1.00  0.00     0.031 C 
ATOM     39  C   UNL A   1      42.521  31.195  29.185  1.00  0.00     0.029 A 
ATOM     40  N   UNL A   1      43.946  29.654  28.417  1.00  0.00    -0.354 N 
ATOM     41  C   UNL A   1      42.682  25.579  27.760  1.00  0.00     0.074 A 
ATOM     42  C   UNL A   1      41.276  25.414  28.057  1.00  0.00     0.031 C 
ATOM     43  C   UNL A   1      43.721  31.785  29.057  1.00  0.00     0.029 A 
ATOM     44  C   UNL A   1      44.687  30.799  28.582  1.00  0.00     0.049 A 
ATOM     45  H   UNL A   1      44.327  28.810  28.082  1.00  0.00     0.167 HD
ATOM     46  C   UNL A   1      43.492  24.584  27.324  1.00  0.00     0.037 A 
ATOM     47  C   UNL A   1      45.998  31.028  28.382  1.00  0.00     0.037 A 
ATOM     48  C   UNL A   1      44.884  24.756  26.998  1.00  0.00     0.049 A 
ATOM     49  C   UNL A   1      46.874  29.910  27.890  1.00  0.00     0.074 A 
ATOM     50  C   UNL A   1      45.771  23.825  26.487  1.00  0.00     0.029 A 
ATOM     51  N   UNL A   1      45.590  25.940  27.149  1.00  0.00    -0.354 N 
ATOM     52  N   UNL A   1      46.554  28.668  27.620  1.00  0.00    -0.248 NA
ATOM     53  C   UNL A   1      48.292  30.228  27.668  1.00  0.00     0.031 C 
ATOM     54  C   UNL A   1      47.024  24.436  26.363  1.00  0.00     0.029 A 
ATOM     55  C   UNL A   1      46.905  25.759  26.758  1.00  0.00     0.049 A 
ATOM     56  H   UNL A   1      45.210  26.784  27.486  1.00  0.00     0.167 HD
ATOM     57  C   UNL A   1      47.722  28.063  27.174  1.00  0.00     0.074 A 
ATOM     58  C   UNL A   1      48.754  29.079  27.197  1.00  0.00     0.031 C 
ATOM     59  C   UNL A   1      47.919  26.782  26.779  1.00  0.00     0.037 A 
BRANCH  46  60
ATOM     60  C   UNL A   1      42.889  23.219  27.169  1.00  0.00     0.057 A 
ATOM     61  C   UNL A   1      42.661  22.384  28.269  1.00  0.00     0.134 A 
ATOM     62  C   UNL A   1      42.502  22.747  25.908  1.00  0.00     0.134 A 
ATOM     63  F   UNL A   1      43.019  22.772  29.503  1.00  0.00    -0.206 F 
ATOM     64  C   UNL A   1      42.093  21.117  28.120  1.00  0.00     0.040 A 
ATOM     65  C   UNL A   1      41.911  21.493  25.749  1.00  0.00     0.040 A 
ATOM     66  F   UNL A   1      42.686  23.499  24.812  1.00  0.00    -0.206 F 
ATOM     67  C   UNL A   1      41.710  20.671  26.857  1.00  0.00     0.006 A 
ENDBRANCH  46  60
BRANCH  47  68
ATOM     68  C   UNL A   1      46.561  32.378  28.630  1.00  0.00     0.057 A 
ATOM     69  C   UNL A   1      46.614  33.333  27.608  1.00  0.00     0.134 A 
ATOM     70  C   UNL A   1      47.056  32.746  29.886  1.00  0.00     0.134 A 
ATOM     71  F   UNL A   1      46.170  33.031  26.380  1.00  0.00    -0.206 F 
ATOM     72  C   UNL A   1      47.155  34.601  27.821  1.00  0.00     0.040 A 
ATOM     73  C   UNL A   1      47.580  34.019  30.119  1.00  0.00     0.040 A 
ATOM     74  F   UNL A   1      47.026  31.878  30.907  1.00  0.00    -0.206 F 
ATOM     75  C   UNL A   1      47.636  34.949  29.082  1.00  0.00     0.006 A 
ENDBRANCH  47  68
BRANCH  59  76
ATOM     76  C   UNL A   1      49.295  26.415  26.309  1.00  0.00     0.057 A 
ATOM     77  C   UNL A   1      50.206  25.750  27.138  1.00  0.00     0.134 A 
ATOM     78  C   UNL A   1      49.697  26.698  24.997  1.00  0.00     0.134 A 
ATOM     79  F   UNL A   1      49.884  25.463  28.408  1.00  0.00    -0.206 F 
ATOM     80  C   UNL A   1      51.477  25.395  26.685  1.00  0.00     0.040 A 
ATOM     81  C   UNL A   1      50.957  26.328  24.526  1.00  0.00     0.040 A 
ATOM     82  F   UNL A   1      48.868  27.328  24.150  1.00  0.00    -0.206 F 
ATOM     83  C   UNL A   1      51.853  25.677  25.372  1.00  0.00     0.006 A 
ENDBRANCH  59  76
ENDBRANCH  33  34
ENDBRANCH  25  28
ENDBRANCH  23  24
ENDBRANCH  22  23
ENDBRANCH   1  22
TORSDOF 13
ENDMDL
