MODEL 1
REMARK VINA RESULT:     -12.2      0.000      0.000
REMARK SMILES [H]/N=c1\ccc2c(C)c(CC(=O)NCCCNC(=O)c3ccc(-c4c5nc(c(-c6c(F)cccc6F)c6ccc([nH]6)c(-c6c(F)cccc6F)c6nc(c(-c7c(F)cccc7F)c7ccc4[nH]7)C=C6)C=C5)cc3)c(O)oc-2c1
REMARK SMILES IDX 15 1 14 2 13 3 11 4 12 5 10 7 9 8 8 9 7 10 6 11 5 12 77 13
REMARK SMILES IDX 74 14 4 15 78 16 76 17 3 18 2 19 1 20 75 21 16 23 17 24
REMARK SMILES IDX 18 25 19 27 20 28 21 29 73 30 22 31 72 32 23 33 24 34 25 35
REMARK SMILES IDX 66 36 26 37 71 38 65 39 67 40 27 41 70 42 64 43 63 44 28 46
REMARK SMILES IDX 54 47 37 48 53 49 38 50 41 51 52 52 68 53 39 54 40 55 51 57
REMARK SMILES IDX 69 58 42 59 29 60 30 61 35 62 31 63 32 64 34 65 36 66 33 67
REMARK SMILES IDX 55 68 56 69 61 70 57 71 58 72 60 73 62 74 59 75 43 76 44 77
REMARK SMILES IDX 49 78 45 79 46 80 48 81 50 82 47 83
REMARK H PARENT 13 6 75 22 17 26 67 45 41 56
REMARK Flexibility Score: inf
ROOT
ATOM      1  C   UNL A   1      37.593  19.863  25.001  1.00  0.00     0.042 C 
ENDROOT
BRANCH   1   2
ATOM      2  C   UNL A   1      36.567  20.989  24.925  1.00  0.00     0.117 C 
BRANCH   2   3
ATOM      3  N   UNL A   1      35.211  20.507  25.103  1.00  0.00    -0.356 N 
ATOM      4  C   UNL A   1      34.250  20.920  25.977  1.00  0.00     0.224 C 
ATOM      5  O   UNL A   1      33.165  20.335  25.962  1.00  0.00    -0.275 OA
ATOM      6  H   UNL A   1      34.944  19.772  24.504  1.00  0.00     0.163 HD
BRANCH   4   7
ATOM      7  C   UNL A   1      34.495  22.108  26.904  1.00  0.00     0.143 C 
BRANCH   7   8
ATOM      8  C   UNL A   1      33.628  23.326  26.631  1.00  0.00     0.046 A 
ATOM      9  C   UNL A   1      35.590  24.407  25.376  1.00  0.00     0.046 C 
ATOM     10  C   UNL A   1      34.127  24.418  25.762  1.00  0.00    -0.029 A 
ATOM     11  C   UNL A   1      33.268  25.394  25.363  1.00  0.00     0.021 A 
ATOM     12  C   UNL A   1      33.648  26.441  24.413  1.00  0.00     0.014 A 
ATOM     13  C   UNL A   1      31.900  25.413  25.887  1.00  0.00     0.140 A 
ATOM     14  C   UNL A   1      32.378  23.425  27.141  1.00  0.00     0.286 A 
ATOM     15  C   UNL A   1      32.783  27.393  24.032  1.00  0.00     0.028 A 
ATOM     16  C   UNL A   1      31.024  26.360  25.531  1.00  0.00     0.075 A 
ATOM     17  O   UNL A   1      31.521  24.452  26.804  1.00  0.00    -0.425 OA
ATOM     18  C   UNL A   1      31.402  27.422  24.574  1.00  0.00     0.058 A 
ATOM     19  N   UNL A   1      30.536  28.321  24.244  1.00  0.00    -0.301 NA
ATOM     20  H   UNL A   1      30.781  29.031  23.608  1.00  0.00     0.188 HD
BRANCH  14  21
ATOM     21  O   UNL A   1      31.850  22.487  28.001  1.00  0.00    -0.480 OA
ATOM     22  H   UNL A   1      31.305  21.800  27.669  1.00  0.00     0.297 HD
ENDBRANCH  14  21
ENDBRANCH   7   8
ENDBRANCH   4   7
ENDBRANCH   2   3
ENDBRANCH   1   2
BRANCH   1  23
ATOM     23  C   UNL A   1      38.869  20.233  25.750  1.00  0.00     0.118 C 
BRANCH  23  24
ATOM     24  N   UNL A   1      39.865  19.168  25.751  1.00  0.00    -0.352 N 
ATOM     25  C   UNL A   1      41.222  19.227  25.957  1.00  0.00     0.251 C 
ATOM     26  H   UNL A   1      39.509  18.267  25.578  1.00  0.00     0.163 HD
ATOM     27  O   UNL A   1      41.912  18.227  25.774  1.00  0.00    -0.269 OA
BRANCH  25  28
ATOM     28  C   UNL A   1      41.861  20.497  26.364  1.00  0.00     0.039 A 
ATOM     29  C   UNL A   1      41.956  20.855  27.711  1.00  0.00     0.014 A 
ATOM     30  C   UNL A   1      42.362  21.351  25.375  1.00  0.00     0.014 A 
ATOM     31  C   UNL A   1      42.385  22.132  28.055  1.00  0.00     0.010 A 
ATOM     32  C   UNL A   1      42.868  22.603  25.732  1.00  0.00     0.010 A 
ATOM     33  C   UNL A   1      42.829  23.027  27.069  1.00  0.00    -0.014 A 
BRANCH  33  34
ATOM     34  C   UNL A   1      43.199  24.416  27.449  1.00  0.00     0.031 A 
ATOM     35  C   UNL A   1      44.632  24.871  27.362  1.00  0.00     0.074 A 
ATOM     36  C   UNL A   1      42.241  25.286  27.820  1.00  0.00     0.049 A 
ATOM     37  N   UNL A   1      45.149  26.039  27.657  1.00  0.00    -0.248 NA
ATOM     38  C   UNL A   1      45.615  23.887  26.884  1.00  0.00     0.031 C 
ATOM     39  C   UNL A   1      40.814  24.977  27.925  1.00  0.00     0.029 A 
ATOM     40  N   UNL A   1      42.320  26.613  28.156  1.00  0.00    -0.354 N 
ATOM     41  C   UNL A   1      46.513  25.922  27.420  1.00  0.00     0.074 A 
ATOM     42  C   UNL A   1      46.750  24.563  26.985  1.00  0.00     0.031 C 
ATOM     43  C   UNL A   1      40.147  26.092  28.260  1.00  0.00     0.029 A 
ATOM     44  C   UNL A   1      41.103  27.179  28.448  1.00  0.00     0.049 A 
ATOM     45  H   UNL A   1      43.168  27.113  28.186  1.00  0.00     0.167 HD
ATOM     46  C   UNL A   1      47.480  26.865  27.538  1.00  0.00     0.037 A 
ATOM     47  C   UNL A   1      40.794  28.429  28.839  1.00  0.00     0.037 A 
ATOM     48  C   UNL A   1      47.246  28.225  27.944  1.00  0.00     0.049 A 
ATOM     49  C   UNL A   1      41.892  29.439  29.010  1.00  0.00     0.074 A 
ATOM     50  C   UNL A   1      48.159  29.258  28.075  1.00  0.00     0.029 A 
ATOM     51  N   UNL A   1      46.004  28.743  28.281  1.00  0.00    -0.354 N 
ATOM     52  N   UNL A   1      43.176  29.314  28.783  1.00  0.00    -0.248 NA
ATOM     53  C   UNL A   1      41.494  30.765  29.505  1.00  0.00     0.031 C 
ATOM     54  C   UNL A   1      47.473  30.393  28.526  1.00  0.00     0.029 A 
ATOM     55  C   UNL A   1      46.129  30.077  28.637  1.00  0.00     0.049 A 
ATOM     56  H   UNL A   1      45.159  28.239  28.270  1.00  0.00     0.167 HD
ATOM     57  C   UNL A   1      43.739  30.545  29.090  1.00  0.00     0.074 A 
ATOM     58  C   UNL A   1      42.652  31.411  29.501  1.00  0.00     0.031 C 
ATOM     59  C   UNL A   1      45.039  30.924  29.042  1.00  0.00     0.037 A 
BRANCH  46  60
ATOM     60  C   UNL A   1      48.889  26.446  27.231  1.00  0.00     0.057 A 
ATOM     61  C   UNL A   1      49.385  26.510  25.922  1.00  0.00     0.134 A 
ATOM     62  C   UNL A   1      49.747  25.959  28.226  1.00  0.00     0.134 A 
ATOM     63  F   UNL A   1      48.613  26.960  24.923  1.00  0.00    -0.206 F 
ATOM     64  C   UNL A   1      50.686  26.109  25.615  1.00  0.00     0.040 A 
ATOM     65  C   UNL A   1      51.059  25.578  27.935  1.00  0.00     0.040 A 
ATOM     66  F   UNL A   1      49.334  25.882  29.499  1.00  0.00    -0.206 F 
ATOM     67  C   UNL A   1      51.529  25.648  26.624  1.00  0.00     0.006 A 
ENDBRANCH  46  60
BRANCH  47  68
ATOM     68  C   UNL A   1      39.382  28.794  29.111  1.00  0.00     0.057 A 
ATOM     69  C   UNL A   1      38.810  28.602  30.374  1.00  0.00     0.134 A 
ATOM     70  C   UNL A   1      38.577  29.362  28.116  1.00  0.00     0.134 A 
ATOM     71  F   UNL A   1      39.529  28.061  31.368  1.00  0.00    -0.206 F 
ATOM     72  C   UNL A   1      37.486  28.953  30.636  1.00  0.00     0.040 A 
ATOM     73  C   UNL A   1      37.259  29.740  28.372  1.00  0.00     0.040 A 
ATOM     74  F   UNL A   1      39.077  29.589  26.892  1.00  0.00    -0.206 F 
ATOM     75  C   UNL A   1      36.709  29.532  29.635  1.00  0.00     0.006 A 
ENDBRANCH  47  68
BRANCH  59  76
ATOM     76  C   UNL A   1      45.345  32.342  29.421  1.00  0.00     0.057 A 
ATOM     77  C   UNL A   1      45.680  32.673  30.739  1.00  0.00     0.134 A 
ATOM     78  C   UNL A   1      45.298  33.381  28.484  1.00  0.00     0.134 A 
ATOM     79  F   UNL A   1      45.737  31.724  31.687  1.00  0.00    -0.206 F 
ATOM     80  C   UNL A   1      45.960  33.988  31.112  1.00  0.00     0.040 A 
ATOM     81  C   UNL A   1      45.601  34.697  28.838  1.00  0.00     0.040 A 
ATOM     82  F   UNL A   1      45.000  33.126  27.199  1.00  0.00    -0.206 F 
ATOM     83  C   UNL A   1      45.928  35.003  30.159  1.00  0.00     0.006 A 
ENDBRANCH  59  76
ENDBRANCH  33  34
ENDBRANCH  25  28
ENDBRANCH  23  24
ENDBRANCH   1  23
TORSDOF 12
ENDMDL
MODEL 2
REMARK VINA RESULT:     -12.1      4.897     10.047
REMARK SMILES [H]/N=c1\ccc2c(C)c(CC(=O)NCCCNC(=O)c3ccc(-c4c5nc(c(-c6c(F)cccc6F)c6ccc([nH]6)c(-c6c(F)cccc6F)c6nc(c(-c7c(F)cccc7F)c7ccc4[nH]7)C=C6)C=C5)cc3)c(O)oc-2c1
REMARK SMILES IDX 15 1 14 2 13 3 11 4 12 5 10 7 9 8 8 9 7 10 6 11 5 12 77 13
REMARK SMILES IDX 74 14 4 15 78 16 76 17 3 18 2 19 1 20 75 21 16 23 17 24
REMARK SMILES IDX 18 25 19 27 20 28 21 29 73 30 22 31 72 32 23 33 24 34 25 35
REMARK SMILES IDX 66 36 26 37 71 38 65 39 67 40 27 41 70 42 64 43 63 44 28 46
REMARK SMILES IDX 54 47 37 48 53 49 38 50 41 51 52 52 68 53 39 54 40 55 51 57
REMARK SMILES IDX 69 58 42 59 29 60 30 61 35 62 31 63 32 64 34 65 36 66 33 67
REMARK SMILES IDX 55 68 56 69 61 70 57 71 58 72 60 73 62 74 59 75 43 76 44 77
REMARK SMILES IDX 49 78 45 79 46 80 48 81 50 82 47 83
REMARK H PARENT 13 6 75 22 17 26 67 45 41 56
REMARK Flexibility Score: inf
ROOT
ATOM      1  C   UNL A   1      31.561  31.705  26.435  1.00  0.00     0.042 C 
ENDROOT
BRANCH   1   2
ATOM      2  C   UNL A   1      31.800  30.237  26.099  1.00  0.00     0.117 C 
BRANCH   2   3
ATOM      3  N   UNL A   1      31.231  29.868  24.818  1.00  0.00    -0.356 N 
ATOM      4  C   UNL A   1      31.838  29.343  23.717  1.00  0.00     0.224 C 
ATOM      5  O   UNL A   1      31.145  29.132  22.719  1.00  0.00    -0.275 OA
ATOM      6  H   UNL A   1      30.262  30.020  24.730  1.00  0.00     0.163 HD
BRANCH   4   7
ATOM      7  C   UNL A   1      33.320  28.975  23.742  1.00  0.00     0.143 C 
BRANCH   7   8
ATOM      8  C   UNL A   1      33.614  27.488  23.641  1.00  0.00     0.046 A 
ATOM      9  C   UNL A   1      33.932  27.406  26.188  1.00  0.00     0.046 C 
ATOM     10  C   UNL A   1      33.793  26.676  24.869  1.00  0.00    -0.029 A 
ATOM     11  C   UNL A   1      33.850  25.322  24.768  1.00  0.00     0.021 A 
ATOM     12  C   UNL A   1      33.908  24.444  25.939  1.00  0.00     0.014 A 
ATOM     13  C   UNL A   1      33.845  24.694  23.445  1.00  0.00     0.140 A 
ATOM     14  C   UNL A   1      33.682  26.866  22.441  1.00  0.00     0.286 A 
ATOM     15  C   UNL A   1      33.960  23.109  25.815  1.00  0.00     0.028 A 
ATOM     16  C   UNL A   1      33.910  23.365  23.297  1.00  0.00     0.075 A 
ATOM     17  O   UNL A   1      33.816  25.498  22.322  1.00  0.00    -0.425 OA
ATOM     18  C   UNL A   1      33.970  22.473  24.475  1.00  0.00     0.058 A 
ATOM     19  N   UNL A   1      34.028  21.194  24.304  1.00  0.00    -0.301 NA
ATOM     20  H   UNL A   1      34.069  20.594  25.083  1.00  0.00     0.188 HD
BRANCH  14  21
ATOM     21  O   UNL A   1      33.582  27.544  21.246  1.00  0.00    -0.480 OA
ATOM     22  H   UNL A   1      34.167  28.252  21.058  1.00  0.00     0.297 HD
ENDBRANCH  14  21
ENDBRANCH   7   8
ENDBRANCH   4   7
ENDBRANCH   2   3
ENDBRANCH   1   2
BRANCH   1  23
ATOM     23  C   UNL A   1      32.731  32.380  27.144  1.00  0.00     0.118 C 
BRANCH  23  24
ATOM     24  N   UNL A   1      32.458  33.763  27.515  1.00  0.00    -0.352 N 
ATOM     25  C   UNL A   1      33.076  34.568  28.442  1.00  0.00     0.251 C 
ATOM     26  H   UNL A   1      31.716  34.186  27.026  1.00  0.00     0.163 HD
ATOM     27  O   UNL A   1      32.601  35.669  28.708  1.00  0.00    -0.269 OA
BRANCH  25  28
ATOM     28  C   UNL A   1      34.290  34.102  29.144  1.00  0.00     0.039 A 
ATOM     29  C   UNL A   1      35.563  34.394  28.650  1.00  0.00     0.014 A 
ATOM     30  C   UNL A   1      34.148  33.347  30.313  1.00  0.00     0.014 A 
ATOM     31  C   UNL A   1      36.678  33.786  29.218  1.00  0.00     0.010 A 
ATOM     32  C   UNL A   1      35.279  32.804  30.929  1.00  0.00     0.010 A 
ATOM     33  C   UNL A   1      36.547  32.970  30.353  1.00  0.00    -0.014 A 
BRANCH  33  34
ATOM     34  C   UNL A   1      37.738  32.261  30.891  1.00  0.00     0.031 A 
ATOM     35  C   UNL A   1      38.290  32.621  32.245  1.00  0.00     0.074 A 
ATOM     36  C   UNL A   1      38.291  31.255  30.187  1.00  0.00     0.049 A 
ATOM     37  N   UNL A   1      39.323  32.121  32.877  1.00  0.00    -0.248 NA
ATOM     38  C   UNL A   1      37.593  33.683  32.987  1.00  0.00     0.031 C 
ATOM     39  C   UNL A   1      37.840  30.795  28.873  1.00  0.00     0.029 A 
ATOM     40  N   UNL A   1      39.340  30.425  30.489  1.00  0.00    -0.354 N 
ATOM     41  C   UNL A   1      39.410  32.818  34.076  1.00  0.00     0.074 A 
ATOM     42  C   UNL A   1      38.345  33.797  34.072  1.00  0.00     0.031 C 
ATOM     43  C   UNL A   1      38.580  29.740  28.499  1.00  0.00     0.029 A 
ATOM     44  C   UNL A   1      39.592  29.485  29.519  1.00  0.00     0.049 A 
ATOM     45  H   UNL A   1      39.863  30.496  31.320  1.00  0.00     0.167 HD
ATOM     46  C   UNL A   1      40.287  32.650  35.095  1.00  0.00     0.037 A 
ATOM     47  C   UNL A   1      40.543  28.534  29.452  1.00  0.00     0.037 A 
ATOM     48  C   UNL A   1      41.332  31.661  35.116  1.00  0.00     0.049 A 
ATOM     49  C   UNL A   1      41.533  28.404  30.574  1.00  0.00     0.074 A 
ATOM     50  C   UNL A   1      42.258  31.402  36.112  1.00  0.00     0.029 A 
ATOM     51  N   UNL A   1      41.586  30.762  34.090  1.00  0.00    -0.354 N 
ATOM     52  N   UNL A   1      41.602  29.071  31.699  1.00  0.00    -0.248 NA
ATOM     53  C   UNL A   1      42.586  27.391  30.407  1.00  0.00     0.031 C 
ATOM     54  C   UNL A   1      43.095  30.368  35.673  1.00  0.00     0.029 A 
ATOM     55  C   UNL A   1      42.664  29.958  34.422  1.00  0.00     0.049 A 
ATOM     56  H   UNL A   1      41.075  30.704  33.251  1.00  0.00     0.167 HD
ATOM     57  C   UNL A   1      42.694  28.551  32.382  1.00  0.00     0.074 A 
ATOM     58  C   UNL A   1      43.244  27.498  31.553  1.00  0.00     0.031 C 
ATOM     59  C   UNL A   1      43.199  28.915  33.586  1.00  0.00     0.037 A 
BRANCH  46  60
ATOM     60  C   UNL A   1      40.157  33.572  36.274  1.00  0.00     0.057 A 
ATOM     61  C   UNL A   1      40.887  34.766  36.332  1.00  0.00     0.134 A 
ATOM     62  C   UNL A   1      39.326  33.267  37.360  1.00  0.00     0.134 A 
ATOM     63  F   UNL A   1      41.706  35.113  35.329  1.00  0.00    -0.206 F 
ATOM     64  C   UNL A   1      40.792  35.626  37.427  1.00  0.00     0.040 A 
ATOM     65  C   UNL A   1      39.204  34.132  38.449  1.00  0.00     0.040 A 
ATOM     66  F   UNL A   1      38.595  32.143  37.359  1.00  0.00    -0.206 F 
ATOM     67  C   UNL A   1      39.943  35.313  38.487  1.00  0.00     0.006 A 
ENDBRANCH  46  60
BRANCH  47  68
ATOM     68  C   UNL A   1      40.614  27.638  28.273  1.00  0.00     0.057 A 
ATOM     69  C   UNL A   1      39.952  26.405  28.254  1.00  0.00     0.134 A 
ATOM     70  C   UNL A   1      41.331  28.005  27.128  1.00  0.00     0.134 A 
ATOM     71  F   UNL A   1      39.250  25.996  29.321  1.00  0.00    -0.206 F 
ATOM     72  C   UNL A   1      40.008  25.563  27.142  1.00  0.00     0.040 A 
ATOM     73  C   UNL A   1      41.375  27.184  26.001  1.00  0.00     0.040 A 
ATOM     74  F   UNL A   1      41.967  29.185  27.080  1.00  0.00    -0.206 F 
ATOM     75  C   UNL A   1      40.715  25.957  26.008  1.00  0.00     0.006 A 
ENDBRANCH  47  68
BRANCH  59  76
ATOM     76  C   UNL A   1      44.389  28.150  34.080  1.00  0.00     0.057 A 
ATOM     77  C   UNL A   1      44.224  26.973  34.821  1.00  0.00     0.134 A 
ATOM     78  C   UNL A   1      45.698  28.581  33.832  1.00  0.00     0.134 A 
ATOM     79  F   UNL A   1      42.996  26.508  35.097  1.00  0.00    -0.206 F 
ATOM     80  C   UNL A   1      45.320  26.252  35.296  1.00  0.00     0.040 A 
ATOM     81  C   UNL A   1      46.802  27.856  34.281  1.00  0.00     0.040 A 
ATOM     82  F   UNL A   1      45.922  29.693  33.113  1.00  0.00    -0.206 F 
ATOM     83  C   UNL A   1      46.614  26.689  35.020  1.00  0.00     0.006 A 
ENDBRANCH  59  76
ENDBRANCH  33  34
ENDBRANCH  25  28
ENDBRANCH  23  24
ENDBRANCH   1  23
TORSDOF 12
ENDMDL
MODEL 3
REMARK VINA RESULT:     -12.1      1.457      6.356
REMARK SMILES [H]/N=c1\ccc2c(C)c(CC(=O)NCCCNC(=O)c3ccc(-c4c5nc(c(-c6c(F)cccc6F)c6ccc([nH]6)c(-c6c(F)cccc6F)c6nc(c(-c7c(F)cccc7F)c7ccc4[nH]7)C=C6)C=C5)cc3)c(O)oc-2c1
REMARK SMILES IDX 15 1 14 2 13 3 11 4 12 5 10 7 9 8 8 9 7 10 6 11 5 12 77 13
REMARK SMILES IDX 74 14 4 15 78 16 76 17 3 18 2 19 1 20 75 21 16 23 17 24
REMARK SMILES IDX 18 25 19 27 20 28 21 29 73 30 22 31 72 32 23 33 24 34 25 35
REMARK SMILES IDX 66 36 26 37 71 38 65 39 67 40 27 41 70 42 64 43 63 44 28 46
REMARK SMILES IDX 54 47 37 48 53 49 38 50 41 51 52 52 68 53 39 54 40 55 51 57
REMARK SMILES IDX 69 58 42 59 29 60 30 61 35 62 31 63 32 64 34 65 36 66 33 67
REMARK SMILES IDX 55 68 56 69 61 70 57 71 58 72 60 73 62 74 59 75 43 76 44 77
REMARK SMILES IDX 49 78 45 79 46 80 48 81 50 82 47 83
REMARK H PARENT 13 6 75 22 17 26 67 45 41 56
REMARK Flexibility Score: inf
ROOT
ATOM      1  C   UNL A   1      37.222  20.503  25.057  1.00  0.00     0.042 C 
ENDROOT
BRANCH   1   2
ATOM      2  C   UNL A   1      36.164  21.594  25.181  1.00  0.00     0.117 C 
BRANCH   2   3
ATOM      3  N   UNL A   1      35.445  21.518  26.438  1.00  0.00    -0.356 N 
ATOM      4  C   UNL A   1      34.187  21.943  26.746  1.00  0.00     0.224 C 
ATOM      5  O   UNL A   1      33.793  21.793  27.905  1.00  0.00    -0.275 OA
ATOM      6  H   UNL A   1      35.937  21.096  27.179  1.00  0.00     0.163 HD
BRANCH   4   7
ATOM      7  C   UNL A   1      33.277  22.536  25.672  1.00  0.00     0.143 C 
BRANCH   7   8
ATOM      8  C   UNL A   1      32.917  23.998  25.871  1.00  0.00     0.046 A 
ATOM      9  C   UNL A   1      34.917  24.662  24.405  1.00  0.00     0.046 C 
ATOM     10  C   UNL A   1      33.654  25.056  25.139  1.00  0.00    -0.029 A 
ATOM     11  C   UNL A   1      33.188  26.333  25.169  1.00  0.00     0.021 A 
ATOM     12  C   UNL A   1      33.786  27.411  24.380  1.00  0.00     0.014 A 
ATOM     13  C   UNL A   1      32.035  26.662  26.011  1.00  0.00     0.140 A 
ATOM     14  C   UNL A   1      31.901  24.365  26.686  1.00  0.00     0.286 A 
ATOM     15  C   UNL A   1      33.308  28.663  24.424  1.00  0.00     0.028 A 
ATOM     16  C   UNL A   1      31.549  27.908  26.080  1.00  0.00     0.075 A 
ATOM     17  O   UNL A   1      31.465  25.670  26.785  1.00  0.00    -0.425 OA
ATOM     18  C   UNL A   1      32.150  29.002  25.288  1.00  0.00     0.058 A 
ATOM     19  N   UNL A   1      31.658  30.194  25.370  1.00  0.00    -0.301 NA
ATOM     20  H   UNL A   1      32.054  30.927  24.846  1.00  0.00     0.188 HD
BRANCH  14  21
ATOM     21  O   UNL A   1      31.195  23.460  27.448  1.00  0.00    -0.480 OA
ATOM     22  H   UNL A   1      30.661  22.811  27.032  1.00  0.00     0.297 HD
ENDBRANCH  14  21
ENDBRANCH   7   8
ENDBRANCH   4   7
ENDBRANCH   2   3
ENDBRANCH   1   2
BRANCH   1  23
ATOM     23  C   UNL A   1      38.609  20.923  25.534  1.00  0.00     0.118 C 
BRANCH  23  24
ATOM     24  N   UNL A   1      39.552  19.814  25.607  1.00  0.00    -0.352 N 
ATOM     25  C   UNL A   1      40.868  19.798  26.002  1.00  0.00     0.251 C 
ATOM     26  H   UNL A   1      39.190  18.941  25.332  1.00  0.00     0.163 HD
ATOM     27  O   UNL A   1      41.538  18.778  25.856  1.00  0.00    -0.269 OA
BRANCH  25  28
ATOM     28  C   UNL A   1      41.492  21.012  26.571  1.00  0.00     0.039 A 
ATOM     29  C   UNL A   1      41.429  21.278  27.940  1.00  0.00     0.014 A 
ATOM     30  C   UNL A   1      42.140  21.906  25.711  1.00  0.00     0.014 A 
ATOM     31  C   UNL A   1      41.854  22.513  28.421  1.00  0.00     0.010 A 
ATOM     32  C   UNL A   1      42.638  23.111  26.212  1.00  0.00     0.010 A 
ATOM     33  C   UNL A   1      42.446  23.451  27.560  1.00  0.00    -0.014 A 
BRANCH  33  34
ATOM     34  C   UNL A   1      42.811  24.796  28.077  1.00  0.00     0.031 A 
ATOM     35  C   UNL A   1      41.748  25.837  28.305  1.00  0.00     0.074 A 
ATOM     36  C   UNL A   1      44.092  25.065  28.395  1.00  0.00     0.049 A 
ATOM     37  N   UNL A   1      41.873  27.066  28.743  1.00  0.00    -0.248 NA
ATOM     38  C   UNL A   1      40.362  25.450  28.001  1.00  0.00     0.031 C 
ATOM     39  C   UNL A   1      45.214  24.137  28.240  1.00  0.00     0.029 A 
ATOM     40  N   UNL A   1      44.662  26.190  28.933  1.00  0.00    -0.354 N 
ATOM     41  C   UNL A   1      40.590  27.601  28.747  1.00  0.00     0.074 A 
ATOM     42  C   UNL A   1      39.705  26.575  28.240  1.00  0.00     0.031 C 
ATOM     43  C   UNL A   1      46.329  24.715  28.712  1.00  0.00     0.029 A 
ATOM     44  C   UNL A   1      46.013  26.071  29.148  1.00  0.00     0.049 A 
ATOM     45  H   UNL A   1      44.151  27.005  29.145  1.00  0.00     0.167 HD
ATOM     46  C   UNL A   1      40.183  28.829  29.149  1.00  0.00     0.037 A 
ATOM     47  C   UNL A   1      46.901  26.962  29.628  1.00  0.00     0.037 A 
ATOM     48  C   UNL A   1      41.056  29.844  29.679  1.00  0.00     0.049 A 
ATOM     49  C   UNL A   1      46.430  28.333  30.019  1.00  0.00     0.074 A 
ATOM     50  C   UNL A   1      40.734  31.112  30.130  1.00  0.00     0.029 A 
ATOM     51  N   UNL A   1      42.427  29.701  29.831  1.00  0.00    -0.354 N 
ATOM     52  N   UNL A   1      45.215  28.824  30.016  1.00  0.00    -0.248 NA
ATOM     53  C   UNL A   1      47.461  29.278  30.471  1.00  0.00     0.031 C 
ATOM     54  C   UNL A   1      41.917  31.750  30.524  1.00  0.00     0.029 A 
ATOM     55  C   UNL A   1      42.968  30.864  30.354  1.00  0.00     0.049 A 
ATOM     56  H   UNL A   1      42.940  28.893  29.602  1.00  0.00     0.167 HD
ATOM     57  C   UNL A   1      45.331  30.128  30.479  1.00  0.00     0.074 A 
ATOM     58  C   UNL A   1      46.733  30.345  30.773  1.00  0.00     0.031 C 
ATOM     59  C   UNL A   1      44.365  31.064  30.642  1.00  0.00     0.037 A 
BRANCH  46  60
ATOM     60  C   UNL A   1      38.721  29.146  29.020  1.00  0.00     0.057 A 
ATOM     61  C   UNL A   1      38.185  29.565  27.796  1.00  0.00     0.134 A 
ATOM     62  C   UNL A   1      37.848  29.057  30.112  1.00  0.00     0.134 A 
ATOM     63  F   UNL A   1      38.969  29.679  26.713  1.00  0.00    -0.206 F 
ATOM     64  C   UNL A   1      36.833  29.881  27.660  1.00  0.00     0.040 A 
ATOM     65  C   UNL A   1      36.488  29.346  29.984  1.00  0.00     0.040 A 
ATOM     66  F   UNL A   1      38.299  28.652  31.309  1.00  0.00    -0.206 F 
ATOM     67  C   UNL A   1      35.978  29.764  28.755  1.00  0.00     0.006 A 
ENDBRANCH  46  60
BRANCH  47  68
ATOM     68  C   UNL A   1      48.332  26.590  29.752  1.00  0.00     0.057 A 
ATOM     69  C   UNL A   1      48.816  25.930  30.887  1.00  0.00     0.134 A 
ATOM     70  C   UNL A   1      49.243  26.869  28.727  1.00  0.00     0.134 A 
ATOM     71  F   UNL A   1      47.993  25.636  31.904  1.00  0.00    -0.206 F 
ATOM     72  C   UNL A   1      50.159  25.569  31.004  1.00  0.00     0.040 A 
ATOM     73  C   UNL A   1      50.583  26.491  28.820  1.00  0.00     0.040 A 
ATOM     74  F   UNL A   1      48.832  27.480  27.606  1.00  0.00    -0.206 F 
ATOM     75  C   UNL A   1      51.045  25.843  29.964  1.00  0.00     0.006 A 
ENDBRANCH  47  68
BRANCH  59  76
ATOM     76  C   UNL A   1      44.795  32.394  31.183  1.00  0.00     0.057 A 
ATOM     77  C   UNL A   1      44.829  32.625  32.564  1.00  0.00     0.134 A 
ATOM     78  C   UNL A   1      45.165  33.448  30.340  1.00  0.00     0.134 A 
ATOM     79  F   UNL A   1      44.482  31.657  33.426  1.00  0.00    -0.206 F 
ATOM     80  C   UNL A   1      45.219  33.858  33.086  1.00  0.00     0.040 A 
ATOM     81  C   UNL A   1      45.581  34.679  30.851  1.00  0.00     0.040 A 
ATOM     82  F   UNL A   1      45.169  33.284  29.007  1.00  0.00    -0.206 F 
ATOM     83  C   UNL A   1      45.604  34.887  32.229  1.00  0.00     0.006 A 
ENDBRANCH  59  76
ENDBRANCH  33  34
ENDBRANCH  25  28
ENDBRANCH  23  24
ENDBRANCH   1  23
TORSDOF 12
ENDMDL
