MODEL 1
REMARK VINA RESULT:     -12.1      0.000      0.000
REMARK SMILES Cc1cc(F)cc(N[C@H](C(=O)NCCCNC(=O)c2ccc(-c3c4nc(c(-c5c(F)cccc5F)c5ccc([nH]5)c(-c5c(F)cccc5F)c5nc(c(-c6c(F)cccc6F)c6ccc3[nH]6)C=C5)C=C4)cc2)c2cc(Br)cs2)c1
REMARK SMILES IDX 14 1 13 2 12 3 10 4 11 5 9 7 8 8 7 10 1 11 2 12 3 13 79 14
REMARK SMILES IDX 4 15 5 16 6 17 73 18 74 19 78 20 75 21 77 22 76 23 15 24
REMARK SMILES IDX 16 25 17 26 18 28 19 29 20 30 72 31 21 32 71 33 22 34 23 35
REMARK SMILES IDX 24 36 65 37 25 38 70 39 64 40 66 41 26 42 69 43 63 44 62 45
REMARK SMILES IDX 27 47 53 48 36 49 52 50 37 51 40 52 51 53 67 54 38 55 39 56
REMARK SMILES IDX 50 58 68 59 41 60 28 61 29 62 34 63 30 64 31 65 33 66 35 67
REMARK SMILES IDX 32 68 54 69 55 70 60 71 56 72 57 73 59 74 61 75 58 76 42 77
REMARK SMILES IDX 43 78 48 79 44 80 45 81 47 82 49 83 46 84
REMARK H PARENT 12 6 8 9 16 27 66 46 40 57
REMARK Flexibility Score: inf
ROOT
ATOM      1  C   UNL A   1      37.504  20.092  24.987  1.00  0.00     0.042 C 
ENDROOT
BRANCH   1   2
ATOM      2  C   UNL A   1      36.411  21.143  24.926  1.00  0.00     0.117 C 
BRANCH   2   3
ATOM      3  N   UNL A   1      35.846  21.476  26.221  1.00  0.00    -0.354 N 
ATOM      4  C   UNL A   1      34.536  21.618  26.609  1.00  0.00     0.247 C 
ATOM      5  O   UNL A   1      34.395  21.838  27.819  1.00  0.00    -0.272 OA
ATOM      6  H   UNL A   1      36.506  21.622  26.936  1.00  0.00     0.163 HD
BRANCH   4   7
ATOM      7  C   UNL A   1      33.330  21.639  25.587  1.00  0.00     0.210 C 
BRANCH   7   8
ATOM      8  N   UNL A   1      32.613  20.351  25.532  1.00  0.00    -0.369 N 
ATOM      9  H   UNL A   1      31.868  20.235  26.165  1.00  0.00     0.161 HD
BRANCH   8  10
ATOM     10  C   UNL A   1      32.877  19.289  24.686  1.00  0.00     0.038 A 
ATOM     11  C   UNL A   1      34.816  16.001  24.937  1.00  0.00     0.044 C 
ATOM     12  C   UNL A   1      33.966  17.109  24.392  1.00  0.00    -0.046 A 
ATOM     13  C   UNL A   1      33.471  17.040  23.090  1.00  0.00     0.042 A 
ATOM     14  C   UNL A   1      33.684  18.243  25.168  1.00  0.00     0.029 A 
ATOM     15  C   UNL A   1      32.648  18.053  22.618  1.00  0.00     0.125 A 
ATOM     16  F   UNL A   1      32.156  17.977  21.375  1.00  0.00    -0.207 F 
ATOM     17  C   UNL A   1      32.320  19.144  23.414  1.00  0.00     0.065 A 
ENDBRANCH   8  10
ENDBRANCH   7   8
BRANCH   7  18
ATOM     18  C   UNL A   1      32.413  22.857  25.767  1.00  0.00     0.038 A 
ATOM     19  C   UNL A   1      32.683  24.219  25.737  1.00  0.00     0.033 A 
ATOM     20  S   UNL A   1      30.713  22.615  26.042  1.00  0.00    -0.145 S 
ATOM     21  C   UNL A   1      31.600  24.986  26.236  1.00  0.00     0.029 A 
ATOM     22  C   UNL A   1      30.489  24.237  26.522  1.00  0.00     0.080 A 
ATOM     23  Br  UNL A   1      31.739  26.844  26.519  1.00  0.00    -0.050 Br
ENDBRANCH   7  18
ENDBRANCH   4   7
ENDBRANCH   2   3
ENDBRANCH   1   2
BRANCH   1  24
ATOM     24  C   UNL A   1      38.750  20.520  25.745  1.00  0.00     0.118 C 
BRANCH  24  25
ATOM     25  N   UNL A   1      39.801  19.509  25.760  1.00  0.00    -0.352 N 
ATOM     26  C   UNL A   1      41.138  19.594  26.079  1.00  0.00     0.251 C 
ATOM     27  H   UNL A   1      39.502  18.609  25.496  1.00  0.00     0.163 HD
ATOM     28  O   UNL A   1      41.872  18.634  25.881  1.00  0.00    -0.269 OA
BRANCH  26  29
ATOM     29  C   UNL A   1      41.710  20.849  26.622  1.00  0.00     0.039 A 
ATOM     30  C   UNL A   1      42.206  21.808  25.734  1.00  0.00     0.014 A 
ATOM     31  C   UNL A   1      41.765  21.089  27.993  1.00  0.00     0.014 A 
ATOM     32  C   UNL A   1      42.658  23.039  26.218  1.00  0.00     0.010 A 
ATOM     33  C   UNL A   1      42.095  22.355  28.465  1.00  0.00     0.010 A 
ATOM     34  C   UNL A   1      42.554  23.345  27.585  1.00  0.00    -0.014 A 
BRANCH  34  35
ATOM     35  C   UNL A   1      42.926  24.681  28.123  1.00  0.00     0.031 A 
ATOM     36  C   UNL A   1      41.861  25.720  28.365  1.00  0.00     0.074 A 
ATOM     37  C   UNL A   1      44.226  24.989  28.316  1.00  0.00     0.049 A 
ATOM     38  N   UNL A   1      41.993  26.970  28.730  1.00  0.00    -0.248 NA
ATOM     39  C   UNL A   1      40.466  25.312  28.129  1.00  0.00     0.031 C 
ATOM     40  C   UNL A   1      45.358  24.092  28.071  1.00  0.00     0.029 A 
ATOM     41  N   UNL A   1      44.815  26.149  28.753  1.00  0.00    -0.354 N 
ATOM     42  C   UNL A   1      40.707  27.499  28.737  1.00  0.00     0.074 A 
ATOM     43  C   UNL A   1      39.815  26.454  28.290  1.00  0.00     0.031 C 
ATOM     44  C   UNL A   1      46.499  24.723  28.393  1.00  0.00     0.029 A 
ATOM     45  C   UNL A   1      46.188  26.083  28.818  1.00  0.00     0.049 A 
ATOM     46  H   UNL A   1      44.304  26.954  28.997  1.00  0.00     0.167 HD
ATOM     47  C   UNL A   1      40.303  28.737  29.108  1.00  0.00     0.037 A 
ATOM     48  C   UNL A   1      47.093  27.017  29.171  1.00  0.00     0.037 A 
ATOM     49  C   UNL A   1      41.187  29.758  29.602  1.00  0.00     0.049 A 
ATOM     50  C   UNL A   1      46.611  28.385  29.576  1.00  0.00     0.074 A 
ATOM     51  C   UNL A   1      40.864  31.013  30.087  1.00  0.00     0.029 A 
ATOM     52  N   UNL A   1      42.567  29.642  29.672  1.00  0.00    -0.354 N 
ATOM     53  N   UNL A   1      45.385  28.840  29.661  1.00  0.00    -0.248 NA
ATOM     54  C   UNL A   1      47.642  29.368  29.939  1.00  0.00     0.031 C 
ATOM     55  C   UNL A   1      42.053  31.679  30.398  1.00  0.00     0.029 A 
ATOM     56  C   UNL A   1      43.111  30.816  30.164  1.00  0.00     0.049 A 
ATOM     57  H   UNL A   1      43.082  28.845  29.413  1.00  0.00     0.167 HD
ATOM     58  C   UNL A   1      45.495  30.145  30.124  1.00  0.00     0.074 A 
ATOM     59  C   UNL A   1      46.907  30.403  30.315  1.00  0.00     0.031 C 
ATOM     60  C   UNL A   1      44.517  31.050  30.370  1.00  0.00     0.037 A 
BRANCH  47  61
ATOM     61  C   UNL A   1      38.841  29.060  29.003  1.00  0.00     0.057 A 
ATOM     62  C   UNL A   1      37.977  28.963  30.100  1.00  0.00     0.134 A 
ATOM     63  C   UNL A   1      38.304  29.540  27.800  1.00  0.00     0.134 A 
ATOM     64  F   UNL A   1      38.423  28.500  31.279  1.00  0.00    -0.206 F 
ATOM     65  C   UNL A   1      36.629  29.313  30.003  1.00  0.00     0.040 A 
ATOM     66  C   UNL A   1      36.966  29.921  27.698  1.00  0.00     0.040 A 
ATOM     67  F   UNL A   1      39.077  29.663  26.710  1.00  0.00    -0.206 F 
ATOM     68  C   UNL A   1      36.123  29.804  28.800  1.00  0.00     0.006 A 
ENDBRANCH  47  61
BRANCH  48  69
ATOM     69  C   UNL A   1      48.545  26.702  29.176  1.00  0.00     0.057 A 
ATOM     70  C   UNL A   1      49.338  26.938  28.044  1.00  0.00     0.134 A 
ATOM     71  C   UNL A   1      49.169  26.117  30.284  1.00  0.00     0.134 A 
ATOM     72  F   UNL A   1      48.795  27.480  26.944  1.00  0.00    -0.206 F 
ATOM     73  C   UNL A   1      50.683  26.570  28.001  1.00  0.00     0.040 A 
ATOM     74  C   UNL A   1      50.522  25.772  30.266  1.00  0.00     0.040 A 
ATOM     75  F   UNL A   1      48.472  25.872  31.404  1.00  0.00    -0.206 F 
ATOM     76  C   UNL A   1      51.279  25.986  29.116  1.00  0.00     0.006 A 
ENDBRANCH  48  69
BRANCH  60  77
ATOM     77  C   UNL A   1      44.930  32.382  30.924  1.00  0.00     0.057 A 
ATOM     78  C   UNL A   1      45.076  32.602  32.300  1.00  0.00     0.134 A 
ATOM     79  C   UNL A   1      45.229  33.446  30.063  1.00  0.00     0.134 A 
ATOM     80  F   UNL A   1      44.793  31.628  33.178  1.00  0.00    -0.206 F 
ATOM     81  C   UNL A   1      45.478  33.841  32.800  1.00  0.00     0.040 A 
ATOM     82  C   UNL A   1      45.663  34.679  30.550  1.00  0.00     0.040 A 
ATOM     83  F   UNL A   1      45.123  33.298  28.734  1.00  0.00    -0.206 F 
ATOM     84  C   UNL A   1      45.782  34.881  31.923  1.00  0.00     0.006 A 
ENDBRANCH  60  77
ENDBRANCH  34  35
ENDBRANCH  26  29
ENDBRANCH  24  25
ENDBRANCH   1  24
TORSDOF 13
ENDMDL
MODEL 2
REMARK VINA RESULT:     -12.1      0.653      6.203
REMARK SMILES Cc1cc(F)cc(N[C@H](C(=O)NCCCNC(=O)c2ccc(-c3c4nc(c(-c5c(F)cccc5F)c5ccc([nH]5)c(-c5c(F)cccc5F)c5nc(c(-c6c(F)cccc6F)c6ccc3[nH]6)C=C5)C=C4)cc2)c2cc(Br)cs2)c1
REMARK SMILES IDX 14 1 13 2 12 3 10 4 11 5 9 7 8 8 7 10 1 11 2 12 3 13 79 14
REMARK SMILES IDX 4 15 5 16 6 17 73 18 74 19 78 20 75 21 77 22 76 23 15 24
REMARK SMILES IDX 16 25 17 26 18 28 19 29 20 30 72 31 21 32 71 33 22 34 23 35
REMARK SMILES IDX 24 36 65 37 25 38 70 39 64 40 66 41 26 42 69 43 63 44 62 45
REMARK SMILES IDX 27 47 53 48 36 49 52 50 37 51 40 52 51 53 67 54 38 55 39 56
REMARK SMILES IDX 50 58 68 59 41 60 28 61 29 62 34 63 30 64 31 65 33 66 35 67
REMARK SMILES IDX 32 68 54 69 55 70 60 71 56 72 57 73 59 74 61 75 58 76 42 77
REMARK SMILES IDX 43 78 48 79 44 80 45 81 47 82 49 83 46 84
REMARK H PARENT 12 6 8 9 16 27 66 46 40 57
REMARK Flexibility Score: inf
ROOT
ATOM      1  C   UNL A   1      37.488  19.769  24.998  1.00  0.00     0.042 C 
ENDROOT
BRANCH   1   2
ATOM      2  C   UNL A   1      36.340  20.755  24.887  1.00  0.00     0.117 C 
BRANCH   2   3
ATOM      3  N   UNL A   1      35.823  21.200  26.169  1.00  0.00    -0.354 N 
ATOM      4  C   UNL A   1      34.573  21.648  26.515  1.00  0.00     0.247 C 
ATOM      5  O   UNL A   1      34.444  21.882  27.724  1.00  0.00    -0.272 OA
ATOM      6  H   UNL A   1      36.473  21.175  26.908  1.00  0.00     0.163 HD
BRANCH   4   7
ATOM      7  C   UNL A   1      33.445  21.969  25.455  1.00  0.00     0.210 C 
BRANCH   7   8
ATOM      8  N   UNL A   1      32.438  20.895  25.357  1.00  0.00    -0.369 N 
ATOM      9  H   UNL A   1      31.592  21.041  25.840  1.00  0.00     0.161 HD
BRANCH   8  10
ATOM     10  C   UNL A   1      32.556  19.706  24.661  1.00  0.00     0.038 A 
ATOM     11  C   UNL A   1      33.208  16.049  25.575  1.00  0.00     0.044 C 
ATOM     12  C   UNL A   1      32.927  17.281  24.770  1.00  0.00    -0.046 A 
ATOM     13  C   UNL A   1      32.788  17.201  23.385  1.00  0.00     0.042 A 
ATOM     14  C   UNL A   1      32.833  18.537  25.391  1.00  0.00     0.029 A 
ATOM     15  C   UNL A   1      32.482  18.345  22.662  1.00  0.00     0.125 A 
ATOM     16  F   UNL A   1      32.329  18.264  21.333  1.00  0.00    -0.207 F 
ATOM     17  C   UNL A   1      32.328  19.575  23.290  1.00  0.00     0.065 A 
ENDBRANCH   8  10
ENDBRANCH   7   8
BRANCH   7  18
ATOM     18  C   UNL A   1      32.848  23.373  25.621  1.00  0.00     0.038 A 
ATOM     19  C   UNL A   1      33.441  24.628  25.608  1.00  0.00     0.033 A 
ATOM     20  S   UNL A   1      31.133  23.551  25.853  1.00  0.00    -0.145 S 
ATOM     21  C   UNL A   1      32.564  25.635  26.085  1.00  0.00     0.029 A 
ATOM     22  C   UNL A   1      31.298  25.179  26.339  1.00  0.00     0.080 A 
ATOM     23  Br  UNL A   1      33.144  27.403  26.385  1.00  0.00    -0.050 Br
ENDBRANCH   7  18
ENDBRANCH   4   7
ENDBRANCH   2   3
ENDBRANCH   1   2
BRANCH   1  24
ATOM     24  C   UNL A   1      38.726  20.316  25.690  1.00  0.00     0.118 C 
BRANCH  24  25
ATOM     25  N   UNL A   1      39.839  19.376  25.728  1.00  0.00    -0.352 N 
ATOM     26  C   UNL A   1      41.164  19.549  26.060  1.00  0.00     0.251 C 
ATOM     27  H   UNL A   1      39.601  18.455  25.472  1.00  0.00     0.163 HD
ATOM     28  O   UNL A   1      41.960  18.636  25.880  1.00  0.00    -0.269 OA
BRANCH  26  29
ATOM     29  C   UNL A   1      41.649  20.844  26.594  1.00  0.00     0.039 A 
ATOM     30  C   UNL A   1      42.148  21.801  25.705  1.00  0.00     0.014 A 
ATOM     31  C   UNL A   1      41.618  21.125  27.958  1.00  0.00     0.014 A 
ATOM     32  C   UNL A   1      42.517  23.064  26.175  1.00  0.00     0.010 A 
ATOM     33  C   UNL A   1      41.864  22.418  28.408  1.00  0.00     0.010 A 
ATOM     34  C   UNL A   1      42.325  23.403  27.524  1.00  0.00    -0.014 A 
BRANCH  34  35
ATOM     35  C   UNL A   1      42.607  24.769  28.040  1.00  0.00     0.031 A 
ATOM     36  C   UNL A   1      44.004  25.140  28.467  1.00  0.00     0.074 A 
ATOM     37  C   UNL A   1      41.595  25.648  28.203  1.00  0.00     0.049 A 
ATOM     38  N   UNL A   1      44.431  26.239  29.036  1.00  0.00    -0.248 NA
ATOM     39  C   UNL A   1      45.055  24.129  28.261  1.00  0.00     0.031 C 
ATOM     40  C   UNL A   1      40.189  25.397  27.879  1.00  0.00     0.029 A 
ATOM     41  N   UNL A   1      41.594  26.929  28.696  1.00  0.00    -0.354 N 
ATOM     42  C   UNL A   1      45.784  26.036  29.281  1.00  0.00     0.074 A 
ATOM     43  C   UNL A   1      46.098  24.694  28.849  1.00  0.00     0.031 C 
ATOM     44  C   UNL A   1      39.469  26.497  28.149  1.00  0.00     0.029 A 
ATOM     45  C   UNL A   1      40.349  27.516  28.712  1.00  0.00     0.049 A 
ATOM     46  H   UNL A   1      42.407  27.387  29.010  1.00  0.00     0.167 HD
ATOM     47  C   UNL A   1      46.690  26.901  29.796  1.00  0.00     0.037 A 
ATOM     48  C   UNL A   1      39.961  28.732  29.141  1.00  0.00     0.037 A 
ATOM     49  C   UNL A   1      46.385  28.254  30.178  1.00  0.00     0.049 A 
ATOM     50  C   UNL A   1      40.992  29.669  29.711  1.00  0.00     0.074 A 
ATOM     51  C   UNL A   1      47.252  29.236  30.625  1.00  0.00     0.029 A 
ATOM     52  N   UNL A   1      45.118  28.814  30.157  1.00  0.00    -0.354 N 
ATOM     53  N   UNL A   1      42.283  29.493  29.854  1.00  0.00    -0.248 NA
ATOM     54  C   UNL A   1      40.511  30.979  30.175  1.00  0.00     0.031 C 
ATOM     55  C   UNL A   1      46.499  30.374  30.931  1.00  0.00     0.029 A 
ATOM     56  C   UNL A   1      45.174  30.120  30.614  1.00  0.00     0.049 A 
ATOM     57  H   UNL A   1      44.300  28.353  29.860  1.00  0.00     0.167 HD
ATOM     58  C   UNL A   1      42.772  30.680  30.385  1.00  0.00     0.074 A 
ATOM     59  C   UNL A   1      41.642  31.573  30.526  1.00  0.00     0.031 C 
ATOM     60  C   UNL A   1      44.043  31.004  30.727  1.00  0.00     0.037 A 
BRANCH  47  61
ATOM     61  C   UNL A   1      48.101  26.419  29.974  1.00  0.00     0.057 A 
ATOM     62  C   UNL A   1      48.535  25.809  31.158  1.00  0.00     0.134 A 
ATOM     63  C   UNL A   1      49.020  26.508  28.920  1.00  0.00     0.134 A 
ATOM     64  F   UNL A   1      47.709  25.702  32.210  1.00  0.00    -0.206 F 
ATOM     65  C   UNL A   1      49.835  25.321  31.294  1.00  0.00     0.040 A 
ATOM     66  C   UNL A   1      50.313  25.998  29.033  1.00  0.00     0.040 A 
ATOM     67  F   UNL A   1      48.669  27.076  27.756  1.00  0.00    -0.206 F 
ATOM     68  C   UNL A   1      50.726  25.405  30.225  1.00  0.00     0.006 A 
ENDBRANCH  47  61
BRANCH  48  69
ATOM     69  C   UNL A   1      38.539  29.153  29.042  1.00  0.00     0.057 A 
ATOM     70  C   UNL A   1      38.019  29.661  27.844  1.00  0.00     0.134 A 
ATOM     71  C   UNL A   1      37.678  29.107  30.146  1.00  0.00     0.134 A 
ATOM     72  F   UNL A   1      38.798  29.748  26.756  1.00  0.00    -0.206 F 
ATOM     73  C   UNL A   1      36.711  30.141  27.757  1.00  0.00     0.040 A 
ATOM     74  C   UNL A   1      36.359  29.555  30.065  1.00  0.00     0.040 A 
ATOM     75  F   UNL A   1      38.108  28.624  31.321  1.00  0.00    -0.206 F 
ATOM     76  C   UNL A   1      35.877  30.086  28.870  1.00  0.00     0.006 A 
ENDBRANCH  48  69
BRANCH  60  77
ATOM     77  C   UNL A   1      44.291  32.394  31.232  1.00  0.00     0.057 A 
ATOM     78  C   UNL A   1      44.271  32.704  32.598  1.00  0.00     0.134 A 
ATOM     79  C   UNL A   1      44.597  33.429  30.338  1.00  0.00     0.134 A 
ATOM     80  F   UNL A   1      43.973  31.762  33.505  1.00  0.00    -0.206 F 
ATOM     81  C   UNL A   1      44.521  33.999  33.054  1.00  0.00     0.040 A 
ATOM     82  C   UNL A   1      44.880  34.720  30.785  1.00  0.00     0.040 A 
ATOM     83  F   UNL A   1      44.644  33.197  29.018  1.00  0.00    -0.206 F 
ATOM     84  C   UNL A   1      44.836  35.009  32.147  1.00  0.00     0.006 A 
ENDBRANCH  60  77
ENDBRANCH  34  35
ENDBRANCH  26  29
ENDBRANCH  24  25
ENDBRANCH   1  24
TORSDOF 13
ENDMDL
MODEL 3
REMARK VINA RESULT:     -11.9      5.586     10.186
REMARK SMILES Cc1cc(F)cc(N[C@H](C(=O)NCCCNC(=O)c2ccc(-c3c4nc(c(-c5c(F)cccc5F)c5ccc([nH]5)c(-c5c(F)cccc5F)c5nc(c(-c6c(F)cccc6F)c6ccc3[nH]6)C=C5)C=C4)cc2)c2cc(Br)cs2)c1
REMARK SMILES IDX 14 1 13 2 12 3 10 4 11 5 9 7 8 8 7 10 1 11 2 12 3 13 79 14
REMARK SMILES IDX 4 15 5 16 6 17 73 18 74 19 78 20 75 21 77 22 76 23 15 24
REMARK SMILES IDX 16 25 17 26 18 28 19 29 20 30 72 31 21 32 71 33 22 34 23 35
REMARK SMILES IDX 24 36 65 37 25 38 70 39 64 40 66 41 26 42 69 43 63 44 62 45
REMARK SMILES IDX 27 47 53 48 36 49 52 50 37 51 40 52 51 53 67 54 38 55 39 56
REMARK SMILES IDX 50 58 68 59 41 60 28 61 29 62 34 63 30 64 31 65 33 66 35 67
REMARK SMILES IDX 32 68 54 69 55 70 60 71 56 72 57 73 59 74 61 75 58 76 42 77
REMARK SMILES IDX 43 78 48 79 44 80 45 81 47 82 49 83 46 84
REMARK H PARENT 12 6 8 9 16 27 66 46 40 57
REMARK Flexibility Score: inf
ROOT
ATOM      1  C   UNL A   1      31.475  31.627  26.441  1.00  0.00     0.042 C 
ENDROOT
BRANCH   1   2
ATOM      2  C   UNL A   1      31.706  30.191  26.006  1.00  0.00     0.117 C 
BRANCH   2   3
ATOM      3  N   UNL A   1      32.740  30.042  24.998  1.00  0.00    -0.354 N 
ATOM      4  C   UNL A   1      32.863  29.128  23.981  1.00  0.00     0.247 C 
ATOM      5  O   UNL A   1      33.840  29.328  23.247  1.00  0.00    -0.272 OA
ATOM      6  H   UNL A   1      33.468  30.702  25.051  1.00  0.00     0.163 HD
BRANCH   4   7
ATOM      7  C   UNL A   1      31.930  27.860  23.840  1.00  0.00     0.210 C 
BRANCH   7   8
ATOM      8  N   UNL A   1      30.994  27.969  22.705  1.00  0.00    -0.369 N 
ATOM      9  H   UNL A   1      31.273  27.541  21.863  1.00  0.00     0.161 HD
BRANCH   8  10
ATOM     10  C   UNL A   1      29.768  28.609  22.697  1.00  0.00     0.038 A 
ATOM     11  C   UNL A   1      28.422  31.935  21.371  1.00  0.00     0.044 C 
ATOM     12  C   UNL A   1      28.479  30.585  22.020  1.00  0.00    -0.046 A 
ATOM     13  C   UNL A   1      27.330  30.022  22.575  1.00  0.00     0.042 A 
ATOM     14  C   UNL A   1      29.690  29.883  22.109  1.00  0.00     0.029 A 
ATOM     15  C   UNL A   1      27.392  28.751  23.129  1.00  0.00     0.125 A 
ATOM     16  F   UNL A   1      26.284  28.202  23.644  1.00  0.00    -0.207 F 
ATOM     17  C   UNL A   1      28.582  28.034  23.157  1.00  0.00     0.065 A 
ENDBRANCH   8  10
ENDBRANCH   7   8
BRANCH   7  18
ATOM     18  C   UNL A   1      32.707  26.537  23.885  1.00  0.00     0.038 A 
ATOM     19  C   UNL A   1      33.539  25.995  24.855  1.00  0.00     0.033 A 
ATOM     20  S   UNL A   1      32.586  25.428  22.550  1.00  0.00    -0.145 S 
ATOM     21  C   UNL A   1      34.274  24.887  24.366  1.00  0.00     0.029 A 
ATOM     22  C   UNL A   1      33.921  24.517  23.096  1.00  0.00     0.080 A 
ATOM     23  Br  UNL A   1      35.640  24.069  25.377  1.00  0.00    -0.050 Br
ENDBRANCH   7  18
ENDBRANCH   4   7
ENDBRANCH   2   3
ENDBRANCH   1   2
BRANCH   1  24
ATOM     24  C   UNL A   1      32.686  32.299  27.066  1.00  0.00     0.118 C 
BRANCH  24  25
ATOM     25  N   UNL A   1      32.452  33.686  27.448  1.00  0.00    -0.352 N 
ATOM     26  C   UNL A   1      33.053  34.481  28.399  1.00  0.00     0.251 C 
ATOM     27  H   UNL A   1      31.739  34.133  26.937  1.00  0.00     0.163 HD
ATOM     28  O   UNL A   1      32.591  35.588  28.647  1.00  0.00    -0.269 OA
BRANCH  26  29
ATOM     29  C   UNL A   1      34.230  33.996  29.158  1.00  0.00     0.039 A 
ATOM     30  C   UNL A   1      34.028  33.203  30.291  1.00  0.00     0.014 A 
ATOM     31  C   UNL A   1      35.529  34.315  28.767  1.00  0.00     0.014 A 
ATOM     32  C   UNL A   1      35.123  32.653  30.963  1.00  0.00     0.010 A 
ATOM     33  C   UNL A   1      36.612  33.670  29.355  1.00  0.00     0.010 A 
ATOM     34  C   UNL A   1      36.424  32.836  30.467  1.00  0.00    -0.014 A 
BRANCH  34  35
ATOM     35  C   UNL A   1      37.604  32.182  31.092  1.00  0.00     0.031 A 
ATOM     36  C   UNL A   1      38.340  31.092  30.356  1.00  0.00     0.074 A 
ATOM     37  C   UNL A   1      37.964  32.508  32.351  1.00  0.00     0.049 A 
ATOM     38  N   UNL A   1      39.323  30.333  30.769  1.00  0.00    -0.248 NA
ATOM     39  C   UNL A   1      37.888  30.789  28.987  1.00  0.00     0.031 C 
ATOM     40  C   UNL A   1      37.304  33.509  33.194  1.00  0.00     0.029 A 
ATOM     41  N   UNL A   1      38.970  32.022  33.149  1.00  0.00    -0.354 N 
ATOM     42  C   UNL A   1      39.582  29.449  29.728  1.00  0.00     0.074 A 
ATOM     43  C   UNL A   1      38.622  29.729  28.684  1.00  0.00     0.031 C 
ATOM     44  C   UNL A   1      37.942  33.585  34.373  1.00  0.00     0.029 A 
ATOM     45  C   UNL A   1      39.023  32.606  34.394  1.00  0.00     0.049 A 
ATOM     46  H   UNL A   1      39.596  31.319  32.859  1.00  0.00     0.167 HD
ATOM     47  C   UNL A   1      40.549  28.506  29.638  1.00  0.00     0.037 A 
ATOM     48  C   UNL A   1      39.844  32.373  35.435  1.00  0.00     0.037 A 
ATOM     49  C   UNL A   1      41.536  28.265  30.656  1.00  0.00     0.049 A 
ATOM     50  C   UNL A   1      40.909  31.316  35.304  1.00  0.00     0.074 A 
ATOM     51  C   UNL A   1      42.611  27.395  30.622  1.00  0.00     0.029 A 
ATOM     52  N   UNL A   1      41.567  28.895  31.891  1.00  0.00    -0.354 N 
ATOM     53  N   UNL A   1      41.195  30.551  34.279  1.00  0.00    -0.248 NA
ATOM     54  C   UNL A   1      41.769  31.094  36.477  1.00  0.00     0.031 C 
ATOM     55  C   UNL A   1      43.260  27.455  31.858  1.00  0.00     0.029 A 
ATOM     56  C   UNL A   1      42.625  28.408  32.639  1.00  0.00     0.049 A 
ATOM     57  H   UNL A   1      40.932  29.585  32.190  1.00  0.00     0.167 HD
ATOM     58  C   UNL A   1      42.289  29.789  34.668  1.00  0.00     0.074 A 
ATOM     59  C   UNL A   1      42.624  30.193  36.017  1.00  0.00     0.031 C 
ATOM     60  C   UNL A   1      42.959  28.838  33.972  1.00  0.00     0.037 A 
BRANCH  47  61
ATOM     61  C   UNL A   1      40.599  27.665  28.395  1.00  0.00     0.057 A 
ATOM     62  C   UNL A   1      41.343  28.043  27.270  1.00  0.00     0.134 A 
ATOM     63  C   UNL A   1      39.944  26.427  28.349  1.00  0.00     0.134 A 
ATOM     64  F   UNL A   1      41.985  29.222  27.243  1.00  0.00    -0.206 F 
ATOM     65  C   UNL A   1      41.421  27.230  26.139  1.00  0.00     0.040 A 
ATOM     66  C   UNL A   1      40.038  25.592  27.235  1.00  0.00     0.040 A 
ATOM     67  F   UNL A   1      39.217  26.001  29.394  1.00  0.00    -0.206 F 
ATOM     68  C   UNL A   1      40.775  25.994  26.124  1.00  0.00     0.006 A 
ENDBRANCH  47  61
BRANCH  48  69
ATOM     69  C   UNL A   1      39.715  33.154  36.693  1.00  0.00     0.057 A 
ATOM     70  C   UNL A   1      38.804  32.773  37.687  1.00  0.00     0.134 A 
ATOM     71  C   UNL A   1      40.456  34.321  36.916  1.00  0.00     0.134 A 
ATOM     72  F   UNL A   1      38.050  31.675  37.525  1.00  0.00    -0.206 F 
ATOM     73  C   UNL A   1      38.607  33.542  38.836  1.00  0.00     0.040 A 
ATOM     74  C   UNL A   1      40.292  35.082  38.075  1.00  0.00     0.040 A 
ATOM     75  F   UNL A   1      41.353  34.737  36.010  1.00  0.00    -0.206 F 
ATOM     76  C   UNL A   1      39.356  34.700  39.033  1.00  0.00     0.006 A 
ENDBRANCH  48  69
BRANCH  60  77
ATOM     77  C   UNL A   1      44.152  28.210  34.631  1.00  0.00     0.057 A 
ATOM     78  C   UNL A   1      44.056  27.018  35.361  1.00  0.00     0.134 A 
ATOM     79  C   UNL A   1      45.422  28.785  34.494  1.00  0.00     0.134 A 
ATOM     80  F   UNL A   1      42.867  26.424  35.540  1.00  0.00    -0.206 F 
ATOM     81  C   UNL A   1      45.178  26.436  35.953  1.00  0.00     0.040 A 
ATOM     82  C   UNL A   1      46.555  28.195  35.054  1.00  0.00     0.040 A 
ATOM     83  F   UNL A   1      45.584  29.919  33.797  1.00  0.00    -0.206 F 
ATOM     84  C   UNL A   1      46.433  27.020  35.792  1.00  0.00     0.006 A 
ENDBRANCH  60  77
ENDBRANCH  34  35
ENDBRANCH  26  29
ENDBRANCH  24  25
ENDBRANCH   1  24
TORSDOF 13
ENDMDL
