MODEL 1
REMARK VINA RESULT:     -13.0      0.000      0.000
REMARK SMILES Cc1ccccc1CNc1ccc(C(=O)NCCCNC(=O)c2ccc(-c3c4nc(c(-c5c(F)cccc5F)c5ccc([nH]5)c(-c5c(F)cccc5F)c5nc(c(-c6c(F)cccc6F)c6ccc3[nH]6)C=C5)C=C4)cc2)c(F)c1F
REMARK SMILES IDX 17 1 16 2 14 3 15 4 13 6 10 7 11 8 79 9 12 10 77 11 80 12
REMARK SMILES IDX 78 13 9 14 8 16 7 17 1 18 2 19 3 20 4 21 6 22 5 23 18 24
REMARK SMILES IDX 19 25 20 26 21 27 22 29 23 30 24 31 76 32 25 33 75 34 26 35
REMARK SMILES IDX 27 36 28 37 69 38 29 39 74 40 68 41 70 42 30 43 73 44 67 45
REMARK SMILES IDX 66 46 31 48 57 49 40 50 56 51 41 52 44 53 55 54 71 55 42 56
REMARK SMILES IDX 43 57 54 59 72 60 45 61 32 62 33 63 38 64 34 65 35 66 37 67
REMARK SMILES IDX 39 68 36 69 58 70 59 71 64 72 60 73 61 74 63 75 65 76 62 77
REMARK SMILES IDX 46 78 47 79 52 80 48 81 49 82 51 83 53 84 50 85
REMARK H PARENT 16 5 9 15 20 28 70 47 44 58
REMARK Flexibility Score: inf
ROOT
ATOM      1  C   UNL A   1      37.252  21.419  25.442  1.00  0.00     0.118 C 
ENDROOT
BRANCH   1   2
ATOM      2  N   UNL A   1      36.930  21.970  24.132  1.00  0.00    -0.352 N 
ATOM      3  C   UNL A   1      35.949  22.819  23.669  1.00  0.00     0.254 C 
ATOM      4  O   UNL A   1      36.011  23.098  22.472  1.00  0.00    -0.269 OA
ATOM      5  H   UNL A   1      37.546  21.669  23.425  1.00  0.00     0.163 HD
BRANCH   3   6
ATOM      6  C   UNL A   1      34.852  23.391  24.508  1.00  0.00     0.078 A 
ATOM      7  C   UNL A   1      32.696  24.397  26.085  1.00  0.00     0.074 A 
ATOM      8  C   UNL A   1      33.804  25.183  25.799  1.00  0.00     0.030 A 
ATOM      9  C   UNL A   1      32.707  23.077  25.616  1.00  0.00     0.182 A 
ATOM     10  C   UNL A   1      34.856  24.688  25.025  1.00  0.00     0.019 A 
ATOM     11  C   UNL A   1      33.758  22.582  24.839  1.00  0.00     0.173 A 
ATOM     12  F   UNL A   1      31.656  22.283  25.883  1.00  0.00    -0.201 F 
ATOM     13  F   UNL A   1      33.659  21.318  24.396  1.00  0.00    -0.203 F 
BRANCH   7  14
ATOM     14  N   UNL A   1      31.592  24.912  26.741  1.00  0.00    -0.379 N 
ATOM     15  H   UNL A   1      31.470  24.725  27.700  1.00  0.00     0.161 HD
BRANCH  14  16
ATOM     16  C   UNL A   1      30.606  25.724  26.041  1.00  0.00     0.149 C 
BRANCH  16  17
ATOM     17  C   UNL A   1      31.082  27.159  25.974  1.00  0.00    -0.026 A 
ATOM     18  C   UNL A   1      30.712  27.398  23.437  1.00  0.00     0.044 C 
ATOM     19  C   UNL A   1      31.121  27.917  24.788  1.00  0.00    -0.046 A 
ATOM     20  C   UNL A   1      31.605  29.238  24.845  1.00  0.00     0.004 A 
ATOM     21  C   UNL A   1      32.009  29.815  26.050  1.00  0.00     0.000 A 
ATOM     22  C   UNL A   1      31.466  27.773  27.188  1.00  0.00     0.006 A 
ATOM     23  C   UNL A   1      31.932  29.084  27.226  1.00  0.00     0.000 A 
ENDBRANCH  16  17
ENDBRANCH  14  16
ENDBRANCH   7  14
ENDBRANCH   3   6
ENDBRANCH   1   2
BRANCH   1  24
ATOM     24  C   UNL A   1      38.733  21.606  25.791  1.00  0.00     0.042 C 
BRANCH  24  25
ATOM     25  C   UNL A   1      39.114  23.036  26.115  1.00  0.00     0.118 C 
BRANCH  25  26
ATOM     26  N   UNL A   1      40.518  23.204  26.476  1.00  0.00    -0.352 N 
ATOM     27  C   UNL A   1      41.162  24.344  26.939  1.00  0.00     0.251 C 
ATOM     28  H   UNL A   1      41.083  22.404  26.377  1.00  0.00     0.163 HD
ATOM     29  O   UNL A   1      42.342  24.328  27.203  1.00  0.00    -0.269 OA
BRANCH  27  30
ATOM     30  C   UNL A   1      40.328  25.537  27.236  1.00  0.00     0.039 A 
ATOM     31  C   UNL A   1      40.657  26.724  26.578  1.00  0.00     0.014 A 
ATOM     32  C   UNL A   1      39.457  25.541  28.321  1.00  0.00     0.014 A 
ATOM     33  C   UNL A   1      40.334  27.937  27.178  1.00  0.00     0.010 A 
ATOM     34  C   UNL A   1      39.213  26.739  28.965  1.00  0.00     0.010 A 
ATOM     35  C   UNL A   1      39.719  27.930  28.432  1.00  0.00    -0.014 A 
BRANCH  35  36
ATOM     36  C   UNL A   1      39.664  29.110  29.284  1.00  0.00     0.031 A 
ATOM     37  C   UNL A   1      38.617  30.127  29.087  1.00  0.00     0.074 A 
ATOM     38  C   UNL A   1      40.576  29.296  30.264  1.00  0.00     0.049 A 
ATOM     39  N   UNL A   1      38.782  31.384  29.331  1.00  0.00    -0.248 NA
ATOM     40  C   UNL A   1      37.297  29.800  28.566  1.00  0.00     0.031 C 
ATOM     41  C   UNL A   1      40.562  30.328  31.297  1.00  0.00     0.029 A 
ATOM     42  N   UNL A   1      41.840  28.706  30.378  1.00  0.00    -0.354 N 
ATOM     43  C   UNL A   1      37.549  31.982  29.264  1.00  0.00     0.074 A 
ATOM     44  C   UNL A   1      36.668  30.968  28.723  1.00  0.00     0.031 C 
ATOM     45  C   UNL A   1      41.819  30.527  31.723  1.00  0.00     0.029 A 
ATOM     46  C   UNL A   1      42.692  29.705  30.906  1.00  0.00     0.049 A 
ATOM     47  H   UNL A   1      42.087  27.784  30.138  1.00  0.00     0.167 HD
ATOM     48  C   UNL A   1      37.368  33.227  29.792  1.00  0.00     0.037 A 
ATOM     49  C   UNL A   1      43.778  30.142  30.205  1.00  0.00     0.037 A 
ATOM     50  C   UNL A   1      38.600  33.765  30.370  1.00  0.00     0.049 A 
ATOM     51  C   UNL A   1      43.730  31.605  29.819  1.00  0.00     0.074 A 
ATOM     52  C   UNL A   1      39.100  33.855  31.659  1.00  0.00     0.029 A 
ATOM     53  N   UNL A   1      39.661  34.063  29.533  1.00  0.00    -0.354 N 
ATOM     54  N   UNL A   1      42.760  32.419  30.128  1.00  0.00    -0.248 NA
ATOM     55  C   UNL A   1      44.731  32.237  28.957  1.00  0.00     0.031 C 
ATOM     56  C   UNL A   1      40.472  34.224  31.585  1.00  0.00     0.029 A 
ATOM     57  C   UNL A   1      40.806  34.353  30.250  1.00  0.00     0.049 A 
ATOM     58  H   UNL A   1      39.606  34.067  28.551  1.00  0.00     0.167 HD
ATOM     59  C   UNL A   1      42.944  33.612  29.478  1.00  0.00     0.074 A 
ATOM     60  C   UNL A   1      44.198  33.455  28.766  1.00  0.00     0.031 C 
ATOM     61  C   UNL A   1      42.035  34.627  29.526  1.00  0.00     0.037 A 
BRANCH  48  62
ATOM     62  C   UNL A   1      36.004  33.832  30.010  1.00  0.00     0.057 A 
ATOM     63  C   UNL A   1      35.214  34.261  28.927  1.00  0.00     0.134 A 
ATOM     64  C   UNL A   1      35.431  34.055  31.274  1.00  0.00     0.134 A 
ATOM     65  F   UNL A   1      35.559  34.008  27.658  1.00  0.00    -0.206 F 
ATOM     66  C   UNL A   1      34.024  34.979  29.092  1.00  0.00     0.040 A 
ATOM     67  C   UNL A   1      34.273  34.824  31.457  1.00  0.00     0.040 A 
ATOM     68  F   UNL A   1      35.945  33.501  32.381  1.00  0.00    -0.206 F 
ATOM     69  C   UNL A   1      33.574  35.306  30.362  1.00  0.00     0.006 A 
ENDBRANCH  48  62
BRANCH  49  70
ATOM     70  C   UNL A   1      44.397  29.057  29.401  1.00  0.00     0.057 A 
ATOM     71  C   UNL A   1      45.188  28.104  30.069  1.00  0.00     0.134 A 
ATOM     72  C   UNL A   1      43.906  28.711  28.140  1.00  0.00     0.134 A 
ATOM     73  F   UNL A   1      45.697  28.380  31.281  1.00  0.00    -0.206 F 
ATOM     74  C   UNL A   1      45.355  26.811  29.574  1.00  0.00     0.040 A 
ATOM     75  C   UNL A   1      44.089  27.425  27.625  1.00  0.00     0.040 A 
ATOM     76  F   UNL A   1      43.139  29.564  27.447  1.00  0.00    -0.206 F 
ATOM     77  C   UNL A   1      44.768  26.457  28.363  1.00  0.00     0.006 A 
ENDBRANCH  49  70
BRANCH  61  78
ATOM     78  C   UNL A   1      42.244  35.964  28.873  1.00  0.00     0.057 A 
ATOM     79  C   UNL A   1      41.770  36.256  27.587  1.00  0.00     0.134 A 
ATOM     80  C   UNL A   1      43.041  36.962  29.468  1.00  0.00     0.134 A 
ATOM     81  F   UNL A   1      41.064  35.353  26.888  1.00  0.00    -0.206 F 
ATOM     82  C   UNL A   1      42.027  37.480  26.955  1.00  0.00     0.040 A 
ATOM     83  C   UNL A   1      43.345  38.167  28.828  1.00  0.00     0.040 A 
ATOM     84  F   UNL A   1      43.546  36.818  30.702  1.00  0.00    -0.206 F 
ATOM     85  C   UNL A   1      42.824  38.436  27.571  1.00  0.00     0.006 A 
ENDBRANCH  61  78
ENDBRANCH  35  36
ENDBRANCH  27  30
ENDBRANCH  25  26
ENDBRANCH  24  25
ENDBRANCH   1  24
TORSDOF 13
ENDMDL
MODEL 2
REMARK VINA RESULT:     -12.9      3.585      9.331
REMARK SMILES Cc1ccccc1CNc1ccc(C(=O)NCCCNC(=O)c2ccc(-c3c4nc(c(-c5c(F)cccc5F)c5ccc([nH]5)c(-c5c(F)cccc5F)c5nc(c(-c6c(F)cccc6F)c6ccc3[nH]6)C=C5)C=C4)cc2)c(F)c1F
REMARK SMILES IDX 17 1 16 2 14 3 15 4 13 6 10 7 11 8 79 9 12 10 77 11 80 12
REMARK SMILES IDX 78 13 9 14 8 16 7 17 1 18 2 19 3 20 4 21 6 22 5 23 18 24
REMARK SMILES IDX 19 25 20 26 21 27 22 29 23 30 24 31 76 32 25 33 75 34 26 35
REMARK SMILES IDX 27 36 28 37 69 38 29 39 74 40 68 41 70 42 30 43 73 44 67 45
REMARK SMILES IDX 66 46 31 48 57 49 40 50 56 51 41 52 44 53 55 54 71 55 42 56
REMARK SMILES IDX 43 57 54 59 72 60 45 61 32 62 33 63 38 64 34 65 35 66 37 67
REMARK SMILES IDX 39 68 36 69 58 70 59 71 64 72 60 73 61 74 63 75 65 76 62 77
REMARK SMILES IDX 46 78 47 79 52 80 48 81 49 82 51 83 53 84 50 85
REMARK H PARENT 16 5 9 15 20 28 70 47 44 58
REMARK Flexibility Score: inf
ROOT
ATOM      1  C   UNL A   1      33.189  29.689  25.879  1.00  0.00     0.118 C 
ENDROOT
BRANCH   1   2
ATOM      2  N   UNL A   1      31.956  29.960  25.152  1.00  0.00    -0.352 N 
ATOM      3  C   UNL A   1      31.235  29.268  24.204  1.00  0.00     0.254 C 
ATOM      4  O   UNL A   1      30.195  29.807  23.830  1.00  0.00    -0.269 OA
ATOM      5  H   UNL A   1      31.551  30.826  25.389  1.00  0.00     0.163 HD
BRANCH   3   6
ATOM      6  C   UNL A   1      31.638  27.950  23.623  1.00  0.00     0.078 A 
ATOM      7  C   UNL A   1      32.318  25.388  22.563  1.00  0.00     0.074 A 
ATOM      8  C   UNL A   1      33.193  26.463  22.463  1.00  0.00     0.030 A 
ATOM      9  C   UNL A   1      31.071  25.629  23.154  1.00  0.00     0.182 A 
ATOM     10  C   UNL A   1      32.856  27.714  22.984  1.00  0.00     0.019 A 
ATOM     11  C   UNL A   1      30.736  26.880  23.679  1.00  0.00     0.173 A 
ATOM     12  F   UNL A   1      30.195  24.616  23.258  1.00  0.00    -0.201 F 
ATOM     13  F   UNL A   1      29.535  27.003  24.267  1.00  0.00    -0.203 F 
BRANCH   7  14
ATOM     14  N   UNL A   1      32.686  24.115  22.166  1.00  0.00    -0.379 N 
ATOM     15  H   UNL A   1      32.773  23.916  21.206  1.00  0.00     0.161 HD
BRANCH  14  16
ATOM     16  C   UNL A   1      32.947  23.064  23.139  1.00  0.00     0.149 C 
BRANCH  16  17
ATOM     17  C   UNL A   1      34.290  23.297  23.796  1.00  0.00    -0.026 A 
ATOM     18  C   UNL A   1      33.318  24.402  25.908  1.00  0.00     0.044 C 
ATOM     19  C   UNL A   1      34.452  23.900  25.058  1.00  0.00    -0.046 A 
ATOM     20  C   UNL A   1      35.755  24.085  25.558  1.00  0.00     0.004 A 
ATOM     21  C   UNL A   1      36.876  23.654  24.847  1.00  0.00     0.000 A 
ATOM     22  C   UNL A   1      35.437  22.840  23.107  1.00  0.00     0.006 A 
ATOM     23  C   UNL A   1      36.716  23.022  23.623  1.00  0.00     0.000 A 
ENDBRANCH  16  17
ENDBRANCH  14  16
ENDBRANCH   7  14
ENDBRANCH   3   6
ENDBRANCH   1   2
BRANCH   1  24
ATOM     24  C   UNL A   1      33.478  30.763  26.935  1.00  0.00     0.042 C 
BRANCH  24  25
ATOM     25  C   UNL A   1      34.202  30.243  28.160  1.00  0.00     0.118 C 
BRANCH  25  26
ATOM     26  N   UNL A   1      35.077  31.228  28.788  1.00  0.00    -0.352 N 
ATOM     27  C   UNL A   1      36.408  31.090  29.159  1.00  0.00     0.251 C 
ATOM     28  H   UNL A   1      34.670  32.104  28.973  1.00  0.00     0.163 HD
ATOM     29  O   UNL A   1      37.010  32.005  29.671  1.00  0.00    -0.269 OA
BRANCH  27  30
ATOM     30  C   UNL A   1      37.107  29.835  28.776  1.00  0.00     0.039 A 
ATOM     31  C   UNL A   1      37.365  28.914  29.794  1.00  0.00     0.014 A 
ATOM     32  C   UNL A   1      37.723  29.717  27.534  1.00  0.00     0.014 A 
ATOM     33  C   UNL A   1      38.444  28.046  29.657  1.00  0.00     0.010 A 
ATOM     34  C   UNL A   1      38.848  28.922  27.430  1.00  0.00     0.010 A 
ATOM     35  C   UNL A   1      39.251  28.144  28.521  1.00  0.00    -0.014 A 
BRANCH  35  36
ATOM     36  C   UNL A   1      40.576  27.543  28.449  1.00  0.00     0.031 A 
ATOM     37  C   UNL A   1      40.732  26.108  28.155  1.00  0.00     0.074 A 
ATOM     38  C   UNL A   1      41.684  28.289  28.657  1.00  0.00     0.049 A 
ATOM     39  N   UNL A   1      41.697  25.382  28.611  1.00  0.00    -0.248 NA
ATOM     40  C   UNL A   1      39.781  25.369  27.337  1.00  0.00     0.031 C 
ATOM     41  C   UNL A   1      43.072  27.880  28.460  1.00  0.00     0.029 A 
ATOM     42  N   UNL A   1      41.774  29.519  29.317  1.00  0.00    -0.354 N 
ATOM     43  C   UNL A   1      41.658  24.180  27.951  1.00  0.00     0.074 A 
ATOM     44  C   UNL A   1      40.410  24.197  27.216  1.00  0.00     0.031 C 
ATOM     45  C   UNL A   1      43.858  28.641  29.236  1.00  0.00     0.029 A 
ATOM     46  C   UNL A   1      42.995  29.492  30.033  1.00  0.00     0.049 A 
ATOM     47  H   UNL A   1      41.120  30.254  29.291  1.00  0.00     0.167 HD
ATOM     48  C   UNL A   1      42.738  23.348  27.988  1.00  0.00     0.037 A 
ATOM     49  C   UNL A   1      43.012  29.601  31.392  1.00  0.00     0.037 A 
ATOM     50  C   UNL A   1      43.832  23.900  28.787  1.00  0.00     0.049 A 
ATOM     51  C   UNL A   1      43.558  28.389  32.115  1.00  0.00     0.074 A 
ATOM     52  C   UNL A   1      45.006  24.568  28.482  1.00  0.00     0.029 A 
ATOM     53  N   UNL A   1      43.657  24.050  30.152  1.00  0.00    -0.354 N 
ATOM     54  N   UNL A   1      44.003  27.315  31.523  1.00  0.00    -0.248 NA
ATOM     55  C   UNL A   1      43.543  28.252  33.573  1.00  0.00     0.031 C 
ATOM     56  C   UNL A   1      45.542  25.110  29.684  1.00  0.00     0.029 A 
ATOM     57  C   UNL A   1      44.689  24.775  30.718  1.00  0.00     0.049 A 
ATOM     58  H   UNL A   1      42.895  23.686  30.656  1.00  0.00     0.167 HD
ATOM     59  C   UNL A   1      44.253  26.350  32.464  1.00  0.00     0.074 A 
ATOM     60  C   UNL A   1      43.962  26.986  33.734  1.00  0.00     0.031 C 
ATOM     61  C   UNL A   1      44.633  25.081  32.136  1.00  0.00     0.037 A 
BRANCH  48  62
ATOM     62  C   UNL A   1      42.883  22.157  27.075  1.00  0.00     0.057 A 
ATOM     63  C   UNL A   1      42.092  21.006  27.246  1.00  0.00     0.134 A 
ATOM     64  C   UNL A   1      43.819  22.070  26.030  1.00  0.00     0.134 A 
ATOM     65  F   UNL A   1      41.071  20.972  28.112  1.00  0.00    -0.206 F 
ATOM     66  C   UNL A   1      42.311  19.820  26.534  1.00  0.00     0.040 A 
ATOM     67  C   UNL A   1      44.091  20.874  25.351  1.00  0.00     0.040 A 
ATOM     68  F   UNL A   1      44.480  23.153  25.594  1.00  0.00    -0.206 F 
ATOM     69  C   UNL A   1      43.346  19.736  25.616  1.00  0.00     0.006 A 
ENDBRANCH  48  62
BRANCH  49  70
ATOM     70  C   UNL A   1      41.934  30.492  31.895  1.00  0.00     0.057 A 
ATOM     71  C   UNL A   1      42.117  31.883  31.786  1.00  0.00     0.134 A 
ATOM     72  C   UNL A   1      40.627  30.031  32.071  1.00  0.00     0.134 A 
ATOM     73  F   UNL A   1      43.350  32.390  31.624  1.00  0.00    -0.206 F 
ATOM     74  C   UNL A   1      41.037  32.762  31.703  1.00  0.00     0.040 A 
ATOM     75  C   UNL A   1      39.541  30.907  32.012  1.00  0.00     0.040 A 
ATOM     76  F   UNL A   1      40.373  28.719  32.174  1.00  0.00    -0.206 F 
ATOM     77  C   UNL A   1      39.740  32.266  31.776  1.00  0.00     0.006 A 
ENDBRANCH  49  70
BRANCH  61  78
ATOM     78  C   UNL A   1      44.972  24.026  33.151  1.00  0.00     0.057 A 
ATOM     79  C   UNL A   1      44.067  23.023  33.525  1.00  0.00     0.134 A 
ATOM     80  C   UNL A   1      46.177  24.060  33.880  1.00  0.00     0.134 A 
ATOM     81  F   UNL A   1      42.855  22.936  32.955  1.00  0.00    -0.206 F 
ATOM     82  C   UNL A   1      44.363  22.082  34.520  1.00  0.00     0.040 A 
ATOM     83  C   UNL A   1      46.463  23.158  34.909  1.00  0.00     0.040 A 
ATOM     84  F   UNL A   1      47.136  24.960  33.616  1.00  0.00    -0.206 F 
ATOM     85  C   UNL A   1      45.559  22.154  35.223  1.00  0.00     0.006 A 
ENDBRANCH  61  78
ENDBRANCH  35  36
ENDBRANCH  27  30
ENDBRANCH  25  26
ENDBRANCH  24  25
ENDBRANCH   1  24
TORSDOF 13
ENDMDL
MODEL 3
REMARK VINA RESULT:     -12.7      3.625      9.415
REMARK SMILES Cc1ccccc1CNc1ccc(C(=O)NCCCNC(=O)c2ccc(-c3c4nc(c(-c5c(F)cccc5F)c5ccc([nH]5)c(-c5c(F)cccc5F)c5nc(c(-c6c(F)cccc6F)c6ccc3[nH]6)C=C5)C=C4)cc2)c(F)c1F
REMARK SMILES IDX 17 1 16 2 14 3 15 4 13 6 10 7 11 8 79 9 12 10 77 11 80 12
REMARK SMILES IDX 78 13 9 14 8 16 7 17 1 18 2 19 3 20 4 21 6 22 5 23 18 24
REMARK SMILES IDX 19 25 20 26 21 27 22 29 23 30 24 31 76 32 25 33 75 34 26 35
REMARK SMILES IDX 27 36 28 37 69 38 29 39 74 40 68 41 70 42 30 43 73 44 67 45
REMARK SMILES IDX 66 46 31 48 57 49 40 50 56 51 41 52 44 53 55 54 71 55 42 56
REMARK SMILES IDX 43 57 54 59 72 60 45 61 32 62 33 63 38 64 34 65 35 66 37 67
REMARK SMILES IDX 39 68 36 69 58 70 59 71 64 72 60 73 61 74 63 75 65 76 62 77
REMARK SMILES IDX 46 78 47 79 52 80 48 81 49 82 51 83 53 84 50 85
REMARK H PARENT 16 5 9 15 20 28 70 47 44 58
REMARK Flexibility Score: inf
ROOT
ATOM      1  C   UNL A   1      31.996  29.969  27.111  1.00  0.00     0.118 C 
ENDROOT
BRANCH   1   2
ATOM      2  N   UNL A   1      31.533  29.835  25.736  1.00  0.00    -0.352 N 
ATOM      3  C   UNL A   1      31.603  28.828  24.799  1.00  0.00     0.254 C 
ATOM      4  O   UNL A   1      31.056  29.065  23.723  1.00  0.00    -0.269 OA
ATOM      5  H   UNL A   1      31.071  30.639  25.405  1.00  0.00     0.163 HD
BRANCH   3   6
ATOM      6  C   UNL A   1      32.287  27.515  25.009  1.00  0.00     0.078 A 
ATOM      7  C   UNL A   1      33.526  24.990  25.495  1.00  0.00     0.074 A 
ATOM      8  C   UNL A   1      34.080  25.902  24.606  1.00  0.00     0.030 A 
ATOM      9  C   UNL A   1      32.311  25.338  26.097  1.00  0.00     0.182 A 
ATOM     10  C   UNL A   1      33.471  27.138  24.372  1.00  0.00     0.019 A 
ATOM     11  C   UNL A   1      31.703  26.575  25.867  1.00  0.00     0.173 A 
ATOM     12  F   UNL A   1      31.740  24.475  26.954  1.00  0.00    -0.201 F 
ATOM     13  F   UNL A   1      30.562  26.837  26.524  1.00  0.00    -0.203 F 
BRANCH   7  14
ATOM     14  N   UNL A   1      34.181  23.818  25.832  1.00  0.00    -0.379 N 
ATOM     15  H   UNL A   1      34.180  23.519  26.770  1.00  0.00     0.161 HD
BRANCH  14  16
ATOM     16  C   UNL A   1      34.870  23.021  24.828  1.00  0.00     0.149 C 
BRANCH  16  17
ATOM     17  C   UNL A   1      34.042  21.802  24.485  1.00  0.00    -0.026 A 
ATOM     18  C   UNL A   1      32.626  22.989  22.693  1.00  0.00     0.044 C 
ATOM     19  C   UNL A   1      33.028  21.792  23.509  1.00  0.00    -0.046 A 
ATOM     20  C   UNL A   1      32.307  20.601  23.293  1.00  0.00     0.004 A 
ATOM     21  C   UNL A   1      32.601  19.434  23.998  1.00  0.00     0.000 A 
ATOM     22  C   UNL A   1      34.344  20.600  25.166  1.00  0.00     0.006 A 
ATOM     23  C   UNL A   1      33.628  19.430  24.931  1.00  0.00     0.000 A 
ENDBRANCH  16  17
ENDBRANCH  14  16
ENDBRANCH   7  14
ENDBRANCH   3   6
ENDBRANCH   1   2
BRANCH   1  24
ATOM     24  C   UNL A   1      33.141  30.981  27.232  1.00  0.00     0.042 C 
BRANCH  24  25
ATOM     25  C   UNL A   1      34.433  30.390  27.759  1.00  0.00     0.118 C 
BRANCH  25  26
ATOM     26  N   UNL A   1      35.132  31.253  28.706  1.00  0.00    -0.352 N 
ATOM     27  C   UNL A   1      36.310  31.003  29.397  1.00  0.00     0.251 C 
ATOM     28  H   UNL A   1      34.714  32.126  28.876  1.00  0.00     0.163 HD
ATOM     29  O   UNL A   1      36.775  31.824  30.153  1.00  0.00    -0.269 OA
BRANCH  27  30
ATOM     30  C   UNL A   1      37.053  29.757  29.071  1.00  0.00     0.039 A 
ATOM     31  C   UNL A   1      37.394  28.921  30.136  1.00  0.00     0.014 A 
ATOM     32  C   UNL A   1      37.626  29.582  27.815  1.00  0.00     0.014 A 
ATOM     33  C   UNL A   1      38.507  28.095  30.013  1.00  0.00     0.010 A 
ATOM     34  C   UNL A   1      38.783  28.833  27.718  1.00  0.00     0.010 A 
ATOM     35  C   UNL A   1      39.264  28.150  28.840  1.00  0.00    -0.014 A 
BRANCH  35  36
ATOM     36  C   UNL A   1      40.613  27.606  28.754  1.00  0.00     0.031 A 
ATOM     37  C   UNL A   1      40.829  26.203  28.363  1.00  0.00     0.074 A 
ATOM     38  C   UNL A   1      41.687  28.377  29.037  1.00  0.00     0.049 A 
ATOM     39  N   UNL A   1      41.814  25.484  28.787  1.00  0.00    -0.248 NA
ATOM     40  C   UNL A   1      39.923  25.489  27.475  1.00  0.00     0.031 C 
ATOM     41  C   UNL A   1      43.093  28.035  28.841  1.00  0.00     0.029 A 
ATOM     42  N   UNL A   1      41.717  29.560  29.785  1.00  0.00    -0.354 N 
ATOM     43  C   UNL A   1      41.833  24.331  28.042  1.00  0.00     0.074 A 
ATOM     44  C   UNL A   1      40.599  24.353  27.284  1.00  0.00     0.031 C 
ATOM     45  C   UNL A   1      43.834  28.768  29.685  1.00  0.00     0.029 A 
ATOM     46  C   UNL A   1      42.924  29.527  30.522  1.00  0.00     0.049 A 
ATOM     47  H   UNL A   1      41.035  30.270  29.796  1.00  0.00     0.167 HD
ATOM     48  C   UNL A   1      42.945  23.540  28.043  1.00  0.00     0.037 A 
ATOM     49  C   UNL A   1      42.913  29.540  31.886  1.00  0.00     0.037 A 
ATOM     50  C   UNL A   1      44.001  24.074  28.902  1.00  0.00     0.049 A 
ATOM     51  C   UNL A   1      43.492  28.300  32.532  1.00  0.00     0.074 A 
ATOM     52  C   UNL A   1      45.154  24.806  28.669  1.00  0.00     0.029 A 
ATOM     53  N   UNL A   1      43.796  24.119  30.270  1.00  0.00    -0.354 N 
ATOM     54  N   UNL A   1      43.990  27.289  31.875  1.00  0.00    -0.248 NA
ATOM     55  C   UNL A   1      43.456  28.059  33.976  1.00  0.00     0.031 C 
ATOM     56  C   UNL A   1      45.646  25.280  29.917  1.00  0.00     0.029 A 
ATOM     57  C   UNL A   1      44.788  24.840  30.907  1.00  0.00     0.049 A 
ATOM     58  H   UNL A   1      43.039  23.692  30.731  1.00  0.00     0.167 HD
ATOM     59  C   UNL A   1      44.260  26.269  32.750  1.00  0.00     0.074 A 
ATOM     60  C   UNL A   1      43.921  26.802  34.056  1.00  0.00     0.031 C 
ATOM     61  C   UNL A   1      44.695  25.042  32.342  1.00  0.00     0.037 A 
BRANCH  48  62
ATOM     62  C   UNL A   1      43.152  22.423  27.051  1.00  0.00     0.057 A 
ATOM     63  C   UNL A   1      42.409  21.230  27.129  1.00  0.00     0.134 A 
ATOM     64  C   UNL A   1      44.104  22.449  26.018  1.00  0.00     0.134 A 
ATOM     65  F   UNL A   1      41.381  21.093  27.975  1.00  0.00    -0.206 F 
ATOM     66  C   UNL A   1      42.689  20.108  26.340  1.00  0.00     0.040 A 
ATOM     67  C   UNL A   1      44.436  21.317  25.261  1.00  0.00     0.040 A 
ATOM     68  F   UNL A   1      44.723  23.587  25.669  1.00  0.00    -0.206 F 
ATOM     69  C   UNL A   1      43.738  20.132  25.434  1.00  0.00     0.006 A 
ENDBRANCH  48  62
BRANCH  49  70
ATOM     70  C   UNL A   1      41.792  30.351  32.427  1.00  0.00     0.057 A 
ATOM     71  C   UNL A   1      41.888  31.753  32.347  1.00  0.00     0.134 A 
ATOM     72  C   UNL A   1      40.520  29.806  32.616  1.00  0.00     0.134 A 
ATOM     73  F   UNL A   1      43.084  32.339  32.175  1.00  0.00    -0.206 F 
ATOM     74  C   UNL A   1      40.754  32.565  32.303  1.00  0.00     0.040 A 
ATOM     75  C   UNL A   1      39.380  30.615  32.596  1.00  0.00     0.040 A 
ATOM     76  F   UNL A   1      40.349  28.479  32.693  1.00  0.00    -0.206 F 
ATOM     77  C   UNL A   1      39.491  31.989  32.387  1.00  0.00     0.006 A 
ENDBRANCH  49  70
BRANCH  61  78
ATOM     78  C   UNL A   1      45.056  23.930  33.287  1.00  0.00     0.057 A 
ATOM     79  C   UNL A   1      44.161  22.906  33.621  1.00  0.00     0.134 A 
ATOM     80  C   UNL A   1      46.277  23.925  33.991  1.00  0.00     0.134 A 
ATOM     81  F   UNL A   1      42.936  22.850  33.073  1.00  0.00    -0.206 F 
ATOM     82  C   UNL A   1      44.478  21.910  34.554  1.00  0.00     0.040 A 
ATOM     83  C   UNL A   1      46.585  22.965  34.959  1.00  0.00     0.040 A 
ATOM     84  F   UNL A   1      47.229  24.840  33.758  1.00  0.00    -0.206 F 
ATOM     85  C   UNL A   1      45.689  21.943  35.233  1.00  0.00     0.006 A 
ENDBRANCH  61  78
ENDBRANCH  35  36
ENDBRANCH  27  30
ENDBRANCH  25  26
ENDBRANCH  24  25
ENDBRANCH   1  24
TORSDOF 13
ENDMDL
