MODEL 1
REMARK VINA RESULT:     -11.9      0.000      0.000
REMARK SMILES O=C(NCCCNC(=O)c1ccc(-c2c3nc(c(-c4c(F)cccc4F)c4ccc([nH]4)c(-c4c(F)cccc4F)c4nc(c(-c5c(F)cccc5F)c5ccc2[nH]5)C=C4)C=C3)cc1)C1=NN(c2ccc([N+](=O)[O-])cc2)[C@H](c2ccccc2)C1
REMARK SMILES IDX 5 1 4 2 3 3 1 4 2 5 64 7 65 8 83 9 66 10 76 11 67 12 68 13
REMARK SMILES IDX 75 14 69 15 74 16 70 17 71 18 72 19 73 20 77 21 78 22 82 23
REMARK SMILES IDX 79 24 81 25 80 26 6 27 7 28 8 29 9 31 10 32 11 33 63 34
REMARK SMILES IDX 12 35 62 36 13 37 14 38 15 39 56 40 16 41 61 42 55 43 57 44
REMARK SMILES IDX 17 45 60 46 54 47 53 48 18 50 44 51 27 52 43 53 28 54 31 55
REMARK SMILES IDX 42 56 58 57 29 58 30 59 41 61 59 62 32 63 19 64 20 65 25 66
REMARK SMILES IDX 21 67 22 68 24 69 26 70 23 71 45 72 46 73 51 74 47 75 48 76
REMARK SMILES IDX 50 77 52 78 49 79 33 80 34 81 39 82 35 83 36 84 38 85 40 86
REMARK SMILES IDX 37 87
REMARK H PARENT 3 6 7 30 57 49 31 60
REMARK Flexibility Score: inf
ROOT
ATOM      1  C   UNL A   1      35.962  23.654  25.665  1.00  0.00     0.042 C 
ENDROOT
BRANCH   1   2
ATOM      2  C   UNL A   1      34.767  24.090  24.827  1.00  0.00     0.118 C 
BRANCH   2   3
ATOM      3  N   UNL A   1      33.719  23.078  24.769  1.00  0.00    -0.351 N 
ATOM      4  O   UNL A   1      31.577  22.303  24.806  1.00  0.00    -0.268 OA
ATOM      5  C   UNL A   1      32.359  23.248  24.869  1.00  0.00     0.267 C 
ATOM      6  H   UNL A   1      34.026  22.151  24.640  1.00  0.00     0.163 HD
BRANCH   5   7
ATOM      7  C   UNL A   1      31.806  24.620  25.121  1.00  0.00     0.128 C 
ATOM      8  N   UNL A   1      31.254  25.335  24.195  1.00  0.00    -0.171 NA
ATOM      9  C   UNL A   1      31.839  25.210  26.490  1.00  0.00     0.096 C 
ATOM     10  N   UNL A   1      31.081  26.569  24.723  1.00  0.00    -0.257 N 
ATOM     11  C   UNL A   1      31.375  26.643  26.168  1.00  0.00     0.144 C 
BRANCH  10  12
ATOM     12  C   UNL A   1      30.311  27.474  24.011  1.00  0.00     0.061 A 
ATOM     13  C   UNL A   1      30.870  28.655  23.499  1.00  0.00     0.035 A 
ATOM     14  C   UNL A   1      28.933  27.272  23.856  1.00  0.00     0.035 A 
ATOM     15  C   UNL A   1      30.089  29.584  22.804  1.00  0.00     0.088 A 
ATOM     16  C   UNL A   1      28.136  28.185  23.160  1.00  0.00     0.088 A 
ATOM     17  C   UNL A   1      28.723  29.337  22.628  1.00  0.00     0.269 A 
BRANCH  17  18
ATOM     18  N   UNL A   1      27.897  30.292  21.883  1.00  0.00     0.062 N 
ATOM     19  O   UNL A   1      27.986  30.291  20.647  1.00  0.00    -0.258 OA
ATOM     20  O   UNL A   1      27.152  31.040  22.533  1.00  0.00    -0.258 OA
ENDBRANCH  17  18
ENDBRANCH  10  12
BRANCH  11  21
ATOM     21  C   UNL A   1      32.339  27.768  26.523  1.00  0.00    -0.023 A 
ATOM     22  C   UNL A   1      33.735  27.681  26.401  1.00  0.00     0.006 A 
ATOM     23  C   UNL A   1      31.803  28.982  27.001  1.00  0.00     0.006 A 
ATOM     24  C   UNL A   1      34.557  28.760  26.748  1.00  0.00     0.000 A 
ATOM     25  C   UNL A   1      32.621  30.072  27.302  1.00  0.00     0.000 A 
ATOM     26  C   UNL A   1      34.001  29.958  27.184  1.00  0.00     0.000 A 
ENDBRANCH  11  21
ENDBRANCH   5   7
ENDBRANCH   2   3
ENDBRANCH   1   2
BRANCH   1  27
ATOM     27  C   UNL A   1      37.297  23.716  24.938  1.00  0.00     0.118 C 
BRANCH  27  28
ATOM     28  N   UNL A   1      38.263  22.752  25.442  1.00  0.00    -0.352 N 
ATOM     29  C   UNL A   1      39.348  22.911  26.265  1.00  0.00     0.251 C 
ATOM     30  H   UNL A   1      38.111  21.827  25.141  1.00  0.00     0.163 HD
ATOM     31  O   UNL A   1      40.111  21.963  26.433  1.00  0.00    -0.269 OA
BRANCH  29  32
ATOM     32  C   UNL A   1      39.630  24.201  26.934  1.00  0.00     0.039 A 
ATOM     33  C   UNL A   1      39.115  24.405  28.219  1.00  0.00     0.014 A 
ATOM     34  C   UNL A   1      40.345  25.224  26.307  1.00  0.00     0.014 A 
ATOM     35  C   UNL A   1      39.361  25.607  28.887  1.00  0.00     0.010 A 
ATOM     36  C   UNL A   1      40.664  26.387  27.008  1.00  0.00     0.010 A 
ATOM     37  C   UNL A   1      40.167  26.596  28.301  1.00  0.00    -0.014 A 
BRANCH  37  38
ATOM     38  C   UNL A   1      40.484  27.847  29.037  1.00  0.00     0.031 A 
ATOM     39  C   UNL A   1      39.478  28.962  29.132  1.00  0.00     0.074 A 
ATOM     40  C   UNL A   1      41.701  27.992  29.600  1.00  0.00     0.049 A 
ATOM     41  N   UNL A   1      39.579  30.115  29.744  1.00  0.00    -0.248 NA
ATOM     42  C   UNL A   1      38.201  28.768  28.427  1.00  0.00     0.031 C 
ATOM     43  C   UNL A   1      42.788  27.015  29.528  1.00  0.00     0.029 A 
ATOM     44  N   UNL A   1      42.224  29.018  30.346  1.00  0.00    -0.354 N 
ATOM     45  C   UNL A   1      38.387  30.785  29.491  1.00  0.00     0.074 A 
ATOM     46  C   UNL A   1      37.603  29.934  28.622  1.00  0.00     0.031 C 
ATOM     47  C   UNL A   1      43.835  27.469  30.235  1.00  0.00     0.029 A 
ATOM     48  C   UNL A   1      43.506  28.780  30.783  1.00  0.00     0.049 A 
ATOM     49  H   UNL A   1      41.730  29.844  30.549  1.00  0.00     0.167 HD
ATOM     50  C   UNL A   1      37.971  31.985  29.961  1.00  0.00     0.037 A 
ATOM     51  C   UNL A   1      44.320  29.532  31.547  1.00  0.00     0.037 A 
ATOM     52  C   UNL A   1      38.741  32.823  30.843  1.00  0.00     0.049 A 
ATOM     53  C   UNL A   1      43.826  30.850  32.073  1.00  0.00     0.074 A 
ATOM     54  C   UNL A   1      38.384  34.031  31.418  1.00  0.00     0.029 A 
ATOM     55  N   UNL A   1      40.027  32.539  31.280  1.00  0.00    -0.354 N 
ATOM     56  N   UNL A   1      42.669  31.435  31.885  1.00  0.00    -0.248 NA
ATOM     57  C   UNL A   1      44.751  31.605  32.930  1.00  0.00     0.031 C 
ATOM     58  C   UNL A   1      39.469  34.498  32.169  1.00  0.00     0.029 A 
ATOM     59  C   UNL A   1      40.483  33.557  32.102  1.00  0.00     0.049 A 
ATOM     60  H   UNL A   1      40.539  31.733  31.040  1.00  0.00     0.167 HD
ATOM     61  C   UNL A   1      42.715  32.612  32.621  1.00  0.00     0.074 A 
ATOM     62  C   UNL A   1      44.007  32.646  33.275  1.00  0.00     0.031 C 
ATOM     63  C   UNL A   1      41.772  33.579  32.746  1.00  0.00     0.037 A 
BRANCH  50  64
ATOM     64  C   UNL A   1      36.612  32.461  29.533  1.00  0.00     0.057 A 
ATOM     65  C   UNL A   1      35.455  32.142  30.259  1.00  0.00     0.134 A 
ATOM     66  C   UNL A   1      36.458  33.273  28.402  1.00  0.00     0.134 A 
ATOM     67  F   UNL A   1      35.529  31.358  31.345  1.00  0.00    -0.206 F 
ATOM     68  C   UNL A   1      34.195  32.590  29.859  1.00  0.00     0.040 A 
ATOM     69  C   UNL A   1      35.207  33.751  28.009  1.00  0.00     0.040 A 
ATOM     70  F   UNL A   1      37.523  33.622  27.665  1.00  0.00    -0.206 F 
ATOM     71  C   UNL A   1      34.069  33.403  28.735  1.00  0.00     0.006 A 
ENDBRANCH  50  64
BRANCH  51  72
ATOM     72  C   UNL A   1      45.675  29.036  31.898  1.00  0.00     0.057 A 
ATOM     73  C   UNL A   1      46.774  29.300  31.072  1.00  0.00     0.134 A 
ATOM     74  C   UNL A   1      45.902  28.283  33.054  1.00  0.00     0.134 A 
ATOM     75  F   UNL A   1      46.616  30.002  29.940  1.00  0.00    -0.206 F 
ATOM     76  C   UNL A   1      48.047  28.812  31.371  1.00  0.00     0.040 A 
ATOM     77  C   UNL A   1      47.174  27.811  33.380  1.00  0.00     0.040 A 
ATOM     78  F   UNL A   1      44.892  28.005  33.891  1.00  0.00    -0.206 F 
ATOM     79  C   UNL A   1      48.250  28.067  32.532  1.00  0.00     0.006 A 
ENDBRANCH  51  72
BRANCH  63  80
ATOM     80  C   UNL A   1      42.098  34.735  33.648  1.00  0.00     0.057 A 
ATOM     81  C   UNL A   1      41.761  34.733  35.008  1.00  0.00     0.134 A 
ATOM     82  C   UNL A   1      42.759  35.864  33.147  1.00  0.00     0.134 A 
ATOM     83  F   UNL A   1      41.115  33.686  35.546  1.00  0.00    -0.206 F 
ATOM     84  C   UNL A   1      42.035  35.828  35.829  1.00  0.00     0.040 A 
ATOM     85  C   UNL A   1      43.065  36.952  33.965  1.00  0.00     0.040 A 
ATOM     86  F   UNL A   1      43.120  35.927  31.857  1.00  0.00    -0.206 F 
ATOM     87  C   UNL A   1      42.692  36.940  35.308  1.00  0.00     0.006 A 
ENDBRANCH  63  80
ENDBRANCH  37  38
ENDBRANCH  29  32
ENDBRANCH  27  28
ENDBRANCH   1  27
TORSDOF 13
ENDMDL
MODEL 2
REMARK VINA RESULT:     -11.8      2.058      2.854
REMARK SMILES O=C(NCCCNC(=O)c1ccc(-c2c3nc(c(-c4c(F)cccc4F)c4ccc([nH]4)c(-c4c(F)cccc4F)c4nc(c(-c5c(F)cccc5F)c5ccc2[nH]5)C=C4)C=C3)cc1)C1=NN(c2ccc([N+](=O)[O-])cc2)[C@H](c2ccccc2)C1
REMARK SMILES IDX 5 1 4 2 3 3 1 4 2 5 64 7 65 8 83 9 66 10 76 11 67 12 68 13
REMARK SMILES IDX 75 14 69 15 74 16 70 17 71 18 72 19 73 20 77 21 78 22 82 23
REMARK SMILES IDX 79 24 81 25 80 26 6 27 7 28 8 29 9 31 10 32 11 33 63 34
REMARK SMILES IDX 12 35 62 36 13 37 14 38 15 39 56 40 16 41 61 42 55 43 57 44
REMARK SMILES IDX 17 45 60 46 54 47 53 48 18 50 44 51 27 52 43 53 28 54 31 55
REMARK SMILES IDX 42 56 58 57 29 58 30 59 41 61 59 62 32 63 19 64 20 65 25 66
REMARK SMILES IDX 21 67 22 68 24 69 26 70 23 71 45 72 46 73 51 74 47 75 48 76
REMARK SMILES IDX 50 77 52 78 49 79 33 80 34 81 39 82 35 83 36 84 38 85 40 86
REMARK SMILES IDX 37 87
REMARK H PARENT 3 6 7 30 57 49 31 60
REMARK Flexibility Score: inf
ROOT
ATOM      1  C   UNL A   1      36.830  23.715  25.089  1.00  0.00     0.042 C 
ENDROOT
BRANCH   1   2
ATOM      2  C   UNL A   1      35.377  24.149  25.226  1.00  0.00     0.118 C 
BRANCH   2   3
ATOM      3  N   UNL A   1      34.443  23.188  24.653  1.00  0.00    -0.351 N 
ATOM      4  O   UNL A   1      32.419  22.445  23.917  1.00  0.00    -0.268 OA
ATOM      5  C   UNL A   1      33.100  23.343  24.405  1.00  0.00     0.267 C 
ATOM      6  H   UNL A   1      34.824  22.312  24.412  1.00  0.00     0.163 HD
BRANCH   5   7
ATOM      7  C   UNL A   1      32.424  24.626  24.792  1.00  0.00     0.128 C 
ATOM      8  N   UNL A   1      31.790  25.368  23.944  1.00  0.00    -0.171 NA
ATOM      9  C   UNL A   1      32.425  25.084  26.211  1.00  0.00     0.096 C 
ATOM     10  N   UNL A   1      31.511  26.525  24.589  1.00  0.00    -0.257 N 
ATOM     11  C   UNL A   1      31.821  26.489  26.032  1.00  0.00     0.144 C 
BRANCH  10  12
ATOM     12  C   UNL A   1      30.646  27.415  23.973  1.00  0.00     0.061 A 
ATOM     13  C   UNL A   1      29.295  27.092  23.776  1.00  0.00     0.035 A 
ATOM     14  C   UNL A   1      31.119  28.628  23.455  1.00  0.00     0.035 A 
ATOM     15  C   UNL A   1      28.425  27.976  23.129  1.00  0.00     0.088 A 
ATOM     16  C   UNL A   1      30.266  29.527  22.810  1.00  0.00     0.088 A 
ATOM     17  C   UNL A   1      28.916  29.199  22.658  1.00  0.00     0.269 A 
BRANCH  17  18
ATOM     18  N   UNL A   1      28.011  30.144  21.997  1.00  0.00     0.062 N 
ATOM     19  O   UNL A   1      28.028  30.190  20.758  1.00  0.00    -0.258 OA
ATOM     20  O   UNL A   1      27.275  30.836  22.715  1.00  0.00    -0.258 OA
ENDBRANCH  17  18
ENDBRANCH  10  12
BRANCH  11  21
ATOM     21  C   UNL A   1      32.681  27.664  26.485  1.00  0.00    -0.023 A 
ATOM     22  C   UNL A   1      34.081  27.701  26.392  1.00  0.00     0.006 A 
ATOM     23  C   UNL A   1      32.036  28.794  27.029  1.00  0.00     0.006 A 
ATOM     24  C   UNL A   1      34.803  28.818  26.830  1.00  0.00     0.000 A 
ATOM     25  C   UNL A   1      32.753  29.924  27.423  1.00  0.00     0.000 A 
ATOM     26  C   UNL A   1      34.140  29.932  27.332  1.00  0.00     0.000 A 
ENDBRANCH  11  21
ENDBRANCH   5   7
ENDBRANCH   2   3
ENDBRANCH   1   2
BRANCH   1  27
ATOM     27  C   UNL A   1      37.705  24.057  26.287  1.00  0.00     0.118 C 
BRANCH  27  28
ATOM     28  N   UNL A   1      39.111  23.756  26.066  1.00  0.00    -0.352 N 
ATOM     29  C   UNL A   1      40.247  24.390  26.501  1.00  0.00     0.251 C 
ATOM     30  H   UNL A   1      39.276  22.959  25.511  1.00  0.00     0.163 HD
ATOM     31  O   UNL A   1      41.335  24.032  26.056  1.00  0.00    -0.269 OA
BRANCH  29  32
ATOM     32  C   UNL A   1      40.187  25.505  27.472  1.00  0.00     0.039 A 
ATOM     33  C   UNL A   1      39.342  25.373  28.579  1.00  0.00     0.014 A 
ATOM     34  C   UNL A   1      40.904  26.690  27.290  1.00  0.00     0.014 A 
ATOM     35  C   UNL A   1      39.259  26.400  29.522  1.00  0.00     0.010 A 
ATOM     36  C   UNL A   1      40.889  27.677  28.275  1.00  0.00     0.010 A 
ATOM     37  C   UNL A   1      40.057  27.549  29.396  1.00  0.00    -0.014 A 
BRANCH  37  38
ATOM     38  C   UNL A   1      40.020  28.613  30.432  1.00  0.00     0.031 A 
ATOM     39  C   UNL A   1      39.027  29.739  30.343  1.00  0.00     0.074 A 
ATOM     40  C   UNL A   1      40.909  28.581  31.445  1.00  0.00     0.049 A 
ATOM     41  N   UNL A   1      38.842  30.744  31.163  1.00  0.00    -0.248 NA
ATOM     42  C   UNL A   1      38.140  29.755  29.169  1.00  0.00     0.031 C 
ATOM     43  C   UNL A   1      41.964  27.580  31.613  1.00  0.00     0.029 A 
ATOM     44  N   UNL A   1      41.064  29.412  32.525  1.00  0.00    -0.354 N 
ATOM     45  C   UNL A   1      37.829  31.512  30.601  1.00  0.00     0.074 A 
ATOM     46  C   UNL A   1      37.479  30.890  29.342  1.00  0.00     0.031 C 
ATOM     47  C   UNL A   1      42.631  27.832  32.750  1.00  0.00     0.029 A 
ATOM     48  C   UNL A   1      42.073  29.026  33.375  1.00  0.00     0.049 A 
ATOM     49  H   UNL A   1      40.505  30.208  32.678  1.00  0.00     0.167 HD
ATOM     50  C   UNL A   1      37.225  32.617  31.099  1.00  0.00     0.037 A 
ATOM     51  C   UNL A   1      42.495  29.570  34.532  1.00  0.00     0.037 A 
ATOM     52  C   UNL A   1      37.557  33.225  32.362  1.00  0.00     0.049 A 
ATOM     53  C   UNL A   1      41.795  30.784  35.073  1.00  0.00     0.074 A 
ATOM     54  C   UNL A   1      36.966  34.315  32.978  1.00  0.00     0.029 A 
ATOM     55  N   UNL A   1      38.572  32.794  33.203  1.00  0.00    -0.354 N 
ATOM     56  N   UNL A   1      40.790  31.455  34.565  1.00  0.00    -0.248 NA
ATOM     57  C   UNL A   1      42.281  31.307  36.357  1.00  0.00     0.031 C 
ATOM     58  C   UNL A   1      37.650  34.568  34.173  1.00  0.00     0.029 A 
ATOM     59  C   UNL A   1      38.635  33.606  34.324  1.00  0.00     0.049 A 
ATOM     60  H   UNL A   1      39.162  32.025  33.028  1.00  0.00     0.167 HD
ATOM     61  C   UNL A   1      40.505  32.462  35.480  1.00  0.00     0.074 A 
ATOM     62  C   UNL A   1      41.431  32.298  36.582  1.00  0.00     0.031 C 
ATOM     63  C   UNL A   1      39.562  33.434  35.414  1.00  0.00     0.037 A 
BRANCH  50  64
ATOM     64  C   UNL A   1      36.133  33.239  30.275  1.00  0.00     0.057 A 
ATOM     65  C   UNL A   1      36.414  34.000  29.131  1.00  0.00     0.134 A 
ATOM     66  C   UNL A   1      34.786  33.050  30.607  1.00  0.00     0.134 A 
ATOM     67  F   UNL A   1      37.683  34.231  28.764  1.00  0.00    -0.206 F 
ATOM     68  C   UNL A   1      35.396  34.573  28.367  1.00  0.00     0.040 A 
ATOM     69  C   UNL A   1      33.759  33.594  29.834  1.00  0.00     0.040 A 
ATOM     70  F   UNL A   1      34.445  32.328  31.685  1.00  0.00    -0.206 F 
ATOM     71  C   UNL A   1      34.064  34.365  28.714  1.00  0.00     0.006 A 
ENDBRANCH  50  64
BRANCH  51  72
ATOM     72  C   UNL A   1      43.614  28.945  35.281  1.00  0.00     0.057 A 
ATOM     73  C   UNL A   1      43.371  27.993  36.279  1.00  0.00     0.134 A 
ATOM     74  C   UNL A   1      44.946  29.287  35.026  1.00  0.00     0.134 A 
ATOM     75  F   UNL A   1      42.113  27.638  36.580  1.00  0.00    -0.206 F 
ATOM     76  C   UNL A   1      44.410  27.423  37.014  1.00  0.00     0.040 A 
ATOM     77  C   UNL A   1      45.998  28.705  35.735  1.00  0.00     0.040 A 
ATOM     78  F   UNL A   1      45.246  30.184  34.076  1.00  0.00    -0.206 F 
ATOM     79  C   UNL A   1      45.731  27.776  36.739  1.00  0.00     0.006 A 
ENDBRANCH  51  72
BRANCH  63  80
ATOM     80  C   UNL A   1      39.470  34.372  36.583  1.00  0.00     0.057 A 
ATOM     81  C   UNL A   1      38.741  34.051  37.736  1.00  0.00     0.134 A 
ATOM     82  C   UNL A   1      40.120  35.612  36.553  1.00  0.00     0.134 A 
ATOM     83  F   UNL A   1      38.085  32.884  37.822  1.00  0.00    -0.206 F 
ATOM     84  C   UNL A   1      38.630  34.946  38.801  1.00  0.00     0.040 A 
ATOM     85  C   UNL A   1      40.041  36.503  37.624  1.00  0.00     0.040 A 
ATOM     86  F   UNL A   1      40.843  35.978  35.484  1.00  0.00    -0.206 F 
ATOM     87  C   UNL A   1      39.284  36.175  38.748  1.00  0.00     0.006 A 
ENDBRANCH  63  80
ENDBRANCH  37  38
ENDBRANCH  29  32
ENDBRANCH  27  28
ENDBRANCH   1  27
TORSDOF 13
ENDMDL
MODEL 3
REMARK VINA RESULT:     -11.8      2.999      7.495
REMARK SMILES O=C(NCCCNC(=O)c1ccc(-c2c3nc(c(-c4c(F)cccc4F)c4ccc([nH]4)c(-c4c(F)cccc4F)c4nc(c(-c5c(F)cccc5F)c5ccc2[nH]5)C=C4)C=C3)cc1)C1=NN(c2ccc([N+](=O)[O-])cc2)[C@H](c2ccccc2)C1
REMARK SMILES IDX 5 1 4 2 3 3 1 4 2 5 64 7 65 8 83 9 66 10 76 11 67 12 68 13
REMARK SMILES IDX 75 14 69 15 74 16 70 17 71 18 72 19 73 20 77 21 78 22 82 23
REMARK SMILES IDX 79 24 81 25 80 26 6 27 7 28 8 29 9 31 10 32 11 33 63 34
REMARK SMILES IDX 12 35 62 36 13 37 14 38 15 39 56 40 16 41 61 42 55 43 57 44
REMARK SMILES IDX 17 45 60 46 54 47 53 48 18 50 44 51 27 52 43 53 28 54 31 55
REMARK SMILES IDX 42 56 58 57 29 58 30 59 41 61 59 62 32 63 19 64 20 65 25 66
REMARK SMILES IDX 21 67 22 68 24 69 26 70 23 71 45 72 46 73 51 74 47 75 48 76
REMARK SMILES IDX 50 77 52 78 49 79 33 80 34 81 39 82 35 83 36 84 38 85 40 86
REMARK SMILES IDX 37 87
REMARK H PARENT 3 6 7 30 57 49 31 60
REMARK Flexibility Score: inf
ROOT
ATOM      1  C   UNL A   1      33.284  28.772  23.323  1.00  0.00     0.042 C 
ENDROOT
BRANCH   1   2
ATOM      2  C   UNL A   1      32.280  27.660  23.052  1.00  0.00     0.118 C 
BRANCH   2   3
ATOM      3  N   UNL A   1      32.424  27.080  21.722  1.00  0.00    -0.351 N 
ATOM      4  O   UNL A   1      32.903  25.443  20.212  1.00  0.00    -0.268 OA
ATOM      5  C   UNL A   1      32.819  25.808  21.381  1.00  0.00     0.267 C 
ATOM      6  H   UNL A   1      32.209  27.677  20.969  1.00  0.00     0.163 HD
BRANCH   5   7
ATOM      7  C   UNL A   1      33.218  24.847  22.463  1.00  0.00     0.128 C 
ATOM      8  N   UNL A   1      34.450  24.636  22.793  1.00  0.00    -0.171 NA
ATOM      9  C   UNL A   1      32.182  24.112  23.242  1.00  0.00     0.096 C 
ATOM     10  N   UNL A   1      34.440  23.570  23.628  1.00  0.00    -0.257 N 
ATOM     11  C   UNL A   1      33.085  23.145  24.030  1.00  0.00     0.144 C 
BRANCH  10  12
ATOM     12  C   UNL A   1      35.613  23.265  24.300  1.00  0.00     0.061 A 
ATOM     13  C   UNL A   1      36.390  22.157  23.932  1.00  0.00     0.035 A 
ATOM     14  C   UNL A   1      36.007  24.010  25.420  1.00  0.00     0.035 A 
ATOM     15  C   UNL A   1      37.560  21.830  24.626  1.00  0.00     0.088 A 
ATOM     16  C   UNL A   1      37.174  23.703  26.124  1.00  0.00     0.088 A 
ATOM     17  C   UNL A   1      37.953  22.615  25.716  1.00  0.00     0.269 A 
BRANCH  17  18
ATOM     18  N   UNL A   1      39.187  22.297  26.440  1.00  0.00     0.062 N 
ATOM     19  O   UNL A   1      39.613  23.132  27.251  1.00  0.00    -0.258 OA
ATOM     20  O   UNL A   1      39.729  21.207  26.204  1.00  0.00    -0.258 OA
ENDBRANCH  17  18
ENDBRANCH  10  12
BRANCH  11  21
ATOM     21  C   UNL A   1      32.840  21.656  23.816  1.00  0.00    -0.023 A 
ATOM     22  C   UNL A   1      32.352  21.098  22.624  1.00  0.00     0.006 A 
ATOM     23  C   UNL A   1      33.125  20.772  24.877  1.00  0.00     0.006 A 
ATOM     24  C   UNL A   1      32.153  19.718  22.502  1.00  0.00     0.000 A 
ATOM     25  C   UNL A   1      32.970  19.392  24.740  1.00  0.00     0.000 A 
ATOM     26  C   UNL A   1      32.474  18.865  23.553  1.00  0.00     0.000 A 
ENDBRANCH  11  21
ENDBRANCH   5   7
ENDBRANCH   2   3
ENDBRANCH   1   2
BRANCH   1  27
ATOM     27  C   UNL A   1      33.617  28.975  24.794  1.00  0.00     0.118 C 
BRANCH  27  28
ATOM     28  N   UNL A   1      32.884  30.078  25.395  1.00  0.00    -0.352 N 
ATOM     29  C   UNL A   1      33.112  30.790  26.545  1.00  0.00     0.251 C 
ATOM     30  H   UNL A   1      32.090  30.364  24.889  1.00  0.00     0.163 HD
ATOM     31  O   UNL A   1      32.260  31.589  26.929  1.00  0.00    -0.269 OA
BRANCH  29  32
ATOM     32  C   UNL A   1      34.345  30.600  27.342  1.00  0.00     0.039 A 
ATOM     33  C   UNL A   1      34.608  29.328  27.860  1.00  0.00     0.014 A 
ATOM     34  C   UNL A   1      35.217  31.654  27.626  1.00  0.00     0.014 A 
ATOM     35  C   UNL A   1      35.762  29.105  28.614  1.00  0.00     0.010 A 
ATOM     36  C   UNL A   1      36.412  31.411  28.302  1.00  0.00     0.010 A 
ATOM     37  C   UNL A   1      36.693  30.138  28.814  1.00  0.00    -0.014 A 
BRANCH  37  38
ATOM     38  C   UNL A   1      37.954  29.885  29.558  1.00  0.00     0.031 A 
ATOM     39  C   UNL A   1      38.154  30.438  30.943  1.00  0.00     0.074 A 
ATOM     40  C   UNL A   1      38.939  29.179  28.970  1.00  0.00     0.049 A 
ATOM     41  N   UNL A   1      39.181  30.306  31.745  1.00  0.00    -0.248 NA
ATOM     42  C   UNL A   1      37.069  31.267  31.493  1.00  0.00     0.031 C 
ATOM     43  C   UNL A   1      38.897  28.641  27.609  1.00  0.00     0.029 A 
ATOM     44  N   UNL A   1      40.166  28.789  29.444  1.00  0.00    -0.354 N 
ATOM     45  C   UNL A   1      38.872  31.039  32.884  1.00  0.00     0.074 A 
ATOM     46  C   UNL A   1      37.587  31.662  32.647  1.00  0.00     0.031 C 
ATOM     47  C   UNL A   1      40.028  27.958  27.371  1.00  0.00     0.029 A 
ATOM     48  C   UNL A   1      40.886  28.035  28.548  1.00  0.00     0.049 A 
ATOM     49  H   UNL A   1      40.498  29.025  30.339  1.00  0.00     0.167 HD
ATOM     50  C   UNL A   1      39.578  31.162  34.033  1.00  0.00     0.037 A 
ATOM     51  C   UNL A   1      42.099  27.463  28.666  1.00  0.00     0.037 A 
ATOM     52  C   UNL A   1      40.846  30.526  34.279  1.00  0.00     0.049 A 
ATOM     53  C   UNL A   1      42.853  27.597  29.959  1.00  0.00     0.074 A 
ATOM     54  C   UNL A   1      41.614  30.546  35.431  1.00  0.00     0.029 A 
ATOM     55  N   UNL A   1      41.535  29.755  33.354  1.00  0.00    -0.354 N 
ATOM     56  N   UNL A   1      42.513  28.233  31.054  1.00  0.00    -0.248 NA
ATOM     57  C   UNL A   1      44.155  26.919  30.036  1.00  0.00     0.031 C 
ATOM     58  C   UNL A   1      42.786  29.820  35.190  1.00  0.00     0.029 A 
ATOM     59  C   UNL A   1      42.726  29.307  33.905  1.00  0.00     0.049 A 
ATOM     60  H   UNL A   1      41.224  29.555  32.442  1.00  0.00     0.167 HD
ATOM     61  C   UNL A   1      43.544  28.010  31.958  1.00  0.00     0.074 A 
ATOM     62  C   UNL A   1      44.510  27.162  31.289  1.00  0.00     0.031 C 
ATOM     63  C   UNL A   1      43.679  28.465  33.228  1.00  0.00     0.037 A 
BRANCH  50  64
ATOM     64  C   UNL A   1      38.987  32.015  35.120  1.00  0.00     0.057 A 
ATOM     65  C   UNL A   1      39.082  33.414  35.094  1.00  0.00     0.134 A 
ATOM     66  C   UNL A   1      38.288  31.437  36.187  1.00  0.00     0.134 A 
ATOM     67  F   UNL A   1      39.749  34.032  34.107  1.00  0.00    -0.206 F 
ATOM     68  C   UNL A   1      38.528  34.203  36.104  1.00  0.00     0.040 A 
ATOM     69  C   UNL A   1      37.705  32.217  37.187  1.00  0.00     0.040 A 
ATOM     70  F   UNL A   1      38.153  30.105  36.271  1.00  0.00    -0.206 F 
ATOM     71  C   UNL A   1      37.831  33.605  37.151  1.00  0.00     0.006 A 
ENDBRANCH  50  64
BRANCH  51  72
ATOM     72  C   UNL A   1      42.660  26.673  27.541  1.00  0.00     0.057 A 
ATOM     73  C   UNL A   1      43.332  27.301  26.485  1.00  0.00     0.134 A 
ATOM     74  C   UNL A   1      42.532  25.282  27.489  1.00  0.00     0.134 A 
ATOM     75  F   UNL A   1      43.470  28.635  26.470  1.00  0.00    -0.206 F 
ATOM     76  C   UNL A   1      43.834  26.575  25.404  1.00  0.00     0.040 A 
ATOM     77  C   UNL A   1      43.053  24.540  26.427  1.00  0.00     0.040 A 
ATOM     78  F   UNL A   1      41.908  24.620  28.474  1.00  0.00    -0.206 F 
ATOM     79  C   UNL A   1      43.698  25.188  25.376  1.00  0.00     0.006 A 
ENDBRANCH  51  72
BRANCH  63  80
ATOM     80  C   UNL A   1      44.902  28.026  33.981  1.00  0.00     0.057 A 
ATOM     81  C   UNL A   1      44.923  26.848  34.740  1.00  0.00     0.134 A 
ATOM     82  C   UNL A   1      46.074  28.793  33.945  1.00  0.00     0.134 A 
ATOM     83  F   UNL A   1      43.829  26.076  34.826  1.00  0.00    -0.206 F 
ATOM     84  C   UNL A   1      46.053  26.469  35.467  1.00  0.00     0.040 A 
ATOM     85  C   UNL A   1      47.219  28.409  34.644  1.00  0.00     0.040 A 
ATOM     86  F   UNL A   1      46.126  29.926  33.230  1.00  0.00    -0.206 F 
ATOM     87  C   UNL A   1      47.207  27.249  35.417  1.00  0.00     0.006 A 
ENDBRANCH  63  80
ENDBRANCH  37  38
ENDBRANCH  29  32
ENDBRANCH  27  28
ENDBRANCH   1  27
TORSDOF 13
ENDMDL
