MODEL 1
REMARK VINA RESULT:     -10.5      0.000      0.000
REMARK SMILES O=C(NCCCNC(=O)[C@H]1C=C[C@@H](NS(=O)(=O)c2ccc(Br)cc2)C1)c1ccc(-c2c3nc(c(-c4c(F)cccc4F)c4ccc([nH]4)c(-c4c(F)cccc4F)c4nc(c(-c5c(F)cccc5F)c5ccc2[nH]5)C=C4)C=C3)cc1
REMARK SMILES IDX 5 1 4 2 3 3 1 4 2 5 26 7 27 8 79 9 28 10 78 11 29 12 30 13
REMARK SMILES IDX 31 14 72 15 32 16 77 17 71 18 73 19 33 20 76 21 70 22 69 23
REMARK SMILES IDX 34 25 60 26 43 27 59 28 44 29 47 30 58 31 74 32 45 33 46 34
REMARK SMILES IDX 57 36 75 37 48 38 35 39 36 40 41 41 37 42 38 43 40 44 42 45
REMARK SMILES IDX 39 46 61 47 62 48 67 49 63 50 64 51 66 52 68 53 65 54 49 55
REMARK SMILES IDX 50 56 55 57 51 58 52 59 54 60 56 61 53 62 6 63 7 64 8 65
REMARK SMILES IDX 9 67 10 68 11 69 25 70 12 71 13 72 14 73 15 75 16 76 17 77
REMARK SMILES IDX 18 78 19 79 24 80 20 81 23 82 21 83 22 84
REMARK H PARENT 3 6 73 24 47 35 7 66 14 74
REMARK Flexibility Score: inf
ROOT
ATOM      1  C   UNL A   1      32.882  36.839  30.849  1.00  0.00     0.042 C 
ENDROOT
BRANCH   1   2
ATOM      2  C   UNL A   1      33.421  36.537  29.460  1.00  0.00     0.118 C 
BRANCH   2   3
ATOM      3  N   UNL A   1      32.623  35.536  28.770  1.00  0.00    -0.352 N 
ATOM      4  O   UNL A   1      32.228  33.726  27.498  1.00  0.00    -0.269 OA
ATOM      5  C   UNL A   1      32.994  34.320  28.250  1.00  0.00     0.251 C 
ATOM      6  H   UNL A   1      31.672  35.765  28.658  1.00  0.00     0.163 HD
BRANCH   5   7
ATOM      7  C   UNL A   1      34.306  33.723  28.588  1.00  0.00     0.039 A 
ATOM      8  C   UNL A   1      35.482  34.204  28.010  1.00  0.00     0.014 A 
ATOM      9  C   UNL A   1      34.370  32.707  29.549  1.00  0.00     0.014 A 
ATOM     10  C   UNL A   1      36.695  33.587  28.287  1.00  0.00     0.010 A 
ATOM     11  C   UNL A   1      35.606  32.156  29.904  1.00  0.00     0.010 A 
ATOM     12  C   UNL A   1      36.778  32.581  29.263  1.00  0.00    -0.014 A 
BRANCH  12  13
ATOM     13  C   UNL A   1      38.120  32.082  29.652  1.00  0.00     0.031 A 
ATOM     14  C   UNL A   1      38.999  32.842  30.601  1.00  0.00     0.074 A 
ATOM     15  C   UNL A   1      38.513  30.883  29.175  1.00  0.00     0.049 A 
ATOM     16  N   UNL A   1      40.163  32.500  31.095  1.00  0.00    -0.248 NA
ATOM     17  C   UNL A   1      38.519  34.158  31.050  1.00  0.00     0.031 C 
ATOM     18  C   UNL A   1      37.751  30.070  28.220  1.00  0.00     0.029 A 
ATOM     19  N   UNL A   1      39.620  30.123  29.445  1.00  0.00    -0.354 N 
ATOM     20  C   UNL A   1      40.557  33.556  31.907  1.00  0.00     0.074 A 
ATOM     21  C   UNL A   1      39.525  34.566  31.813  1.00  0.00     0.031 C 
ATOM     22  C   UNL A   1      38.379  28.901  28.038  1.00  0.00     0.029 A 
ATOM     23  C   UNL A   1      39.615  28.904  28.811  1.00  0.00     0.049 A 
ATOM     24  H   UNL A   1      40.347  30.421  30.038  1.00  0.00     0.167 HD
ATOM     25  C   UNL A   1      41.673  33.662  32.669  1.00  0.00     0.037 A 
ATOM     26  C   UNL A   1      40.510  27.900  28.840  1.00  0.00     0.037 A 
ATOM     27  C   UNL A   1      42.693  32.648  32.759  1.00  0.00     0.049 A 
ATOM     28  C   UNL A   1      41.732  28.047  29.696  1.00  0.00     0.074 A 
ATOM     29  C   UNL A   1      43.862  32.662  33.502  1.00  0.00     0.029 A 
ATOM     30  N   UNL A   1      42.663  31.436  32.087  1.00  0.00    -0.354 N 
ATOM     31  N   UNL A   1      42.082  29.045  30.470  1.00  0.00    -0.248 NA
ATOM     32  C   UNL A   1      42.685  26.930  29.683  1.00  0.00     0.031 C 
ATOM     33  C   UNL A   1      44.555  31.472  33.254  1.00  0.00     0.029 A 
ATOM     34  C   UNL A   1      43.798  30.697  32.390  1.00  0.00     0.049 A 
ATOM     35  H   UNL A   1      41.944  31.142  31.484  1.00  0.00     0.167 HD
ATOM     36  C   UNL A   1      43.291  28.678  31.039  1.00  0.00     0.074 A 
ATOM     37  C   UNL A   1      43.598  27.349  30.547  1.00  0.00     0.031 C 
ATOM     38  C   UNL A   1      44.086  29.381  31.882  1.00  0.00     0.037 A 
BRANCH  25  39
ATOM     39  C   UNL A   1      41.851  34.923  33.465  1.00  0.00     0.057 A 
ATOM     40  C   UNL A   1      41.112  35.168  34.629  1.00  0.00     0.134 A 
ATOM     41  C   UNL A   1      42.806  35.877  33.093  1.00  0.00     0.134 A 
ATOM     42  F   UNL A   1      40.173  34.299  35.034  1.00  0.00    -0.206 F 
ATOM     43  C   UNL A   1      41.305  36.327  35.386  1.00  0.00     0.040 A 
ATOM     44  C   UNL A   1      43.024  37.028  33.854  1.00  0.00     0.040 A 
ATOM     45  F   UNL A   1      43.553  35.701  31.993  1.00  0.00    -0.206 F 
ATOM     46  C   UNL A   1      42.269  37.256  35.003  1.00  0.00     0.006 A 
ENDBRANCH  25  39
BRANCH  26  47
ATOM     47  C   UNL A   1      40.281  26.681  28.027  1.00  0.00     0.057 A 
ATOM     48  C   UNL A   1      40.878  26.516  26.772  1.00  0.00     0.134 A 
ATOM     49  C   UNL A   1      39.463  25.643  28.493  1.00  0.00     0.134 A 
ATOM     50  F   UNL A   1      41.659  27.481  26.266  1.00  0.00    -0.206 F 
ATOM     51  C   UNL A   1      40.656  25.373  26.002  1.00  0.00     0.040 A 
ATOM     52  C   UNL A   1      39.256  24.482  27.748  1.00  0.00     0.040 A 
ATOM     53  F   UNL A   1      38.871  25.735  29.693  1.00  0.00    -0.206 F 
ATOM     54  C   UNL A   1      39.848  24.349  26.493  1.00  0.00     0.006 A 
ENDBRANCH  26  47
BRANCH  38  55
ATOM     55  C   UNL A   1      45.351  28.710  32.327  1.00  0.00     0.057 A 
ATOM     56  C   UNL A   1      46.564  28.913  31.655  1.00  0.00     0.134 A 
ATOM     57  C   UNL A   1      45.358  27.858  33.436  1.00  0.00     0.134 A 
ATOM     58  F   UNL A   1      46.619  29.706  30.575  1.00  0.00    -0.206 F 
ATOM     59  C   UNL A   1      47.734  28.265  32.055  1.00  0.00     0.040 A 
ATOM     60  C   UNL A   1      46.526  27.225  33.861  1.00  0.00     0.040 A 
ATOM     61  F   UNL A   1      44.230  27.627  34.126  1.00  0.00    -0.206 F 
ATOM     62  C   UNL A   1      47.717  27.421  33.163  1.00  0.00     0.006 A 
ENDBRANCH  38  55
ENDBRANCH  12  13
ENDBRANCH   5   7
ENDBRANCH   2   3
ENDBRANCH   1   2
BRANCH   1  63
ATOM     63  C   UNL A   1      33.778  36.325  31.974  1.00  0.00     0.117 C 
BRANCH  63  64
ATOM     64  N   UNL A   1      33.283  35.077  32.511  1.00  0.00    -0.356 N 
ATOM     65  C   UNL A   1      33.897  33.936  32.907  1.00  0.00     0.226 C 
ATOM     66  H   UNL A   1      32.304  35.050  32.609  1.00  0.00     0.163 HD
ATOM     67  O   UNL A   1      33.132  33.033  33.273  1.00  0.00    -0.274 OA
BRANCH  65  68
ATOM     68  C   UNL A   1      35.419  33.727  32.990  1.00  0.00     0.103 C 
ATOM     69  C   UNL A   1      35.955  34.629  34.069  1.00  0.00    -0.016 C 
ATOM     70  C   UNL A   1      36.058  32.392  33.384  1.00  0.00     0.042 C 
ATOM     71  C   UNL A   1      36.946  34.064  34.765  1.00  0.00    -0.011 C 
ATOM     72  C   UNL A   1      37.290  32.715  34.250  1.00  0.00     0.093 C 
BRANCH  72  73
ATOM     73  N   UNL A   1      37.427  31.725  35.308  1.00  0.00    -0.204 NA
ATOM     74  H   UNL A   1      36.913  30.906  34.987  1.00  0.00     0.142 HD
BRANCH  73  75
ATOM     75  S   UNL A   1      38.894  31.147  35.872  1.00  0.00     0.241 S 
ATOM     76  O   UNL A   1      38.701  29.893  36.565  1.00  0.00    -0.207 OA
ATOM     77  O   UNL A   1      39.779  31.245  34.732  1.00  0.00    -0.207 OA
BRANCH  75  78
ATOM     78  C   UNL A   1      39.431  32.340  37.070  1.00  0.00     0.082 A 
ATOM     79  C   UNL A   1      40.791  32.460  37.376  1.00  0.00     0.023 A 
ATOM     80  C   UNL A   1      38.482  33.085  37.778  1.00  0.00     0.023 A 
ATOM     81  C   UNL A   1      41.200  33.353  38.369  1.00  0.00     0.017 A 
ATOM     82  C   UNL A   1      38.896  34.002  38.744  1.00  0.00     0.017 A 
ATOM     83  C   UNL A   1      40.252  34.129  39.037  1.00  0.00     0.018 A 
ATOM     84  Br  UNL A   1      40.806  35.346  40.373  1.00  0.00    -0.051 Br
ENDBRANCH  75  78
ENDBRANCH  73  75
ENDBRANCH  72  73
ENDBRANCH  65  68
ENDBRANCH  63  64
ENDBRANCH   1  63
TORSDOF 13
ENDMDL
MODEL 2
REMARK VINA RESULT:     -10.3      6.715     12.222
REMARK SMILES O=C(NCCCNC(=O)[C@H]1C=C[C@@H](NS(=O)(=O)c2ccc(Br)cc2)C1)c1ccc(-c2c3nc(c(-c4c(F)cccc4F)c4ccc([nH]4)c(-c4c(F)cccc4F)c4nc(c(-c5c(F)cccc5F)c5ccc2[nH]5)C=C4)C=C3)cc1
REMARK SMILES IDX 5 1 4 2 3 3 1 4 2 5 26 7 27 8 79 9 28 10 78 11 29 12 30 13
REMARK SMILES IDX 31 14 72 15 32 16 77 17 71 18 73 19 33 20 76 21 70 22 69 23
REMARK SMILES IDX 34 25 60 26 43 27 59 28 44 29 47 30 58 31 74 32 45 33 46 34
REMARK SMILES IDX 57 36 75 37 48 38 35 39 36 40 41 41 37 42 38 43 40 44 42 45
REMARK SMILES IDX 39 46 61 47 62 48 67 49 63 50 64 51 66 52 68 53 65 54 49 55
REMARK SMILES IDX 50 56 55 57 51 58 52 59 54 60 56 61 53 62 6 63 7 64 8 65
REMARK SMILES IDX 9 67 10 68 11 69 25 70 12 71 13 72 14 73 15 75 16 76 17 77
REMARK SMILES IDX 18 78 19 79 24 80 20 81 23 82 21 83 22 84
REMARK H PARENT 3 6 73 24 47 35 7 66 14 74
REMARK Flexibility Score: inf
ROOT
ATOM      1  C   UNL A   1      37.759  19.544  25.058  1.00  0.00     0.042 C 
ENDROOT
BRANCH   1   2
ATOM      2  C   UNL A   1      39.024  20.117  25.676  1.00  0.00     0.118 C 
BRANCH   2   3
ATOM      3  N   UNL A   1      40.087  19.129  25.761  1.00  0.00    -0.352 N 
ATOM      4  O   UNL A   1      42.199  18.361  25.750  1.00  0.00    -0.269 OA
ATOM      5  C   UNL A   1      41.437  19.303  25.944  1.00  0.00     0.251 C 
ATOM      6  H   UNL A   1      39.795  18.193  25.672  1.00  0.00     0.163 HD
BRANCH   5   7
ATOM      7  C   UNL A   1      41.979  20.613  26.371  1.00  0.00     0.039 A 
ATOM      8  C   UNL A   1      42.233  21.621  25.441  1.00  0.00     0.014 A 
ATOM      9  C   UNL A   1      42.175  20.862  27.735  1.00  0.00     0.014 A 
ATOM     10  C   UNL A   1      42.805  22.819  25.851  1.00  0.00     0.010 A 
ATOM     11  C   UNL A   1      42.654  22.107  28.158  1.00  0.00     0.010 A 
ATOM     12  C   UNL A   1      42.988  23.090  27.217  1.00  0.00    -0.014 A 
BRANCH  12  13
ATOM     13  C   UNL A   1      43.432  24.450  27.613  1.00  0.00     0.031 A 
ATOM     14  C   UNL A   1      44.862  24.883  27.475  1.00  0.00     0.074 A 
ATOM     15  C   UNL A   1      42.497  25.319  28.049  1.00  0.00     0.049 A 
ATOM     16  N   UNL A   1      45.389  26.059  27.707  1.00  0.00    -0.248 NA
ATOM     17  C   UNL A   1      45.829  23.869  27.029  1.00  0.00     0.031 C 
ATOM     18  C   UNL A   1      41.081  24.997  28.251  1.00  0.00     0.029 A 
ATOM     19  N   UNL A   1      42.581  26.650  28.365  1.00  0.00    -0.354 N 
ATOM     20  C   UNL A   1      46.746  25.928  27.440  1.00  0.00     0.074 A 
ATOM     21  C   UNL A   1      46.968  24.548  27.062  1.00  0.00     0.031 C 
ATOM     22  C   UNL A   1      40.419  26.111  28.592  1.00  0.00     0.029 A 
ATOM     23  C   UNL A   1      41.370  27.211  28.692  1.00  0.00     0.049 A 
ATOM     24  H   UNL A   1      43.426  27.154  28.357  1.00  0.00     0.167 HD
ATOM     25  C   UNL A   1      47.711  26.877  27.494  1.00  0.00     0.037 A 
ATOM     26  C   UNL A   1      41.057  28.471  29.043  1.00  0.00     0.037 A 
ATOM     27  C   UNL A   1      47.479  28.250  27.867  1.00  0.00     0.049 A 
ATOM     28  C   UNL A   1      42.148  29.499  29.090  1.00  0.00     0.074 A 
ATOM     29  C   UNL A   1      48.391  29.288  27.955  1.00  0.00     0.029 A 
ATOM     30  N   UNL A   1      46.243  28.777  28.212  1.00  0.00    -0.354 N 
ATOM     31  N   UNL A   1      43.423  29.362  28.819  1.00  0.00    -0.248 NA
ATOM     32  C   UNL A   1      41.759  30.857  29.492  1.00  0.00     0.031 C 
ATOM     33  C   UNL A   1      47.714  30.434  28.383  1.00  0.00     0.029 A 
ATOM     34  C   UNL A   1      46.371  30.123  28.521  1.00  0.00     0.049 A 
ATOM     35  H   UNL A   1      45.400  28.271  28.233  1.00  0.00     0.167 HD
ATOM     36  C   UNL A   1      43.989  30.613  29.013  1.00  0.00     0.074 A 
ATOM     37  C   UNL A   1      42.910  31.504  29.392  1.00  0.00     0.031 C 
ATOM     38  C   UNL A   1      45.286  30.989  28.903  1.00  0.00     0.037 A 
BRANCH  25  39
ATOM     39  C   UNL A   1      49.112  26.463  27.144  1.00  0.00     0.057 A 
ATOM     40  C   UNL A   1      50.009  26.009  28.119  1.00  0.00     0.134 A 
ATOM     41  C   UNL A   1      49.552  26.472  25.815  1.00  0.00     0.134 A 
ATOM     42  F   UNL A   1      49.654  25.986  29.412  1.00  0.00    -0.206 F 
ATOM     43  C   UNL A   1      51.301  25.593  27.785  1.00  0.00     0.040 A 
ATOM     44  C   UNL A   1      50.832  26.038  25.466  1.00  0.00     0.040 A 
ATOM     45  F   UNL A   1      48.740  26.890  24.831  1.00  0.00    -0.206 F 
ATOM     46  C   UNL A   1      51.712  25.599  26.454  1.00  0.00     0.006 A 
ENDBRANCH  25  39
BRANCH  26  47
ATOM     47  C   UNL A   1      39.656  28.819  29.383  1.00  0.00     0.057 A 
ATOM     48  C   UNL A   1      38.768  29.301  28.415  1.00  0.00     0.134 A 
ATOM     49  C   UNL A   1      39.167  28.667  30.687  1.00  0.00     0.134 A 
ATOM     50  F   UNL A   1      39.180  29.483  27.152  1.00  0.00    -0.206 F 
ATOM     51  C   UNL A   1      37.451  29.637  28.734  1.00  0.00     0.040 A 
ATOM     52  C   UNL A   1      37.846  28.969  31.014  1.00  0.00     0.040 A 
ATOM     53  F   UNL A   1      39.966  28.198  31.658  1.00  0.00    -0.206 F 
ATOM     54  C   UNL A   1      36.985  29.464  30.037  1.00  0.00     0.006 A 
ENDBRANCH  26  47
BRANCH  38  55
ATOM     55  C   UNL A   1      45.593  32.429  29.185  1.00  0.00     0.057 A 
ATOM     56  C   UNL A   1      45.605  33.390  28.167  1.00  0.00     0.134 A 
ATOM     57  C   UNL A   1      45.876  32.858  30.487  1.00  0.00     0.134 A 
ATOM     58  F   UNL A   1      45.357  33.039  26.897  1.00  0.00    -0.206 F 
ATOM     59  C   UNL A   1      45.919  34.725  28.430  1.00  0.00     0.040 A 
ATOM     60  C   UNL A   1      46.167  34.193  30.766  1.00  0.00     0.040 A 
ATOM     61  F   UNL A   1      45.875  31.986  31.508  1.00  0.00    -0.206 F 
ATOM     62  C   UNL A   1      46.198  35.129  29.734  1.00  0.00     0.006 A 
ENDBRANCH  38  55
ENDBRANCH  12  13
ENDBRANCH   5   7
ENDBRANCH   2   3
ENDBRANCH   1   2
BRANCH   1  63
ATOM     63  C   UNL A   1      36.608  20.545  24.986  1.00  0.00     0.117 C 
BRANCH  63  64
ATOM     64  N   UNL A   1      35.326  19.875  24.999  1.00  0.00    -0.356 N 
ATOM     65  C   UNL A   1      34.057  20.311  24.820  1.00  0.00     0.226 C 
ATOM     66  H   UNL A   1      35.389  18.908  25.173  1.00  0.00     0.163 HD
ATOM     67  O   UNL A   1      33.183  19.442  24.956  1.00  0.00    -0.274 OA
BRANCH  65  68
ATOM     68  C   UNL A   1      33.655  21.738  24.408  1.00  0.00     0.103 C 
ATOM     69  C   UNL A   1      32.703  21.638  23.247  1.00  0.00    -0.016 C 
ATOM     70  C   UNL A   1      32.887  22.689  25.331  1.00  0.00     0.042 C 
ATOM     71  C   UNL A   1      31.738  22.560  23.294  1.00  0.00    -0.011 C 
ATOM     72  C   UNL A   1      31.894  23.473  24.453  1.00  0.00     0.093 C 
BRANCH  72  73
ATOM     73  N   UNL A   1      30.650  23.685  25.178  1.00  0.00    -0.204 NA
ATOM     74  H   UNL A   1      30.533  22.864  25.770  1.00  0.00     0.142 HD
BRANCH  73  75
ATOM     75  S   UNL A   1      30.349  25.003  26.166  1.00  0.00     0.241 S 
ATOM     76  O   UNL A   1      29.105  24.817  26.877  1.00  0.00    -0.207 OA
ATOM     77  O   UNL A   1      31.594  25.212  26.873  1.00  0.00    -0.207 OA
BRANCH  75  78
ATOM     78  C   UNL A   1      30.129  26.371  25.057  1.00  0.00     0.082 A 
ATOM     79  C   UNL A   1      29.029  26.399  24.193  1.00  0.00     0.023 A 
ATOM     80  C   UNL A   1      31.111  27.364  24.980  1.00  0.00     0.023 A 
ATOM     81  C   UNL A   1      28.898  27.445  23.276  1.00  0.00     0.017 A 
ATOM     82  C   UNL A   1      30.959  28.425  24.087  1.00  0.00     0.017 A 
ATOM     83  C   UNL A   1      29.856  28.459  23.238  1.00  0.00     0.018 A 
ATOM     84  Br  UNL A   1      29.673  29.879  22.004  1.00  0.00    -0.051 Br
ENDBRANCH  75  78
ENDBRANCH  73  75
ENDBRANCH  72  73
ENDBRANCH  65  68
ENDBRANCH  63  64
ENDBRANCH   1  63
TORSDOF 13
ENDMDL
MODEL 3
REMARK VINA RESULT:     -10.3      6.062     10.932
REMARK SMILES O=C(NCCCNC(=O)[C@H]1C=C[C@@H](NS(=O)(=O)c2ccc(Br)cc2)C1)c1ccc(-c2c3nc(c(-c4c(F)cccc4F)c4ccc([nH]4)c(-c4c(F)cccc4F)c4nc(c(-c5c(F)cccc5F)c5ccc2[nH]5)C=C4)C=C3)cc1
REMARK SMILES IDX 5 1 4 2 3 3 1 4 2 5 26 7 27 8 79 9 28 10 78 11 29 12 30 13
REMARK SMILES IDX 31 14 72 15 32 16 77 17 71 18 73 19 33 20 76 21 70 22 69 23
REMARK SMILES IDX 34 25 60 26 43 27 59 28 44 29 47 30 58 31 74 32 45 33 46 34
REMARK SMILES IDX 57 36 75 37 48 38 35 39 36 40 41 41 37 42 38 43 40 44 42 45
REMARK SMILES IDX 39 46 61 47 62 48 67 49 63 50 64 51 66 52 68 53 65 54 49 55
REMARK SMILES IDX 50 56 55 57 51 58 52 59 54 60 56 61 53 62 6 63 7 64 8 65
REMARK SMILES IDX 9 67 10 68 11 69 25 70 12 71 13 72 14 73 15 75 16 76 17 77
REMARK SMILES IDX 18 78 19 79 24 80 20 81 23 82 21 83 22 84
REMARK H PARENT 3 6 73 24 47 35 7 66 14 74
REMARK Flexibility Score: inf
ROOT
ATOM      1  C   UNL A   1      34.236  28.953  26.133  1.00  0.00     0.042 C 
ENDROOT
BRANCH   1   2
ATOM      2  C   UNL A   1      34.453  28.785  27.629  1.00  0.00     0.118 C 
BRANCH   2   3
ATOM      3  N   UNL A   1      34.561  30.065  28.311  1.00  0.00    -0.352 N 
ATOM      4  O   UNL A   1      35.446  31.602  29.691  1.00  0.00    -0.269 OA
ATOM      5  C   UNL A   1      35.625  30.618  28.980  1.00  0.00     0.251 C 
ATOM      6  H   UNL A   1      33.747  30.618  28.292  1.00  0.00     0.163 HD
BRANCH   5   7
ATOM      7  C   UNL A   1      36.982  30.038  28.852  1.00  0.00     0.039 A 
ATOM      8  C   UNL A   1      37.653  30.048  27.629  1.00  0.00     0.014 A 
ATOM      9  C   UNL A   1      37.622  29.534  29.990  1.00  0.00     0.014 A 
ATOM     10  C   UNL A   1      38.896  29.438  27.512  1.00  0.00     0.010 A 
ATOM     11  C   UNL A   1      38.917  29.013  29.893  1.00  0.00     0.010 A 
ATOM     12  C   UNL A   1      39.558  28.947  28.648  1.00  0.00    -0.014 A 
BRANCH  12  13
ATOM     13  C   UNL A   1      40.956  28.471  28.501  1.00  0.00     0.031 A 
ATOM     14  C   UNL A   1      41.270  27.043  28.166  1.00  0.00     0.074 A 
ATOM     15  C   UNL A   1      41.949  29.377  28.615  1.00  0.00     0.049 A 
ATOM     16  N   UNL A   1      42.435  26.492  27.930  1.00  0.00    -0.248 NA
ATOM     17  C   UNL A   1      40.138  26.107  28.095  1.00  0.00     0.031 C 
ATOM     18  C   UNL A   1      41.761  30.788  28.968  1.00  0.00     0.029 A 
ATOM     19  N   UNL A   1      43.300  29.264  28.415  1.00  0.00    -0.354 N 
ATOM     20  C   UNL A   1      42.179  25.149  27.686  1.00  0.00     0.074 A 
ATOM     21  C   UNL A   1      40.752  24.959  27.837  1.00  0.00     0.031 C 
ATOM     22  C   UNL A   1      42.939  31.421  28.895  1.00  0.00     0.029 A 
ATOM     23  C   UNL A   1      43.974  30.454  28.551  1.00  0.00     0.049 A 
ATOM     24  H   UNL A   1      43.744  28.414  28.193  1.00  0.00     0.167 HD
ATOM     25  C   UNL A   1      43.056  24.170  27.355  1.00  0.00     0.037 A 
ATOM     26  C   UNL A   1      45.283  30.737  28.422  1.00  0.00     0.037 A 
ATOM     27  C   UNL A   1      44.475  24.370  27.202  1.00  0.00     0.049 A 
ATOM     28  C   UNL A   1      46.226  29.632  28.051  1.00  0.00     0.074 A 
ATOM     29  C   UNL A   1      45.448  23.442  26.871  1.00  0.00     0.029 A 
ATOM     30  N   UNL A   1      45.124  25.584  27.368  1.00  0.00    -0.354 N 
ATOM     31  N   UNL A   1      45.965  28.371  27.808  1.00  0.00    -0.248 NA
ATOM     32  C   UNL A   1      47.646  29.989  27.935  1.00  0.00     0.031 C 
ATOM     33  C   UNL A   1      46.689  24.088  26.867  1.00  0.00     0.029 A 
ATOM     34  C   UNL A   1      46.485  25.428  27.154  1.00  0.00     0.049 A 
ATOM     35  H   UNL A   1      44.684  26.433  27.602  1.00  0.00     0.167 HD
ATOM     36  C   UNL A   1      47.185  27.782  27.508  1.00  0.00     0.074 A 
ATOM     37  C   UNL A   1      48.181  28.834  27.566  1.00  0.00     0.031 C 
ATOM     38  C   UNL A   1      47.459  26.486  27.225  1.00  0.00     0.037 A 
BRANCH  25  39
ATOM     39  C   UNL A   1      42.506  22.790  27.137  1.00  0.00     0.057 A 
ATOM     40  C   UNL A   1      42.121  21.974  28.208  1.00  0.00     0.134 A 
ATOM     41  C   UNL A   1      42.312  22.290  25.843  1.00  0.00     0.134 A 
ATOM     42  F   UNL A   1      42.291  22.388  29.473  1.00  0.00    -0.206 F 
ATOM     43  C   UNL A   1      41.579  20.703  28.001  1.00  0.00     0.040 A 
ATOM     44  C   UNL A   1      41.750  21.031  25.623  1.00  0.00     0.040 A 
ATOM     45  F   UNL A   1      42.653  23.023  24.772  1.00  0.00    -0.206 F 
ATOM     46  C   UNL A   1      41.384  20.233  26.704  1.00  0.00     0.006 A 
ENDBRANCH  25  39
BRANCH  26  47
ATOM     47  C   UNL A   1      45.767  32.119  28.654  1.00  0.00     0.057 A 
ATOM     48  C   UNL A   1      46.207  32.536  29.916  1.00  0.00     0.134 A 
ATOM     49  C   UNL A   1      45.811  33.056  27.614  1.00  0.00     0.134 A 
ATOM     50  F   UNL A   1      46.175  31.690  30.955  1.00  0.00    -0.206 F 
ATOM     51  C   UNL A   1      46.655  33.839  30.138  1.00  0.00     0.040 A 
ATOM     52  C   UNL A   1      46.285  34.352  27.814  1.00  0.00     0.040 A 
ATOM     53  F   UNL A   1      45.415  32.714  26.378  1.00  0.00    -0.206 F 
ATOM     54  C   UNL A   1      46.702  34.749  29.083  1.00  0.00     0.006 A 
ENDBRANCH  26  47
BRANCH  38  55
ATOM     55  C   UNL A   1      48.894  26.150  26.946  1.00  0.00     0.057 A 
ATOM     56  C   UNL A   1      49.758  25.720  27.961  1.00  0.00     0.134 A 
ATOM     57  C   UNL A   1      49.414  26.255  25.651  1.00  0.00     0.134 A 
ATOM     58  F   UNL A   1      49.323  25.615  29.225  1.00  0.00    -0.206 F 
ATOM     59  C   UNL A   1      51.100  25.435  27.702  1.00  0.00     0.040 A 
ATOM     60  C   UNL A   1      50.747  25.949  25.375  1.00  0.00     0.040 A 
ATOM     61  F   UNL A   1      48.636  26.656  24.633  1.00  0.00    -0.206 F 
ATOM     62  C   UNL A   1      51.595  25.547  26.405  1.00  0.00     0.006 A 
ENDBRANCH  38  55
ENDBRANCH  12  13
ENDBRANCH   5   7
ENDBRANCH   2   3
ENDBRANCH   1   2
BRANCH   1  63
ATOM     63  C   UNL A   1      33.078  29.886  25.786  1.00  0.00     0.117 C 
BRANCH  63  64
ATOM     64  N   UNL A   1      32.647  29.703  24.418  1.00  0.00    -0.356 N 
ATOM     65  C   UNL A   1      31.698  28.925  23.847  1.00  0.00     0.226 C 
ATOM     66  H   UNL A   1      33.144  30.255  23.772  1.00  0.00     0.163 HD
ATOM     67  O   UNL A   1      31.643  28.991  22.611  1.00  0.00    -0.274 OA
BRANCH  65  68
ATOM     68  C   UNL A   1      30.683  28.055  24.610  1.00  0.00     0.103 C 
ATOM     69  C   UNL A   1      29.653  27.570  23.626  1.00  0.00    -0.016 C 
ATOM     70  C   UNL A   1      31.062  26.743  25.303  1.00  0.00     0.042 C 
ATOM     71  C   UNL A   1      29.253  26.320  23.876  1.00  0.00    -0.011 C 
ATOM     72  C   UNL A   1      29.893  25.763  25.094  1.00  0.00     0.093 C 
BRANCH  72  73
ATOM     73  N   UNL A   1      30.404  24.414  24.897  1.00  0.00    -0.204 NA
ATOM     74  H   UNL A   1      31.155  24.502  24.213  1.00  0.00     0.142 HD
BRANCH  73  75
ATOM     75  S   UNL A   1      31.017  23.451  26.122  1.00  0.00     0.241 S 
ATOM     76  O   UNL A   1      31.090  24.203  27.355  1.00  0.00    -0.207 OA
ATOM     77  O   UNL A   1      30.250  22.228  26.033  1.00  0.00    -0.207 OA
BRANCH  75  78
ATOM     78  C   UNL A   1      32.679  23.077  25.628  1.00  0.00     0.082 A 
ATOM     79  C   UNL A   1      33.743  23.837  26.124  1.00  0.00     0.023 A 
ATOM     80  C   UNL A   1      32.908  22.087  24.666  1.00  0.00     0.023 A 
ATOM     81  C   UNL A   1      35.042  23.580  25.678  1.00  0.00     0.017 A 
ATOM     82  C   UNL A   1      34.210  21.810  24.249  1.00  0.00     0.017 A 
ATOM     83  C   UNL A   1      35.270  22.559  24.755  1.00  0.00     0.018 A 
ATOM     84  Br  UNL A   1      37.028  22.204  24.160  1.00  0.00    -0.051 Br
ENDBRANCH  75  78
ENDBRANCH  73  75
ENDBRANCH  72  73
ENDBRANCH  65  68
ENDBRANCH  63  64
ENDBRANCH   1  63
TORSDOF 13
ENDMDL
