MODEL 1
REMARK VINA RESULT:     -11.4      0.000      0.000
REMARK SMILES CNc1nccc(-c2cc(C(=O)NCCCNC(=O)c3ccc(-c4c5nc(c(-c6c(F)cccc6F)c6ccc([nH]6)c(-c6c(F)cccc6F)c6nc(c(-c7c(F)cccc7F)c7ccc4[nH]7)C=C6)C=C5)cc3)ccn2)n1
REMARK SMILES IDX 15 1 14 2 13 3 11 4 12 5 10 7 8 8 9 9 76 10 75 11 74 12 7 13
REMARK SMILES IDX 3 14 4 15 77 16 5 17 6 18 2 19 1 20 16 22 17 23 18 24 19 26
REMARK SMILES IDX 20 27 21 28 73 29 22 30 72 31 23 32 24 33 25 34 66 35 26 36
REMARK SMILES IDX 71 37 65 38 67 39 27 40 70 41 64 42 63 43 28 45 54 46 37 47
REMARK SMILES IDX 53 48 38 49 41 50 52 51 68 52 39 53 40 54 51 56 69 57 42 58
REMARK SMILES IDX 29 59 30 60 35 61 31 62 32 63 34 64 36 65 33 66 55 67 56 68
REMARK SMILES IDX 61 69 57 70 58 71 60 72 62 73 59 74 43 75 44 76 49 77 45 78
REMARK SMILES IDX 46 79 48 80 50 81 47 82
REMARK H PARENT 13 6 2 21 17 25 67 44 41 55
REMARK Flexibility Score: inf
ROOT
ATOM      1  C   UNL A   1      33.857  28.074  25.832  1.00  0.00     0.042 C 
ENDROOT
BRANCH   1   2
ATOM      2  C   UNL A   1      32.930  26.979  25.299  1.00  0.00     0.118 C 
BRANCH   2   3
ATOM      3  N   UNL A   1      33.359  26.522  23.988  1.00  0.00    -0.352 N 
ATOM      4  C   UNL A   1      33.834  25.320  23.528  1.00  0.00     0.251 C 
ATOM      5  O   UNL A   1      34.069  25.224  22.323  1.00  0.00    -0.269 OA
ATOM      6  H   UNL A   1      33.296  27.213  23.290  1.00  0.00     0.163 HD
BRANCH   4   7
ATOM      7  C   UNL A   1      34.011  24.121  24.389  1.00  0.00     0.043 A 
ATOM      8  C   UNL A   1      33.691  21.819  24.984  1.00  0.00     0.090 A 
ATOM      9  C   UNL A   1      33.333  22.919  24.210  1.00  0.00     0.044 A 
ATOM     10  N   UNL A   1      34.612  21.897  25.976  1.00  0.00    -0.255 NA
ATOM     11  C   UNL A   1      35.175  23.100  26.208  1.00  0.00     0.112 A 
ATOM     12  C   UNL A   1      34.927  24.221  25.439  1.00  0.00     0.034 A 
BRANCH   8  13
ATOM     13  C   UNL A   1      33.211  20.480  24.628  1.00  0.00     0.094 A 
ATOM     14  C   UNL A   1      32.842  18.301  25.240  1.00  0.00     0.222 A 
ATOM     15  N   UNL A   1      32.253  18.011  24.072  1.00  0.00    -0.222 NA
ATOM     16  N   UNL A   1      33.313  19.512  25.564  1.00  0.00    -0.211 NA
ATOM     17  C   UNL A   1      32.143  19.004  23.175  1.00  0.00     0.117 A 
ATOM     18  C   UNL A   1      32.611  20.270  23.401  1.00  0.00     0.051 A 
BRANCH  14  19
ATOM     19  N   UNL A   1      32.895  17.271  26.134  1.00  0.00    -0.357 N 
ATOM     20  C   UNL A   1      33.162  15.924  25.728  1.00  0.00     0.143 C 
ATOM     21  H   UNL A   1      32.746  17.459  27.088  1.00  0.00     0.163 HD
ENDBRANCH  14  19
ENDBRANCH   8  13
ENDBRANCH   4   7
ENDBRANCH   2   3
ENDBRANCH   1   2
BRANCH   1  22
ATOM     22  C   UNL A   1      33.627  28.394  27.308  1.00  0.00     0.118 C 
BRANCH  22  23
ATOM     23  N   UNL A   1      33.590  29.828  27.552  1.00  0.00    -0.352 N 
ATOM     24  C   UNL A   1      34.519  30.651  28.136  1.00  0.00     0.251 C 
ATOM     25  H   UNL A   1      32.768  30.279  27.251  1.00  0.00     0.163 HD
ATOM     26  O   UNL A   1      34.198  31.793  28.448  1.00  0.00    -0.269 OA
BRANCH  24  27
ATOM     27  C   UNL A   1      35.899  30.181  28.402  1.00  0.00     0.039 A 
ATOM     28  C   UNL A   1      36.823  30.193  27.353  1.00  0.00     0.014 A 
ATOM     29  C   UNL A   1      36.269  29.669  29.648  1.00  0.00     0.014 A 
ATOM     30  C   UNL A   1      38.128  29.740  27.565  1.00  0.00     0.010 A 
ATOM     31  C   UNL A   1      37.587  29.274  29.877  1.00  0.00     0.010 A 
ATOM     32  C   UNL A   1      38.528  29.300  28.836  1.00  0.00    -0.014 A 
BRANCH  32  33
ATOM     33  C   UNL A   1      39.928  28.872  29.095  1.00  0.00     0.031 A 
ATOM     34  C   UNL A   1      40.909  29.818  29.730  1.00  0.00     0.074 A 
ATOM     35  C   UNL A   1      40.332  27.650  28.693  1.00  0.00     0.049 A 
ATOM     36  N   UNL A   1      42.187  29.652  29.960  1.00  0.00    -0.248 NA
ATOM     37  C   UNL A   1      40.392  31.134  30.143  1.00  0.00     0.031 C 
ATOM     38  C   UNL A   1      39.490  26.657  28.022  1.00  0.00     0.029 A 
ATOM     39  N   UNL A   1      41.559  27.041  28.776  1.00  0.00    -0.354 N 
ATOM     40  C   UNL A   1      42.632  30.845  30.517  1.00  0.00     0.074 A 
ATOM     41  C   UNL A   1      41.494  31.739  30.564  1.00  0.00     0.031 C 
ATOM     42  C   UNL A   1      40.222  25.561  27.763  1.00  0.00     0.029 A 
ATOM     43  C   UNL A   1      41.591  25.786  28.218  1.00  0.00     0.049 A 
ATOM     44  H   UNL A   1      42.343  27.463  29.196  1.00  0.00     0.167 HD
ATOM     45  C   UNL A   1      43.871  31.160  30.962  1.00  0.00     0.037 A 
ATOM     46  C   UNL A   1      42.611  24.919  28.075  1.00  0.00     0.037 A 
ATOM     47  C   UNL A   1      44.990  30.253  30.957  1.00  0.00     0.049 A 
ATOM     48  C   UNL A   1      43.971  25.290  28.598  1.00  0.00     0.074 A 
ATOM     49  C   UNL A   1      46.261  30.454  31.468  1.00  0.00     0.029 A 
ATOM     50  N   UNL A   1      44.970  28.978  30.417  1.00  0.00    -0.354 N 
ATOM     51  N   UNL A   1      44.354  26.392  29.195  1.00  0.00    -0.248 NA
ATOM     52  C   UNL A   1      45.039  24.294  28.433  1.00  0.00     0.031 C 
ATOM     53  C   UNL A   1      47.024  29.312  31.201  1.00  0.00     0.029 A 
ATOM     54  C   UNL A   1      46.215  28.387  30.563  1.00  0.00     0.049 A 
ATOM     55  H   UNL A   1      44.190  28.555  29.994  1.00  0.00     0.167 HD
ATOM     56  C   UNL A   1      45.696  26.210  29.503  1.00  0.00     0.074 A 
ATOM     57  C   UNL A   1      46.057  24.886  29.039  1.00  0.00     0.031 C 
ATOM     58  C   UNL A   1      46.553  27.063  30.112  1.00  0.00     0.037 A 
BRANCH  45  59
ATOM     59  C   UNL A   1      44.093  32.541  31.504  1.00  0.00     0.057 A 
ATOM     60  C   UNL A   1      44.427  33.616  30.671  1.00  0.00     0.134 A 
ATOM     61  C   UNL A   1      43.892  32.812  32.864  1.00  0.00     0.134 A 
ATOM     62  F   UNL A   1      44.642  33.419  29.362  1.00  0.00    -0.206 F 
ATOM     63  C   UNL A   1      44.565  34.911  31.174  1.00  0.00     0.040 A 
ATOM     64  C   UNL A   1      44.005  34.106  33.373  1.00  0.00     0.040 A 
ATOM     65  F   UNL A   1      43.563  31.828  33.713  1.00  0.00    -0.206 F 
ATOM     66  C   UNL A   1      44.344  35.160  32.527  1.00  0.00     0.006 A 
ENDBRANCH  45  59
BRANCH  46  67
ATOM     67  C   UNL A   1      42.393  23.607  27.413  1.00  0.00     0.057 A 
ATOM     68  C   UNL A   1      42.079  22.465  28.160  1.00  0.00     0.134 A 
ATOM     69  C   UNL A   1      42.529  23.456  26.029  1.00  0.00     0.134 A 
ATOM     70  F   UNL A   1      41.956  22.544  29.494  1.00  0.00    -0.206 F 
ATOM     71  C   UNL A   1      41.936  21.215  27.559  1.00  0.00     0.040 A 
ATOM     72  C   UNL A   1      42.363  22.215  25.411  1.00  0.00     0.040 A 
ATOM     73  F   UNL A   1      42.822  24.513  25.258  1.00  0.00    -0.206 F 
ATOM     74  C   UNL A   1      42.077  21.088  26.178  1.00  0.00     0.006 A 
ENDBRANCH  46  67
BRANCH  58  75
ATOM     75  C   UNL A   1      47.952  26.577  30.349  1.00  0.00     0.057 A 
ATOM     76  C   UNL A   1      48.969  26.763  29.404  1.00  0.00     0.134 A 
ATOM     77  C   UNL A   1      48.292  25.947  31.553  1.00  0.00     0.134 A 
ATOM     78  F   UNL A   1      48.703  27.346  28.226  1.00  0.00    -0.206 F 
ATOM     79  C   UNL A   1      50.271  26.319  29.639  1.00  0.00     0.040 A 
ATOM     80  C   UNL A   1      49.596  25.522  31.809  1.00  0.00     0.040 A 
ATOM     81  F   UNL A   1      47.366  25.747  32.503  1.00  0.00    -0.206 F 
ATOM     82  C   UNL A   1      50.588  25.702  30.848  1.00  0.00     0.006 A 
ENDBRANCH  58  75
ENDBRANCH  32  33
ENDBRANCH  24  27
ENDBRANCH  22  23
ENDBRANCH   1  22
TORSDOF 12
ENDMDL
MODEL 2
REMARK VINA RESULT:     -11.4      1.507      2.412
REMARK SMILES CNc1nccc(-c2cc(C(=O)NCCCNC(=O)c3ccc(-c4c5nc(c(-c6c(F)cccc6F)c6ccc([nH]6)c(-c6c(F)cccc6F)c6nc(c(-c7c(F)cccc7F)c7ccc4[nH]7)C=C6)C=C5)cc3)ccn2)n1
REMARK SMILES IDX 15 1 14 2 13 3 11 4 12 5 10 7 8 8 9 9 76 10 75 11 74 12 7 13
REMARK SMILES IDX 3 14 4 15 77 16 5 17 6 18 2 19 1 20 16 22 17 23 18 24 19 26
REMARK SMILES IDX 20 27 21 28 73 29 22 30 72 31 23 32 24 33 25 34 66 35 26 36
REMARK SMILES IDX 71 37 65 38 67 39 27 40 70 41 64 42 63 43 28 45 54 46 37 47
REMARK SMILES IDX 53 48 38 49 41 50 52 51 68 52 39 53 40 54 51 56 69 57 42 58
REMARK SMILES IDX 29 59 30 60 35 61 31 62 32 63 34 64 36 65 33 66 55 67 56 68
REMARK SMILES IDX 61 69 57 70 58 71 60 72 62 73 59 74 43 75 44 76 49 77 45 78
REMARK SMILES IDX 46 79 48 80 50 81 47 82
REMARK H PARENT 13 6 2 21 17 25 67 44 41 55
REMARK Flexibility Score: inf
ROOT
ATOM      1  C   UNL A   1      34.028  28.367  25.772  1.00  0.00     0.042 C 
ENDROOT
BRANCH   1   2
ATOM      2  C   UNL A   1      33.017  29.031  24.836  1.00  0.00     0.118 C 
BRANCH   2   3
ATOM      3  N   UNL A   1      31.739  28.340  24.868  1.00  0.00    -0.352 N 
ATOM      4  C   UNL A   1      31.302  27.162  24.318  1.00  0.00     0.251 C 
ATOM      5  O   UNL A   1      30.150  26.808  24.573  1.00  0.00    -0.269 OA
ATOM      6  H   UNL A   1      31.050  28.811  25.388  1.00  0.00     0.163 HD
BRANCH   4   7
ATOM      7  C   UNL A   1      32.160  26.268  23.497  1.00  0.00     0.043 A 
ATOM      8  C   UNL A   1      33.711  24.469  23.161  1.00  0.00     0.090 A 
ATOM      9  C   UNL A   1      33.073  25.358  24.021  1.00  0.00     0.044 A 
ATOM     10  N   UNL A   1      33.550  24.517  21.816  1.00  0.00    -0.255 NA
ATOM     11  C   UNL A   1      32.748  25.480  21.320  1.00  0.00     0.112 A 
ATOM     12  C   UNL A   1      32.025  26.353  22.110  1.00  0.00     0.034 A 
BRANCH   8  13
ATOM     13  C   UNL A   1      34.445  23.320  23.702  1.00  0.00     0.094 A 
ATOM     14  C   UNL A   1      36.433  22.416  24.404  1.00  0.00     0.222 A 
ATOM     15  N   UNL A   1      35.845  21.275  24.788  1.00  0.00    -0.222 NA
ATOM     16  N   UNL A   1      35.777  23.459  23.879  1.00  0.00    -0.211 NA
ATOM     17  C   UNL A   1      34.517  21.181  24.624  1.00  0.00     0.117 A 
ATOM     18  C   UNL A   1      33.758  22.182  24.078  1.00  0.00     0.051 A 
BRANCH  14  19
ATOM     19  N   UNL A   1      37.778  22.480  24.628  1.00  0.00    -0.357 N 
ATOM     20  C   UNL A   1      38.396  21.831  25.744  1.00  0.00     0.143 C 
ATOM     21  H   UNL A   1      38.341  22.988  24.001  1.00  0.00     0.163 HD
ENDBRANCH  14  19
ENDBRANCH   8  13
ENDBRANCH   4   7
ENDBRANCH   2   3
ENDBRANCH   1   2
BRANCH   1  22
ATOM     22  C   UNL A   1      33.692  28.550  27.252  1.00  0.00     0.118 C 
BRANCH  22  23
ATOM     23  N   UNL A   1      33.644  29.956  27.626  1.00  0.00    -0.352 N 
ATOM     24  C   UNL A   1      34.565  30.729  28.285  1.00  0.00     0.251 C 
ATOM     25  H   UNL A   1      32.819  30.426  27.365  1.00  0.00     0.163 HD
ATOM     26  O   UNL A   1      34.233  31.836  28.700  1.00  0.00    -0.269 OA
BRANCH  24  27
ATOM     27  C   UNL A   1      35.947  30.248  28.511  1.00  0.00     0.039 A 
ATOM     28  C   UNL A   1      36.852  30.291  27.446  1.00  0.00     0.014 A 
ATOM     29  C   UNL A   1      36.338  29.695  29.734  1.00  0.00     0.014 A 
ATOM     30  C   UNL A   1      38.160  29.829  27.620  1.00  0.00     0.010 A 
ATOM     31  C   UNL A   1      37.659  29.289  29.925  1.00  0.00     0.010 A 
ATOM     32  C   UNL A   1      38.582  29.348  28.869  1.00  0.00    -0.014 A 
BRANCH  32  33
ATOM     33  C   UNL A   1      39.984  28.908  29.088  1.00  0.00     0.031 A 
ATOM     34  C   UNL A   1      40.993  29.849  29.688  1.00  0.00     0.074 A 
ATOM     35  C   UNL A   1      40.365  27.680  28.683  1.00  0.00     0.049 A 
ATOM     36  N   UNL A   1      42.275  29.672  29.880  1.00  0.00    -0.248 NA
ATOM     37  C   UNL A   1      40.501  31.172  30.107  1.00  0.00     0.031 C 
ATOM     38  C   UNL A   1      39.494  26.690  28.044  1.00  0.00     0.029 A 
ATOM     39  N   UNL A   1      41.589  27.060  28.733  1.00  0.00    -0.354 N 
ATOM     40  C   UNL A   1      42.748  30.864  30.415  1.00  0.00     0.074 A 
ATOM     41  C   UNL A   1      41.620  31.770  30.491  1.00  0.00     0.031 C 
ATOM     42  C   UNL A   1      40.209  25.586  27.771  1.00  0.00     0.029 A 
ATOM     43  C   UNL A   1      41.592  25.801  28.182  1.00  0.00     0.049 A 
ATOM     44  H   UNL A   1      42.389  27.478  29.126  1.00  0.00     0.167 HD
ATOM     45  C   UNL A   1      44.003  31.171  30.821  1.00  0.00     0.037 A 
ATOM     46  C   UNL A   1      42.599  24.924  28.014  1.00  0.00     0.037 A 
ATOM     47  C   UNL A   1      45.112  30.254  30.789  1.00  0.00     0.049 A 
ATOM     48  C   UNL A   1      43.978  25.285  28.494  1.00  0.00     0.074 A 
ATOM     49  C   UNL A   1      46.400  30.446  31.259  1.00  0.00     0.029 A 
ATOM     50  N   UNL A   1      45.065  28.976  30.258  1.00  0.00    -0.354 N 
ATOM     51  N   UNL A   1      44.389  26.388  29.072  1.00  0.00    -0.248 NA
ATOM     52  C   UNL A   1      45.032  24.278  28.304  1.00  0.00     0.031 C 
ATOM     53  C   UNL A   1      47.145  29.296  30.978  1.00  0.00     0.029 A 
ATOM     54  C   UNL A   1      46.308  28.374  30.370  1.00  0.00     0.049 A 
ATOM     55  H   UNL A   1      44.269  28.557  29.861  1.00  0.00     0.167 HD
ATOM     56  C   UNL A   1      45.738  26.195  29.340  1.00  0.00     0.074 A 
ATOM     57  C   UNL A   1      46.073  24.866  28.875  1.00  0.00     0.031 C 
ATOM     58  C   UNL A   1      46.621  27.044  29.919  1.00  0.00     0.037 A 
BRANCH  45  59
ATOM     59  C   UNL A   1      44.254  32.553  31.347  1.00  0.00     0.057 A 
ATOM     60  C   UNL A   1      44.597  33.614  30.500  1.00  0.00     0.134 A 
ATOM     61  C   UNL A   1      44.071  32.841  32.706  1.00  0.00     0.134 A 
ATOM     62  F   UNL A   1      44.795  33.401  29.191  1.00  0.00    -0.206 F 
ATOM     63  C   UNL A   1      44.762  34.911  30.989  1.00  0.00     0.040 A 
ATOM     64  C   UNL A   1      44.211  34.139  33.202  1.00  0.00     0.040 A 
ATOM     65  F   UNL A   1      43.734  31.871  33.569  1.00  0.00    -0.206 F 
ATOM     66  C   UNL A   1      44.559  35.178  32.341  1.00  0.00     0.006 A 
ENDBRANCH  45  59
BRANCH  46  67
ATOM     67  C   UNL A   1      42.350  23.610  27.369  1.00  0.00     0.057 A 
ATOM     68  C   UNL A   1      42.017  22.483  28.130  1.00  0.00     0.134 A 
ATOM     69  C   UNL A   1      42.473  23.441  25.985  1.00  0.00     0.134 A 
ATOM     70  F   UNL A   1      41.904  22.579  29.463  1.00  0.00    -0.206 F 
ATOM     71  C   UNL A   1      41.844  21.230  27.543  1.00  0.00     0.040 A 
ATOM     72  C   UNL A   1      42.278  22.198  25.381  1.00  0.00     0.040 A 
ATOM     73  F   UNL A   1      42.783  24.483  25.201  1.00  0.00    -0.206 F 
ATOM     74  C   UNL A   1      41.973  21.085  26.162  1.00  0.00     0.006 A 
ENDBRANCH  46  67
BRANCH  58  75
ATOM     75  C   UNL A   1      48.022  26.546  30.117  1.00  0.00     0.057 A 
ATOM     76  C   UNL A   1      48.405  25.859  31.275  1.00  0.00     0.134 A 
ATOM     77  C   UNL A   1      48.989  26.727  29.119  1.00  0.00     0.134 A 
ATOM     78  F   UNL A   1      47.528  25.667  32.272  1.00  0.00    -0.206 F 
ATOM     79  C   UNL A   1      49.707  25.388  31.445  1.00  0.00     0.040 A 
ATOM     80  C   UNL A   1      50.287  26.238  29.267  1.00  0.00     0.040 A 
ATOM     81  F   UNL A   1      48.683  27.370  27.982  1.00  0.00    -0.206 F 
ATOM     82  C   UNL A   1      50.650  25.572  30.435  1.00  0.00     0.006 A 
ENDBRANCH  58  75
ENDBRANCH  32  33
ENDBRANCH  24  27
ENDBRANCH  22  23
ENDBRANCH   1  22
TORSDOF 12
ENDMDL
MODEL 3
REMARK VINA RESULT:     -11.3      4.545      7.669
REMARK SMILES CNc1nccc(-c2cc(C(=O)NCCCNC(=O)c3ccc(-c4c5nc(c(-c6c(F)cccc6F)c6ccc([nH]6)c(-c6c(F)cccc6F)c6nc(c(-c7c(F)cccc7F)c7ccc4[nH]7)C=C6)C=C5)cc3)ccn2)n1
REMARK SMILES IDX 15 1 14 2 13 3 11 4 12 5 10 7 8 8 9 9 76 10 75 11 74 12 7 13
REMARK SMILES IDX 3 14 4 15 77 16 5 17 6 18 2 19 1 20 16 22 17 23 18 24 19 26
REMARK SMILES IDX 20 27 21 28 73 29 22 30 72 31 23 32 24 33 25 34 66 35 26 36
REMARK SMILES IDX 71 37 65 38 67 39 27 40 70 41 64 42 63 43 28 45 54 46 37 47
REMARK SMILES IDX 53 48 38 49 41 50 52 51 68 52 39 53 40 54 51 56 69 57 42 58
REMARK SMILES IDX 29 59 30 60 35 61 31 62 32 63 34 64 36 65 33 66 55 67 56 68
REMARK SMILES IDX 61 69 57 70 58 71 60 72 62 73 59 74 43 75 44 76 49 77 45 78
REMARK SMILES IDX 46 79 48 80 50 81 47 82
REMARK H PARENT 13 6 2 21 17 25 67 44 41 55
REMARK Flexibility Score: inf
ROOT
ATOM      1  C   UNL A   1      35.226  33.467  27.953  1.00  0.00     0.042 C 
ENDROOT
BRANCH   1   2
ATOM      2  C   UNL A   1      35.244  34.911  28.457  1.00  0.00     0.118 C 
BRANCH   2   3
ATOM      3  N   UNL A   1      33.910  35.487  28.444  1.00  0.00    -0.352 N 
ATOM      4  C   UNL A   1      33.101  35.989  29.432  1.00  0.00     0.251 C 
ATOM      5  O   UNL A   1      32.017  36.466  29.092  1.00  0.00    -0.269 OA
ATOM      6  H   UNL A   1      33.506  35.524  27.548  1.00  0.00     0.163 HD
BRANCH   4   7
ATOM      7  C   UNL A   1      33.493  36.050  30.865  1.00  0.00     0.043 A 
ATOM      8  C   UNL A   1      34.505  35.203  32.868  1.00  0.00     0.090 A 
ATOM      9  C   UNL A   1      34.037  34.985  31.575  1.00  0.00     0.044 A 
ATOM     10  N   UNL A   1      34.364  36.394  33.501  1.00  0.00    -0.255 NA
ATOM     11  C   UNL A   1      33.731  37.381  32.834  1.00  0.00     0.112 A 
ATOM     12  C   UNL A   1      33.303  37.265  31.526  1.00  0.00     0.034 A 
BRANCH   8  13
ATOM     13  C   UNL A   1      35.338  34.194  33.530  1.00  0.00     0.094 A 
ATOM     14  C   UNL A   1      36.352  32.137  33.465  1.00  0.00     0.222 A 
ATOM     15  N   UNL A   1      36.949  32.329  34.649  1.00  0.00    -0.222 NA
ATOM     16  N   UNL A   1      35.562  33.039  32.866  1.00  0.00    -0.211 NA
ATOM     17  C   UNL A   1      36.726  33.499  35.268  1.00  0.00     0.117 A 
ATOM     18  C   UNL A   1      35.920  34.477  34.750  1.00  0.00     0.051 A 
BRANCH  14  19
ATOM     19  N   UNL A   1      36.639  30.950  32.856  1.00  0.00    -0.357 N 
ATOM     20  C   UNL A   1      37.821  30.203  33.164  1.00  0.00     0.143 C 
ATOM     21  H   UNL A   1      36.013  30.595  32.184  1.00  0.00     0.163 HD
ENDBRANCH  14  19
ENDBRANCH   8  13
ENDBRANCH   4   7
ENDBRANCH   2   3
ENDBRANCH   1   2
BRANCH   1  22
ATOM     22  C   UNL A   1      35.060  32.438  29.071  1.00  0.00     0.118 C 
BRANCH  22  23
ATOM     23  N   UNL A   1      34.332  31.261  28.621  1.00  0.00    -0.352 N 
ATOM     24  C   UNL A   1      34.794  30.039  28.203  1.00  0.00     0.251 C 
ATOM     25  H   UNL A   1      33.352  31.357  28.616  1.00  0.00     0.163 HD
ATOM     26  O   UNL A   1      34.022  29.261  27.653  1.00  0.00    -0.269 OA
BRANCH  24  27
ATOM     27  C   UNL A   1      36.210  29.650  28.399  1.00  0.00     0.039 A 
ATOM     28  C   UNL A   1      37.083  29.736  27.310  1.00  0.00     0.014 A 
ATOM     29  C   UNL A   1      36.667  29.140  29.617  1.00  0.00     0.014 A 
ATOM     30  C   UNL A   1      38.421  29.360  27.455  1.00  0.00     0.010 A 
ATOM     31  C   UNL A   1      38.015  28.822  29.779  1.00  0.00     0.010 A 
ATOM     32  C   UNL A   1      38.905  28.924  28.699  1.00  0.00    -0.014 A 
BRANCH  32  33
ATOM     33  C   UNL A   1      40.338  28.577  28.887  1.00  0.00     0.031 A 
ATOM     34  C   UNL A   1      41.307  29.601  29.412  1.00  0.00     0.074 A 
ATOM     35  C   UNL A   1      40.778  27.358  28.519  1.00  0.00     0.049 A 
ATOM     36  N   UNL A   1      42.603  29.509  29.566  1.00  0.00    -0.248 NA
ATOM     37  C   UNL A   1      40.750  30.909  29.793  1.00  0.00     0.031 C 
ATOM     38  C   UNL A   1      39.949  26.292  27.952  1.00  0.00     0.029 A 
ATOM     39  N   UNL A   1      42.038  26.813  28.551  1.00  0.00    -0.354 N 
ATOM     40  C   UNL A   1      43.020  30.748  30.035  1.00  0.00     0.074 A 
ATOM     41  C   UNL A   1      41.843  31.588  30.113  1.00  0.00     0.031 C 
ATOM     42  C   UNL A   1      40.719  25.221  27.699  1.00  0.00     0.029 A 
ATOM     43  C   UNL A   1      42.100  25.534  28.053  1.00  0.00     0.049 A 
ATOM     44  H   UNL A   1      42.824  27.294  28.899  1.00  0.00     0.167 HD
ATOM     45  C   UNL A   1      44.267  31.145  30.383  1.00  0.00     0.037 A 
ATOM     46  C   UNL A   1      43.152  24.711  27.886  1.00  0.00     0.037 A 
ATOM     47  C   UNL A   1      45.428  30.295  30.350  1.00  0.00     0.049 A 
ATOM     48  C   UNL A   1      44.521  25.174  28.302  1.00  0.00     0.074 A 
ATOM     49  C   UNL A   1      46.717  30.582  30.767  1.00  0.00     0.029 A 
ATOM     50  N   UNL A   1      45.441  28.994  29.875  1.00  0.00    -0.354 N 
ATOM     51  N   UNL A   1      44.883  26.322  28.820  1.00  0.00    -0.248 NA
ATOM     52  C   UNL A   1      45.627  24.223  28.116  1.00  0.00     0.031 C 
ATOM     53  C   UNL A   1      47.519  29.467  30.507  1.00  0.00     0.029 A 
ATOM     54  C   UNL A   1      46.721  28.472  29.968  1.00  0.00     0.049 A 
ATOM     55  H   UNL A   1      44.658  28.513  29.523  1.00  0.00     0.167 HD
ATOM     56  C   UNL A   1      46.250  26.221  29.048  1.00  0.00     0.074 A 
ATOM     57  C   UNL A   1      46.649  24.895  28.627  1.00  0.00     0.031 C 
ATOM     58  C   UNL A   1      47.098  27.145  29.560  1.00  0.00     0.037 A 
BRANCH  45  59
ATOM     59  C   UNL A   1      44.451  32.561  30.844  1.00  0.00     0.057 A 
ATOM     60  C   UNL A   1      44.359  32.915  32.195  1.00  0.00     0.134 A 
ATOM     61  C   UNL A   1      44.803  33.566  29.933  1.00  0.00     0.134 A 
ATOM     62  F   UNL A   1      44.017  32.001  33.116  1.00  0.00    -0.206 F 
ATOM     63  C   UNL A   1      44.599  34.222  32.624  1.00  0.00     0.040 A 
ATOM     64  C   UNL A   1      45.068  34.870  30.353  1.00  0.00     0.040 A 
ATOM     65  F   UNL A   1      44.916  33.290  28.625  1.00  0.00    -0.206 F 
ATOM     66  C   UNL A   1      44.965  35.201  31.702  1.00  0.00     0.006 A 
ENDBRANCH  45  59
BRANCH  46  67
ATOM     67  C   UNL A   1      42.961  23.359  27.304  1.00  0.00     0.057 A 
ATOM     68  C   UNL A   1      43.203  23.116  25.946  1.00  0.00     0.134 A 
ATOM     69  C   UNL A   1      42.498  22.289  28.078  1.00  0.00     0.134 A 
ATOM     70  F   UNL A   1      43.629  24.108  25.149  1.00  0.00    -0.206 F 
ATOM     71  C   UNL A   1      42.965  21.867  25.374  1.00  0.00     0.040 A 
ATOM     72  C   UNL A   1      42.280  21.027  27.523  1.00  0.00     0.040 A 
ATOM     73  F   UNL A   1      42.254  22.455  29.386  1.00  0.00    -0.206 F 
ATOM     74  C   UNL A   1      42.504  20.816  26.164  1.00  0.00     0.006 A 
ENDBRANCH  46  67
BRANCH  58  75
ATOM     75  C   UNL A   1      48.532  26.739  29.729  1.00  0.00     0.057 A 
ATOM     76  C   UNL A   1      48.978  26.060  30.869  1.00  0.00     0.134 A 
ATOM     77  C   UNL A   1      49.469  27.002  28.722  1.00  0.00     0.134 A 
ATOM     78  F   UNL A   1      48.131  25.792  31.875  1.00  0.00    -0.206 F 
ATOM     79  C   UNL A   1      50.312  25.674  31.012  1.00  0.00     0.040 A 
ATOM     80  C   UNL A   1      50.800  26.599  28.843  1.00  0.00     0.040 A 
ATOM     81  F   UNL A   1      49.104  27.642  27.601  1.00  0.00    -0.206 F 
ATOM     82  C   UNL A   1      51.225  25.938  29.993  1.00  0.00     0.006 A 
ENDBRANCH  58  75
ENDBRANCH  32  33
ENDBRANCH  24  27
ENDBRANCH  22  23
ENDBRANCH   1  22
TORSDOF 12
ENDMDL
