MODEL 1
REMARK VINA RESULT:     -12.1      0.000      0.000
REMARK SMILES O=C(NCCCNC(=O)c1ccc(C[N@H+]2CC[N@H+]3CCCC[C@@H]3C2)c(F)c1)c1ccc(-c2c3nc(c(-c4c(F)cccc4F)c4ccc([nH]4)c(-c4c(F)cccc4F)c4nc(c(-c5c(F)cccc5F)c5ccc2[nH]5)C=C4)C=C3)cc1
REMARK SMILES IDX 5 1 4 2 3 3 1 4 2 5 28 7 29 8 81 9 30 10 80 11 31 12 32 13
REMARK SMILES IDX 33 14 74 15 34 16 79 17 73 18 75 19 35 20 78 21 72 22 71 23
REMARK SMILES IDX 36 25 62 26 45 27 61 28 46 29 49 30 60 31 76 32 47 33 48 34
REMARK SMILES IDX 59 36 77 37 50 38 37 39 38 40 43 41 39 42 40 43 42 44 44 45
REMARK SMILES IDX 41 46 63 47 64 48 69 49 65 50 66 51 68 52 70 53 67 54 51 55
REMARK SMILES IDX 52 56 57 57 53 58 54 59 56 60 58 61 55 62 6 63 7 64 8 65
REMARK SMILES IDX 9 67 10 68 11 69 27 70 12 71 25 72 13 73 26 74 14 75 15 76
REMARK SMILES IDX 16 77 24 78 17 80 23 81 18 82 22 83 19 84 21 86 20 87
REMARK H PARENT 3 6 75 24 49 35 7 66 15 79 18 85
REMARK Flexibility Score: inf
ROOT
ATOM      1  C   UNL A   1      37.374  19.595  24.732  1.00  0.00     0.042 C 
ENDROOT
BRANCH   1   2
ATOM      2  C   UNL A   1      38.505  20.170  25.577  1.00  0.00     0.118 C 
BRANCH   2   3
ATOM      3  N   UNL A   1      39.669  19.295  25.651  1.00  0.00    -0.352 N 
ATOM      4  O   UNL A   1      41.811  18.656  25.860  1.00  0.00    -0.269 OA
ATOM      5  C   UNL A   1      40.971  19.538  26.023  1.00  0.00     0.251 C 
ATOM      6  H   UNL A   1      39.493  18.364  25.384  1.00  0.00     0.163 HD
BRANCH   5   7
ATOM      7  C   UNL A   1      41.387  20.842  26.593  1.00  0.00     0.039 A 
ATOM      8  C   UNL A   1      41.404  21.069  27.968  1.00  0.00     0.014 A 
ATOM      9  C   UNL A   1      41.821  21.854  25.726  1.00  0.00     0.014 A 
ATOM     10  C   UNL A   1      41.675  22.342  28.462  1.00  0.00     0.010 A 
ATOM     11  C   UNL A   1      42.199  23.103  26.231  1.00  0.00     0.010 A 
ATOM     12  C   UNL A   1      42.091  23.372  27.604  1.00  0.00    -0.014 A 
BRANCH  12  13
ATOM     13  C   UNL A   1      42.457  24.695  28.175  1.00  0.00     0.031 A 
ATOM     14  C   UNL A   1      43.886  25.047  28.483  1.00  0.00     0.074 A 
ATOM     15  C   UNL A   1      41.485  25.607  28.376  1.00  0.00     0.049 A 
ATOM     16  N   UNL A   1      44.376  26.170  28.945  1.00  0.00    -0.248 NA
ATOM     17  C   UNL A   1      44.897  24.004  28.248  1.00  0.00     0.031 C 
ATOM     18  C   UNL A   1      40.061  25.385  28.120  1.00  0.00     0.029 A 
ATOM     19  N   UNL A   1      41.545  26.906  28.812  1.00  0.00    -0.354 N 
ATOM     20  C   UNL A   1      45.746  25.968  29.067  1.00  0.00     0.074 A 
ATOM     21  C   UNL A   1      46.005  24.601  28.666  1.00  0.00     0.031 C 
ATOM     22  C   UNL A   1      39.391  26.524  28.343  1.00  0.00     0.029 A 
ATOM     23  C   UNL A   1      40.324  27.536  28.825  1.00  0.00     0.049 A 
ATOM     24  H   UNL A   1      42.381  27.345  29.090  1.00  0.00     0.167 HD
ATOM     25  C   UNL A   1      46.699  26.845  29.464  1.00  0.00     0.037 A 
ATOM     26  C   UNL A   1      39.984  28.785  29.193  1.00  0.00     0.037 A 
ATOM     27  C   UNL A   1      46.435  28.206  29.858  1.00  0.00     0.049 A 
ATOM     28  C   UNL A   1      41.049  29.725  29.671  1.00  0.00     0.074 A 
ATOM     29  C   UNL A   1      47.338  29.177  30.257  1.00  0.00     0.029 A 
ATOM     30  N   UNL A   1      45.176  28.789  29.908  1.00  0.00    -0.354 N 
ATOM     31  N   UNL A   1      42.342  29.524  29.765  1.00  0.00    -0.248 NA
ATOM     32  C   UNL A   1      40.614  31.060  30.100  1.00  0.00     0.031 C 
ATOM     33  C   UNL A   1      46.622  30.328  30.601  1.00  0.00     0.029 A 
ATOM     34  C   UNL A   1      45.279  30.097  30.356  1.00  0.00     0.049 A 
ATOM     35  H   UNL A   1      44.336  28.339  29.664  1.00  0.00     0.167 HD
ATOM     36  C   UNL A   1      42.877  30.711  30.247  1.00  0.00     0.074 A 
ATOM     37  C   UNL A   1      41.770  31.631  30.414  1.00  0.00     0.031 C 
ATOM     38  C   UNL A   1      44.171  31.006  30.521  1.00  0.00     0.037 A 
BRANCH  25  39
ATOM     39  C   UNL A   1      48.120  26.359  29.507  1.00  0.00     0.057 A 
ATOM     40  C   UNL A   1      48.644  25.781  30.672  1.00  0.00     0.134 A 
ATOM     41  C   UNL A   1      48.989  26.506  28.418  1.00  0.00     0.134 A 
ATOM     42  F   UNL A   1      47.873  25.617  31.757  1.00  0.00    -0.206 F 
ATOM     43  C   UNL A   1      49.977  25.374  30.753  1.00  0.00     0.040 A 
ATOM     44  C   UNL A   1      50.317  26.078  28.476  1.00  0.00     0.040 A 
ATOM     45  F   UNL A   1      48.551  27.043  27.268  1.00  0.00    -0.206 F 
ATOM     46  C   UNL A   1      50.816  25.517  29.650  1.00  0.00     0.006 A 
ENDBRANCH  25  39
BRANCH  26  47
ATOM     47  C   UNL A   1      38.563  29.203  29.096  1.00  0.00     0.057 A 
ATOM     48  C   UNL A   1      38.029  29.698  27.899  1.00  0.00     0.134 A 
ATOM     49  C   UNL A   1      37.729  29.187  30.218  1.00  0.00     0.134 A 
ATOM     50  F   UNL A   1      38.784  29.749  26.791  1.00  0.00    -0.206 F 
ATOM     51  C   UNL A   1      36.728  30.197  27.830  1.00  0.00     0.040 A 
ATOM     52  C   UNL A   1      36.417  29.658  30.157  1.00  0.00     0.040 A 
ATOM     53  F   UNL A   1      38.179  28.711  31.388  1.00  0.00    -0.206 F 
ATOM     54  C   UNL A   1      35.917  30.177  28.963  1.00  0.00     0.006 A 
ENDBRANCH  26  47
BRANCH  38  55
ATOM     55  C   UNL A   1      44.477  32.392  31.011  1.00  0.00     0.057 A 
ATOM     56  C   UNL A   1      44.768  33.418  30.103  1.00  0.00     0.134 A 
ATOM     57  C   UNL A   1      44.557  32.693  32.376  1.00  0.00     0.134 A 
ATOM     58  F   UNL A   1      44.718  33.194  28.781  1.00  0.00    -0.206 F 
ATOM     59  C   UNL A   1      45.146  34.690  30.535  1.00  0.00     0.040 A 
ATOM     60  C   UNL A   1      44.907  33.969  32.820  1.00  0.00     0.040 A 
ATOM     61  F   UNL A   1      44.278  31.758  33.296  1.00  0.00    -0.206 F 
ATOM     62  C   UNL A   1      45.213  34.969  31.898  1.00  0.00     0.006 A 
ENDBRANCH  38  55
ENDBRANCH  12  13
ENDBRANCH   5   7
ENDBRANCH   2   3
ENDBRANCH   1   2
BRANCH   1  63
ATOM     63  C   UNL A   1      36.002  20.207  24.999  1.00  0.00     0.118 C 
BRANCH  63  64
ATOM     64  N   UNL A   1      34.953  19.201  25.025  1.00  0.00    -0.352 N 
ATOM     65  C   UNL A   1      33.589  19.361  25.009  1.00  0.00     0.251 C 
ATOM     66  H   UNL A   1      35.265  18.269  25.059  1.00  0.00     0.163 HD
ATOM     67  O   UNL A   1      32.851  18.409  25.242  1.00  0.00    -0.269 OA
BRANCH  65  68
ATOM     68  C   UNL A   1      32.999  20.681  24.721  1.00  0.00     0.042 A 
ATOM     69  C   UNL A   1      32.643  21.033  23.416  1.00  0.00     0.014 A 
ATOM     70  C   UNL A   1      32.751  21.554  25.779  1.00  0.00     0.053 A 
ATOM     71  C   UNL A   1      32.111  22.302  23.161  1.00  0.00     0.013 A 
ATOM     72  C   UNL A   1      32.250  22.823  25.508  1.00  0.00     0.132 A 
ATOM     73  C   UNL A   1      31.977  23.240  24.200  1.00  0.00     0.042 A 
ATOM     74  F   UNL A   1      32.076  23.674  26.529  1.00  0.00    -0.206 F 
BRANCH  73  75
ATOM     75  C   UNL A   1      31.590  24.674  23.913  1.00  0.00     0.302 C 
BRANCH  75  76
ATOM     76  N   UNL A   1      32.655  25.631  23.570  1.00  0.00    -0.322 N 
ATOM     77  C   UNL A   1      32.294  26.695  22.623  1.00  0.00     0.324 C 
ATOM     78  C   UNL A   1      33.424  26.182  24.691  1.00  0.00     0.328 C 
ATOM     79  H   UNL A   1      33.280  24.996  23.074  1.00  0.00     0.348 HD
ATOM     80  C   UNL A   1      31.758  28.015  23.237  1.00  0.00     0.324 C 
ATOM     81  C   UNL A   1      32.779  27.422  25.356  1.00  0.00     0.239 C 
ATOM     82  N   UNL A   1      32.518  28.521  24.404  1.00  0.00    -0.323 N 
ATOM     83  C   UNL A   1      33.621  27.913  26.539  1.00  0.00     0.071 C 
ATOM     84  C   UNL A   1      31.766  29.601  25.063  1.00  0.00     0.262 C 
ATOM     85  H   UNL A   1      33.413  28.891  24.082  1.00  0.00     0.348 HD
ATOM     86  C   UNL A   1      32.857  29.006  27.281  1.00  0.00     0.012 C 
ATOM     87  C   UNL A   1      32.476  30.126  26.317  1.00  0.00     0.062 C 
ENDBRANCH  75  76
ENDBRANCH  73  75
ENDBRANCH  65  68
ENDBRANCH  63  64
ENDBRANCH   1  63
TORSDOF 12
ENDMDL
MODEL 2
REMARK VINA RESULT:     -12.1      4.741      9.270
REMARK SMILES O=C(NCCCNC(=O)c1ccc(C[N@H+]2CC[N@H+]3CCCC[C@@H]3C2)c(F)c1)c1ccc(-c2c3nc(c(-c4c(F)cccc4F)c4ccc([nH]4)c(-c4c(F)cccc4F)c4nc(c(-c5c(F)cccc5F)c5ccc2[nH]5)C=C4)C=C3)cc1
REMARK SMILES IDX 5 1 4 2 3 3 1 4 2 5 28 7 29 8 81 9 30 10 80 11 31 12 32 13
REMARK SMILES IDX 33 14 74 15 34 16 79 17 73 18 75 19 35 20 78 21 72 22 71 23
REMARK SMILES IDX 36 25 62 26 45 27 61 28 46 29 49 30 60 31 76 32 47 33 48 34
REMARK SMILES IDX 59 36 77 37 50 38 37 39 38 40 43 41 39 42 40 43 42 44 44 45
REMARK SMILES IDX 41 46 63 47 64 48 69 49 65 50 66 51 68 52 70 53 67 54 51 55
REMARK SMILES IDX 52 56 57 57 53 58 54 59 56 60 58 61 55 62 6 63 7 64 8 65
REMARK SMILES IDX 9 67 10 68 11 69 27 70 12 71 25 72 13 73 26 74 14 75 15 76
REMARK SMILES IDX 16 77 24 78 17 80 23 81 18 82 22 83 19 84 21 86 20 87
REMARK H PARENT 3 6 75 24 49 35 7 66 15 79 18 85
REMARK Flexibility Score: inf
ROOT
ATOM      1  C   UNL A   1      30.777  31.948  26.108  1.00  0.00     0.042 C 
ENDROOT
BRANCH   1   2
ATOM      2  C   UNL A   1      32.119  32.321  26.726  1.00  0.00     0.118 C 
BRANCH   2   3
ATOM      3  N   UNL A   1      32.153  33.682  27.248  1.00  0.00    -0.352 N 
ATOM      4  O   UNL A   1      32.703  35.420  28.558  1.00  0.00    -0.269 OA
ATOM      5  C   UNL A   1      32.972  34.283  28.176  1.00  0.00     0.251 C 
ATOM      6  H   UNL A   1      31.466  34.277  26.871  1.00  0.00     0.163 HD
BRANCH   5   7
ATOM      7  C   UNL A   1      34.152  33.586  28.740  1.00  0.00     0.039 A 
ATOM      8  C   UNL A   1      34.052  32.317  29.307  1.00  0.00     0.014 A 
ATOM      9  C   UNL A   1      35.408  34.202  28.654  1.00  0.00     0.014 A 
ATOM     10  C   UNL A   1      35.152  31.748  29.942  1.00  0.00     0.010 A 
ATOM     11  C   UNL A   1      36.538  33.579  29.197  1.00  0.00     0.010 A 
ATOM     12  C   UNL A   1      36.413  32.362  29.883  1.00  0.00    -0.014 A 
BRANCH  12  13
ATOM     13  C   UNL A   1      37.585  31.683  30.498  1.00  0.00     0.031 A 
ATOM     14  C   UNL A   1      37.960  31.919  31.935  1.00  0.00     0.074 A 
ATOM     15  C   UNL A   1      38.292  30.808  29.756  1.00  0.00     0.049 A 
ATOM     16  N   UNL A   1      38.927  31.377  32.632  1.00  0.00    -0.248 NA
ATOM     17  C   UNL A   1      37.153  32.893  32.686  1.00  0.00     0.031 C 
ATOM     18  C   UNL A   1      38.028  30.496  28.350  1.00  0.00     0.029 A 
ATOM     19  N   UNL A   1      39.352  30.001  30.082  1.00  0.00    -0.354 N 
ATOM     20  C   UNL A   1      38.853  31.947  33.897  1.00  0.00     0.074 A 
ATOM     21  C   UNL A   1      37.769  32.907  33.860  1.00  0.00     0.031 C 
ATOM     22  C   UNL A   1      38.861  29.524  27.952  1.00  0.00     0.029 A 
ATOM     23  C   UNL A   1      39.762  29.193  29.050  1.00  0.00     0.049 A 
ATOM     24  H   UNL A   1      39.780  30.002  30.969  1.00  0.00     0.167 HD
ATOM     25  C   UNL A   1      39.609  31.685  34.990  1.00  0.00     0.037 A 
ATOM     26  C   UNL A   1      40.758  28.290  28.983  1.00  0.00     0.037 A 
ATOM     27  C   UNL A   1      40.684  30.725  35.021  1.00  0.00     0.049 A 
ATOM     28  C   UNL A   1      41.611  28.048  30.192  1.00  0.00     0.074 A 
ATOM     29  C   UNL A   1      41.494  30.376  36.088  1.00  0.00     0.029 A 
ATOM     30  N   UNL A   1      41.102  29.965  33.938  1.00  0.00    -0.354 N 
ATOM     31  N   UNL A   1      41.518  28.584  31.385  1.00  0.00    -0.248 NA
ATOM     32  C   UNL A   1      42.710  27.085  30.048  1.00  0.00     0.031 C 
ATOM     33  C   UNL A   1      42.436  29.446  35.637  1.00  0.00     0.029 A 
ATOM     34  C   UNL A   1      42.174  29.167  34.306  1.00  0.00     0.049 A 
ATOM     35  H   UNL A   1      40.697  29.989  33.041  1.00  0.00     0.167 HD
ATOM     36  C   UNL A   1      42.532  28.011  32.140  1.00  0.00     0.074 A 
ATOM     37  C   UNL A   1      43.222  27.078  31.273  1.00  0.00     0.031 C 
ATOM     38  C   UNL A   1      42.857  28.241  33.435  1.00  0.00     0.037 A 
BRANCH  25  39
ATOM     39  C   UNL A   1      39.313  32.457  36.245  1.00  0.00     0.057 A 
ATOM     40  C   UNL A   1      38.387  31.976  37.180  1.00  0.00     0.134 A 
ATOM     41  C   UNL A   1      39.902  33.701  36.507  1.00  0.00     0.134 A 
ATOM     42  F   UNL A   1      37.776  30.796  36.990  1.00  0.00    -0.206 F 
ATOM     43  C   UNL A   1      38.054  32.704  38.325  1.00  0.00     0.040 A 
ATOM     44  C   UNL A   1      39.599  34.426  37.661  1.00  0.00     0.040 A 
ATOM     45  F   UNL A   1      40.804  34.218  35.658  1.00  0.00    -0.206 F 
ATOM     46  C   UNL A   1      38.666  33.931  38.570  1.00  0.00     0.006 A 
ENDBRANCH  25  39
BRANCH  26  47
ATOM     47  C   UNL A   1      40.972  27.544  27.718  1.00  0.00     0.057 A 
ATOM     48  C   UNL A   1      40.421  26.272  27.520  1.00  0.00     0.134 A 
ATOM     49  C   UNL A   1      41.794  28.057  26.710  1.00  0.00     0.134 A 
ATOM     50  F   UNL A   1      39.633  25.722  28.456  1.00  0.00    -0.206 F 
ATOM     51  C   UNL A   1      40.709  25.519  26.381  1.00  0.00     0.040 A 
ATOM     52  C   UNL A   1      42.069  27.327  25.553  1.00  0.00     0.040 A 
ATOM     53  F   UNL A   1      42.337  29.276  26.836  1.00  0.00    -0.206 F 
ATOM     54  C   UNL A   1      41.536  26.048  25.392  1.00  0.00     0.006 A 
ENDBRANCH  26  47
BRANCH  38  55
ATOM     55  C   UNL A   1      43.996  27.455  34.015  1.00  0.00     0.057 A 
ATOM     56  C   UNL A   1      43.761  26.231  34.657  1.00  0.00     0.134 A 
ATOM     57  C   UNL A   1      45.310  27.938  34.005  1.00  0.00     0.134 A 
ATOM     58  F   UNL A   1      42.524  25.716  34.710  1.00  0.00    -0.206 F 
ATOM     59  C   UNL A   1      44.790  25.527  35.284  1.00  0.00     0.040 A 
ATOM     60  C   UNL A   1      46.352  27.229  34.605  1.00  0.00     0.040 A 
ATOM     61  F   UNL A   1      45.603  29.097  33.396  1.00  0.00    -0.206 F 
ATOM     62  C   UNL A   1      46.090  26.024  35.256  1.00  0.00     0.006 A 
ENDBRANCH  38  55
ENDBRANCH  12  13
ENDBRANCH   5   7
ENDBRANCH   2   3
ENDBRANCH   1   2
BRANCH   1  63
ATOM     63  C   UNL A   1      30.843  30.856  25.045  1.00  0.00     0.118 C 
BRANCH  63  64
ATOM     64  N   UNL A   1      29.903  31.091  23.962  1.00  0.00    -0.352 N 
ATOM     65  C   UNL A   1      29.511  30.252  22.948  1.00  0.00     0.251 C 
ATOM     66  H   UNL A   1      29.486  31.982  23.953  1.00  0.00     0.163 HD
ATOM     67  O   UNL A   1      28.862  30.685  22.001  1.00  0.00    -0.269 OA
BRANCH  65  68
ATOM     68  C   UNL A   1      29.875  28.823  22.983  1.00  0.00     0.042 A 
ATOM     69  C   UNL A   1      28.989  27.875  23.502  1.00  0.00     0.014 A 
ATOM     70  C   UNL A   1      31.095  28.426  22.439  1.00  0.00     0.053 A 
ATOM     71  C   UNL A   1      29.367  26.529  23.551  1.00  0.00     0.013 A 
ATOM     72  C   UNL A   1      31.471  27.089  22.522  1.00  0.00     0.132 A 
ATOM     73  C   UNL A   1      30.648  26.131  23.126  1.00  0.00     0.042 A 
ATOM     74  F   UNL A   1      32.674  26.732  22.052  1.00  0.00    -0.206 F 
BRANCH  73  75
ATOM     75  C   UNL A   1      31.143  24.720  23.352  1.00  0.00     0.302 C 
BRANCH  75  76
ATOM     76  N   UNL A   1      31.841  24.417  24.613  1.00  0.00    -0.322 N 
ATOM     77  C   UNL A   1      33.309  24.416  24.560  1.00  0.00     0.324 C 
ATOM     78  C   UNL A   1      31.371  25.127  25.807  1.00  0.00     0.328 C 
ATOM     79  H   UNL A   1      31.550  23.445  24.721  1.00  0.00     0.348 HD
ATOM     80  C   UNL A   1      34.014  25.761  24.877  1.00  0.00     0.324 C 
ATOM     81  C   UNL A   1      32.007  26.524  26.007  1.00  0.00     0.239 C 
ATOM     82  N   UNL A   1      33.483  26.488  26.053  1.00  0.00    -0.323 N 
ATOM     83  C   UNL A   1      31.438  27.216  27.250  1.00  0.00     0.071 C 
ATOM     84  C   UNL A   1      34.028  27.855  26.087  1.00  0.00     0.262 C 
ATOM     85  H   UNL A   1      33.769  25.999  26.902  1.00  0.00     0.348 HD
ATOM     86  C   UNL A   1      31.942  28.655  27.301  1.00  0.00     0.012 C 
ATOM     87  C   UNL A   1      33.467  28.678  27.253  1.00  0.00     0.062 C 
ENDBRANCH  75  76
ENDBRANCH  73  75
ENDBRANCH  65  68
ENDBRANCH  63  64
ENDBRANCH   1  63
TORSDOF 12
ENDMDL
MODEL 3
REMARK VINA RESULT:     -12.1      2.532      7.728
REMARK SMILES O=C(NCCCNC(=O)c1ccc(C[N@H+]2CC[N@H+]3CCCC[C@@H]3C2)c(F)c1)c1ccc(-c2c3nc(c(-c4c(F)cccc4F)c4ccc([nH]4)c(-c4c(F)cccc4F)c4nc(c(-c5c(F)cccc5F)c5ccc2[nH]5)C=C4)C=C3)cc1
REMARK SMILES IDX 5 1 4 2 3 3 1 4 2 5 28 7 29 8 81 9 30 10 80 11 31 12 32 13
REMARK SMILES IDX 33 14 74 15 34 16 79 17 73 18 75 19 35 20 78 21 72 22 71 23
REMARK SMILES IDX 36 25 62 26 45 27 61 28 46 29 49 30 60 31 76 32 47 33 48 34
REMARK SMILES IDX 59 36 77 37 50 38 37 39 38 40 43 41 39 42 40 43 42 44 44 45
REMARK SMILES IDX 41 46 63 47 64 48 69 49 65 50 66 51 68 52 70 53 67 54 51 55
REMARK SMILES IDX 52 56 57 57 53 58 54 59 56 60 58 61 55 62 6 63 7 64 8 65
REMARK SMILES IDX 9 67 10 68 11 69 27 70 12 71 25 72 13 73 26 74 14 75 15 76
REMARK SMILES IDX 16 77 24 78 17 80 23 81 18 82 22 83 19 84 21 86 20 87
REMARK H PARENT 3 6 75 24 49 35 7 66 15 79 18 85
REMARK Flexibility Score: inf
ROOT
ATOM      1  C   UNL A   1      33.307  28.108  25.410  1.00  0.00     0.042 C 
ENDROOT
BRANCH   1   2
ATOM      2  C   UNL A   1      33.924  28.245  26.797  1.00  0.00     0.118 C 
BRANCH   2   3
ATOM      3  N   UNL A   1      33.736  29.569  27.381  1.00  0.00    -0.352 N 
ATOM      4  O   UNL A   1      34.143  31.404  28.607  1.00  0.00    -0.269 OA
ATOM      5  C   UNL A   1      34.588  30.381  28.092  1.00  0.00     0.251 C 
ATOM      6  H   UNL A   1      32.839  29.948  27.242  1.00  0.00     0.163 HD
BRANCH   5   7
ATOM      7  C   UNL A   1      36.020  30.041  28.272  1.00  0.00     0.039 A 
ATOM      8  C   UNL A   1      36.962  30.283  27.275  1.00  0.00     0.014 A 
ATOM      9  C   UNL A   1      36.441  29.507  29.498  1.00  0.00     0.014 A 
ATOM     10  C   UNL A   1      38.270  29.834  27.426  1.00  0.00     0.010 A 
ATOM     11  C   UNL A   1      37.782  29.154  29.690  1.00  0.00     0.010 A 
ATOM     12  C   UNL A   1      38.703  29.278  28.640  1.00  0.00    -0.014 A 
BRANCH  12  13
ATOM     13  C   UNL A   1      40.130  28.888  28.797  1.00  0.00     0.031 A 
ATOM     14  C   UNL A   1      41.124  29.807  29.452  1.00  0.00     0.074 A 
ATOM     15  C   UNL A   1      40.519  27.667  28.381  1.00  0.00     0.049 A 
ATOM     16  N   UNL A   1      42.393  29.602  29.702  1.00  0.00    -0.248 NA
ATOM     17  C   UNL A   1      40.635  31.128  29.876  1.00  0.00     0.031 C 
ATOM     18  C   UNL A   1      39.650  26.687  27.728  1.00  0.00     0.029 A 
ATOM     19  N   UNL A   1      41.731  27.030  28.467  1.00  0.00    -0.354 N 
ATOM     20  C   UNL A   1      42.857  30.766  30.301  1.00  0.00     0.074 A 
ATOM     21  C   UNL A   1      41.743  31.689  30.343  1.00  0.00     0.031 C 
ATOM     22  C   UNL A   1      40.336  25.553  27.529  1.00  0.00     0.029 A 
ATOM     23  C   UNL A   1      41.712  25.748  27.975  1.00  0.00     0.049 A 
ATOM     24  H   UNL A   1      42.537  27.451  28.845  1.00  0.00     0.167 HD
ATOM     25  C   UNL A   1      44.095  31.035  30.784  1.00  0.00     0.037 A 
ATOM     26  C   UNL A   1      42.690  24.828  27.879  1.00  0.00     0.037 A 
ATOM     27  C   UNL A   1      45.199  30.110  30.743  1.00  0.00     0.049 A 
ATOM     28  C   UNL A   1      44.063  25.164  28.379  1.00  0.00     0.074 A 
ATOM     29  C   UNL A   1      46.486  30.285  31.224  1.00  0.00     0.029 A 
ATOM     30  N   UNL A   1      45.152  28.840  30.186  1.00  0.00    -0.354 N 
ATOM     31  N   UNL A   1      44.482  26.263  28.957  1.00  0.00    -0.248 NA
ATOM     32  C   UNL A   1      45.101  24.138  28.209  1.00  0.00     0.031 C 
ATOM     33  C   UNL A   1      47.230  29.144  30.910  1.00  0.00     0.029 A 
ATOM     34  C   UNL A   1      46.393  28.232  30.290  1.00  0.00     0.049 A 
ATOM     35  H   UNL A   1      44.355  28.432  29.777  1.00  0.00     0.167 HD
ATOM     36  C   UNL A   1      45.826  26.058  29.237  1.00  0.00     0.074 A 
ATOM     37  C   UNL A   1      46.149  24.723  28.775  1.00  0.00     0.031 C 
ATOM     38  C   UNL A   1      46.707  26.902  29.825  1.00  0.00     0.037 A 
BRANCH  25  39
ATOM     39  C   UNL A   1      44.329  32.392  31.387  1.00  0.00     0.057 A 
ATOM     40  C   UNL A   1      44.777  33.458  30.596  1.00  0.00     0.134 A 
ATOM     41  C   UNL A   1      44.162  32.634  32.756  1.00  0.00     0.134 A 
ATOM     42  F   UNL A   1      44.969  33.296  29.277  1.00  0.00    -0.206 F 
ATOM     43  C   UNL A   1      45.056  34.712  31.145  1.00  0.00     0.040 A 
ATOM     44  C   UNL A   1      44.410  33.890  33.313  1.00  0.00     0.040 A 
ATOM     45  F   UNL A   1      43.726  31.660  33.571  1.00  0.00    -0.206 F 
ATOM     46  C   UNL A   1      44.867  34.932  32.507  1.00  0.00     0.006 A 
ENDBRANCH  25  39
BRANCH  26  47
ATOM     47  C   UNL A   1      42.376  23.499  27.298  1.00  0.00     0.057 A 
ATOM     48  C   UNL A   1      42.021  22.414  28.110  1.00  0.00     0.134 A 
ATOM     49  C   UNL A   1      42.497  23.267  25.925  1.00  0.00     0.134 A 
ATOM     50  F   UNL A   1      41.901  22.572  29.437  1.00  0.00    -0.206 F 
ATOM     51  C   UNL A   1      41.834  21.136  27.582  1.00  0.00     0.040 A 
ATOM     52  C   UNL A   1      42.286  22.000  25.379  1.00  0.00     0.040 A 
ATOM     53  F   UNL A   1      42.818  24.270  25.095  1.00  0.00    -0.206 F 
ATOM     54  C   UNL A   1      41.966  20.927  26.210  1.00  0.00     0.006 A 
ENDBRANCH  26  47
BRANCH  38  55
ATOM     55  C   UNL A   1      48.109  26.407  30.032  1.00  0.00     0.057 A 
ATOM     56  C   UNL A   1      49.066  26.539  29.016  1.00  0.00     0.134 A 
ATOM     57  C   UNL A   1      48.493  25.737  31.199  1.00  0.00     0.134 A 
ATOM     58  F   UNL A   1      48.761  27.164  27.869  1.00  0.00    -0.206 F 
ATOM     59  C   UNL A   1      50.349  26.006  29.148  1.00  0.00     0.040 A 
ATOM     60  C   UNL A   1      49.782  25.223  31.353  1.00  0.00     0.040 A 
ATOM     61  F   UNL A   1      47.628  25.588  32.213  1.00  0.00    -0.206 F 
ATOM     62  C   UNL A   1      50.711  25.348  30.321  1.00  0.00     0.006 A 
ENDBRANCH  38  55
ENDBRANCH  12  13
ENDBRANCH   5   7
ENDBRANCH   2   3
ENDBRANCH   1   2
BRANCH   1  63
ATOM     63  C   UNL A   1      31.849  27.658  25.401  1.00  0.00     0.118 C 
BRANCH  63  64
ATOM     64  N   UNL A   1      31.197  27.952  24.136  1.00  0.00    -0.352 N 
ATOM     65  C   UNL A   1      31.059  27.165  23.019  1.00  0.00     0.251 C 
ATOM     66  H   UNL A   1      30.794  28.848  24.069  1.00  0.00     0.163 HD
ATOM     67  O   UNL A   1      30.657  27.648  21.966  1.00  0.00    -0.269 OA
BRANCH  65  68
ATOM     68  C   UNL A   1      31.404  25.732  23.074  1.00  0.00     0.042 A 
ATOM     69  C   UNL A   1      30.466  24.790  23.504  1.00  0.00     0.014 A 
ATOM     70  C   UNL A   1      32.664  25.325  22.638  1.00  0.00     0.053 A 
ATOM     71  C   UNL A   1      30.824  23.439  23.575  1.00  0.00     0.013 A 
ATOM     72  C   UNL A   1      33.016  23.983  22.742  1.00  0.00     0.132 A 
ATOM     73  C   UNL A   1      32.133  23.030  23.263  1.00  0.00     0.042 A 
ATOM     74  F   UNL A   1      34.253  23.616  22.378  1.00  0.00    -0.206 F 
BRANCH  73  75
ATOM     75  C   UNL A   1      32.592  21.612  23.520  1.00  0.00     0.302 C 
BRANCH  75  76
ATOM     76  N   UNL A   1      33.053  21.260  24.872  1.00  0.00    -0.322 N 
ATOM     77  C   UNL A   1      33.739  19.968  25.011  1.00  0.00     0.324 C 
ATOM     78  C   UNL A   1      33.773  22.305  25.610  1.00  0.00     0.328 C 
ATOM     79  H   UNL A   1      32.145  21.160  25.325  1.00  0.00     0.348 HD
ATOM     80  C   UNL A   1      35.282  19.983  24.845  1.00  0.00     0.324 C 
ATOM     81  C   UNL A   1      35.290  22.364  25.309  1.00  0.00     0.239 C 
ATOM     82  N   UNL A   1      35.980  21.082  25.552  1.00  0.00    -0.323 N 
ATOM     83  C   UNL A   1      35.961  23.502  26.086  1.00  0.00     0.071 C 
ATOM     84  C   UNL A   1      37.380  21.160  25.101  1.00  0.00     0.262 C 
ATOM     85  H   UNL A   1      35.968  20.892  26.555  1.00  0.00     0.348 HD
ATOM     86  C   UNL A   1      37.404  23.650  25.616  1.00  0.00     0.012 C 
ATOM     87  C   UNL A   1      38.140  22.320  25.755  1.00  0.00     0.062 C 
ENDBRANCH  75  76
ENDBRANCH  73  75
ENDBRANCH  65  68
ENDBRANCH  63  64
ENDBRANCH   1  63
TORSDOF 12
ENDMDL
