MODEL 1
REMARK VINA RESULT:     -12.8      0.000      0.000
REMARK SMILES CCn1ncc(NC(=O)[C@@H]2CCCC[C@@H]2C(=O)NCCCNC(=O)c2ccc(-c3c4nc(c(-c5c(F)cccc5F)c5ccc([nH]5)c(-c5c(F)cccc5F)c5nc(c(-c6c(F)cccc6F)c6ccc3[nH]6)C=C5)C=C4)cc2)c1C(=O)Nc1cnn(C)c1C
REMARK SMILES IDX 19 1 18 2 16 3 17 4 15 6 10 7 11 8 12 9 14 10 13 11 8 12
REMARK SMILES IDX 7 13 9 15 6 16 3 17 4 18 79 19 5 20 2 21 1 22 80 23 81 24
REMARK SMILES IDX 82 25 83 27 84 28 88 29 85 30 86 31 89 32 87 33 20 34 21 35
REMARK SMILES IDX 22 36 23 37 24 39 25 40 26 41 78 42 27 43 77 44 28 45 29 46
REMARK SMILES IDX 30 47 71 48 31 49 76 50 70 51 72 52 32 53 75 54 69 55 68 56
REMARK SMILES IDX 33 58 59 59 42 60 58 61 43 62 46 63 57 64 73 65 44 66 45 67
REMARK SMILES IDX 56 69 74 70 47 71 34 72 35 73 40 74 36 75 37 76 39 77 41 78
REMARK SMILES IDX 38 79 60 80 61 81 66 82 62 83 63 84 65 85 67 86 64 87 48 88
REMARK SMILES IDX 49 89 54 90 50 91 51 92 53 93 55 94 52 95
REMARK H PARENT 18 5 7 14 82 26 22 38 72 57 46 68
REMARK Flexibility Score: inf
ROOT
ATOM      1  C   UNL A   1      34.372  28.461  26.077  1.00  0.00     0.117 C 
ENDROOT
BRANCH   1   2
ATOM      2  N   UNL A   1      33.821  29.046  24.872  1.00  0.00    -0.356 N 
ATOM      3  C   UNL A   1      33.141  28.438  23.865  1.00  0.00     0.223 C 
ATOM      4  O   UNL A   1      33.181  28.986  22.762  1.00  0.00    -0.275 OA
ATOM      5  H   UNL A   1      33.957  30.016  24.770  1.00  0.00     0.163 HD
BRANCH   3   6
ATOM      6  C   UNL A   1      32.343  27.154  24.155  1.00  0.00     0.091 C 
ATOM      7  C   UNL A   1      31.918  26.435  22.831  1.00  0.00     0.091 C 
ATOM      8  C   UNL A   1      31.032  27.400  22.034  1.00  0.00     0.014 C 
ATOM      9  C   UNL A   1      29.780  27.746  22.826  1.00  0.00     0.001 C 
ATOM     10  C   UNL A   1      31.048  27.464  24.949  1.00  0.00     0.014 C 
ATOM     11  C   UNL A   1      30.095  28.362  24.169  1.00  0.00     0.001 C 
BRANCH   7  12
ATOM     12  C   UNL A   1      33.108  25.792  22.117  1.00  0.00     0.228 C 
ATOM     13  N   UNL A   1      33.597  24.548  22.387  1.00  0.00    -0.322 N 
ATOM     14  H   UNL A   1      34.403  24.334  21.864  1.00  0.00     0.170 HD
ATOM     15  O   UNL A   1      33.723  26.432  21.250  1.00  0.00    -0.274 OA
BRANCH  13  16
ATOM     16  C   UNL A   1      33.218  23.514  23.232  1.00  0.00     0.092 A 
ATOM     17  N   UNL A   1      32.344  22.317  24.809  1.00  0.00    -0.258 N 
ATOM     18  N   UNL A   1      32.115  21.586  23.694  1.00  0.00    -0.178 NA
ATOM     19  C   UNL A   1      33.318  23.289  24.616  1.00  0.00     0.150 A 
ATOM     20  C   UNL A   1      32.601  22.350  22.725  1.00  0.00     0.162 A 
BRANCH  17  21
ATOM     21  C   UNL A   1      31.416  22.074  25.895  1.00  0.00     0.142 C 
ATOM     22  C   UNL A   1      30.654  23.309  26.350  1.00  0.00     0.029 C 
ENDBRANCH  17  21
BRANCH  19  23
ATOM     23  C   UNL A   1      34.221  23.980  25.539  1.00  0.00     0.276 C 
ATOM     24  O   UNL A   1      33.982  25.138  25.897  1.00  0.00    -0.267 OA
ATOM     25  N   UNL A   1      35.189  23.327  26.272  1.00  0.00    -0.318 N 
ATOM     26  H   UNL A   1      35.097  23.417  27.248  1.00  0.00     0.170 HD
BRANCH  25  27
ATOM     27  C   UNL A   1      36.261  22.570  25.865  1.00  0.00     0.082 A 
ATOM     28  C   UNL A   1      36.291  21.348  25.167  1.00  0.00     0.161 A 
ATOM     29  C   UNL A   1      37.590  22.936  26.000  1.00  0.00     0.059 A 
ATOM     30  N   UNL A   1      37.533  20.877  25.042  1.00  0.00    -0.179 NA
ATOM     31  N   UNL A   1      38.298  21.815  25.636  1.00  0.00    -0.271 N 
ATOM     32  C   UNL A   1      38.256  24.140  26.563  1.00  0.00     0.068 C 
ATOM     33  C   UNL A   1      39.666  21.487  25.968  1.00  0.00     0.174 C 
ENDBRANCH  25  27
ENDBRANCH  19  23
ENDBRANCH  13  16
ENDBRANCH   7  12
ENDBRANCH   3   6
ENDBRANCH   1   2
BRANCH   1  34
ATOM     34  C   UNL A   1      34.218  29.396  27.270  1.00  0.00     0.042 C 
BRANCH  34  35
ATOM     35  C   UNL A   1      35.545  29.958  27.744  1.00  0.00     0.118 C 
BRANCH  35  36
ATOM     36  N   UNL A   1      35.586  30.143  29.190  1.00  0.00    -0.352 N 
ATOM     37  C   UNL A   1      36.513  29.654  30.085  1.00  0.00     0.251 C 
ATOM     38  H   UNL A   1      34.860  30.685  29.576  1.00  0.00     0.163 HD
ATOM     39  O   UNL A   1      36.278  29.617  31.278  1.00  0.00    -0.269 OA
BRANCH  37  40
ATOM     40  C   UNL A   1      37.796  29.158  29.557  1.00  0.00     0.039 A 
ATOM     41  C   UNL A   1      38.548  29.959  28.699  1.00  0.00     0.014 A 
ATOM     42  C   UNL A   1      38.258  27.905  29.964  1.00  0.00     0.014 A 
ATOM     43  C   UNL A   1      39.810  29.522  28.319  1.00  0.00     0.010 A 
ATOM     44  C   UNL A   1      39.551  27.529  29.686  1.00  0.00     0.010 A 
ATOM     45  C   UNL A   1      40.320  28.319  28.840  1.00  0.00    -0.014 A 
BRANCH  45  46
ATOM     46  C   UNL A   1      41.720  27.978  28.615  1.00  0.00     0.031 A 
ATOM     47  C   UNL A   1      41.912  26.729  27.828  1.00  0.00     0.074 A 
ATOM     48  C   UNL A   1      42.761  28.778  28.925  1.00  0.00     0.049 A 
ATOM     49  N   UNL A   1      42.340  25.591  28.264  1.00  0.00    -0.248 NA
ATOM     50  C   UNL A   1      41.418  26.687  26.442  1.00  0.00     0.031 C 
ATOM     51  C   UNL A   1      42.739  30.164  29.399  1.00  0.00     0.029 A 
ATOM     52  N   UNL A   1      44.095  28.529  28.796  1.00  0.00    -0.354 N 
ATOM     53  C   UNL A   1      42.382  24.747  27.158  1.00  0.00     0.074 A 
ATOM     54  C   UNL A   1      41.632  25.408  26.124  1.00  0.00     0.031 C 
ATOM     55  C   UNL A   1      43.978  30.697  29.303  1.00  0.00     0.029 A 
ATOM     56  C   UNL A   1      44.909  29.647  28.928  1.00  0.00     0.049 A 
ATOM     57  H   UNL A   1      44.452  27.628  28.623  1.00  0.00     0.167 HD
ATOM     58  C   UNL A   1      43.253  23.700  27.122  1.00  0.00     0.037 A 
ATOM     59  C   UNL A   1      46.249  29.706  28.728  1.00  0.00     0.037 A 
ATOM     60  C   UNL A   1      43.745  23.402  28.447  1.00  0.00     0.049 A 
ATOM     61  C   UNL A   1      46.770  28.321  28.813  1.00  0.00     0.074 A 
ATOM     62  C   UNL A   1      43.163  23.050  29.651  1.00  0.00     0.029 A 
ATOM     63  N   UNL A   1      45.011  23.836  28.760  1.00  0.00    -0.354 N 
ATOM     64  N   UNL A   1      46.817  27.627  29.914  1.00  0.00    -0.248 NA
ATOM     65  C   UNL A   1      46.835  27.548  27.584  1.00  0.00     0.031 C 
ATOM     66  C   UNL A   1      43.920  23.743  30.642  1.00  0.00     0.029 A 
ATOM     67  C   UNL A   1      44.964  24.410  30.001  1.00  0.00     0.049 A 
ATOM     68  H   UNL A   1      45.810  23.748  28.191  1.00  0.00     0.167 HD
ATOM     69  C   UNL A   1      46.451  26.346  29.532  1.00  0.00     0.074 A 
ATOM     70  C   UNL A   1      46.580  26.332  28.077  1.00  0.00     0.031 C 
ATOM     71  C   UNL A   1      45.802  25.517  30.401  1.00  0.00     0.037 A 
BRANCH  58  72
ATOM     72  C   UNL A   1      43.991  23.239  25.881  1.00  0.00     0.057 A 
ATOM     73  C   UNL A   1      44.035  21.859  25.597  1.00  0.00     0.134 A 
ATOM     74  C   UNL A   1      44.907  24.022  25.150  1.00  0.00     0.134 A 
ATOM     75  F   UNL A   1      43.210  21.000  26.213  1.00  0.00    -0.206 F 
ATOM     76  C   UNL A   1      44.994  21.295  24.746  1.00  0.00     0.040 A 
ATOM     77  C   UNL A   1      45.836  23.473  24.262  1.00  0.00     0.040 A 
ATOM     78  F   UNL A   1      45.030  25.342  25.319  1.00  0.00    -0.206 F 
ATOM     79  C   UNL A   1      45.910  22.102  24.088  1.00  0.00     0.006 A 
ENDBRANCH  58  72
BRANCH  59  80
ATOM     80  C   UNL A   1      47.085  30.816  28.218  1.00  0.00     0.057 A 
ATOM     81  C   UNL A   1      46.830  31.396  26.966  1.00  0.00     0.134 A 
ATOM     82  C   UNL A   1      47.947  31.532  29.065  1.00  0.00     0.134 A 
ATOM     83  F   UNL A   1      45.993  30.806  26.099  1.00  0.00    -0.206 F 
ATOM     84  C   UNL A   1      47.365  32.637  26.594  1.00  0.00     0.040 A 
ATOM     85  C   UNL A   1      48.494  32.768  28.704  1.00  0.00     0.040 A 
ATOM     86  F   UNL A   1      48.212  31.101  30.307  1.00  0.00    -0.206 F 
ATOM     87  C   UNL A   1      48.188  33.335  27.472  1.00  0.00     0.006 A 
ENDBRANCH  59  80
BRANCH  71  88
ATOM     88  C   UNL A   1      45.772  25.898  31.856  1.00  0.00     0.057 A 
ATOM     89  C   UNL A   1      46.827  25.695  32.759  1.00  0.00     0.134 A 
ATOM     90  C   UNL A   1      44.672  26.625  32.325  1.00  0.00     0.134 A 
ATOM     91  F   UNL A   1      47.964  25.094  32.382  1.00  0.00    -0.206 F 
ATOM     92  C   UNL A   1      46.766  26.156  34.079  1.00  0.00     0.040 A 
ATOM     93  C   UNL A   1      44.615  27.123  33.627  1.00  0.00     0.040 A 
ATOM     94  F   UNL A   1      43.647  26.904  31.504  1.00  0.00    -0.206 F 
ATOM     95  C   UNL A   1      45.660  26.879  34.514  1.00  0.00     0.006 A 
ENDBRANCH  71  88
ENDBRANCH  45  46
ENDBRANCH  37  40
ENDBRANCH  35  36
ENDBRANCH  34  35
ENDBRANCH   1  34
TORSDOF 15
ENDMDL
MODEL 2
REMARK VINA RESULT:     -12.5      1.825      5.883
REMARK SMILES CCn1ncc(NC(=O)[C@@H]2CCCC[C@@H]2C(=O)NCCCNC(=O)c2ccc(-c3c4nc(c(-c5c(F)cccc5F)c5ccc([nH]5)c(-c5c(F)cccc5F)c5nc(c(-c6c(F)cccc6F)c6ccc3[nH]6)C=C5)C=C4)cc2)c1C(=O)Nc1cnn(C)c1C
REMARK SMILES IDX 19 1 18 2 16 3 17 4 15 6 10 7 11 8 12 9 14 10 13 11 8 12
REMARK SMILES IDX 7 13 9 15 6 16 3 17 4 18 79 19 5 20 2 21 1 22 80 23 81 24
REMARK SMILES IDX 82 25 83 27 84 28 88 29 85 30 86 31 89 32 87 33 20 34 21 35
REMARK SMILES IDX 22 36 23 37 24 39 25 40 26 41 78 42 27 43 77 44 28 45 29 46
REMARK SMILES IDX 30 47 71 48 31 49 76 50 70 51 72 52 32 53 75 54 69 55 68 56
REMARK SMILES IDX 33 58 59 59 42 60 58 61 43 62 46 63 57 64 73 65 44 66 45 67
REMARK SMILES IDX 56 69 74 70 47 71 34 72 35 73 40 74 36 75 37 76 39 77 41 78
REMARK SMILES IDX 38 79 60 80 61 81 66 82 62 83 63 84 65 85 67 86 64 87 48 88
REMARK SMILES IDX 49 89 54 90 50 91 51 92 53 93 55 94 52 95
REMARK H PARENT 18 5 7 14 82 26 22 38 72 57 46 68
REMARK Flexibility Score: inf
ROOT
ATOM      1  C   UNL A   1      34.034  28.633  26.236  1.00  0.00     0.117 C 
ENDROOT
BRANCH   1   2
ATOM      2  N   UNL A   1      33.832  28.992  24.847  1.00  0.00    -0.356 N 
ATOM      3  C   UNL A   1      33.340  28.232  23.835  1.00  0.00     0.223 C 
ATOM      4  O   UNL A   1      33.683  28.543  22.694  1.00  0.00    -0.275 OA
ATOM      5  H   UNL A   1      34.084  29.913  24.605  1.00  0.00     0.163 HD
BRANCH   3   6
ATOM      6  C   UNL A   1      32.372  27.078  24.153  1.00  0.00     0.091 C 
ATOM      7  C   UNL A   1      31.829  26.411  22.845  1.00  0.00     0.091 C 
ATOM      8  C   UNL A   1      31.078  27.484  22.047  1.00  0.00     0.014 C 
ATOM      9  C   UNL A   1      29.899  28.013  22.850  1.00  0.00     0.001 C 
ATOM     10  C   UNL A   1      31.147  27.579  24.960  1.00  0.00     0.014 C 
ATOM     11  C   UNL A   1      30.319  28.594  24.181  1.00  0.00     0.001 C 
BRANCH   7  12
ATOM     12  C   UNL A   1      32.904  25.597  22.123  1.00  0.00     0.228 C 
ATOM     13  N   UNL A   1      33.398  24.403  22.559  1.00  0.00    -0.322 N 
ATOM     14  H   UNL A   1      34.126  24.062  21.991  1.00  0.00     0.170 HD
ATOM     15  O   UNL A   1      33.416  26.041  21.084  1.00  0.00    -0.274 OA
BRANCH  13  16
ATOM     16  C   UNL A   1      33.109  23.558  23.622  1.00  0.00     0.092 A 
ATOM     17  N   UNL A   1      32.490  22.723  25.520  1.00  0.00    -0.258 N 
ATOM     18  N   UNL A   1      31.934  21.889  24.612  1.00  0.00    -0.178 NA
ATOM     19  C   UNL A   1      33.495  23.511  24.973  1.00  0.00     0.150 A 
ATOM     20  C   UNL A   1      32.268  22.437  23.452  1.00  0.00     0.162 A 
BRANCH  17  21
ATOM     21  C   UNL A   1      31.811  22.766  26.800  1.00  0.00     0.142 C 
ATOM     22  C   UNL A   1      30.313  23.005  26.702  1.00  0.00     0.029 C 
ENDBRANCH  17  21
BRANCH  19  23
ATOM     23  C   UNL A   1      34.654  24.184  25.563  1.00  0.00     0.276 C 
ATOM     24  O   UNL A   1      34.652  25.409  25.721  1.00  0.00    -0.267 OA
ATOM     25  N   UNL A   1      35.658  23.508  26.225  1.00  0.00    -0.318 N 
ATOM     26  H   UNL A   1      35.784  23.776  27.164  1.00  0.00     0.170 HD
BRANCH  25  27
ATOM     27  C   UNL A   1      36.510  22.523  25.790  1.00  0.00     0.082 A 
ATOM     28  C   UNL A   1      36.233  21.325  25.105  1.00  0.00     0.161 A 
ATOM     29  C   UNL A   1      37.893  22.572  25.877  1.00  0.00     0.059 A 
ATOM     30  N   UNL A   1      37.327  20.578  24.944  1.00  0.00    -0.179 NA
ATOM     31  N   UNL A   1      38.308  21.316  25.501  1.00  0.00    -0.271 N 
ATOM     32  C   UNL A   1      38.838  23.591  26.404  1.00  0.00     0.068 C 
ATOM     33  C   UNL A   1      39.574  20.681  25.792  1.00  0.00     0.174 C 
ENDBRANCH  25  27
ENDBRANCH  19  23
ENDBRANCH  13  16
ENDBRANCH   7  12
ENDBRANCH   3   6
ENDBRANCH   1   2
BRANCH   1  34
ATOM     34  C   UNL A   1      33.650  29.776  27.167  1.00  0.00     0.042 C 
BRANCH  34  35
ATOM     35  C   UNL A   1      34.842  30.625  27.567  1.00  0.00     0.118 C 
BRANCH  35  36
ATOM     36  N   UNL A   1      34.505  31.611  28.588  1.00  0.00    -0.352 N 
ATOM     37  C   UNL A   1      35.059  31.763  29.841  1.00  0.00     0.251 C 
ATOM     38  H   UNL A   1      33.791  32.249  28.353  1.00  0.00     0.163 HD
ATOM     39  O   UNL A   1      34.496  32.411  30.703  1.00  0.00    -0.269 OA
BRANCH  37  40
ATOM     40  C   UNL A   1      36.346  31.102  30.118  1.00  0.00     0.039 A 
ATOM     41  C   UNL A   1      36.365  29.780  30.560  1.00  0.00     0.014 A 
ATOM     42  C   UNL A   1      37.531  31.802  29.887  1.00  0.00     0.014 A 
ATOM     43  C   UNL A   1      37.591  29.141  30.690  1.00  0.00     0.010 A 
ATOM     44  C   UNL A   1      38.734  31.136  29.899  1.00  0.00     0.010 A 
ATOM     45  C   UNL A   1      38.772  29.814  30.328  1.00  0.00    -0.014 A 
BRANCH  45  46
ATOM     46  C   UNL A   1      40.025  29.071  30.256  1.00  0.00     0.031 A 
ATOM     47  C   UNL A   1      40.712  28.929  31.569  1.00  0.00     0.074 A 
ATOM     48  C   UNL A   1      40.465  28.418  29.161  1.00  0.00     0.049 A 
ATOM     49  N   UNL A   1      41.794  29.522  31.950  1.00  0.00    -0.248 NA
ATOM     50  C   UNL A   1      40.037  28.178  32.640  1.00  0.00     0.031 C 
ATOM     51  C   UNL A   1      39.764  28.181  27.896  1.00  0.00     0.029 A 
ATOM     52  N   UNL A   1      41.634  27.741  28.985  1.00  0.00    -0.354 N 
ATOM     53  C   UNL A   1      42.062  29.047  33.231  1.00  0.00     0.074 A 
ATOM     54  C   UNL A   1      40.862  28.385  33.668  1.00  0.00     0.031 C 
ATOM     55  C   UNL A   1      40.422  27.240  27.182  1.00  0.00     0.029 A 
ATOM     56  C   UNL A   1      41.673  26.936  27.853  1.00  0.00     0.049 A 
ATOM     57  H   UNL A   1      42.391  27.817  29.610  1.00  0.00     0.167 HD
ATOM     58  C   UNL A   1      43.339  29.023  33.705  1.00  0.00     0.037 A 
ATOM     59  C   UNL A   1      42.657  26.070  27.505  1.00  0.00     0.037 A 
ATOM     60  C   UNL A   1      44.192  29.876  32.911  1.00  0.00     0.049 A 
ATOM     61  C   UNL A   1      43.876  26.461  28.252  1.00  0.00     0.074 A 
ATOM     62  C   UNL A   1      44.198  31.219  32.582  1.00  0.00     0.029 A 
ATOM     63  N   UNL A   1      45.018  29.267  31.999  1.00  0.00    -0.354 N 
ATOM     64  N   UNL A   1      44.551  27.551  28.023  1.00  0.00    -0.248 NA
ATOM     65  C   UNL A   1      44.094  25.852  29.554  1.00  0.00     0.031 C 
ATOM     66  C   UNL A   1      44.624  31.263  31.221  1.00  0.00     0.029 A 
ATOM     67  C   UNL A   1      44.930  29.961  30.823  1.00  0.00     0.049 A 
ATOM     68  H   UNL A   1      45.575  28.472  32.162  1.00  0.00     0.167 HD
ATOM     69  C   UNL A   1      44.905  28.011  29.282  1.00  0.00     0.074 A 
ATOM     70  C   UNL A   1      44.692  26.873  30.175  1.00  0.00     0.031 C 
ATOM     71  C   UNL A   1      45.055  29.346  29.521  1.00  0.00     0.037 A 
BRANCH  58  72
ATOM     72  C   UNL A   1      43.910  27.923  34.578  1.00  0.00     0.057 A 
ATOM     73  C   UNL A   1      43.796  26.588  34.141  1.00  0.00     0.134 A 
ATOM     74  C   UNL A   1      44.265  28.073  35.933  1.00  0.00     0.134 A 
ATOM     75  F   UNL A   1      43.474  26.301  32.871  1.00  0.00    -0.206 F 
ATOM     76  C   UNL A   1      43.906  25.497  35.013  1.00  0.00     0.040 A 
ATOM     77  C   UNL A   1      44.425  26.988  36.800  1.00  0.00     0.040 A 
ATOM     78  F   UNL A   1      44.381  29.265  36.526  1.00  0.00    -0.206 F 
ATOM     79  C   UNL A   1      44.205  25.697  36.353  1.00  0.00     0.006 A 
ENDBRANCH  58  72
BRANCH  59  80
ATOM     80  C   UNL A   1      42.576  24.781  26.780  1.00  0.00     0.057 A 
ATOM     81  C   UNL A   1      43.072  24.654  25.474  1.00  0.00     0.134 A 
ATOM     82  C   UNL A   1      42.292  23.581  27.452  1.00  0.00     0.134 A 
ATOM     83  F   UNL A   1      43.404  25.741  24.762  1.00  0.00    -0.206 F 
ATOM     84  C   UNL A   1      43.317  23.406  24.886  1.00  0.00     0.040 A 
ATOM     85  C   UNL A   1      42.525  22.327  26.874  1.00  0.00     0.040 A 
ATOM     86  F   UNL A   1      41.871  23.582  28.725  1.00  0.00    -0.206 F 
ATOM     87  C   UNL A   1      43.057  22.236  25.593  1.00  0.00     0.006 A 
ENDBRANCH  59  80
BRANCH  71  88
ATOM     88  C   UNL A   1      45.137  30.272  28.339  1.00  0.00     0.057 A 
ATOM     89  C   UNL A   1      44.033  30.861  27.704  1.00  0.00     0.134 A 
ATOM     90  C   UNL A   1      46.404  30.686  27.912  1.00  0.00     0.134 A 
ATOM     91  F   UNL A   1      42.779  30.604  28.102  1.00  0.00    -0.206 F 
ATOM     92  C   UNL A   1      44.187  31.785  26.664  1.00  0.00     0.040 A 
ATOM     93  C   UNL A   1      46.572  31.634  26.902  1.00  0.00     0.040 A 
ATOM     94  F   UNL A   1      47.508  30.205  28.506  1.00  0.00    -0.206 F 
ATOM     95  C   UNL A   1      45.461  32.179  26.265  1.00  0.00     0.006 A 
ENDBRANCH  71  88
ENDBRANCH  45  46
ENDBRANCH  37  40
ENDBRANCH  35  36
ENDBRANCH  34  35
ENDBRANCH   1  34
TORSDOF 15
ENDMDL
MODEL 3
REMARK VINA RESULT:     -12.5      3.921      8.937
REMARK SMILES CCn1ncc(NC(=O)[C@@H]2CCCC[C@@H]2C(=O)NCCCNC(=O)c2ccc(-c3c4nc(c(-c5c(F)cccc5F)c5ccc([nH]5)c(-c5c(F)cccc5F)c5nc(c(-c6c(F)cccc6F)c6ccc3[nH]6)C=C5)C=C4)cc2)c1C(=O)Nc1cnn(C)c1C
REMARK SMILES IDX 19 1 18 2 16 3 17 4 15 6 10 7 11 8 12 9 14 10 13 11 8 12
REMARK SMILES IDX 7 13 9 15 6 16 3 17 4 18 79 19 5 20 2 21 1 22 80 23 81 24
REMARK SMILES IDX 82 25 83 27 84 28 88 29 85 30 86 31 89 32 87 33 20 34 21 35
REMARK SMILES IDX 22 36 23 37 24 39 25 40 26 41 78 42 27 43 77 44 28 45 29 46
REMARK SMILES IDX 30 47 71 48 31 49 76 50 70 51 72 52 32 53 75 54 69 55 68 56
REMARK SMILES IDX 33 58 59 59 42 60 58 61 43 62 46 63 57 64 73 65 44 66 45 67
REMARK SMILES IDX 56 69 74 70 47 71 34 72 35 73 40 74 36 75 37 76 39 77 41 78
REMARK SMILES IDX 38 79 60 80 61 81 66 82 62 83 63 84 65 85 67 86 64 87 48 88
REMARK SMILES IDX 49 89 54 90 50 91 51 92 53 93 55 94 52 95
REMARK H PARENT 18 5 7 14 82 26 22 38 72 57 46 68
REMARK Flexibility Score: inf
ROOT
ATOM      1  C   UNL A   1      36.400  23.975  26.137  1.00  0.00     0.117 C 
ENDROOT
BRANCH   1   2
ATOM      2  N   UNL A   1      35.708  22.781  26.574  1.00  0.00    -0.356 N 
ATOM      3  C   UNL A   1      34.397  22.458  26.433  1.00  0.00     0.223 C 
ATOM      4  O   UNL A   1      33.931  21.666  27.255  1.00  0.00    -0.275 OA
ATOM      5  H   UNL A   1      36.265  22.112  27.036  1.00  0.00     0.163 HD
BRANCH   3   6
ATOM      6  C   UNL A   1      33.591  23.048  25.262  1.00  0.00     0.091 C 
ATOM      7  C   UNL A   1      32.052  22.839  25.465  1.00  0.00     0.091 C 
ATOM      8  C   UNL A   1      31.788  21.331  25.539  1.00  0.00     0.014 C 
ATOM      9  C   UNL A   1      32.205  20.656  24.242  1.00  0.00     0.001 C 
ATOM     10  C   UNL A   1      33.975  22.375  23.920  1.00  0.00     0.014 C 
ATOM     11  C   UNL A   1      33.662  20.884  23.912  1.00  0.00     0.001 C 
BRANCH   7  12
ATOM     12  C   UNL A   1      31.492  23.725  26.579  1.00  0.00     0.228 C 
ATOM     13  N   UNL A   1      31.085  25.016  26.415  1.00  0.00    -0.322 N 
ATOM     14  H   UNL A   1      30.811  25.439  27.261  1.00  0.00     0.170 HD
ATOM     15  O   UNL A   1      31.425  23.285  27.738  1.00  0.00    -0.274 OA
BRANCH  13  16
ATOM     16  C   UNL A   1      30.968  25.870  25.328  1.00  0.00     0.092 A 
ATOM     17  N   UNL A   1      31.134  26.827  23.393  1.00  0.00    -0.258 N 
ATOM     18  N   UNL A   1      29.804  26.843  23.640  1.00  0.00    -0.178 NA
ATOM     19  C   UNL A   1      31.885  26.587  24.538  1.00  0.00     0.150 A 
ATOM     20  C   UNL A   1      29.703  26.205  24.799  1.00  0.00     0.162 A 
BRANCH  17  21
ATOM     21  C   UNL A   1      31.491  26.868  21.990  1.00  0.00     0.142 C 
ATOM     22  C   UNL A   1      32.343  25.696  21.529  1.00  0.00     0.029 C 
ENDBRANCH  17  21
BRANCH  19  23
ATOM     23  C   UNL A   1      33.265  26.914  24.900  1.00  0.00     0.276 C 
ATOM     24  O   UNL A   1      34.141  26.042  24.875  1.00  0.00    -0.267 OA
ATOM     25  N   UNL A   1      33.729  28.208  25.003  1.00  0.00    -0.318 N 
ATOM     26  H   UNL A   1      34.473  28.428  24.398  1.00  0.00     0.170 HD
BRANCH  25  27
ATOM     27  C   UNL A   1      33.321  29.242  25.811  1.00  0.00     0.082 A 
ATOM     28  C   UNL A   1      32.102  29.946  25.833  1.00  0.00     0.161 A 
ATOM     29  C   UNL A   1      34.050  29.758  26.871  1.00  0.00     0.059 A 
ATOM     30  N   UNL A   1      32.126  30.956  26.704  1.00  0.00    -0.179 NA
ATOM     31  N   UNL A   1      33.352  30.877  27.259  1.00  0.00    -0.271 N 
ATOM     32  C   UNL A   1      35.373  29.412  27.452  1.00  0.00     0.068 C 
ATOM     33  C   UNL A   1      33.845  32.005  28.018  1.00  0.00     0.174 C 
ENDBRANCH  25  27
ENDBRANCH  19  23
ENDBRANCH  13  16
ENDBRANCH   7  12
ENDBRANCH   3   6
ENDBRANCH   1   2
BRANCH   1  34
ATOM     34  C   UNL A   1      37.838  23.670  25.735  1.00  0.00     0.042 C 
BRANCH  34  35
ATOM     35  C   UNL A   1      38.851  24.362  26.627  1.00  0.00     0.118 C 
BRANCH  35  36
ATOM     36  N   UNL A   1      40.092  24.671  25.925  1.00  0.00    -0.352 N 
ATOM     37  C   UNL A   1      40.828  25.835  25.970  1.00  0.00     0.251 C 
ATOM     38  H   UNL A   1      40.448  23.958  25.346  1.00  0.00     0.163 HD
ATOM     39  O   UNL A   1      41.663  26.084  25.121  1.00  0.00    -0.269 OA
BRANCH  37  40
ATOM     40  C   UNL A   1      40.566  26.783  27.067  1.00  0.00     0.039 A 
ATOM     41  C   UNL A   1      40.527  26.326  28.383  1.00  0.00     0.014 A 
ATOM     42  C   UNL A   1      40.406  28.137  26.769  1.00  0.00     0.014 A 
ATOM     43  C   UNL A   1      40.406  27.257  29.406  1.00  0.00     0.010 A 
ATOM     44  C   UNL A   1      40.408  29.066  27.782  1.00  0.00     0.010 A 
ATOM     45  C   UNL A   1      40.378  28.631  29.101  1.00  0.00    -0.014 A 
BRANCH  45  46
ATOM     46  C   UNL A   1      40.474  29.604  30.182  1.00  0.00     0.031 A 
ATOM     47  C   UNL A   1      39.200  30.325  30.453  1.00  0.00     0.074 A 
ATOM     48  C   UNL A   1      41.544  29.746  30.991  1.00  0.00     0.049 A 
ATOM     49  N   UNL A   1      38.931  31.560  30.186  1.00  0.00    -0.248 NA
ATOM     50  C   UNL A   1      38.037  29.551  30.917  1.00  0.00     0.031 C 
ATOM     51  C   UNL A   1      42.742  28.907  31.076  1.00  0.00     0.029 A 
ATOM     52  N   UNL A   1      41.743  30.652  31.990  1.00  0.00    -0.354 N 
ATOM     53  C   UNL A   1      37.638  31.782  30.652  1.00  0.00     0.074 A 
ATOM     54  C   UNL A   1      37.080  30.481  30.910  1.00  0.00     0.031 C 
ATOM     55  C   UNL A   1      43.425  29.205  32.204  1.00  0.00     0.029 A 
ATOM     56  C   UNL A   1      42.814  30.364  32.828  1.00  0.00     0.049 A 
ATOM     57  H   UNL A   1      41.174  31.446  32.108  1.00  0.00     0.167 HD
ATOM     58  C   UNL A   1      37.245  33.031  31.027  1.00  0.00     0.037 A 
ATOM     59  C   UNL A   1      43.159  31.024  33.962  1.00  0.00     0.037 A 
ATOM     60  C   UNL A   1      38.149  34.027  30.503  1.00  0.00     0.049 A 
ATOM     61  C   UNL A   1      42.520  32.360  33.908  1.00  0.00     0.074 A 
ATOM     62  C   UNL A   1      38.575  34.395  29.240  1.00  0.00     0.029 A 
ATOM     63  N   UNL A   1      39.065  34.565  31.374  1.00  0.00    -0.354 N 
ATOM     64  N   UNL A   1      42.869  33.301  33.078  1.00  0.00    -0.248 NA
ATOM     65  C   UNL A   1      41.193  32.498  34.487  1.00  0.00     0.031 C 
ATOM     66  C   UNL A   1      39.960  34.704  29.393  1.00  0.00     0.029 A 
ATOM     67  C   UNL A   1      40.281  34.587  30.746  1.00  0.00     0.049 A 
ATOM     68  H   UNL A   1      38.880  34.879  32.288  1.00  0.00     0.167 HD
ATOM     69  C   UNL A   1      41.671  33.873  32.679  1.00  0.00     0.074 A 
ATOM     70  C   UNL A   1      40.687  33.414  33.656  1.00  0.00     0.031 C 
ATOM     71  C   UNL A   1      41.540  34.422  31.435  1.00  0.00     0.037 A 
BRANCH  58  72
ATOM     72  C   UNL A   1      36.332  33.328  32.200  1.00  0.00     0.057 A 
ATOM     73  C   UNL A   1      35.275  34.244  32.017  1.00  0.00     0.134 A 
ATOM     74  C   UNL A   1      36.622  33.023  33.544  1.00  0.00     0.134 A 
ATOM     75  F   UNL A   1      34.888  34.615  30.788  1.00  0.00    -0.206 F 
ATOM     76  C   UNL A   1      34.645  34.891  33.087  1.00  0.00     0.040 A 
ATOM     77  C   UNL A   1      35.964  33.627  34.619  1.00  0.00     0.040 A 
ATOM     78  F   UNL A   1      37.616  32.204  33.905  1.00  0.00    -0.206 F 
ATOM     79  C   UNL A   1      35.001  34.594  34.395  1.00  0.00     0.006 A 
ENDBRANCH  58  72
BRANCH  59  80
ATOM     80  C   UNL A   1      43.782  30.515  35.204  1.00  0.00     0.057 A 
ATOM     81  C   UNL A   1      43.220  29.437  35.905  1.00  0.00     0.134 A 
ATOM     82  C   UNL A   1      45.094  30.866  35.562  1.00  0.00     0.134 A 
ATOM     83  F   UNL A   1      41.984  29.005  35.613  1.00  0.00    -0.206 F 
ATOM     84  C   UNL A   1      43.935  28.720  36.874  1.00  0.00     0.040 A 
ATOM     85  C   UNL A   1      45.818  30.163  36.532  1.00  0.00     0.040 A 
ATOM     86  F   UNL A   1      45.751  31.840  34.916  1.00  0.00    -0.206 F 
ATOM     87  C   UNL A   1      45.246  29.073  37.179  1.00  0.00     0.006 A 
ENDBRANCH  59  80
BRANCH  71  88
ATOM     88  C   UNL A   1      42.789  34.673  30.636  1.00  0.00     0.057 A 
ATOM     89  C   UNL A   1      43.629  35.786  30.792  1.00  0.00     0.134 A 
ATOM     90  C   UNL A   1      43.226  33.670  29.763  1.00  0.00     0.134 A 
ATOM     91  F   UNL A   1      43.349  36.755  31.673  1.00  0.00    -0.206 F 
ATOM     92  C   UNL A   1      44.825  35.912  30.076  1.00  0.00     0.040 A 
ATOM     93  C   UNL A   1      44.434  33.766  29.072  1.00  0.00     0.040 A 
ATOM     94  F   UNL A   1      42.500  32.552  29.601  1.00  0.00    -0.206 F 
ATOM     95  C   UNL A   1      45.234  34.895  29.218  1.00  0.00     0.006 A 
ENDBRANCH  71  88
ENDBRANCH  45  46
ENDBRANCH  37  40
ENDBRANCH  35  36
ENDBRANCH  34  35
ENDBRANCH   1  34
TORSDOF 15
ENDMDL
