MODEL 1
REMARK VINA RESULT:     -13.0      0.000      0.000
REMARK SMILES Cc1ccc(NC(=O)[C@H]2CC=CC[C@H]2C(=O)NCCCNC(=O)c2ccc(-c3c4nc(c(-c5c(F)cccc5F)c5ccc([nH]5)c(-c5c(F)cccc5F)c5nc(c(-c6c(F)cccc6F)c6ccc3[nH]6)C=C5)C=C4)cc2)cc1F
REMARK SMILES IDX 19 1 18 2 17 3 15 4 16 5 14 7 9 8 10 9 11 10 13 11 12 12
REMARK SMILES IDX 7 13 6 14 8 16 5 17 1 18 2 19 3 20 79 21 4 22 78 23 80 24
REMARK SMILES IDX 20 25 21 26 22 27 23 29 24 30 25 31 77 32 26 33 76 34 27 35
REMARK SMILES IDX 28 36 29 37 70 38 30 39 75 40 69 41 71 42 31 43 74 44 68 45
REMARK SMILES IDX 67 46 32 48 58 49 41 50 57 51 42 52 45 53 56 54 72 55 43 56
REMARK SMILES IDX 44 57 55 59 73 60 46 61 33 62 34 63 39 64 35 65 36 66 38 67
REMARK SMILES IDX 40 68 37 69 59 70 60 71 65 72 61 73 62 74 64 75 66 76 63 77
REMARK SMILES IDX 47 78 48 79 53 80 49 81 50 82 52 83 54 84 51 85
REMARK H PARENT 17 6 6 15 21 28 71 47 45 58
REMARK Flexibility Score: inf
ROOT
ATOM      1  C   UNL A   1      34.043  28.368  25.960  1.00  0.00     0.042 C 
ENDROOT
BRANCH   1   2
ATOM      2  C   UNL A   1      33.913  26.854  26.073  1.00  0.00     0.117 C 
BRANCH   2   3
ATOM      3  N   UNL A   1      33.648  26.185  24.809  1.00  0.00    -0.356 N 
ATOM      4  C   UNL A   1      34.009  24.956  24.356  1.00  0.00     0.224 C 
ATOM      5  O   UNL A   1      33.481  24.567  23.311  1.00  0.00    -0.275 OA
ATOM      6  H   UNL A   1      33.115  26.713  24.172  1.00  0.00     0.163 HD
BRANCH   4   7
ATOM      7  C   UNL A   1      34.985  24.059  25.107  1.00  0.00     0.095 C 
ATOM      8  C   UNL A   1      34.416  23.240  26.301  1.00  0.00     0.095 C 
ATOM      9  C   UNL A   1      34.983  21.805  26.464  1.00  0.00     0.041 C 
ATOM     10  C   UNL A   1      35.718  21.214  25.312  1.00  0.00    -0.030 C 
ATOM     11  C   UNL A   1      35.895  23.364  24.072  1.00  0.00     0.041 C 
ATOM     12  C   UNL A   1      36.132  21.906  24.251  1.00  0.00    -0.030 C 
BRANCH   8  13
ATOM     13  C   UNL A   1      32.890  23.237  26.485  1.00  0.00     0.228 C 
ATOM     14  N   UNL A   1      32.058  22.290  25.967  1.00  0.00    -0.326 N 
ATOM     15  H   UNL A   1      31.167  22.299  26.385  1.00  0.00     0.169 HD
ATOM     16  O   UNL A   1      32.335  24.109  27.166  1.00  0.00    -0.274 OA
BRANCH  14  17
ATOM     17  C   UNL A   1      32.177  21.305  24.974  1.00  0.00     0.044 A 
ATOM     18  C   UNL A   1      32.530  18.078  22.122  1.00  0.00     0.047 C 
ATOM     19  C   UNL A   1      32.404  19.176  23.132  1.00  0.00    -0.015 A 
ATOM     20  C   UNL A   1      32.528  18.935  24.501  1.00  0.00     0.008 A 
ATOM     21  C   UNL A   1      32.153  20.481  22.709  1.00  0.00     0.128 A 
ATOM     22  C   UNL A   1      32.401  19.990  25.413  1.00  0.00     0.026 A 
ATOM     23  C   UNL A   1      32.033  21.536  23.611  1.00  0.00     0.065 A 
ATOM     24  F   UNL A   1      31.995  20.737  21.402  1.00  0.00    -0.207 F 
ENDBRANCH  14  17
ENDBRANCH   8  13
ENDBRANCH   4   7
ENDBRANCH   2   3
ENDBRANCH   1   2
BRANCH   1  25
ATOM     25  C   UNL A   1      34.071  29.088  27.287  1.00  0.00     0.118 C 
BRANCH  25  26
ATOM     26  N   UNL A   1      34.561  30.451  27.168  1.00  0.00    -0.352 N 
ATOM     27  C   UNL A   1      35.722  30.962  27.703  1.00  0.00     0.251 C 
ATOM     28  H   UNL A   1      34.003  31.074  26.649  1.00  0.00     0.163 HD
ATOM     29  O   UNL A   1      35.900  32.168  27.792  1.00  0.00    -0.269 OA
BRANCH  27  30
ATOM     30  C   UNL A   1      36.778  30.022  28.130  1.00  0.00     0.039 A 
ATOM     31  C   UNL A   1      36.718  29.387  29.380  1.00  0.00     0.014 A 
ATOM     32  C   UNL A   1      37.877  29.846  27.293  1.00  0.00     0.014 A 
ATOM     33  C   UNL A   1      37.778  28.578  29.794  1.00  0.00     0.010 A 
ATOM     34  C   UNL A   1      38.865  28.971  27.650  1.00  0.00     0.010 A 
ATOM     35  C   UNL A   1      38.853  28.395  28.926  1.00  0.00    -0.014 A 
BRANCH  35  36
ATOM     36  C   UNL A   1      40.107  27.734  29.244  1.00  0.00     0.031 A 
ATOM     37  C   UNL A   1      40.430  26.387  28.762  1.00  0.00     0.074 A 
ATOM     38  C   UNL A   1      41.079  28.565  29.679  1.00  0.00     0.049 A 
ATOM     39  N   UNL A   1      41.493  25.749  29.111  1.00  0.00    -0.248 NA
ATOM     40  C   UNL A   1      39.589  25.644  27.833  1.00  0.00     0.031 C 
ATOM     41  C   UNL A   1      42.522  28.429  29.560  1.00  0.00     0.029 A 
ATOM     42  N   UNL A   1      40.905  29.738  30.421  1.00  0.00    -0.354 N 
ATOM     43  C   UNL A   1      41.639  24.681  28.259  1.00  0.00     0.074 A 
ATOM     44  C   UNL A   1      40.384  24.606  27.542  1.00  0.00     0.031 C 
ATOM     45  C   UNL A   1      43.106  29.302  30.400  1.00  0.00     0.029 A 
ATOM     46  C   UNL A   1      42.051  29.859  31.230  1.00  0.00     0.049 A 
ATOM     47  H   UNL A   1      40.137  30.354  30.384  1.00  0.00     0.167 HD
ATOM     48  C   UNL A   1      42.858  24.073  28.173  1.00  0.00     0.037 A 
ATOM     49  C   UNL A   1      41.927  29.660  32.579  1.00  0.00     0.037 A 
ATOM     50  C   UNL A   1      43.831  24.708  29.065  1.00  0.00     0.049 A 
ATOM     51  C   UNL A   1      42.693  28.463  33.105  1.00  0.00     0.074 A 
ATOM     52  C   UNL A   1      44.848  25.634  28.894  1.00  0.00     0.029 A 
ATOM     53  N   UNL A   1      43.623  24.627  30.426  1.00  0.00    -0.354 N 
ATOM     54  N   UNL A   1      43.314  27.596  32.354  1.00  0.00    -0.248 NA
ATOM     55  C   UNL A   1      42.753  28.106  34.521  1.00  0.00     0.031 C 
ATOM     56  C   UNL A   1      45.254  26.092  30.183  1.00  0.00     0.029 A 
ATOM     57  C   UNL A   1      44.490  25.436  31.130  1.00  0.00     0.049 A 
ATOM     58  H   UNL A   1      42.936  24.060  30.846  1.00  0.00     0.167 HD
ATOM     59  C   UNL A   1      43.778  26.565  33.123  1.00  0.00     0.074 A 
ATOM     60  C   UNL A   1      43.414  26.934  34.478  1.00  0.00     0.031 C 
ATOM     61  C   UNL A   1      44.379  25.464  32.579  1.00  0.00     0.037 A 
BRANCH  48  62
ATOM     62  C   UNL A   1      43.247  23.040  27.142  1.00  0.00     0.057 A 
ATOM     63  C   UNL A   1      42.647  21.763  27.137  1.00  0.00     0.134 A 
ATOM     64  C   UNL A   1      44.195  23.236  26.123  1.00  0.00     0.134 A 
ATOM     65  F   UNL A   1      41.656  21.444  27.981  1.00  0.00    -0.206 F 
ATOM     66  C   UNL A   1      43.029  20.740  26.261  1.00  0.00     0.040 A 
ATOM     67  C   UNL A   1      44.621  22.207  25.270  1.00  0.00     0.040 A 
ATOM     68  F   UNL A   1      44.708  24.444  25.864  1.00  0.00    -0.206 F 
ATOM     69  C   UNL A   1      44.044  20.948  25.343  1.00  0.00     0.006 A 
ENDBRANCH  48  62
BRANCH  49  70
ATOM     70  C   UNL A   1      40.585  30.098  33.077  1.00  0.00     0.057 A 
ATOM     71  C   UNL A   1      40.327  31.479  33.173  1.00  0.00     0.134 A 
ATOM     72  C   UNL A   1      39.476  29.247  32.983  1.00  0.00     0.134 A 
ATOM     73  F   UNL A   1      41.345  32.350  33.254  1.00  0.00    -0.206 F 
ATOM     74  C   UNL A   1      39.036  31.997  33.036  1.00  0.00     0.040 A 
ATOM     75  C   UNL A   1      38.180  29.757  32.853  1.00  0.00     0.040 A 
ATOM     76  F   UNL A   1      39.641  27.921  32.877  1.00  0.00    -0.206 F 
ATOM     77  C   UNL A   1      37.962  31.134  32.836  1.00  0.00     0.006 A 
ENDBRANCH  49  70
BRANCH  61  78
ATOM     78  C   UNL A   1      44.868  24.289  33.381  1.00  0.00     0.057 A 
ATOM     79  C   UNL A   1      46.223  24.075  33.661  1.00  0.00     0.134 A 
ATOM     80  C   UNL A   1      43.992  23.268  33.810  1.00  0.00     0.134 A 
ATOM     81  F   UNL A   1      47.161  24.929  33.228  1.00  0.00    -0.206 F 
ATOM     82  C   UNL A   1      46.668  22.956  34.376  1.00  0.00     0.040 A 
ATOM     83  C   UNL A   1      44.430  22.121  34.474  1.00  0.00     0.040 A 
ATOM     84  F   UNL A   1      42.667  23.342  33.628  1.00  0.00    -0.206 F 
ATOM     85  C   UNL A   1      45.772  21.971  34.778  1.00  0.00     0.006 A 
ENDBRANCH  61  78
ENDBRANCH  35  36
ENDBRANCH  27  30
ENDBRANCH  25  26
ENDBRANCH   1  25
TORSDOF 12
ENDMDL
MODEL 2
REMARK VINA RESULT:     -12.9      2.563      4.037
REMARK SMILES Cc1ccc(NC(=O)[C@H]2CC=CC[C@H]2C(=O)NCCCNC(=O)c2ccc(-c3c4nc(c(-c5c(F)cccc5F)c5ccc([nH]5)c(-c5c(F)cccc5F)c5nc(c(-c6c(F)cccc6F)c6ccc3[nH]6)C=C5)C=C4)cc2)cc1F
REMARK SMILES IDX 19 1 18 2 17 3 15 4 16 5 14 7 9 8 10 9 11 10 13 11 12 12
REMARK SMILES IDX 7 13 6 14 8 16 5 17 1 18 2 19 3 20 79 21 4 22 78 23 80 24
REMARK SMILES IDX 20 25 21 26 22 27 23 29 24 30 25 31 77 32 26 33 76 34 27 35
REMARK SMILES IDX 28 36 29 37 70 38 30 39 75 40 69 41 71 42 31 43 74 44 68 45
REMARK SMILES IDX 67 46 32 48 58 49 41 50 57 51 42 52 45 53 56 54 72 55 43 56
REMARK SMILES IDX 44 57 55 59 73 60 46 61 33 62 34 63 39 64 35 65 36 66 38 67
REMARK SMILES IDX 40 68 37 69 59 70 60 71 65 72 61 73 62 74 64 75 66 76 63 77
REMARK SMILES IDX 47 78 48 79 53 80 49 81 50 82 52 83 54 84 51 85
REMARK H PARENT 17 6 6 15 21 28 71 47 45 58
REMARK Flexibility Score: inf
ROOT
ATOM      1  C   UNL A   1      32.540  29.791  26.960  1.00  0.00     0.042 C 
ENDROOT
BRANCH   1   2
ATOM      2  C   UNL A   1      32.150  29.984  25.500  1.00  0.00     0.117 C 
BRANCH   2   3
ATOM      3  N   UNL A   1      33.096  29.416  24.552  1.00  0.00    -0.356 N 
ATOM      4  C   UNL A   1      33.319  28.131  24.172  1.00  0.00     0.224 C 
ATOM      5  O   UNL A   1      34.057  27.953  23.201  1.00  0.00    -0.275 OA
ATOM      6  H   UNL A   1      33.675  30.078  24.109  1.00  0.00     0.163 HD
BRANCH   4   7
ATOM      7  C   UNL A   1      32.662  26.945  24.870  1.00  0.00     0.095 C 
ATOM      8  C   UNL A   1      31.697  26.072  24.018  1.00  0.00     0.095 C 
ATOM      9  C   UNL A   1      31.753  24.545  24.290  1.00  0.00     0.041 C 
ATOM     10  C   UNL A   1      32.925  24.016  25.043  1.00  0.00    -0.030 C 
ATOM     11  C   UNL A   1      33.723  26.262  25.759  1.00  0.00     0.041 C 
ATOM     12  C   UNL A   1      33.798  24.777  25.703  1.00  0.00    -0.030 C 
BRANCH   8  13
ATOM     13  C   UNL A   1      31.654  26.344  22.506  1.00  0.00     0.228 C 
ATOM     14  N   UNL A   1      31.027  27.414  21.939  1.00  0.00    -0.326 N 
ATOM     15  H   UNL A   1      31.308  27.568  21.009  1.00  0.00     0.169 HD
ATOM     16  O   UNL A   1      32.237  25.595  21.713  1.00  0.00    -0.274 OA
BRANCH  14  17
ATOM     17  C   UNL A   1      30.071  28.345  22.374  1.00  0.00     0.044 A 
ATOM     18  C   UNL A   1      27.278  31.414  23.577  1.00  0.00     0.047 C 
ATOM     19  C   UNL A   1      28.261  30.371  23.144  1.00  0.00    -0.015 A 
ATOM     20  C   UNL A   1      29.491  30.709  22.578  1.00  0.00     0.008 A 
ATOM     21  C   UNL A   1      27.951  29.021  23.301  1.00  0.00     0.128 A 
ATOM     22  C   UNL A   1      30.381  29.702  22.185  1.00  0.00     0.026 A 
ATOM     23  C   UNL A   1      28.836  28.015  22.917  1.00  0.00     0.065 A 
ATOM     24  F   UNL A   1      26.762  28.666  23.810  1.00  0.00    -0.207 F 
ENDBRANCH  14  17
ENDBRANCH   8  13
ENDBRANCH   4   7
ENDBRANCH   2   3
ENDBRANCH   1   2
BRANCH   1  25
ATOM     25  C   UNL A   1      33.999  30.056  27.250  1.00  0.00     0.118 C 
BRANCH  25  26
ATOM     26  N   UNL A   1      34.211  31.337  27.902  1.00  0.00    -0.352 N 
ATOM     27  C   UNL A   1      35.139  31.625  28.877  1.00  0.00     0.251 C 
ATOM     28  H   UNL A   1      33.629  32.077  27.616  1.00  0.00     0.163 HD
ATOM     29  O   UNL A   1      35.048  32.637  29.558  1.00  0.00    -0.269 OA
BRANCH  27  30
ATOM     30  C   UNL A   1      36.282  30.708  29.059  1.00  0.00     0.039 A 
ATOM     31  C   UNL A   1      36.278  29.741  30.075  1.00  0.00     0.014 A 
ATOM     32  C   UNL A   1      37.399  30.883  28.246  1.00  0.00     0.014 A 
ATOM     33  C   UNL A   1      37.412  28.952  30.282  1.00  0.00     0.010 A 
ATOM     34  C   UNL A   1      38.469  30.041  28.376  1.00  0.00     0.010 A 
ATOM     35  C   UNL A   1      38.507  29.128  29.436  1.00  0.00    -0.014 A 
BRANCH  35  36
ATOM     36  C   UNL A   1      39.819  28.526  29.600  1.00  0.00     0.031 A 
ATOM     37  C   UNL A   1      40.165  27.225  29.018  1.00  0.00     0.074 A 
ATOM     38  C   UNL A   1      40.782  29.391  29.986  1.00  0.00     0.049 A 
ATOM     39  N   UNL A   1      41.289  26.634  29.231  1.00  0.00    -0.248 NA
ATOM     40  C   UNL A   1      39.279  26.480  28.134  1.00  0.00     0.031 C 
ATOM     41  C   UNL A   1      42.213  29.345  29.724  1.00  0.00     0.029 A 
ATOM     42  N   UNL A   1      40.618  30.514  30.802  1.00  0.00    -0.354 N 
ATOM     43  C   UNL A   1      41.409  25.618  28.314  1.00  0.00     0.074 A 
ATOM     44  C   UNL A   1      40.096  25.505  27.714  1.00  0.00     0.031 C 
ATOM     45  C   UNL A   1      42.827  30.209  30.551  1.00  0.00     0.029 A 
ATOM     46  C   UNL A   1      41.829  30.663  31.505  1.00  0.00     0.049 A 
ATOM     47  H   UNL A   1      39.819  31.086  30.871  1.00  0.00     0.167 HD
ATOM     48  C   UNL A   1      42.645  25.088  28.081  1.00  0.00     0.037 A 
ATOM     49  C   UNL A   1      41.847  30.393  32.847  1.00  0.00     0.037 A 
ATOM     50  C   UNL A   1      43.664  25.734  28.910  1.00  0.00     0.049 A 
ATOM     51  C   UNL A   1      42.724  29.219  33.234  1.00  0.00     0.074 A 
ATOM     52  C   UNL A   1      44.608  26.725  28.695  1.00  0.00     0.029 A 
ATOM     53  N   UNL A   1      43.593  25.577  30.279  1.00  0.00    -0.354 N 
ATOM     54  N   UNL A   1      43.314  28.426  32.383  1.00  0.00    -0.248 NA
ATOM     55  C   UNL A   1      42.940  28.798  34.617  1.00  0.00     0.031 C 
ATOM     56  C   UNL A   1      45.113  27.144  29.961  1.00  0.00     0.029 A 
ATOM     57  C   UNL A   1      44.480  26.399  30.941  1.00  0.00     0.049 A 
ATOM     58  H   UNL A   1      42.982  24.951  30.730  1.00  0.00     0.167 HD
ATOM     59  C   UNL A   1      43.905  27.388  33.048  1.00  0.00     0.074 A 
ATOM     60  C   UNL A   1      43.655  27.670  34.449  1.00  0.00     0.031 C 
ATOM     61  C   UNL A   1      44.508  26.352  32.393  1.00  0.00     0.037 A 
BRANCH  48  62
ATOM     62  C   UNL A   1      42.987  24.129  26.965  1.00  0.00     0.057 A 
ATOM     63  C   UNL A   1      42.789  22.741  27.118  1.00  0.00     0.134 A 
ATOM     64  C   UNL A   1      43.504  24.503  25.712  1.00  0.00     0.134 A 
ATOM     65  F   UNL A   1      42.214  22.226  28.213  1.00  0.00    -0.206 F 
ATOM     66  C   UNL A   1      43.166  21.801  26.152  1.00  0.00     0.040 A 
ATOM     67  C   UNL A   1      43.931  23.571  24.754  1.00  0.00     0.040 A 
ATOM     68  F   UNL A   1      43.565  25.784  25.332  1.00  0.00    -0.206 F 
ATOM     69  C   UNL A   1      43.772  22.211  24.976  1.00  0.00     0.006 A 
ENDBRANCH  48  62
BRANCH  49  70
ATOM     70  C   UNL A   1      40.539  30.727  33.492  1.00  0.00     0.057 A 
ATOM     71  C   UNL A   1      40.238  32.082  33.726  1.00  0.00     0.134 A 
ATOM     72  C   UNL A   1      39.459  29.837  33.419  1.00  0.00     0.134 A 
ATOM     73  F   UNL A   1      41.225  32.989  33.795  1.00  0.00    -0.206 F 
ATOM     74  C   UNL A   1      38.920  32.551  33.743  1.00  0.00     0.040 A 
ATOM     75  C   UNL A   1      38.138  30.297  33.443  1.00  0.00     0.040 A 
ATOM     76  F   UNL A   1      39.664  28.533  33.187  1.00  0.00    -0.206 F 
ATOM     77  C   UNL A   1      37.867  31.659  33.561  1.00  0.00     0.006 A 
ENDBRANCH  49  70
BRANCH  61  78
ATOM     78  C   UNL A   1      45.135  25.170  33.081  1.00  0.00     0.057 A 
ATOM     79  C   UNL A   1      44.381  24.137  33.650  1.00  0.00     0.134 A 
ATOM     80  C   UNL A   1      46.530  25.086  33.287  1.00  0.00     0.134 A 
ATOM     81  F   UNL A   1      43.041  24.151  33.600  1.00  0.00    -0.206 F 
ATOM     82  C   UNL A   1      44.977  23.062  34.321  1.00  0.00     0.040 A 
ATOM     83  C   UNL A   1      47.131  24.049  34.001  1.00  0.00     0.040 A 
ATOM     84  F   UNL A   1      47.380  25.992  32.786  1.00  0.00    -0.206 F 
ATOM     85  C   UNL A   1      46.355  23.019  34.505  1.00  0.00     0.006 A 
ENDBRANCH  61  78
ENDBRANCH  35  36
ENDBRANCH  27  30
ENDBRANCH  25  26
ENDBRANCH   1  25
TORSDOF 12
ENDMDL
MODEL 3
REMARK VINA RESULT:     -12.9      3.773      8.695
REMARK SMILES Cc1ccc(NC(=O)[C@H]2CC=CC[C@H]2C(=O)NCCCNC(=O)c2ccc(-c3c4nc(c(-c5c(F)cccc5F)c5ccc([nH]5)c(-c5c(F)cccc5F)c5nc(c(-c6c(F)cccc6F)c6ccc3[nH]6)C=C5)C=C4)cc2)cc1F
REMARK SMILES IDX 19 1 18 2 17 3 15 4 16 5 14 7 9 8 10 9 11 10 13 11 12 12
REMARK SMILES IDX 7 13 6 14 8 16 5 17 1 18 2 19 3 20 79 21 4 22 78 23 80 24
REMARK SMILES IDX 20 25 21 26 22 27 23 29 24 30 25 31 77 32 26 33 76 34 27 35
REMARK SMILES IDX 28 36 29 37 70 38 30 39 75 40 69 41 71 42 31 43 74 44 68 45
REMARK SMILES IDX 67 46 32 48 58 49 41 50 57 51 42 52 45 53 56 54 72 55 43 56
REMARK SMILES IDX 44 57 55 59 73 60 46 61 33 62 34 63 39 64 35 65 36 66 38 67
REMARK SMILES IDX 40 68 37 69 59 70 60 71 65 72 61 73 62 74 64 75 66 76 63 77
REMARK SMILES IDX 47 78 48 79 53 80 49 81 50 82 52 83 54 84 51 85
REMARK H PARENT 17 6 6 15 21 28 71 47 45 58
REMARK Flexibility Score: inf
ROOT
ATOM      1  C   UNL A   1      37.186  22.663  24.941  1.00  0.00     0.042 C 
ENDROOT
BRANCH   1   2
ATOM      2  C   UNL A   1      35.947  23.250  24.277  1.00  0.00     0.117 C 
BRANCH   2   3
ATOM      3  N   UNL A   1      35.434  24.446  24.928  1.00  0.00    -0.356 N 
ATOM      4  C   UNL A   1      34.229  25.064  24.840  1.00  0.00     0.224 C 
ATOM      5  O   UNL A   1      33.996  25.959  25.656  1.00  0.00    -0.275 OA
ATOM      6  H   UNL A   1      36.071  24.880  25.540  1.00  0.00     0.163 HD
BRANCH   4   7
ATOM      7  C   UNL A   1      33.174  24.661  23.815  1.00  0.00     0.095 C 
ATOM      8  C   UNL A   1      32.219  23.498  24.207  1.00  0.00     0.095 C 
ATOM      9  C   UNL A   1      30.746  23.652  23.747  1.00  0.00     0.041 C 
ATOM     10  C   UNL A   1      30.292  25.002  23.308  1.00  0.00    -0.030 C 
ATOM     11  C   UNL A   1      32.591  25.948  23.193  1.00  0.00     0.041 C 
ATOM     12  C   UNL A   1      31.111  26.022  23.054  1.00  0.00    -0.030 C 
BRANCH   8  13
ATOM     13  C   UNL A   1      32.276  23.002  25.660  1.00  0.00     0.228 C 
ATOM     14  N   UNL A   1      32.825  21.814  26.043  1.00  0.00    -0.326 N 
ATOM     15  H   UNL A   1      33.003  21.773  27.010  1.00  0.00     0.169 HD
ATOM     16  O   UNL A   1      31.841  23.701  26.583  1.00  0.00    -0.274 OA
BRANCH  14  17
ATOM     17  C   UNL A   1      33.195  20.635  25.377  1.00  0.00     0.044 A 
ATOM     18  C   UNL A   1      34.085  17.016  23.191  1.00  0.00     0.047 C 
ATOM     19  C   UNL A   1      33.752  18.272  23.933  1.00  0.00    -0.015 A 
ATOM     20  C   UNL A   1      32.464  18.812  23.925  1.00  0.00     0.008 A 
ATOM     21  C   UNL A   1      34.744  18.935  24.654  1.00  0.00     0.128 A 
ATOM     22  C   UNL A   1      32.195  19.992  24.630  1.00  0.00     0.026 A 
ATOM     23  C   UNL A   1      34.479  20.105  25.364  1.00  0.00     0.065 A 
ATOM     24  F   UNL A   1      35.998  18.459  24.653  1.00  0.00    -0.207 F 
ENDBRANCH  14  17
ENDBRANCH   8  13
ENDBRANCH   4   7
ENDBRANCH   2   3
ENDBRANCH   1   2
BRANCH   1  25
ATOM     25  C   UNL A   1      37.784  23.538  26.018  1.00  0.00     0.118 C 
BRANCH  25  26
ATOM     26  N   UNL A   1      38.873  22.883  26.723  1.00  0.00    -0.352 N 
ATOM     27  C   UNL A   1      39.984  23.484  27.270  1.00  0.00     0.251 C 
ATOM     28  H   UNL A   1      38.808  21.905  26.820  1.00  0.00     0.163 HD
ATOM     29  O   UNL A   1      40.968  22.829  27.582  1.00  0.00    -0.269 OA
BRANCH  27  30
ATOM     30  C   UNL A   1      39.950  24.939  27.519  1.00  0.00     0.039 A 
ATOM     31  C   UNL A   1      40.418  25.847  26.557  1.00  0.00     0.014 A 
ATOM     32  C   UNL A   1      39.518  25.382  28.766  1.00  0.00     0.014 A 
ATOM     33  C   UNL A   1      40.461  27.210  26.859  1.00  0.00     0.010 A 
ATOM     34  C   UNL A   1      39.459  26.723  29.025  1.00  0.00     0.010 A 
ATOM     35  C   UNL A   1      39.997  27.630  28.104  1.00  0.00    -0.014 A 
BRANCH  35  36
ATOM     36  C   UNL A   1      40.117  28.969  28.655  1.00  0.00     0.031 A 
ATOM     37  C   UNL A   1      39.030  29.951  28.580  1.00  0.00     0.074 A 
ATOM     38  C   UNL A   1      41.121  29.115  29.547  1.00  0.00     0.049 A 
ATOM     39  N   UNL A   1      39.152  31.170  28.977  1.00  0.00    -0.248 NA
ATOM     40  C   UNL A   1      37.704  29.643  28.060  1.00  0.00     0.031 C 
ATOM     41  C   UNL A   1      41.223  30.034  30.670  1.00  0.00     0.029 A 
ATOM     42  N   UNL A   1      42.346  28.440  29.544  1.00  0.00    -0.354 N 
ATOM     43  C   UNL A   1      37.892  31.713  29.054  1.00  0.00     0.074 A 
ATOM     44  C   UNL A   1      37.036  30.756  28.388  1.00  0.00     0.031 C 
ATOM     45  C   UNL A   1      42.501  30.063  31.085  1.00  0.00     0.029 A 
ATOM     46  C   UNL A   1      43.282  29.332  30.101  1.00  0.00     0.049 A 
ATOM     47  H   UNL A   1      42.519  27.527  29.218  1.00  0.00     0.167 HD
ATOM     48  C   UNL A   1      37.712  32.847  29.793  1.00  0.00     0.037 A 
ATOM     49  C   UNL A   1      44.229  29.887  29.283  1.00  0.00     0.037 A 
ATOM     50  C   UNL A   1      38.972  33.298  30.387  1.00  0.00     0.049 A 
ATOM     51  C   UNL A   1      44.121  31.392  29.135  1.00  0.00     0.074 A 
ATOM     52  C   UNL A   1      39.551  33.185  31.641  1.00  0.00     0.029 A 
ATOM     53  N   UNL A   1      39.979  33.723  29.547  1.00  0.00    -0.354 N 
ATOM     54  N   UNL A   1      43.146  32.112  29.616  1.00  0.00    -0.248 NA
ATOM     55  C   UNL A   1      45.067  32.194  28.362  1.00  0.00     0.031 C 
ATOM     56  C   UNL A   1      40.922  33.566  31.535  1.00  0.00     0.029 A 
ATOM     57  C   UNL A   1      41.166  33.919  30.220  1.00  0.00     0.049 A 
ATOM     58  H   UNL A   1      39.865  33.868  28.580  1.00  0.00     0.167 HD
ATOM     59  C   UNL A   1      43.268  33.405  29.187  1.00  0.00     0.074 A 
ATOM     60  C   UNL A   1      44.496  33.411  28.413  1.00  0.00     0.031 C 
ATOM     61  C   UNL A   1      42.325  34.355  29.457  1.00  0.00     0.037 A 
BRANCH  48  62
ATOM     62  C   UNL A   1      36.374  33.447  30.158  1.00  0.00     0.057 A 
ATOM     63  C   UNL A   1      35.514  33.953  29.162  1.00  0.00     0.134 A 
ATOM     64  C   UNL A   1      35.868  33.549  31.465  1.00  0.00     0.134 A 
ATOM     65  F   UNL A   1      35.801  33.847  27.857  1.00  0.00    -0.206 F 
ATOM     66  C   UNL A   1      34.303  34.595  29.448  1.00  0.00     0.040 A 
ATOM     67  C   UNL A   1      34.680  34.231  31.771  1.00  0.00     0.040 A 
ATOM     68  F   UNL A   1      36.463  32.943  32.499  1.00  0.00    -0.206 F 
ATOM     69  C   UNL A   1      33.896  34.767  30.761  1.00  0.00     0.006 A 
ENDBRANCH  48  62
BRANCH  49  70
ATOM     70  C   UNL A   1      44.621  28.950  28.184  1.00  0.00     0.057 A 
ATOM     71  C   UNL A   1      45.410  27.831  28.511  1.00  0.00     0.134 A 
ATOM     72  C   UNL A   1      43.866  28.875  27.005  1.00  0.00     0.134 A 
ATOM     73  F   UNL A   1      46.149  27.832  29.632  1.00  0.00    -0.206 F 
ATOM     74  C   UNL A   1      45.340  26.642  27.779  1.00  0.00     0.040 A 
ATOM     75  C   UNL A   1      43.796  27.691  26.263  1.00  0.00     0.040 A 
ATOM     76  F   UNL A   1      43.081  29.896  26.632  1.00  0.00    -0.206 F 
ATOM     77  C   UNL A   1      44.499  26.559  26.673  1.00  0.00     0.006 A 
ENDBRANCH  49  70
BRANCH  61  78
ATOM     78  C   UNL A   1      42.397  35.777  28.973  1.00  0.00     0.057 A 
ATOM     79  C   UNL A   1      41.868  36.186  27.744  1.00  0.00     0.134 A 
ATOM     80  C   UNL A   1      43.103  36.769  29.689  1.00  0.00     0.134 A 
ATOM     81  F   UNL A   1      41.253  35.315  26.932  1.00  0.00    -0.206 F 
ATOM     82  C   UNL A   1      41.976  37.506  27.288  1.00  0.00     0.040 A 
ATOM     83  C   UNL A   1      43.265  38.073  29.220  1.00  0.00     0.040 A 
ATOM     84  F   UNL A   1      43.649  36.530  30.888  1.00  0.00    -0.206 F 
ATOM     85  C   UNL A   1      42.682  38.453  28.023  1.00  0.00     0.006 A 
ENDBRANCH  61  78
ENDBRANCH  35  36
ENDBRANCH  27  30
ENDBRANCH  25  26
ENDBRANCH   1  25
TORSDOF 12
ENDMDL
