MODEL 1
REMARK VINA RESULT:     -12.5      0.000      0.000
REMARK SMILES O=C(NCCCNC(=O)[C@@H]1CCCC[C@H]1C(=O)Nc1cccc(O)c1)c1ccc(-c2c3nc(c(-c4c(F)cccc4F)c4ccc([nH]4)c(-c4c(F)cccc4F)c4nc(c(-c5c(F)cccc5F)c5ccc2[nH]5)C=C4)C=C3)cc1
REMARK SMILES IDX 5 1 4 2 3 3 1 4 2 5 26 7 27 8 79 9 28 10 78 11 29 12 30 13
REMARK SMILES IDX 31 14 72 15 32 16 77 17 71 18 73 19 33 20 76 21 70 22 69 23
REMARK SMILES IDX 34 25 60 26 43 27 59 28 44 29 47 30 58 31 74 32 45 33 46 34
REMARK SMILES IDX 57 36 75 37 48 38 35 39 36 40 41 41 37 42 38 43 40 44 42 45
REMARK SMILES IDX 39 46 61 47 62 48 67 49 63 50 64 51 66 52 68 53 65 54 49 55
REMARK SMILES IDX 50 56 55 57 51 58 52 59 54 60 56 61 53 62 6 63 7 64 8 65
REMARK SMILES IDX 9 67 10 68 11 69 15 70 12 71 14 72 13 73 16 74 17 75 18 76
REMARK SMILES IDX 19 78 20 79 25 80 21 81 23 82 22 83 24 84
REMARK H PARENT 3 6 73 24 47 35 7 66 18 77 24 85
REMARK Flexibility Score: inf
ROOT
ATOM      1  C   UNL A   1      38.026  19.591  24.761  1.00  0.00     0.042 C 
ENDROOT
BRANCH   1   2
ATOM      2  C   UNL A   1      39.086  19.994  25.765  1.00  0.00     0.118 C 
BRANCH   2   3
ATOM      3  N   UNL A   1      40.166  19.016  25.858  1.00  0.00    -0.352 N 
ATOM      4  O   UNL A   1      42.286  18.269  25.958  1.00  0.00    -0.269 OA
ATOM      5  C   UNL A   1      41.508  19.206  26.080  1.00  0.00     0.251 C 
ATOM      6  H   UNL A   1      39.890  18.079  25.743  1.00  0.00     0.163 HD
BRANCH   5   7
ATOM      7  C   UNL A   1      42.012  20.543  26.458  1.00  0.00     0.039 A 
ATOM      8  C   UNL A   1      42.353  21.476  25.477  1.00  0.00     0.014 A 
ATOM      9  C   UNL A   1      42.112  20.881  27.811  1.00  0.00     0.014 A 
ATOM     10  C   UNL A   1      42.923  22.686  25.840  1.00  0.00     0.010 A 
ATOM     11  C   UNL A   1      42.580  22.145  28.178  1.00  0.00     0.010 A 
ATOM     12  C   UNL A   1      43.000  23.051  27.193  1.00  0.00    -0.014 A 
BRANCH  12  13
ATOM     13  C   UNL A   1      43.395  24.440  27.528  1.00  0.00     0.031 A 
ATOM     14  C   UNL A   1      44.823  24.892  27.449  1.00  0.00     0.074 A 
ATOM     15  C   UNL A   1      42.420  25.299  27.888  1.00  0.00     0.049 A 
ATOM     16  N   UNL A   1      45.320  26.075  27.700  1.00  0.00    -0.248 NA
ATOM     17  C   UNL A   1      45.823  23.893  27.043  1.00  0.00     0.031 C 
ATOM     18  C   UNL A   1      40.998  24.954  28.014  1.00  0.00     0.029 A 
ATOM     19  N   UNL A   1      42.463  26.632  28.199  1.00  0.00    -0.354 N 
ATOM     20  C   UNL A   1      46.689  25.963  27.500  1.00  0.00     0.074 A 
ATOM     21  C   UNL A   1      46.951  24.590  27.124  1.00  0.00     0.031 C 
ATOM     22  C   UNL A   1      40.304  26.054  28.331  1.00  0.00     0.029 A 
ATOM     23  C   UNL A   1      41.233  27.161  28.509  1.00  0.00     0.049 A 
ATOM     24  H   UNL A   1      43.294  27.160  28.201  1.00  0.00     0.167 HD
ATOM     25  C   UNL A   1      47.636  26.925  27.621  1.00  0.00     0.037 A 
ATOM     26  C   UNL A   1      40.893  28.394  28.923  1.00  0.00     0.037 A 
ATOM     27  C   UNL A   1      47.357  28.292  27.984  1.00  0.00     0.049 A 
ATOM     28  C   UNL A   1      41.972  29.423  29.078  1.00  0.00     0.074 A 
ATOM     29  C   UNL A   1      48.241  29.353  28.081  1.00  0.00     0.029 A 
ATOM     30  N   UNL A   1      46.103  28.785  28.320  1.00  0.00    -0.354 N 
ATOM     31  N   UNL A   1      43.256  29.317  28.830  1.00  0.00    -0.248 NA
ATOM     32  C   UNL A   1      41.561  30.741  29.576  1.00  0.00     0.031 C 
ATOM     33  C   UNL A   1      47.534  30.472  28.532  1.00  0.00     0.029 A 
ATOM     34  C   UNL A   1      46.199  30.125  28.660  1.00  0.00     0.049 A 
ATOM     35  H   UNL A   1      45.271  28.260  28.317  1.00  0.00     0.167 HD
ATOM     36  C   UNL A   1      43.802  30.557  29.128  1.00  0.00     0.074 A 
ATOM     37  C   UNL A   1      42.706  31.407  29.543  1.00  0.00     0.031 C 
ATOM     38  C   UNL A   1      45.095  30.955  29.070  1.00  0.00     0.037 A 
BRANCH  25  39
ATOM     39  C   UNL A   1      49.067  26.546  27.381  1.00  0.00     0.057 A 
ATOM     40  C   UNL A   1      49.896  26.085  28.411  1.00  0.00     0.134 A 
ATOM     41  C   UNL A   1      49.593  26.548  26.082  1.00  0.00     0.134 A 
ATOM     42  F   UNL A   1      49.459  26.066  29.679  1.00  0.00    -0.206 F 
ATOM     43  C   UNL A   1      51.198  25.644  28.158  1.00  0.00     0.040 A 
ATOM     44  C   UNL A   1      50.884  26.089  25.814  1.00  0.00     0.040 A 
ATOM     45  F   UNL A   1      48.850  26.970  25.048  1.00  0.00    -0.206 F 
ATOM     46  C   UNL A   1      51.690  25.635  26.855  1.00  0.00     0.006 A 
ENDBRANCH  25  39
BRANCH  26  47
ATOM     47  C   UNL A   1      39.480  28.708  29.258  1.00  0.00     0.057 A 
ATOM     48  C   UNL A   1      38.612  29.261  28.311  1.00  0.00     0.134 A 
ATOM     49  C   UNL A   1      38.973  28.484  30.544  1.00  0.00     0.134 A 
ATOM     50  F   UNL A   1      39.043  29.513  27.065  1.00  0.00    -0.206 F 
ATOM     51  C   UNL A   1      37.301  29.609  28.638  1.00  0.00     0.040 A 
ATOM     52  C   UNL A   1      37.654  28.794  30.875  1.00  0.00     0.040 A 
ATOM     53  F   UNL A   1      39.750  27.945  31.496  1.00  0.00    -0.206 F 
ATOM     54  C   UNL A   1      36.818  29.372  29.923  1.00  0.00     0.006 A 
ENDBRANCH  26  47
BRANCH  38  55
ATOM     55  C   UNL A   1      45.382  32.379  29.443  1.00  0.00     0.057 A 
ATOM     56  C   UNL A   1      45.738  32.743  30.748  1.00  0.00     0.134 A 
ATOM     57  C   UNL A   1      45.320  33.395  28.481  1.00  0.00     0.134 A 
ATOM     58  F   UNL A   1      45.799  31.820  31.719  1.00  0.00    -0.206 F 
ATOM     59  C   UNL A   1      45.993  34.072  31.089  1.00  0.00     0.040 A 
ATOM     60  C   UNL A   1      45.604  34.722  28.802  1.00  0.00     0.040 A 
ATOM     61  F   UNL A   1      44.993  33.112  27.210  1.00  0.00    -0.206 F 
ATOM     62  C   UNL A   1      45.932  35.065  30.113  1.00  0.00     0.006 A 
ENDBRANCH  38  55
ENDBRANCH  12  13
ENDBRANCH   5   7
ENDBRANCH   2   3
ENDBRANCH   1   2
BRANCH   1  63
ATOM     63  C   UNL A   1      36.704  20.298  24.990  1.00  0.00     0.117 C 
BRANCH  63  64
ATOM     64  N   UNL A   1      36.812  21.740  25.095  1.00  0.00    -0.356 N 
ATOM     65  C   UNL A   1      35.872  22.708  24.873  1.00  0.00     0.223 C 
ATOM     66  H   UNL A   1      37.698  22.073  25.365  1.00  0.00     0.163 HD
ATOM     67  O   UNL A   1      36.167  23.872  25.138  1.00  0.00    -0.275 OA
BRANCH  65  68
ATOM     68  C   UNL A   1      34.516  22.326  24.270  1.00  0.00     0.091 C 
ATOM     69  C   UNL A   1      34.216  23.242  23.071  1.00  0.00     0.014 C 
ATOM     70  C   UNL A   1      33.381  22.336  25.315  1.00  0.00     0.091 C 
ATOM     71  C   UNL A   1      32.825  22.995  22.503  1.00  0.00     0.001 C 
ATOM     72  C   UNL A   1      31.940  22.440  24.775  1.00  0.00     0.014 C 
ATOM     73  C   UNL A   1      31.780  23.328  23.553  1.00  0.00     0.001 C 
BRANCH  70  74
ATOM     74  C   UNL A   1      33.433  21.228  26.376  1.00  0.00     0.228 C 
ATOM     75  O   UNL A   1      33.644  21.543  27.555  1.00  0.00    -0.274 OA
ATOM     76  N   UNL A   1      33.194  19.901  26.140  1.00  0.00    -0.326 N 
ATOM     77  H   UNL A   1      33.035  19.395  26.969  1.00  0.00     0.169 HD
BRANCH  76  78
ATOM     78  C   UNL A   1      33.120  19.089  24.992  1.00  0.00     0.044 A 
ATOM     79  C   UNL A   1      32.472  19.435  23.808  1.00  0.00     0.026 A 
ATOM     80  C   UNL A   1      33.819  17.882  25.019  1.00  0.00     0.072 A 
ATOM     81  C   UNL A   1      32.402  18.559  22.721  1.00  0.00     0.006 A 
ATOM     82  C   UNL A   1      33.756  17.009  23.932  1.00  0.00     0.117 A 
ATOM     83  C   UNL A   1      33.031  17.325  22.790  1.00  0.00     0.046 A 
BRANCH  82  84
ATOM     84  O   UNL A   1      34.429  15.828  24.029  1.00  0.00    -0.508 OA
ATOM     85  H   UNL A   1      34.498  15.394  24.857  1.00  0.00     0.293 HD
ENDBRANCH  82  84
ENDBRANCH  76  78
ENDBRANCH  70  74
ENDBRANCH  65  68
ENDBRANCH  63  64
ENDBRANCH   1  63
TORSDOF 13
ENDMDL
MODEL 2
REMARK VINA RESULT:     -12.4      0.516      6.337
REMARK SMILES O=C(NCCCNC(=O)[C@@H]1CCCC[C@H]1C(=O)Nc1cccc(O)c1)c1ccc(-c2c3nc(c(-c4c(F)cccc4F)c4ccc([nH]4)c(-c4c(F)cccc4F)c4nc(c(-c5c(F)cccc5F)c5ccc2[nH]5)C=C4)C=C3)cc1
REMARK SMILES IDX 5 1 4 2 3 3 1 4 2 5 26 7 27 8 79 9 28 10 78 11 29 12 30 13
REMARK SMILES IDX 31 14 72 15 32 16 77 17 71 18 73 19 33 20 76 21 70 22 69 23
REMARK SMILES IDX 34 25 60 26 43 27 59 28 44 29 47 30 58 31 74 32 45 33 46 34
REMARK SMILES IDX 57 36 75 37 48 38 35 39 36 40 41 41 37 42 38 43 40 44 42 45
REMARK SMILES IDX 39 46 61 47 62 48 67 49 63 50 64 51 66 52 68 53 65 54 49 55
REMARK SMILES IDX 50 56 55 57 51 58 52 59 54 60 56 61 53 62 6 63 7 64 8 65
REMARK SMILES IDX 9 67 10 68 11 69 15 70 12 71 14 72 13 73 16 74 17 75 18 76
REMARK SMILES IDX 19 78 20 79 25 80 21 81 23 82 22 83 24 84
REMARK H PARENT 3 6 73 24 47 35 7 66 18 77 24 85
REMARK Flexibility Score: inf
ROOT
ATOM      1  C   UNL A   1      38.051  19.580  24.777  1.00  0.00     0.042 C 
ENDROOT
BRANCH   1   2
ATOM      2  C   UNL A   1      39.121  20.029  25.751  1.00  0.00     0.118 C 
BRANCH   2   3
ATOM      3  N   UNL A   1      40.185  19.041  25.903  1.00  0.00    -0.352 N 
ATOM      4  O   UNL A   1      42.293  18.268  26.059  1.00  0.00    -0.269 OA
ATOM      5  C   UNL A   1      41.528  19.222  26.126  1.00  0.00     0.251 C 
ATOM      6  H   UNL A   1      39.895  18.103  25.835  1.00  0.00     0.163 HD
BRANCH   5   7
ATOM      7  C   UNL A   1      42.050  20.570  26.437  1.00  0.00     0.039 A 
ATOM      8  C   UNL A   1      42.383  21.457  25.413  1.00  0.00     0.014 A 
ATOM      9  C   UNL A   1      42.175  20.964  27.774  1.00  0.00     0.014 A 
ATOM     10  C   UNL A   1      42.969  22.675  25.714  1.00  0.00     0.010 A 
ATOM     11  C   UNL A   1      42.660  22.239  28.078  1.00  0.00     0.010 A 
ATOM     12  C   UNL A   1      43.071  23.098  27.048  1.00  0.00    -0.014 A 
BRANCH  12  13
ATOM     13  C   UNL A   1      43.484  24.496  27.317  1.00  0.00     0.031 A 
ATOM     14  C   UNL A   1      42.501  25.531  27.776  1.00  0.00     0.074 A 
ATOM     15  C   UNL A   1      44.786  24.806  27.155  1.00  0.00     0.049 A 
ATOM     16  N   UNL A   1      42.714  26.790  28.061  1.00  0.00    -0.248 NA
ATOM     17  C   UNL A   1      41.101  25.108  27.931  1.00  0.00     0.031 C 
ATOM     18  C   UNL A   1      45.823  23.874  26.694  1.00  0.00     0.029 A 
ATOM     19  N   UNL A   1      45.468  25.974  27.371  1.00  0.00    -0.354 N 
ATOM     20  C   UNL A   1      41.478  27.315  28.413  1.00  0.00     0.074 A 
ATOM     21  C   UNL A   1      40.513  26.244  28.289  1.00  0.00     0.031 C 
ATOM     22  C   UNL A   1      47.009  24.494  26.704  1.00  0.00     0.029 A 
ATOM     23  C   UNL A   1      46.811  25.883  27.094  1.00  0.00     0.049 A 
ATOM     24  H   UNL A   1      45.037  26.799  27.693  1.00  0.00     0.167 HD
ATOM     25  C   UNL A   1      41.185  28.579  28.804  1.00  0.00     0.037 A 
ATOM     26  C   UNL A   1      47.773  26.821  27.119  1.00  0.00     0.037 A 
ATOM     27  C   UNL A   1      42.161  29.631  28.935  1.00  0.00     0.049 A 
ATOM     28  C   UNL A   1      47.404  28.217  27.524  1.00  0.00     0.074 A 
ATOM     29  C   UNL A   1      41.972  30.930  29.375  1.00  0.00     0.029 A 
ATOM     30  N   UNL A   1      43.507  29.510  28.618  1.00  0.00    -0.354 N 
ATOM     31  N   UNL A   1      46.240  28.685  27.909  1.00  0.00    -0.248 NA
ATOM     32  C   UNL A   1      48.476  29.219  27.494  1.00  0.00     0.031 C 
ATOM     33  C   UNL A   1      43.188  31.611  29.268  1.00  0.00     0.029 A 
ATOM     34  C   UNL A   1      44.150  30.722  28.817  1.00  0.00     0.049 A 
ATOM     35  H   UNL A   1      43.941  28.686  28.298  1.00  0.00     0.167 HD
ATOM     36  C   UNL A   1      46.445  30.030  28.180  1.00  0.00     0.074 A 
ATOM     37  C   UNL A   1      47.849  30.294  27.946  1.00  0.00     0.031 C 
ATOM     38  C   UNL A   1      45.550  30.965  28.579  1.00  0.00     0.037 A 
BRANCH  25  39
ATOM     39  C   UNL A   1      39.754  28.915  29.103  1.00  0.00     0.057 A 
ATOM     40  C   UNL A   1      38.855  29.297  28.100  1.00  0.00     0.134 A 
ATOM     41  C   UNL A   1      39.245  28.756  30.400  1.00  0.00     0.134 A 
ATOM     42  F   UNL A   1      39.279  29.475  26.839  1.00  0.00    -0.206 F 
ATOM     43  C   UNL A   1      37.503  29.514  28.376  1.00  0.00     0.040 A 
ATOM     44  C   UNL A   1      37.891  28.949  30.683  1.00  0.00     0.040 A 
ATOM     45  F   UNL A   1      40.050  28.385  31.406  1.00  0.00    -0.206 F 
ATOM     46  C   UNL A   1      37.016  29.328  29.668  1.00  0.00     0.006 A 
ENDBRANCH  25  39
BRANCH  26  47
ATOM     47  C   UNL A   1      49.160  26.482  26.712  1.00  0.00     0.057 A 
ATOM     48  C   UNL A   1      49.605  26.688  25.402  1.00  0.00     0.134 A 
ATOM     49  C   UNL A   1      50.066  25.919  27.620  1.00  0.00     0.134 A 
ATOM     50  F   UNL A   1      48.780  27.210  24.482  1.00  0.00    -0.206 F 
ATOM     51  C   UNL A   1      50.890  26.319  25.001  1.00  0.00     0.040 A 
ATOM     52  C   UNL A   1      51.364  25.578  27.242  1.00  0.00     0.040 A 
ATOM     53  F   UNL A   1      49.705  25.706  28.894  1.00  0.00    -0.206 F 
ATOM     54  C   UNL A   1      51.775  25.765  25.924  1.00  0.00     0.006 A 
ENDBRANCH  26  47
BRANCH  38  55
ATOM     55  C   UNL A   1      46.076  32.350  28.810  1.00  0.00     0.057 A 
ATOM     56  C   UNL A   1      46.079  33.317  27.795  1.00  0.00     0.134 A 
ATOM     57  C   UNL A   1      46.567  32.728  30.066  1.00  0.00     0.134 A 
ATOM     58  F   UNL A   1      45.639  33.014  26.565  1.00  0.00    -0.206 F 
ATOM     59  C   UNL A   1      46.580  34.600  28.015  1.00  0.00     0.040 A 
ATOM     60  C   UNL A   1      47.041  34.017  30.306  1.00  0.00     0.040 A 
ATOM     61  F   UNL A   1      46.584  31.852  31.083  1.00  0.00    -0.206 F 
ATOM     62  C   UNL A   1      47.058  34.955  29.275  1.00  0.00     0.006 A 
ENDBRANCH  38  55
ENDBRANCH  12  13
ENDBRANCH   5   7
ENDBRANCH   2   3
ENDBRANCH   1   2
BRANCH   1  63
ATOM     63  C   UNL A   1      36.724  20.281  25.001  1.00  0.00     0.117 C 
BRANCH  63  64
ATOM     64  N   UNL A   1      36.829  21.722  25.125  1.00  0.00    -0.356 N 
ATOM     65  C   UNL A   1      35.885  22.690  24.919  1.00  0.00     0.223 C 
ATOM     66  H   UNL A   1      37.714  22.054  25.399  1.00  0.00     0.163 HD
ATOM     67  O   UNL A   1      36.178  23.852  25.199  1.00  0.00    -0.275 OA
BRANCH  65  68
ATOM     68  C   UNL A   1      34.530  22.313  24.312  1.00  0.00     0.091 C 
ATOM     69  C   UNL A   1      34.226  23.245  23.126  1.00  0.00     0.014 C 
ATOM     70  C   UNL A   1      33.396  22.305  25.358  1.00  0.00     0.091 C 
ATOM     71  C   UNL A   1      32.835  23.002  22.557  1.00  0.00     0.001 C 
ATOM     72  C   UNL A   1      31.954  22.412  24.822  1.00  0.00     0.014 C 
ATOM     73  C   UNL A   1      31.790  23.317  23.613  1.00  0.00     0.001 C 
BRANCH  70  74
ATOM     74  C   UNL A   1      33.454  21.183  26.404  1.00  0.00     0.228 C 
ATOM     75  O   UNL A   1      33.653  21.482  27.589  1.00  0.00    -0.274 OA
ATOM     76  N   UNL A   1      33.230  19.857  26.147  1.00  0.00    -0.326 N 
ATOM     77  H   UNL A   1      33.071  19.337  26.968  1.00  0.00     0.169 HD
BRANCH  76  78
ATOM     78  C   UNL A   1      33.172  19.060  24.987  1.00  0.00     0.044 A 
ATOM     79  C   UNL A   1      32.528  19.417  23.804  1.00  0.00     0.026 A 
ATOM     80  C   UNL A   1      33.884  17.861  25.001  1.00  0.00     0.072 A 
ATOM     81  C   UNL A   1      32.475  18.556  22.704  1.00  0.00     0.006 A 
ATOM     82  C   UNL A   1      33.837  17.003  23.901  1.00  0.00     0.117 A 
ATOM     83  C   UNL A   1      33.116  17.328  22.760  1.00  0.00     0.046 A 
BRANCH  82  84
ATOM     84  O   UNL A   1      34.523  15.828  23.986  1.00  0.00    -0.508 OA
ATOM     85  H   UNL A   1      34.335  15.131  23.389  1.00  0.00     0.293 HD
ENDBRANCH  82  84
ENDBRANCH  76  78
ENDBRANCH  70  74
ENDBRANCH  65  68
ENDBRANCH  63  64
ENDBRANCH   1  63
TORSDOF 13
ENDMDL
MODEL 3
REMARK VINA RESULT:     -12.3      6.043     10.267
REMARK SMILES O=C(NCCCNC(=O)[C@@H]1CCCC[C@H]1C(=O)Nc1cccc(O)c1)c1ccc(-c2c3nc(c(-c4c(F)cccc4F)c4ccc([nH]4)c(-c4c(F)cccc4F)c4nc(c(-c5c(F)cccc5F)c5ccc2[nH]5)C=C4)C=C3)cc1
REMARK SMILES IDX 5 1 4 2 3 3 1 4 2 5 26 7 27 8 79 9 28 10 78 11 29 12 30 13
REMARK SMILES IDX 31 14 72 15 32 16 77 17 71 18 73 19 33 20 76 21 70 22 69 23
REMARK SMILES IDX 34 25 60 26 43 27 59 28 44 29 47 30 58 31 74 32 45 33 46 34
REMARK SMILES IDX 57 36 75 37 48 38 35 39 36 40 41 41 37 42 38 43 40 44 42 45
REMARK SMILES IDX 39 46 61 47 62 48 67 49 63 50 64 51 66 52 68 53 65 54 49 55
REMARK SMILES IDX 50 56 55 57 51 58 52 59 54 60 56 61 53 62 6 63 7 64 8 65
REMARK SMILES IDX 9 67 10 68 11 69 15 70 12 71 14 72 13 73 16 74 17 75 18 76
REMARK SMILES IDX 19 78 20 79 25 80 21 81 23 82 22 83 24 84
REMARK H PARENT 3 6 73 24 47 35 7 66 18 77 24 85
REMARK Flexibility Score: inf
ROOT
ATOM      1  C   UNL A   1      31.204  32.331  26.500  1.00  0.00     0.042 C 
ENDROOT
BRANCH   1   2
ATOM      2  C   UNL A   1      32.472  32.821  27.170  1.00  0.00     0.118 C 
BRANCH   2   3
ATOM      3  N   UNL A   1      32.362  34.203  27.626  1.00  0.00    -0.352 N 
ATOM      4  O   UNL A   1      32.700  35.981  28.964  1.00  0.00    -0.269 OA
ATOM      5  C   UNL A   1      33.051  34.861  28.615  1.00  0.00     0.251 C 
ATOM      6  H   UNL A   1      31.691  34.746  27.152  1.00  0.00     0.163 HD
BRANCH   5   7
ATOM      7  C   UNL A   1      34.211  34.213  29.263  1.00  0.00     0.039 A 
ATOM      8  C   UNL A   1      34.028  33.346  30.342  1.00  0.00     0.014 A 
ATOM      9  C   UNL A   1      35.495  34.448  28.762  1.00  0.00     0.014 A 
ATOM     10  C   UNL A   1      35.127  32.828  31.008  1.00  0.00     0.010 A 
ATOM     11  C   UNL A   1      36.597  33.834  29.364  1.00  0.00     0.010 A 
ATOM     12  C   UNL A   1      36.419  33.029  30.498  1.00  0.00    -0.014 A 
BRANCH  12  13
ATOM     13  C   UNL A   1      37.541  32.268  31.099  1.00  0.00     0.031 A 
ATOM     14  C   UNL A   1      38.242  31.176  30.347  1.00  0.00     0.074 A 
ATOM     15  C   UNL A   1      37.930  32.606  32.345  1.00  0.00     0.049 A 
ATOM     16  N   UNL A   1      39.245  30.431  30.735  1.00  0.00    -0.248 NA
ATOM     17  C   UNL A   1      37.757  30.874  28.992  1.00  0.00     0.031 C 
ATOM     18  C   UNL A   1      37.302  33.644  33.171  1.00  0.00     0.029 A 
ATOM     19  N   UNL A   1      38.948  32.133  33.131  1.00  0.00    -0.354 N 
ATOM     20  C   UNL A   1      39.502  29.562  29.684  1.00  0.00     0.074 A 
ATOM     21  C   UNL A   1      38.539  29.857  28.646  1.00  0.00     0.031 C 
ATOM     22  C   UNL A   1      37.973  33.758  34.324  1.00  0.00     0.029 A 
ATOM     23  C   UNL A   1      39.026  32.753  34.355  1.00  0.00     0.049 A 
ATOM     24  H   UNL A   1      39.563  31.419  32.846  1.00  0.00     0.167 HD
ATOM     25  C   UNL A   1      40.460  28.606  29.602  1.00  0.00     0.037 A 
ATOM     26  C   UNL A   1      39.836  32.517  35.402  1.00  0.00     0.037 A 
ATOM     27  C   UNL A   1      41.420  28.333  30.641  1.00  0.00     0.049 A 
ATOM     28  C   UNL A   1      40.861  31.428  35.286  1.00  0.00     0.074 A 
ATOM     29  C   UNL A   1      42.463  27.422  30.631  1.00  0.00     0.029 A 
ATOM     30  N   UNL A   1      41.451  28.960  31.879  1.00  0.00    -0.354 N 
ATOM     31  N   UNL A   1      41.129  30.653  34.263  1.00  0.00    -0.248 NA
ATOM     32  C   UNL A   1      41.691  31.176  36.470  1.00  0.00     0.031 C 
ATOM     33  C   UNL A   1      43.086  27.455  31.881  1.00  0.00     0.029 A 
ATOM     34  C   UNL A   1      42.471  28.428  32.652  1.00  0.00     0.049 A 
ATOM     35  H   UNL A   1      40.839  29.676  32.165  1.00  0.00     0.167 HD
ATOM     36  C   UNL A   1      42.169  29.831  34.675  1.00  0.00     0.074 A 
ATOM     37  C   UNL A   1      42.502  30.226  36.028  1.00  0.00     0.031 C 
ATOM     38  C   UNL A   1      42.787  28.834  33.998  1.00  0.00     0.037 A 
BRANCH  25  39
ATOM     39  C   UNL A   1      40.517  27.765  28.361  1.00  0.00     0.057 A 
ATOM     40  C   UNL A   1      41.265  28.145  27.240  1.00  0.00     0.134 A 
ATOM     41  C   UNL A   1      39.895  26.509  28.327  1.00  0.00     0.134 A 
ATOM     42  F   UNL A   1      41.878  29.338  27.203  1.00  0.00    -0.206 F 
ATOM     43  C   UNL A   1      41.388  27.308  26.127  1.00  0.00     0.040 A 
ATOM     44  C   UNL A   1      40.030  25.656  27.230  1.00  0.00     0.040 A 
ATOM     45  F   UNL A   1      39.169  26.081  29.370  1.00  0.00    -0.206 F 
ATOM     46  C   UNL A   1      40.779  26.055  26.126  1.00  0.00     0.006 A 
ENDBRANCH  25  39
BRANCH  26  47
ATOM     47  C   UNL A   1      39.681  33.295  36.657  1.00  0.00     0.057 A 
ATOM     48  C   UNL A   1      38.767  32.912  37.643  1.00  0.00     0.134 A 
ATOM     49  C   UNL A   1      40.429  34.456  36.888  1.00  0.00     0.134 A 
ATOM     50  F   UNL A   1      38.009  31.817  37.475  1.00  0.00    -0.206 F 
ATOM     51  C   UNL A   1      38.578  33.672  38.799  1.00  0.00     0.040 A 
ATOM     52  C   UNL A   1      40.277  35.206  38.054  1.00  0.00     0.040 A 
ATOM     53  F   UNL A   1      41.332  34.872  35.987  1.00  0.00    -0.206 F 
ATOM     54  C   UNL A   1      39.338  34.821  39.008  1.00  0.00     0.006 A 
ENDBRANCH  26  47
BRANCH  38  55
ATOM     55  C   UNL A   1      43.901  28.124  34.707  1.00  0.00     0.057 A 
ATOM     56  C   UNL A   1      45.221  28.593  34.663  1.00  0.00     0.134 A 
ATOM     57  C   UNL A   1      43.648  26.970  35.458  1.00  0.00     0.134 A 
ATOM     58  F   UNL A   1      45.532  29.684  33.947  1.00  0.00    -0.206 F 
ATOM     59  C   UNL A   1      46.254  27.921  35.317  1.00  0.00     0.040 A 
ATOM     60  C   UNL A   1      44.668  26.307  36.142  1.00  0.00     0.040 A 
ATOM     61  F   UNL A   1      42.405  26.473  35.548  1.00  0.00    -0.206 F 
ATOM     62  C   UNL A   1      45.977  26.778  36.064  1.00  0.00     0.006 A 
ENDBRANCH  38  55
ENDBRANCH  12  13
ENDBRANCH   5   7
ENDBRANCH   2   3
ENDBRANCH   1   2
BRANCH   1  63
ATOM     63  C   UNL A   1      31.358  30.947  25.898  1.00  0.00     0.117 C 
BRANCH  63  64
ATOM     64  N   UNL A   1      32.414  30.153  26.497  1.00  0.00    -0.356 N 
ATOM     65  C   UNL A   1      32.718  28.831  26.330  1.00  0.00     0.223 C 
ATOM     66  H   UNL A   1      33.000  30.641  27.120  1.00  0.00     0.163 HD
ATOM     67  O   UNL A   1      33.740  28.401  26.862  1.00  0.00    -0.275 OA
BRANCH  65  68
ATOM     68  C   UNL A   1      31.769  27.928  25.535  1.00  0.00     0.091 C 
ATOM     69  C   UNL A   1      31.373  26.718  26.401  1.00  0.00     0.014 C 
ATOM     70  C   UNL A   1      32.357  27.506  24.172  1.00  0.00     0.091 C 
ATOM     71  C   UNL A   1      30.528  25.718  25.624  1.00  0.00     0.001 C 
ATOM     72  C   UNL A   1      31.743  26.259  23.506  1.00  0.00     0.014 C 
ATOM     73  C   UNL A   1      31.338  25.156  24.468  1.00  0.00     0.001 C 
BRANCH  70  74
ATOM     74  C   UNL A   1      32.483  28.618  23.122  1.00  0.00     0.228 C 
ATOM     75  O   UNL A   1      33.614  28.955  22.744  1.00  0.00    -0.274 OA
ATOM     76  N   UNL A   1      31.432  29.236  22.501  1.00  0.00    -0.326 N 
ATOM     77  H   UNL A   1      31.710  29.735  21.699  1.00  0.00     0.169 HD
BRANCH  76  78
ATOM     78  C   UNL A   1      30.047  29.327  22.737  1.00  0.00     0.044 A 
ATOM     79  C   UNL A   1      29.197  28.240  22.938  1.00  0.00     0.026 A 
ATOM     80  C   UNL A   1      29.502  30.605  22.858  1.00  0.00     0.072 A 
ATOM     81  C   UNL A   1      27.822  28.403  23.125  1.00  0.00     0.006 A 
ATOM     82  C   UNL A   1      28.130  30.770  23.051  1.00  0.00     0.117 A 
ATOM     83  C   UNL A   1      27.278  29.678  23.160  1.00  0.00     0.046 A 
BRANCH  82  84
ATOM     84  O   UNL A   1      27.650  32.044  23.127  1.00  0.00    -0.508 OA
ATOM     85  H   UNL A   1      28.060  32.666  23.695  1.00  0.00     0.293 HD
ENDBRANCH  82  84
ENDBRANCH  76  78
ENDBRANCH  70  74
ENDBRANCH  65  68
ENDBRANCH  63  64
ENDBRANCH   1  63
TORSDOF 13
ENDMDL
