MODEL 1
REMARK VINA RESULT:     -11.2      0.000      0.000
REMARK SMILES C[C@@H](NC(=O)[C@@H](C)NC(=O)C(C)(C)C)C(=O)NCCCNC(=O)c1ccc(-c2c3nc(c(-c4c(F)cccc4F)c4ccc([nH]4)c(-c4c(F)cccc4F)c4nc(c(-c5c(F)cccc5F)c5ccc2[nH]5)C=C4)C=C3)cc1
REMARK SMILES IDX 18 1 17 2 15 3 16 4 2 6 1 7 3 8 4 9 5 11 6 12 7 13 8 14 9 15
REMARK SMILES IDX 10 17 11 18 12 19 13 20 14 21 19 22 20 23 21 24 22 25 23 27
REMARK SMILES IDX 24 28 25 29 77 30 26 31 76 32 27 33 28 34 29 35 70 36 30 37
REMARK SMILES IDX 75 38 69 39 71 40 31 41 74 42 68 43 67 44 32 46 58 47 41 48
REMARK SMILES IDX 57 49 42 50 45 51 56 52 72 53 43 54 44 55 55 57 73 58 46 59
REMARK SMILES IDX 33 60 34 61 39 62 35 63 36 64 38 65 40 66 37 67 59 68 60 69
REMARK SMILES IDX 65 70 61 71 62 72 64 73 66 74 63 75 47 76 48 77 53 78 49 79
REMARK SMILES IDX 50 80 52 81 54 82 51 83
REMARK H PARENT 17 5 3 10 8 16 21 26 71 45 45 56
REMARK Flexibility Score: inf
ROOT
ATOM      1  C   UNL A   1      35.956  21.263  25.424  1.00  0.00     0.117 C 
ENDROOT
BRANCH   1   2
ATOM      2  N   UNL A   1      35.108  20.081  25.399  1.00  0.00    -0.354 N 
ATOM      3  C   UNL A   1      33.843  19.907  24.927  1.00  0.00     0.242 C 
ATOM      4  O   UNL A   1      33.393  18.758  24.934  1.00  0.00    -0.273 OA
ATOM      5  H   UNL A   1      35.517  19.273  25.785  1.00  0.00     0.163 HD
BRANCH   3   6
ATOM      6  C   UNL A   1      32.923  21.095  24.604  1.00  0.00     0.168 C 
ATOM      7  C   UNL A   1      32.280  20.782  23.244  1.00  0.00     0.041 C 
BRANCH   6   8
ATOM      8  N   UNL A   1      31.875  21.451  25.559  1.00  0.00    -0.343 N 
ATOM      9  C   UNL A   1      31.052  22.528  25.665  1.00  0.00     0.242 C 
ATOM     10  H   UNL A   1      31.741  20.779  26.266  1.00  0.00     0.164 HD
ATOM     11  O   UNL A   1      30.072  22.368  26.406  1.00  0.00    -0.273 OA
BRANCH   9  12
ATOM     12  C   UNL A   1      31.364  23.943  25.119  1.00  0.00     0.168 C 
ATOM     13  C   UNL A   1      30.689  24.127  23.769  1.00  0.00     0.041 C 
BRANCH  12  14
ATOM     14  N   UNL A   1      31.106  25.074  25.993  1.00  0.00    -0.344 N 
ATOM     15  C   UNL A   1      31.834  26.210  26.203  1.00  0.00     0.226 C 
ATOM     16  H   UNL A   1      30.275  25.011  26.517  1.00  0.00     0.164 HD
ATOM     17  O   UNL A   1      31.336  27.010  27.003  1.00  0.00    -0.275 OA
BRANCH  15  18
ATOM     18  C   UNL A   1      33.208  26.510  25.525  1.00  0.00     0.041 C 
ATOM     19  C   UNL A   1      34.176  25.322  25.624  1.00  0.00     0.021 C 
ATOM     20  C   UNL A   1      33.075  26.973  24.068  1.00  0.00     0.021 C 
ATOM     21  C   UNL A   1      33.864  27.687  26.292  1.00  0.00     0.021 C 
ENDBRANCH  15  18
ENDBRANCH  12  14
ENDBRANCH   9  12
ENDBRANCH   6   8
ENDBRANCH   3   6
ENDBRANCH   1   2
BRANCH   1  22
ATOM     22  C   UNL A   1      37.297  21.018  24.732  1.00  0.00     0.042 C 
BRANCH  22  23
ATOM     23  C   UNL A   1      38.522  21.118  25.643  1.00  0.00     0.118 C 
BRANCH  23  24
ATOM     24  N   UNL A   1      39.439  19.990  25.562  1.00  0.00    -0.352 N 
ATOM     25  C   UNL A   1      40.744  19.855  25.982  1.00  0.00     0.251 C 
ATOM     26  H   UNL A   1      39.063  19.187  25.133  1.00  0.00     0.163 HD
ATOM     27  O   UNL A   1      41.339  18.802  25.802  1.00  0.00    -0.269 OA
BRANCH  25  28
ATOM     28  C   UNL A   1      41.450  21.009  26.576  1.00  0.00     0.039 A 
ATOM     29  C   UNL A   1      42.077  21.913  25.714  1.00  0.00     0.014 A 
ATOM     30  C   UNL A   1      41.436  21.246  27.950  1.00  0.00     0.014 A 
ATOM     31  C   UNL A   1      42.563  23.120  26.217  1.00  0.00     0.010 A 
ATOM     32  C   UNL A   1      41.823  22.491  28.433  1.00  0.00     0.010 A 
ATOM     33  C   UNL A   1      42.365  23.453  27.567  1.00  0.00    -0.014 A 
BRANCH  33  34
ATOM     34  C   UNL A   1      42.661  24.817  28.077  1.00  0.00     0.031 A 
ATOM     35  C   UNL A   1      44.051  25.181  28.516  1.00  0.00     0.074 A 
ATOM     36  C   UNL A   1      41.653  25.699  28.236  1.00  0.00     0.049 A 
ATOM     37  N   UNL A   1      44.475  26.279  29.091  1.00  0.00    -0.248 NA
ATOM     38  C   UNL A   1      45.097  24.166  28.317  1.00  0.00     0.031 C 
ATOM     39  C   UNL A   1      40.246  25.450  27.910  1.00  0.00     0.029 A 
ATOM     40  N   UNL A   1      41.654  26.982  28.726  1.00  0.00    -0.354 N 
ATOM     41  C   UNL A   1      45.825  26.075  29.342  1.00  0.00     0.074 A 
ATOM     42  C   UNL A   1      46.140  24.733  28.904  1.00  0.00     0.031 C 
ATOM     43  C   UNL A   1      39.528  26.551  28.180  1.00  0.00     0.029 A 
ATOM     44  C   UNL A   1      40.411  27.569  28.738  1.00  0.00     0.049 A 
ATOM     45  H   UNL A   1      42.468  27.438  29.039  1.00  0.00     0.167 HD
ATOM     46  C   UNL A   1      46.727  26.937  29.869  1.00  0.00     0.037 A 
ATOM     47  C   UNL A   1      40.021  28.786  29.162  1.00  0.00     0.037 A 
ATOM     48  C   UNL A   1      46.424  28.286  30.267  1.00  0.00     0.049 A 
ATOM     49  C   UNL A   1      41.046  29.729  29.728  1.00  0.00     0.074 A 
ATOM     50  C   UNL A   1      47.288  29.261  30.736  1.00  0.00     0.029 A 
ATOM     51  N   UNL A   1      45.158  28.850  30.240  1.00  0.00    -0.354 N 
ATOM     52  N   UNL A   1      42.331  29.545  29.897  1.00  0.00    -0.248 NA
ATOM     53  C   UNL A   1      40.563  31.047  30.163  1.00  0.00     0.031 C 
ATOM     54  C   UNL A   1      46.537  30.406  31.026  1.00  0.00     0.029 A 
ATOM     55  C   UNL A   1      45.213  30.155  30.703  1.00  0.00     0.049 A 
ATOM     56  H   UNL A   1      44.342  28.393  29.936  1.00  0.00     0.167 HD
ATOM     57  C   UNL A   1      42.816  30.727  30.440  1.00  0.00     0.074 A 
ATOM     58  C   UNL A   1      41.687  31.629  30.556  1.00  0.00     0.031 C 
ATOM     59  C   UNL A   1      44.081  31.038  30.813  1.00  0.00     0.037 A 
BRANCH  46  60
ATOM     60  C   UNL A   1      48.135  26.445  30.033  1.00  0.00     0.057 A 
ATOM     61  C   UNL A   1      48.566  25.825  31.215  1.00  0.00     0.134 A 
ATOM     62  C   UNL A   1      49.062  26.568  28.992  1.00  0.00     0.134 A 
ATOM     63  F   UNL A   1      47.730  25.688  32.254  1.00  0.00    -0.206 F 
ATOM     64  C   UNL A   1      49.877  25.370  31.362  1.00  0.00     0.040 A 
ATOM     65  C   UNL A   1      50.369  26.094  29.119  1.00  0.00     0.040 A 
ATOM     66  F   UNL A   1      48.713  27.147  27.834  1.00  0.00    -0.206 F 
ATOM     67  C   UNL A   1      50.781  25.498  30.310  1.00  0.00     0.006 A 
ENDBRANCH  46  60
BRANCH  47  68
ATOM     68  C   UNL A   1      38.599  29.194  29.049  1.00  0.00     0.057 A 
ATOM     69  C   UNL A   1      38.077  29.649  27.832  1.00  0.00     0.134 A 
ATOM     70  C   UNL A   1      37.733  29.146  30.147  1.00  0.00     0.134 A 
ATOM     71  F   UNL A   1      38.864  29.735  26.750  1.00  0.00    -0.206 F 
ATOM     72  C   UNL A   1      36.748  30.058  27.715  1.00  0.00     0.040 A 
ATOM     73  C   UNL A   1      36.395  29.532  30.038  1.00  0.00     0.040 A 
ATOM     74  F   UNL A   1      38.170  28.712  31.337  1.00  0.00    -0.206 F 
ATOM     75  C   UNL A   1      35.901  29.996  28.820  1.00  0.00     0.006 A 
ENDBRANCH  47  68
BRANCH  59  76
ATOM     76  C   UNL A   1      44.313  32.413  31.361  1.00  0.00     0.057 A 
ATOM     77  C   UNL A   1      44.601  33.499  30.525  1.00  0.00     0.134 A 
ATOM     78  C   UNL A   1      44.212  32.661  32.736  1.00  0.00     0.134 A 
ATOM     79  F   UNL A   1      44.726  33.322  29.201  1.00  0.00    -0.206 F 
ATOM     80  C   UNL A   1      44.798  34.781  31.039  1.00  0.00     0.040 A 
ATOM     81  C   UNL A   1      44.384  33.942  33.259  1.00  0.00     0.040 A 
ATOM     82  F   UNL A   1      43.932  31.664  33.589  1.00  0.00    -0.206 F 
ATOM     83  C   UNL A   1      44.683  35.006  32.410  1.00  0.00     0.006 A 
ENDBRANCH  59  76
ENDBRANCH  33  34
ENDBRANCH  25  28
ENDBRANCH  23  24
ENDBRANCH  22  23
ENDBRANCH   1  22
TORSDOF 14
ENDMDL
MODEL 2
REMARK VINA RESULT:     -11.1      0.406      6.396
REMARK SMILES C[C@@H](NC(=O)[C@@H](C)NC(=O)C(C)(C)C)C(=O)NCCCNC(=O)c1ccc(-c2c3nc(c(-c4c(F)cccc4F)c4ccc([nH]4)c(-c4c(F)cccc4F)c4nc(c(-c5c(F)cccc5F)c5ccc2[nH]5)C=C4)C=C3)cc1
REMARK SMILES IDX 18 1 17 2 15 3 16 4 2 6 1 7 3 8 4 9 5 11 6 12 7 13 8 14 9 15
REMARK SMILES IDX 10 17 11 18 12 19 13 20 14 21 19 22 20 23 21 24 22 25 23 27
REMARK SMILES IDX 24 28 25 29 77 30 26 31 76 32 27 33 28 34 29 35 70 36 30 37
REMARK SMILES IDX 75 38 69 39 71 40 31 41 74 42 68 43 67 44 32 46 58 47 41 48
REMARK SMILES IDX 57 49 42 50 45 51 56 52 72 53 43 54 44 55 55 57 73 58 46 59
REMARK SMILES IDX 33 60 34 61 39 62 35 63 36 64 38 65 40 66 37 67 59 68 60 69
REMARK SMILES IDX 65 70 61 71 62 72 64 73 66 74 63 75 47 76 48 77 53 78 49 79
REMARK SMILES IDX 50 80 52 81 54 82 51 83
REMARK H PARENT 17 5 3 10 8 16 21 26 71 45 45 56
REMARK Flexibility Score: inf
ROOT
ATOM      1  C   UNL A   1      35.871  21.444  25.489  1.00  0.00     0.117 C 
ENDROOT
BRANCH   1   2
ATOM      2  N   UNL A   1      35.140  20.192  25.364  1.00  0.00    -0.354 N 
ATOM      3  C   UNL A   1      33.928  19.926  24.807  1.00  0.00     0.242 C 
ATOM      4  O   UNL A   1      33.588  18.741  24.740  1.00  0.00    -0.273 OA
ATOM      5  H   UNL A   1      35.600  19.409  25.745  1.00  0.00     0.163 HD
BRANCH   3   6
ATOM      6  C   UNL A   1      32.921  21.037  24.473  1.00  0.00     0.168 C 
ATOM      7  C   UNL A   1      32.231  20.613  23.167  1.00  0.00     0.041 C 
BRANCH   6   8
ATOM      8  N   UNL A   1      31.903  21.383  25.463  1.00  0.00    -0.343 N 
ATOM      9  C   UNL A   1      31.077  22.454  25.600  1.00  0.00     0.242 C 
ATOM     10  H   UNL A   1      31.796  20.708  26.171  1.00  0.00     0.164 HD
ATOM     11  O   UNL A   1      30.122  22.285  26.371  1.00  0.00    -0.273 OA
BRANCH   9  12
ATOM     12  C   UNL A   1      31.362  23.874  25.049  1.00  0.00     0.168 C 
ATOM     13  C   UNL A   1      30.675  24.045  23.704  1.00  0.00     0.041 C 
BRANCH  12  14
ATOM     14  N   UNL A   1      31.092  25.002  25.923  1.00  0.00    -0.344 N 
ATOM     15  C   UNL A   1      31.828  26.127  26.163  1.00  0.00     0.226 C 
ATOM     16  H   UNL A   1      30.245  24.946  26.421  1.00  0.00     0.164 HD
ATOM     17  O   UNL A   1      31.315  26.928  26.954  1.00  0.00    -0.275 OA
BRANCH  15  18
ATOM     18  C   UNL A   1      33.224  26.414  25.530  1.00  0.00     0.041 C 
ATOM     19  C   UNL A   1      34.193  25.234  25.697  1.00  0.00     0.021 C 
ATOM     20  C   UNL A   1      33.145  26.837  24.057  1.00  0.00     0.021 C 
ATOM     21  C   UNL A   1      33.847  27.614  26.288  1.00  0.00     0.021 C 
ENDBRANCH  15  18
ENDBRANCH  12  14
ENDBRANCH   9  12
ENDBRANCH   6   8
ENDBRANCH   3   6
ENDBRANCH   1   2
BRANCH   1  22
ATOM     22  C   UNL A   1      37.215  21.396  24.762  1.00  0.00     0.042 C 
BRANCH  22  23
ATOM     23  C   UNL A   1      38.444  21.398  25.673  1.00  0.00     0.118 C 
BRANCH  23  24
ATOM     24  N   UNL A   1      39.295  20.224  25.554  1.00  0.00    -0.352 N 
ATOM     25  C   UNL A   1      40.590  20.001  25.971  1.00  0.00     0.251 C 
ATOM     26  H   UNL A   1      38.876  19.458  25.099  1.00  0.00     0.163 HD
ATOM     27  O   UNL A   1      41.125  18.923  25.756  1.00  0.00    -0.269 OA
BRANCH  25  28
ATOM     28  C   UNL A   1      41.359  21.093  26.603  1.00  0.00     0.039 A 
ATOM     29  C   UNL A   1      42.002  22.014  25.771  1.00  0.00     0.014 A 
ATOM     30  C   UNL A   1      41.388  21.260  27.987  1.00  0.00     0.014 A 
ATOM     31  C   UNL A   1      42.551  23.173  26.322  1.00  0.00     0.010 A 
ATOM     32  C   UNL A   1      41.840  22.461  28.522  1.00  0.00     0.010 A 
ATOM     33  C   UNL A   1      42.401  23.443  27.691  1.00  0.00    -0.014 A 
BRANCH  33  34
ATOM     34  C   UNL A   1      42.767  24.766  28.262  1.00  0.00     0.031 A 
ATOM     35  C   UNL A   1      41.720  25.824  28.465  1.00  0.00     0.074 A 
ATOM     36  C   UNL A   1      44.064  25.046  28.506  1.00  0.00     0.049 A 
ATOM     37  N   UNL A   1      41.868  27.069  28.842  1.00  0.00    -0.248 NA
ATOM     38  C   UNL A   1      40.329  25.446  28.173  1.00  0.00     0.031 C 
ATOM     39  C   UNL A   1      45.187  24.131  28.290  1.00  0.00     0.029 A 
ATOM     40  N   UNL A   1      44.660  26.190  28.977  1.00  0.00    -0.354 N 
ATOM     41  C   UNL A   1      40.596  27.626  28.808  1.00  0.00     0.074 A 
ATOM     42  C   UNL A   1      39.697  26.600  28.327  1.00  0.00     0.031 C 
ATOM     43  C   UNL A   1      46.328  24.736  28.655  1.00  0.00     0.029 A 
ATOM     44  C   UNL A   1      46.026  26.095  29.088  1.00  0.00     0.049 A 
ATOM     45  H   UNL A   1      44.155  27.002  29.212  1.00  0.00     0.167 HD
ATOM     46  C   UNL A   1      40.208  28.873  29.167  1.00  0.00     0.037 A 
ATOM     47  C   UNL A   1      46.938  27.004  29.484  1.00  0.00     0.037 A 
ATOM     48  C   UNL A   1      41.094  29.880  29.685  1.00  0.00     0.049 A 
ATOM     49  C   UNL A   1      46.479  28.375  29.892  1.00  0.00     0.074 A 
ATOM     50  C   UNL A   1      40.782  31.146  30.152  1.00  0.00     0.029 A 
ATOM     51  N   UNL A   1      42.468  29.736  29.806  1.00  0.00    -0.354 N 
ATOM     52  N   UNL A   1      45.264  28.865  29.917  1.00  0.00    -0.248 NA
ATOM     53  C   UNL A   1      47.518  29.319  30.325  1.00  0.00     0.031 C 
ATOM     54  C   UNL A   1      41.973  31.781  30.523  1.00  0.00     0.029 A 
ATOM     55  C   UNL A   1      43.021  30.897  30.322  1.00  0.00     0.049 A 
ATOM     56  H   UNL A   1      42.975  28.929  29.562  1.00  0.00     0.167 HD
ATOM     57  C   UNL A   1      45.388  30.165  30.385  1.00  0.00     0.074 A 
ATOM     58  C   UNL A   1      46.796  30.383  30.648  1.00  0.00     0.031 C 
ATOM     59  C   UNL A   1      44.424  31.097  30.576  1.00  0.00     0.037 A 
BRANCH  46  60
ATOM     60  C   UNL A   1      38.753  29.210  29.022  1.00  0.00     0.057 A 
ATOM     61  C   UNL A   1      38.201  29.577  27.787  1.00  0.00     0.134 A 
ATOM     62  C   UNL A   1      37.889  29.142  30.122  1.00  0.00     0.134 A 
ATOM     63  F   UNL A   1      38.977  29.673  26.698  1.00  0.00    -0.206 F 
ATOM     64  C   UNL A   1      36.847  29.890  27.658  1.00  0.00     0.040 A 
ATOM     65  C   UNL A   1      36.529  29.429  30.000  1.00  0.00     0.040 A 
ATOM     66  F   UNL A   1      38.353  28.793  31.331  1.00  0.00    -0.206 F 
ATOM     67  C   UNL A   1      36.005  29.810  28.766  1.00  0.00     0.006 A 
ENDBRANCH  46  60
BRANCH  47  68
ATOM     68  C   UNL A   1      48.376  26.642  29.534  1.00  0.00     0.057 A 
ATOM     69  C   UNL A   1      49.227  26.927  28.459  1.00  0.00     0.134 A 
ATOM     70  C   UNL A   1      48.933  26.002  30.647  1.00  0.00     0.134 A 
ATOM     71  F   UNL A   1      48.746  27.522  27.358  1.00  0.00    -0.206 F 
ATOM     72  C   UNL A   1      50.576  26.572  28.482  1.00  0.00     0.040 A 
ATOM     73  C   UNL A   1      50.287  25.662  30.692  1.00  0.00     0.040 A 
ATOM     74  F   UNL A   1      48.173  25.710  31.712  1.00  0.00    -0.206 F 
ATOM     75  C   UNL A   1      51.111  25.941  29.603  1.00  0.00     0.006 A 
ENDBRANCH  47  68
BRANCH  59  76
ATOM     76  C   UNL A   1      44.857  32.428  31.112  1.00  0.00     0.057 A 
ATOM     77  C   UNL A   1      44.948  32.672  32.488  1.00  0.00     0.134 A 
ATOM     78  C   UNL A   1      45.222  33.465  30.244  1.00  0.00     0.134 A 
ATOM     79  F   UNL A   1      44.598  31.724  33.371  1.00  0.00    -0.206 F 
ATOM     80  C   UNL A   1      45.370  33.907  32.982  1.00  0.00     0.040 A 
ATOM     81  C   UNL A   1      45.666  34.696  30.725  1.00  0.00     0.040 A 
ATOM     82  F   UNL A   1      45.162  33.292  28.915  1.00  0.00    -0.206 F 
ATOM     83  C   UNL A   1      45.737  34.921  32.098  1.00  0.00     0.006 A 
ENDBRANCH  59  76
ENDBRANCH  33  34
ENDBRANCH  25  28
ENDBRANCH  23  24
ENDBRANCH  22  23
ENDBRANCH   1  22
TORSDOF 14
ENDMDL
MODEL 3
REMARK VINA RESULT:     -10.9      4.247      9.827
REMARK SMILES C[C@@H](NC(=O)[C@@H](C)NC(=O)C(C)(C)C)C(=O)NCCCNC(=O)c1ccc(-c2c3nc(c(-c4c(F)cccc4F)c4ccc([nH]4)c(-c4c(F)cccc4F)c4nc(c(-c5c(F)cccc5F)c5ccc2[nH]5)C=C4)C=C3)cc1
REMARK SMILES IDX 18 1 17 2 15 3 16 4 2 6 1 7 3 8 4 9 5 11 6 12 7 13 8 14 9 15
REMARK SMILES IDX 10 17 11 18 12 19 13 20 14 21 19 22 20 23 21 24 22 25 23 27
REMARK SMILES IDX 24 28 25 29 77 30 26 31 76 32 27 33 28 34 29 35 70 36 30 37
REMARK SMILES IDX 75 38 69 39 71 40 31 41 74 42 68 43 67 44 32 46 58 47 41 48
REMARK SMILES IDX 57 49 42 50 45 51 56 52 72 53 43 54 44 55 55 57 73 58 46 59
REMARK SMILES IDX 33 60 34 61 39 62 35 63 36 64 38 65 40 66 37 67 59 68 60 69
REMARK SMILES IDX 65 70 61 71 62 72 64 73 66 74 63 75 47 76 48 77 53 78 49 79
REMARK SMILES IDX 50 80 52 81 54 82 51 83
REMARK H PARENT 17 5 3 10 8 16 21 26 71 45 45 56
REMARK Flexibility Score: inf
ROOT
ATOM      1  C   UNL A   1      35.180  34.505  28.246  1.00  0.00     0.117 C 
ENDROOT
BRANCH   1   2
ATOM      2  N   UNL A   1      33.872  35.145  28.231  1.00  0.00    -0.354 N 
ATOM      3  C   UNL A   1      33.202  35.814  29.207  1.00  0.00     0.242 C 
ATOM      4  O   UNL A   1      32.139  36.356  28.890  1.00  0.00    -0.273 OA
ATOM      5  H   UNL A   1      33.395  35.083  27.372  1.00  0.00     0.163 HD
BRANCH   3   6
ATOM      6  C   UNL A   1      33.613  35.728  30.686  1.00  0.00     0.168 C 
ATOM      7  C   UNL A   1      32.752  36.760  31.431  1.00  0.00     0.041 C 
BRANCH   6   8
ATOM      8  N   UNL A   1      33.514  34.439  31.367  1.00  0.00    -0.343 N 
ATOM      9  C   UNL A   1      33.869  34.026  32.613  1.00  0.00     0.242 C 
ATOM     10  H   UNL A   1      33.113  33.730  30.815  1.00  0.00     0.164 HD
ATOM     11  O   UNL A   1      33.362  32.955  32.975  1.00  0.00    -0.273 OA
BRANCH   9  12
ATOM     12  C   UNL A   1      34.983  34.666  33.479  1.00  0.00     0.168 C 
ATOM     13  C   UNL A   1      34.439  35.906  34.170  1.00  0.00     0.041 C 
BRANCH  12  14
ATOM     14  N   UNL A   1      35.683  33.808  34.418  1.00  0.00    -0.344 N 
ATOM     15  C   UNL A   1      36.826  33.078  34.260  1.00  0.00     0.226 C 
ATOM     16  H   UNL A   1      35.268  33.741  35.308  1.00  0.00     0.164 HD
ATOM     17  O   UNL A   1      37.192  32.455  35.264  1.00  0.00    -0.275 OA
BRANCH  15  18
ATOM     18  C   UNL A   1      37.633  32.987  32.928  1.00  0.00     0.041 C 
ATOM     19  C   UNL A   1      36.887  32.187  31.850  1.00  0.00     0.021 C 
ATOM     20  C   UNL A   1      38.057  34.357  32.382  1.00  0.00     0.021 C 
ATOM     21  C   UNL A   1      38.947  32.218  33.224  1.00  0.00     0.021 C 
ENDBRANCH  15  18
ENDBRANCH  12  14
ENDBRANCH   9  12
ENDBRANCH   6   8
ENDBRANCH   3   6
ENDBRANCH   1   2
BRANCH   1  22
ATOM     22  C   UNL A   1      35.106  33.045  27.799  1.00  0.00     0.042 C 
BRANCH  22  23
ATOM     23  C   UNL A   1      34.307  32.125  28.723  1.00  0.00     0.118 C 
BRANCH  23  24
ATOM     24  N   UNL A   1      33.973  30.827  28.155  1.00  0.00    -0.352 N 
ATOM     25  C   UNL A   1      34.742  29.698  27.971  1.00  0.00     0.251 C 
ATOM     26  H   UNL A   1      33.041  30.741  27.849  1.00  0.00     0.163 HD
ATOM     27  O   UNL A   1      34.252  28.702  27.456  1.00  0.00    -0.269 OA
BRANCH  25  28
ATOM     28  C   UNL A   1      36.177  29.719  28.318  1.00  0.00     0.039 A 
ATOM     29  C   UNL A   1      36.552  29.308  29.601  1.00  0.00     0.014 A 
ATOM     30  C   UNL A   1      37.151  30.061  27.381  1.00  0.00     0.014 A 
ATOM     31  C   UNL A   1      37.901  29.106  29.893  1.00  0.00     0.010 A 
ATOM     32  C   UNL A   1      38.484  29.760  27.637  1.00  0.00     0.010 A 
ATOM     33  C   UNL A   1      38.870  29.252  28.887  1.00  0.00    -0.014 A 
BRANCH  33  34
ATOM     34  C   UNL A   1      40.277  28.824  29.103  1.00  0.00     0.031 A 
ATOM     35  C   UNL A   1      41.280  29.774  29.693  1.00  0.00     0.074 A 
ATOM     36  C   UNL A   1      40.673  27.607  28.676  1.00  0.00     0.049 A 
ATOM     37  N   UNL A   1      42.571  29.619  29.851  1.00  0.00    -0.248 NA
ATOM     38  C   UNL A   1      40.775  31.084  30.131  1.00  0.00     0.031 C 
ATOM     39  C   UNL A   1      39.814  26.613  28.027  1.00  0.00     0.029 A 
ATOM     40  N   UNL A   1      41.905  27.003  28.711  1.00  0.00    -0.354 N 
ATOM     41  C   UNL A   1      43.032  30.816  30.381  1.00  0.00     0.074 A 
ATOM     42  C   UNL A   1      41.894  31.705  30.473  1.00  0.00     0.031 C 
ATOM     43  C   UNL A   1      40.536  25.516  27.753  1.00  0.00     0.029 A 
ATOM     44  C   UNL A   1      41.917  25.742  28.165  1.00  0.00     0.049 A 
ATOM     45  H   UNL A   1      42.705  27.433  29.090  1.00  0.00     0.167 HD
ATOM     46  C   UNL A   1      44.286  31.139  30.779  1.00  0.00     0.037 A 
ATOM     47  C   UNL A   1      42.928  24.867  28.002  1.00  0.00     0.037 A 
ATOM     48  C   UNL A   1      45.409  30.242  30.727  1.00  0.00     0.049 A 
ATOM     49  C   UNL A   1      44.307  25.245  28.466  1.00  0.00     0.074 A 
ATOM     50  C   UNL A   1      46.701  30.450  31.181  1.00  0.00     0.029 A 
ATOM     51  N   UNL A   1      45.374  28.964  30.190  1.00  0.00    -0.354 N 
ATOM     52  N   UNL A   1      44.713  26.356  29.027  1.00  0.00    -0.248 NA
ATOM     53  C   UNL A   1      45.366  24.245  28.273  1.00  0.00     0.031 C 
ATOM     54  C   UNL A   1      47.456  29.309  30.886  1.00  0.00     0.029 A 
ATOM     55  C   UNL A   1      46.626  28.378  30.284  1.00  0.00     0.049 A 
ATOM     56  H   UNL A   1      44.577  28.536  29.802  1.00  0.00     0.167 HD
ATOM     57  C   UNL A   1      46.069  26.185  29.271  1.00  0.00     0.074 A 
ATOM     58  C   UNL A   1      46.412  24.855  28.812  1.00  0.00     0.031 C 
ATOM     59  C   UNL A   1      46.951  27.054  29.821  1.00  0.00     0.037 A 
BRANCH  46  60
ATOM     60  C   UNL A   1      44.503  32.522  31.317  1.00  0.00     0.057 A 
ATOM     61  C   UNL A   1      44.770  33.609  30.472  1.00  0.00     0.134 A 
ATOM     62  C   UNL A   1      44.420  32.777  32.691  1.00  0.00     0.134 A 
ATOM     63  F   UNL A   1      44.876  33.429  29.148  1.00  0.00    -0.206 F 
ATOM     64  C   UNL A   1      44.973  34.893  30.979  1.00  0.00     0.040 A 
ATOM     65  C   UNL A   1      44.595  34.062  33.207  1.00  0.00     0.040 A 
ATOM     66  F   UNL A   1      44.162  31.782  33.554  1.00  0.00    -0.206 F 
ATOM     67  C   UNL A   1      44.878  35.124  32.350  1.00  0.00     0.006 A 
ENDBRANCH  46  60
BRANCH  47  68
ATOM     68  C   UNL A   1      42.673  23.539  27.391  1.00  0.00     0.057 A 
ATOM     69  C   UNL A   1      42.324  22.439  28.182  1.00  0.00     0.134 A 
ATOM     70  C   UNL A   1      42.777  23.336  26.010  1.00  0.00     0.134 A 
ATOM     71  F   UNL A   1      42.227  22.569  29.513  1.00  0.00    -0.206 F 
ATOM     72  C   UNL A   1      42.103  21.179  27.625  1.00  0.00     0.040 A 
ATOM     73  C   UNL A   1      42.537  22.085  25.437  1.00  0.00     0.040 A 
ATOM     74  F   UNL A   1      43.099  24.352  25.197  1.00  0.00    -0.206 F 
ATOM     75  C   UNL A   1      42.206  21.000  26.247  1.00  0.00     0.006 A 
ENDBRANCH  47  68
BRANCH  59  76
ATOM     76  C   UNL A   1      48.366  26.584  29.974  1.00  0.00     0.057 A 
ATOM     77  C   UNL A   1      48.777  25.843  31.090  1.00  0.00     0.134 A 
ATOM     78  C   UNL A   1      49.318  26.844  28.980  1.00  0.00     0.134 A 
ATOM     79  F   UNL A   1      47.916  25.576  32.083  1.00  0.00    -0.206 F 
ATOM     80  C   UNL A   1      50.092  25.392  31.219  1.00  0.00     0.040 A 
ATOM     81  C   UNL A   1      50.628  26.379  29.088  1.00  0.00     0.040 A 
ATOM     82  F   UNL A   1      48.984  27.542  27.885  1.00  0.00    -0.206 F 
ATOM     83  C   UNL A   1      51.019  25.655  30.212  1.00  0.00     0.006 A 
ENDBRANCH  59  76
ENDBRANCH  33  34
ENDBRANCH  25  28
ENDBRANCH  23  24
ENDBRANCH  22  23
ENDBRANCH   1  22
TORSDOF 14
ENDMDL
