MODEL 1
REMARK VINA RESULT:     -12.4      0.000      0.000
REMARK SMILES CC(C)CCc1cc2c(cc1Cl)C=C(C(=O)NCCCNC(=O)c1ccc(-c3c4nc(c(-c5c(F)cccc5F)c5ccc([nH]5)c(-c5c(F)cccc5F)c5nc(c(-c6c(F)cccc6F)c6ccc3[nH]6)C=C5)C=C4)cc1)[C@@H](C(F)(F)F)O2
REMARK SMILES IDX 18 1 17 2 15 3 16 4 14 6 6 7 7 8 11 9 8 10 10 11 12 12 9 13
REMARK SMILES IDX 83 14 13 15 78 16 5 17 4 18 2 19 1 20 3 21 79 22 80 23 81 24
REMARK SMILES IDX 82 25 19 26 20 27 21 28 22 29 23 31 24 32 25 33 77 34 26 35
REMARK SMILES IDX 76 36 27 37 28 38 29 39 70 40 30 41 75 42 69 43 71 44 31 45
REMARK SMILES IDX 74 46 68 47 67 48 32 50 58 51 41 52 57 53 42 54 45 55 56 56
REMARK SMILES IDX 72 57 43 58 44 59 55 61 73 62 46 63 33 64 34 65 39 66 35 67
REMARK SMILES IDX 36 68 38 69 40 70 37 71 59 72 60 73 65 74 61 75 62 76 64 77
REMARK SMILES IDX 66 78 63 79 47 80 48 81 53 82 49 83 50 84 52 85 54 86 51 87
REMARK H PARENT 17 5 21 30 71 49 45 60
REMARK Flexibility Score: inf
ROOT
ATOM      1  C   UNL A   1      36.480  20.532  25.173  1.00  0.00     0.118 C 
ENDROOT
BRANCH   1   2
ATOM      2  N   UNL A   1      35.371  19.606  25.001  1.00  0.00    -0.352 N 
ATOM      3  C   UNL A   1      34.025  19.674  24.895  1.00  0.00     0.251 C 
ATOM      4  O   UNL A   1      33.456  18.584  24.782  1.00  0.00    -0.270 OA
ATOM      5  H   UNL A   1      35.688  18.675  24.945  1.00  0.00     0.163 HD
BRANCH   3   6
ATOM      6  C   UNL A   1      33.222  20.929  24.901  1.00  0.00     0.067 C 
ATOM      7  C   UNL A   1      30.917  25.235  23.629  1.00  0.00    -0.026 A 
ATOM      8  C   UNL A   1      30.808  24.338  24.706  1.00  0.00     0.052 A 
ATOM      9  C   UNL A   1      31.800  24.910  22.583  1.00  0.00     0.045 A 
ATOM     10  C   UNL A   1      31.558  23.166  24.733  1.00  0.00     0.128 A 
ATOM     11  C   UNL A   1      32.517  23.706  22.595  1.00  0.00     0.032 A 
ATOM     12  Cl  UNL A   1      32.081  25.973  21.251  1.00  0.00    -0.084 Cl
ATOM     13  C   UNL A   1      32.400  22.832  23.675  1.00  0.00     0.019 A 
ATOM     14  O   UNL A   1      31.411  22.358  25.827  1.00  0.00    -0.475 OA
ATOM     15  C   UNL A   1      33.132  21.573  23.723  1.00  0.00     0.025 C 
ATOM     16  C   UNL A   1      32.560  21.513  26.119  1.00  0.00     0.314 C 
BRANCH   7  17
ATOM     17  C   UNL A   1      30.084  26.497  23.667  1.00  0.00     0.037 C 
BRANCH  17  18
ATOM     18  C   UNL A   1      30.654  27.642  24.515  1.00  0.00     0.008 C 
BRANCH  18  19
ATOM     19  C   UNL A   1      31.117  28.887  23.733  1.00  0.00    -0.017 C 
ATOM     20  C   UNL A   1      32.618  28.864  23.450  1.00  0.00     0.007 C 
ATOM     21  C   UNL A   1      30.339  28.986  22.418  1.00  0.00     0.007 C 
ENDBRANCH  18  19
ENDBRANCH  17  18
ENDBRANCH   7  17
BRANCH  16  22
ATOM     22  C   UNL A   1      33.550  22.274  27.025  1.00  0.00     0.429 C 
ATOM     23  F   UNL A   1      32.878  22.961  27.984  1.00  0.00    -0.167 F 
ATOM     24  F   UNL A   1      34.402  21.445  27.674  1.00  0.00    -0.167 F 
ATOM     25  F   UNL A   1      34.311  23.162  26.348  1.00  0.00    -0.167 F 
ENDBRANCH  16  22
ENDBRANCH   3   6
ENDBRANCH   1   2
BRANCH   1  26
ATOM     26  C   UNL A   1      37.806  19.896  24.784  1.00  0.00     0.042 C 
BRANCH  26  27
ATOM     27  C   UNL A   1      38.929  20.260  25.745  1.00  0.00     0.118 C 
BRANCH  27  28
ATOM     28  N   UNL A   1      39.932  19.202  25.847  1.00  0.00    -0.352 N 
ATOM     29  C   UNL A   1      41.294  19.278  26.016  1.00  0.00     0.251 C 
ATOM     30  H   UNL A   1      39.574  18.287  25.786  1.00  0.00     0.163 HD
ATOM     31  O   UNL A   1      41.988  18.281  25.845  1.00  0.00    -0.269 OA
BRANCH  29  32
ATOM     32  C   UNL A   1      41.923  20.564  26.378  1.00  0.00     0.039 A 
ATOM     33  C   UNL A   1      42.197  20.859  27.712  1.00  0.00     0.014 A 
ATOM     34  C   UNL A   1      42.239  21.486  25.376  1.00  0.00     0.014 A 
ATOM     35  C   UNL A   1      42.582  22.145  28.064  1.00  0.00     0.010 A 
ATOM     36  C   UNL A   1      42.738  22.743  25.726  1.00  0.00     0.010 A 
ATOM     37  C   UNL A   1      42.857  23.104  27.077  1.00  0.00    -0.014 A 
BRANCH  37  38
ATOM     38  C   UNL A   1      43.250  24.474  27.495  1.00  0.00     0.031 A 
ATOM     39  C   UNL A   1      44.675  24.939  27.368  1.00  0.00     0.074 A 
ATOM     40  C   UNL A   1      42.296  25.329  27.911  1.00  0.00     0.049 A 
ATOM     41  N   UNL A   1      45.189  26.114  27.637  1.00  0.00    -0.248 NA
ATOM     42  C   UNL A   1      45.657  23.957  26.882  1.00  0.00     0.031 C 
ATOM     43  C   UNL A   1      40.875  25.001  28.055  1.00  0.00     0.029 A 
ATOM     44  N   UNL A   1      42.366  26.655  28.246  1.00  0.00    -0.354 N 
ATOM     45  C   UNL A   1      46.550  26.003  27.383  1.00  0.00     0.074 A 
ATOM     46  C   UNL A   1      46.789  24.639  26.963  1.00  0.00     0.031 C 
ATOM     47  C   UNL A   1      40.197  26.115  28.363  1.00  0.00     0.029 A 
ATOM     48  C   UNL A   1      41.140  27.215  28.515  1.00  0.00     0.049 A 
ATOM     49  H   UNL A   1      43.211  27.158  28.288  1.00  0.00     0.167 HD
ATOM     50  C   UNL A   1      47.512  26.953  27.484  1.00  0.00     0.037 A 
ATOM     51  C   UNL A   1      40.814  28.475  28.854  1.00  0.00     0.037 A 
ATOM     52  C   UNL A   1      47.266  28.316  27.876  1.00  0.00     0.049 A 
ATOM     53  C   UNL A   1      41.905  29.492  29.010  1.00  0.00     0.074 A 
ATOM     54  C   UNL A   1      48.165  29.364  27.976  1.00  0.00     0.029 A 
ATOM     55  N   UNL A   1      46.024  28.821  28.234  1.00  0.00    -0.354 N 
ATOM     56  N   UNL A   1      43.188  29.372  28.768  1.00  0.00    -0.248 NA
ATOM     57  C   UNL A   1      41.503  30.813  29.510  1.00  0.00     0.031 C 
ATOM     58  C   UNL A   1      47.474  30.491  28.437  1.00  0.00     0.029 A 
ATOM     59  C   UNL A   1      46.137  30.157  28.583  1.00  0.00     0.049 A 
ATOM     60  H   UNL A   1      45.186  28.306  28.239  1.00  0.00     0.167 HD
ATOM     61  C   UNL A   1      43.746  30.604  29.076  1.00  0.00     0.074 A 
ATOM     62  C   UNL A   1      42.658  31.463  29.502  1.00  0.00     0.031 C 
ATOM     63  C   UNL A   1      45.045  30.991  29.016  1.00  0.00     0.037 A 
BRANCH  50  64
ATOM     64  C   UNL A   1      48.924  26.529  27.197  1.00  0.00     0.057 A 
ATOM     65  C   UNL A   1      49.743  26.048  28.226  1.00  0.00     0.134 A 
ATOM     66  C   UNL A   1      49.474  26.588  25.910  1.00  0.00     0.134 A 
ATOM     67  F   UNL A   1      49.283  25.970  29.483  1.00  0.00    -0.206 F 
ATOM     68  C   UNL A   1      51.054  25.631  27.983  1.00  0.00     0.040 A 
ATOM     69  C   UNL A   1      50.774  26.150  25.650  1.00  0.00     0.040 A 
ATOM     70  F   UNL A   1      48.739  27.023  24.876  1.00  0.00    -0.206 F 
ATOM     71  C   UNL A   1      51.569  25.671  26.690  1.00  0.00     0.006 A 
ENDBRANCH  50  64
BRANCH  51  72
ATOM     72  C   UNL A   1      39.393  28.840  29.069  1.00  0.00     0.057 A 
ATOM     73  C   UNL A   1      38.770  28.666  30.310  1.00  0.00     0.134 A 
ATOM     74  C   UNL A   1      38.622  29.363  28.026  1.00  0.00     0.134 A 
ATOM     75  F   UNL A   1      39.457  28.165  31.349  1.00  0.00    -0.206 F 
ATOM     76  C   UNL A   1      37.425  28.980  30.503  1.00  0.00     0.040 A 
ATOM     77  C   UNL A   1      37.281  29.705  28.209  1.00  0.00     0.040 A 
ATOM     78  F   UNL A   1      39.169  29.569  26.818  1.00  0.00    -0.206 F 
ATOM     79  C   UNL A   1      36.677  29.506  29.451  1.00  0.00     0.006 A 
ENDBRANCH  51  72
BRANCH  63  80
ATOM     80  C   UNL A   1      45.342  32.407  29.409  1.00  0.00     0.057 A 
ATOM     81  C   UNL A   1      45.269  33.440  28.467  1.00  0.00     0.134 A 
ATOM     82  C   UNL A   1      45.697  32.747  30.720  1.00  0.00     0.134 A 
ATOM     83  F   UNL A   1      44.938  33.179  27.194  1.00  0.00    -0.206 F 
ATOM     84  C   UNL A   1      45.537  34.764  28.817  1.00  0.00     0.040 A 
ATOM     85  C   UNL A   1      45.942  34.070  31.088  1.00  0.00     0.040 A 
ATOM     86  F   UNL A   1      45.764  31.804  31.673  1.00  0.00    -0.206 F 
ATOM     87  C   UNL A   1      45.866  35.083  30.133  1.00  0.00     0.006 A 
ENDBRANCH  63  80
ENDBRANCH  37  38
ENDBRANCH  29  32
ENDBRANCH  27  28
ENDBRANCH  26  27
ENDBRANCH   1  26
TORSDOF 14
ENDMDL
MODEL 2
REMARK VINA RESULT:     -12.4      5.283     10.125
REMARK SMILES CC(C)CCc1cc2c(cc1Cl)C=C(C(=O)NCCCNC(=O)c1ccc(-c3c4nc(c(-c5c(F)cccc5F)c5ccc([nH]5)c(-c5c(F)cccc5F)c5nc(c(-c6c(F)cccc6F)c6ccc3[nH]6)C=C5)C=C4)cc1)[C@@H](C(F)(F)F)O2
REMARK SMILES IDX 18 1 17 2 15 3 16 4 14 6 6 7 7 8 11 9 8 10 10 11 12 12 9 13
REMARK SMILES IDX 83 14 13 15 78 16 5 17 4 18 2 19 1 20 3 21 79 22 80 23 81 24
REMARK SMILES IDX 82 25 19 26 20 27 21 28 22 29 23 31 24 32 25 33 77 34 26 35
REMARK SMILES IDX 76 36 27 37 28 38 29 39 70 40 30 41 75 42 69 43 71 44 31 45
REMARK SMILES IDX 74 46 68 47 67 48 32 50 58 51 41 52 57 53 42 54 45 55 56 56
REMARK SMILES IDX 72 57 43 58 44 59 55 61 73 62 46 63 33 64 34 65 39 66 35 67
REMARK SMILES IDX 36 68 38 69 40 70 37 71 59 72 60 73 65 74 61 75 62 76 64 77
REMARK SMILES IDX 66 78 63 79 47 80 48 81 53 82 49 83 50 84 52 85 54 86 51 87
REMARK H PARENT 17 5 21 30 71 49 45 60
REMARK Flexibility Score: inf
ROOT
ATOM      1  C   UNL A   1      31.562  30.580  26.407  1.00  0.00     0.118 C 
ENDROOT
BRANCH   1   2
ATOM      2  N   UNL A   1      31.367  30.184  25.021  1.00  0.00    -0.352 N 
ATOM      3  C   UNL A   1      31.429  29.047  24.292  1.00  0.00     0.251 C 
ATOM      4  O   UNL A   1      31.202  29.188  23.087  1.00  0.00    -0.270 OA
ATOM      5  H   UNL A   1      31.119  30.955  24.461  1.00  0.00     0.163 HD
BRANCH   3   6
ATOM      6  C   UNL A   1      31.739  27.693  24.832  1.00  0.00     0.067 C 
ATOM      7  C   UNL A   1      34.065  23.492  26.386  1.00  0.00    -0.026 A 
ATOM      8  C   UNL A   1      32.773  24.022  26.547  1.00  0.00     0.052 A 
ATOM      9  C   UNL A   1      35.020  24.269  25.705  1.00  0.00     0.045 A 
ATOM     10  C   UNL A   1      32.452  25.278  26.040  1.00  0.00     0.128 A 
ATOM     11  C   UNL A   1      34.702  25.551  25.238  1.00  0.00     0.032 A 
ATOM     12  Cl  UNL A   1      36.613  23.689  25.374  1.00  0.00    -0.084 Cl
ATOM     13  C   UNL A   1      33.413  26.057  25.400  1.00  0.00     0.019 A 
ATOM     14  O   UNL A   1      31.167  25.711  26.218  1.00  0.00    -0.475 OA
ATOM     15  C   UNL A   1      33.046  27.385  24.925  1.00  0.00     0.025 C 
ATOM     16  C   UNL A   1      30.706  26.675  25.228  1.00  0.00     0.314 C 
BRANCH   7  17
ATOM     17  C   UNL A   1      34.346  22.117  26.951  1.00  0.00     0.037 C 
BRANCH  17  18
ATOM     18  C   UNL A   1      33.406  21.001  26.473  1.00  0.00     0.008 C 
BRANCH  18  19
ATOM     19  C   UNL A   1      33.766  20.357  25.120  1.00  0.00    -0.017 C 
ATOM     20  C   UNL A   1      33.075  21.053  23.949  1.00  0.00     0.007 C 
ATOM     21  C   UNL A   1      35.283  20.388  24.925  1.00  0.00     0.007 C 
ENDBRANCH  18  19
ENDBRANCH  17  18
ENDBRANCH   7  17
BRANCH  16  22
ATOM     22  C   UNL A   1      30.108  25.932  24.015  1.00  0.00     0.429 C 
ATOM     23  F   UNL A   1      28.843  26.362  23.777  1.00  0.00    -0.167 F 
ATOM     24  F   UNL A   1      30.808  26.150  22.877  1.00  0.00    -0.167 F 
ATOM     25  F   UNL A   1      30.055  24.593  24.189  1.00  0.00    -0.167 F 
ENDBRANCH  16  22
ENDBRANCH   3   6
ENDBRANCH   1   2
BRANCH   1  26
ATOM     26  C   UNL A   1      31.397  32.081  26.590  1.00  0.00     0.042 C 
BRANCH  26  27
ATOM     27  C   UNL A   1      32.595  32.717  27.282  1.00  0.00     0.118 C 
BRANCH  27  28
ATOM     28  N   UNL A   1      32.359  34.122  27.612  1.00  0.00    -0.352 N 
ATOM     29  C   UNL A   1      32.956  34.929  28.550  1.00  0.00     0.251 C 
ATOM     30  H   UNL A   1      31.660  34.559  27.074  1.00  0.00     0.163 HD
ATOM     31  O   UNL A   1      32.456  36.015  28.829  1.00  0.00    -0.269 OA
BRANCH  29  32
ATOM     32  C   UNL A   1      34.183  34.481  29.239  1.00  0.00     0.039 A 
ATOM     33  C   UNL A   1      35.431  34.687  28.654  1.00  0.00     0.014 A 
ATOM     34  C   UNL A   1      34.085  33.842  30.479  1.00  0.00     0.014 A 
ATOM     35  C   UNL A   1      36.551  34.075  29.196  1.00  0.00     0.010 A 
ATOM     36  C   UNL A   1      35.234  33.325  31.082  1.00  0.00     0.010 A 
ATOM     37  C   UNL A   1      36.469  33.385  30.417  1.00  0.00    -0.014 A 
BRANCH  37  38
ATOM     38  C   UNL A   1      37.687  32.729  30.955  1.00  0.00     0.031 A 
ATOM     39  C   UNL A   1      38.279  33.162  32.268  1.00  0.00     0.074 A 
ATOM     40  C   UNL A   1      38.209  31.678  30.293  1.00  0.00     0.049 A 
ATOM     41  N   UNL A   1      39.308  32.671  32.913  1.00  0.00    -0.248 NA
ATOM     42  C   UNL A   1      37.640  34.301  32.946  1.00  0.00     0.031 C 
ATOM     43  C   UNL A   1      37.709  31.150  29.022  1.00  0.00     0.029 A 
ATOM     44  N   UNL A   1      39.243  30.839  30.617  1.00  0.00    -0.354 N 
ATOM     45  C   UNL A   1      39.457  33.455  34.050  1.00  0.00     0.074 A 
ATOM     46  C   UNL A   1      38.428  34.472  33.996  1.00  0.00     0.031 C 
ATOM     47  C   UNL A   1      38.378  30.029  28.718  1.00  0.00     0.029 A 
ATOM     48  C   UNL A   1      39.403  29.803  29.729  1.00  0.00     0.049 A 
ATOM     49  H   UNL A   1      39.813  30.966  31.410  1.00  0.00     0.167 HD
ATOM     50  C   UNL A   1      40.362  33.336  35.052  1.00  0.00     0.037 A 
ATOM     51  C   UNL A   1      40.284  28.787  29.727  1.00  0.00     0.037 A 
ATOM     52  C   UNL A   1      41.366  32.306  35.117  1.00  0.00     0.049 A 
ATOM     53  C   UNL A   1      41.308  28.710  30.819  1.00  0.00     0.074 A 
ATOM     54  C   UNL A   1      42.308  32.077  36.105  1.00  0.00     0.029 A 
ATOM     55  N   UNL A   1      41.558  31.331  34.148  1.00  0.00    -0.354 N 
ATOM     56  N   UNL A   1      41.437  29.459  31.887  1.00  0.00    -0.248 NA
ATOM     57  C   UNL A   1      42.324  27.657  30.691  1.00  0.00     0.031 C 
ATOM     58  C   UNL A   1      43.098  30.989  35.712  1.00  0.00     0.029 A 
ATOM     59  C   UNL A   1      42.622  30.515  34.501  1.00  0.00     0.049 A 
ATOM     60  H   UNL A   1      41.019  31.233  33.332  1.00  0.00     0.167 HD
ATOM     61  C   UNL A   1      42.542  28.964  32.565  1.00  0.00     0.074 A 
ATOM     62  C   UNL A   1      43.033  27.836  31.797  1.00  0.00     0.031 C 
ATOM     63  C   UNL A   1      43.103  29.405  33.717  1.00  0.00     0.037 A 
BRANCH  50  64
ATOM     64  C   UNL A   1      40.321  34.372  36.138  1.00  0.00     0.057 A 
ATOM     65  C   UNL A   1      41.051  35.561  36.013  1.00  0.00     0.134 A 
ATOM     66  C   UNL A   1      39.559  34.203  37.302  1.00  0.00     0.134 A 
ATOM     67  F   UNL A   1      41.806  35.785  34.927  1.00  0.00    -0.206 F 
ATOM     68  C   UNL A   1      41.017  36.548  37.000  1.00  0.00     0.040 A 
ATOM     69  C   UNL A   1      39.497  35.194  38.284  1.00  0.00     0.040 A 
ATOM     70  F   UNL A   1      38.823  33.096  37.479  1.00  0.00    -0.206 F 
ATOM     71  C   UNL A   1      40.229  36.371  38.135  1.00  0.00     0.006 A 
ENDBRANCH  50  64
BRANCH  51  72
ATOM     72  C   UNL A   1      40.234  27.765  28.653  1.00  0.00     0.057 A 
ATOM     73  C   UNL A   1      39.533  26.564  28.816  1.00  0.00     0.134 A 
ATOM     74  C   UNL A   1      40.900  27.966  27.441  1.00  0.00     0.134 A 
ATOM     75  F   UNL A   1      38.876  26.312  29.959  1.00  0.00    -0.206 F 
ATOM     76  C   UNL A   1      39.512  25.590  27.817  1.00  0.00     0.040 A 
ATOM     77  C   UNL A   1      40.869  27.011  26.423  1.00  0.00     0.040 A 
ATOM     78  F   UNL A   1      41.574  29.105  27.221  1.00  0.00    -0.206 F 
ATOM     79  C   UNL A   1      40.178  25.815  26.614  1.00  0.00     0.006 A 
ENDBRANCH  51  72
BRANCH  63  80
ATOM     80  C   UNL A   1      44.300  28.651  34.213  1.00  0.00     0.057 A 
ATOM     81  C   UNL A   1      44.146  27.527  35.034  1.00  0.00     0.134 A 
ATOM     82  C   UNL A   1      45.603  29.035  33.874  1.00  0.00     0.134 A 
ATOM     83  F   UNL A   1      42.924  27.110  35.396  1.00  0.00    -0.206 F 
ATOM     84  C   UNL A   1      45.249  26.810  35.498  1.00  0.00     0.040 A 
ATOM     85  C   UNL A   1      46.713  28.311  34.312  1.00  0.00     0.040 A 
ATOM     86  F   UNL A   1      45.814  30.092  33.075  1.00  0.00    -0.206 F 
ATOM     87  C   UNL A   1      46.536  27.196  35.130  1.00  0.00     0.006 A 
ENDBRANCH  63  80
ENDBRANCH  37  38
ENDBRANCH  29  32
ENDBRANCH  27  28
ENDBRANCH  26  27
ENDBRANCH   1  26
TORSDOF 14
ENDMDL
MODEL 3
REMARK VINA RESULT:     -12.3      1.438      2.111
REMARK SMILES CC(C)CCc1cc2c(cc1Cl)C=C(C(=O)NCCCNC(=O)c1ccc(-c3c4nc(c(-c5c(F)cccc5F)c5ccc([nH]5)c(-c5c(F)cccc5F)c5nc(c(-c6c(F)cccc6F)c6ccc3[nH]6)C=C5)C=C4)cc1)[C@@H](C(F)(F)F)O2
REMARK SMILES IDX 18 1 17 2 15 3 16 4 14 6 6 7 7 8 11 9 8 10 10 11 12 12 9 13
REMARK SMILES IDX 83 14 13 15 78 16 5 17 4 18 2 19 1 20 3 21 79 22 80 23 81 24
REMARK SMILES IDX 82 25 19 26 20 27 21 28 22 29 23 31 24 32 25 33 77 34 26 35
REMARK SMILES IDX 76 36 27 37 28 38 29 39 70 40 30 41 75 42 69 43 71 44 31 45
REMARK SMILES IDX 74 46 68 47 67 48 32 50 58 51 41 52 57 53 42 54 45 55 56 56
REMARK SMILES IDX 72 57 43 58 44 59 55 61 73 62 46 63 33 64 34 65 39 66 35 67
REMARK SMILES IDX 36 68 38 69 40 70 37 71 59 72 60 73 65 74 61 75 62 76 64 77
REMARK SMILES IDX 66 78 63 79 47 80 48 81 53 82 49 83 50 84 52 85 54 86 51 87
REMARK H PARENT 17 5 21 30 71 49 45 60
REMARK Flexibility Score: inf
ROOT
ATOM      1  C   UNL A   1      36.884  20.936  24.765  1.00  0.00     0.118 C 
ENDROOT
BRANCH   1   2
ATOM      2  N   UNL A   1      35.874  21.001  25.811  1.00  0.00    -0.352 N 
ATOM      3  C   UNL A   1      34.829  21.792  26.138  1.00  0.00     0.251 C 
ATOM      4  O   UNL A   1      34.238  21.474  27.174  1.00  0.00    -0.270 OA
ATOM      5  H   UNL A   1      35.982  20.265  26.457  1.00  0.00     0.163 HD
BRANCH   3   6
ATOM      6  C   UNL A   1      34.364  22.973  25.356  1.00  0.00     0.067 C 
ATOM      7  C   UNL A   1      32.640  27.504  23.952  1.00  0.00    -0.026 A 
ATOM      8  C   UNL A   1      33.272  26.439  23.287  1.00  0.00     0.052 A 
ATOM      9  C   UNL A   1      32.461  27.404  25.344  1.00  0.00     0.045 A 
ATOM     10  C   UNL A   1      33.702  25.318  23.990  1.00  0.00     0.128 A 
ATOM     11  C   UNL A   1      32.939  26.292  26.051  1.00  0.00     0.032 A 
ATOM     12  Cl  UNL A   1      31.625  28.609  26.255  1.00  0.00    -0.084 Cl
ATOM     13  C   UNL A   1      33.557  25.242  25.373  1.00  0.00     0.019 A 
ATOM     14  O   UNL A   1      34.287  24.316  23.266  1.00  0.00    -0.475 OA
ATOM     15  C   UNL A   1      34.063  24.071  26.076  1.00  0.00     0.025 C 
ATOM     16  C   UNL A   1      34.183  22.991  23.864  1.00  0.00     0.314 C 
BRANCH   7  17
ATOM     17  C   UNL A   1      32.185  28.688  23.129  1.00  0.00     0.037 C 
BRANCH  17  18
ATOM     18  C   UNL A   1      30.859  28.503  22.378  1.00  0.00     0.008 C 
BRANCH  18  19
ATOM     19  C   UNL A   1      29.588  28.532  23.249  1.00  0.00    -0.017 C 
ATOM     20  C   UNL A   1      28.466  29.344  22.605  1.00  0.00     0.007 C 
ATOM     21  C   UNL A   1      29.113  27.101  23.511  1.00  0.00     0.007 C 
ENDBRANCH  18  19
ENDBRANCH  17  18
ENDBRANCH   7  17
BRANCH  16  22
ATOM     22  C   UNL A   1      32.869  22.318  23.416  1.00  0.00     0.429 C 
ATOM     23  F   UNL A   1      31.836  22.743  24.187  1.00  0.00    -0.167 F 
ATOM     24  F   UNL A   1      32.543  22.620  22.136  1.00  0.00    -0.167 F 
ATOM     25  F   UNL A   1      32.910  20.970  23.500  1.00  0.00    -0.167 F 
ENDBRANCH  16  22
ENDBRANCH   3   6
ENDBRANCH   1   2
BRANCH   1  26
ATOM     26  C   UNL A   1      37.858  19.792  24.997  1.00  0.00     0.042 C 
BRANCH  26  27
ATOM     27  C   UNL A   1      39.101  20.232  25.758  1.00  0.00     0.118 C 
BRANCH  27  28
ATOM     28  N   UNL A   1      40.102  19.170  25.842  1.00  0.00    -0.352 N 
ATOM     29  C   UNL A   1      41.465  19.241  26.004  1.00  0.00     0.251 C 
ATOM     30  H   UNL A   1      39.741  18.257  25.771  1.00  0.00     0.163 HD
ATOM     31  O   UNL A   1      42.155  18.243  25.817  1.00  0.00    -0.269 OA
BRANCH  29  32
ATOM     32  C   UNL A   1      42.100  20.519  26.380  1.00  0.00     0.039 A 
ATOM     33  C   UNL A   1      42.258  20.856  27.723  1.00  0.00     0.014 A 
ATOM     34  C   UNL A   1      42.536  21.394  25.381  1.00  0.00     0.014 A 
ATOM     35  C   UNL A   1      42.651  22.142  28.065  1.00  0.00     0.010 A 
ATOM     36  C   UNL A   1      43.041  22.648  25.732  1.00  0.00     0.010 A 
ATOM     37  C   UNL A   1      43.047  23.055  27.076  1.00  0.00    -0.014 A 
BRANCH  37  38
ATOM     38  C   UNL A   1      43.445  24.428  27.482  1.00  0.00     0.031 A 
ATOM     39  C   UNL A   1      44.866  24.894  27.330  1.00  0.00     0.074 A 
ATOM     40  C   UNL A   1      42.495  25.283  27.909  1.00  0.00     0.049 A 
ATOM     41  N   UNL A   1      45.382  26.071  27.585  1.00  0.00    -0.248 NA
ATOM     42  C   UNL A   1      45.842  23.912  26.833  1.00  0.00     0.031 C 
ATOM     43  C   UNL A   1      41.078  24.953  28.077  1.00  0.00     0.029 A 
ATOM     44  N   UNL A   1      42.568  26.611  28.237  1.00  0.00    -0.354 N 
ATOM     45  C   UNL A   1      46.739  25.962  27.311  1.00  0.00     0.074 A 
ATOM     46  C   UNL A   1      46.975  24.597  26.893  1.00  0.00     0.031 C 
ATOM     47  C   UNL A   1      40.403  26.067  28.391  1.00  0.00     0.029 A 
ATOM     48  C   UNL A   1      41.346  27.170  28.523  1.00  0.00     0.049 A 
ATOM     49  H   UNL A   1      43.413  27.115  28.263  1.00  0.00     0.167 HD
ATOM     50  C   UNL A   1      47.701  26.913  27.393  1.00  0.00     0.037 A 
ATOM     51  C   UNL A   1      41.023  28.431  28.862  1.00  0.00     0.037 A 
ATOM     52  C   UNL A   1      47.459  28.278  27.782  1.00  0.00     0.049 A 
ATOM     53  C   UNL A   1      42.115  29.450  28.996  1.00  0.00     0.074 A 
ATOM     54  C   UNL A   1      48.358  29.328  27.864  1.00  0.00     0.029 A 
ATOM     55  N   UNL A   1      46.222  28.783  28.158  1.00  0.00    -0.354 N 
ATOM     56  N   UNL A   1      43.394  29.332  28.734  1.00  0.00    -0.248 NA
ATOM     57  C   UNL A   1      41.718  30.772  29.496  1.00  0.00     0.031 C 
ATOM     58  C   UNL A   1      47.672  30.456  28.330  1.00  0.00     0.029 A 
ATOM     59  C   UNL A   1      46.339  30.121  28.500  1.00  0.00     0.049 A 
ATOM     60  H   UNL A   1      45.385  28.266  28.178  1.00  0.00     0.167 HD
ATOM     61  C   UNL A   1      43.955  30.566  29.028  1.00  0.00     0.074 A 
ATOM     62  C   UNL A   1      42.871  31.424  29.467  1.00  0.00     0.031 C 
ATOM     63  C   UNL A   1      45.251  30.954  28.946  1.00  0.00     0.037 A 
BRANCH  50  64
ATOM     64  C   UNL A   1      49.109  26.491  27.085  1.00  0.00     0.057 A 
ATOM     65  C   UNL A   1      49.957  26.048  28.109  1.00  0.00     0.134 A 
ATOM     66  C   UNL A   1      49.628  26.513  25.783  1.00  0.00     0.134 A 
ATOM     67  F   UNL A   1      49.527  26.008  29.378  1.00  0.00    -0.206 F 
ATOM     68  C   UNL A   1      51.264  25.633  27.848  1.00  0.00     0.040 A 
ATOM     69  C   UNL A   1      50.925  26.076  25.506  1.00  0.00     0.040 A 
ATOM     70  F   UNL A   1      48.865  26.910  24.754  1.00  0.00    -0.206 F 
ATOM     71  C   UNL A   1      51.748  25.636  26.542  1.00  0.00     0.006 A 
ENDBRANCH  50  64
BRANCH  51  72
ATOM     72  C   UNL A   1      39.605  28.795  29.097  1.00  0.00     0.057 A 
ATOM     73  C   UNL A   1      38.784  29.254  28.061  1.00  0.00     0.134 A 
ATOM     74  C   UNL A   1      39.044  28.700  30.375  1.00  0.00     0.134 A 
ATOM     75  F   UNL A   1      39.266  29.371  26.814  1.00  0.00    -0.206 F 
ATOM     76  C   UNL A   1      37.459  29.626  28.290  1.00  0.00     0.040 A 
ATOM     77  C   UNL A   1      37.713  29.045  30.614  1.00  0.00     0.040 A 
ATOM     78  F   UNL A   1      39.777  28.249  31.403  1.00  0.00    -0.206 F 
ATOM     79  C   UNL A   1      36.918  29.517  29.570  1.00  0.00     0.006 A 
ENDBRANCH  51  72
BRANCH  63  80
ATOM     80  C   UNL A   1      45.552  32.372  29.328  1.00  0.00     0.057 A 
ATOM     81  C   UNL A   1      45.460  33.402  28.384  1.00  0.00     0.134 A 
ATOM     82  C   UNL A   1      45.931  32.718  30.631  1.00  0.00     0.134 A 
ATOM     83  F   UNL A   1      45.105  33.135  27.118  1.00  0.00    -0.206 F 
ATOM     84  C   UNL A   1      45.730  34.727  28.724  1.00  0.00     0.040 A 
ATOM     85  C   UNL A   1      46.180  34.043  30.990  1.00  0.00     0.040 A 
ATOM     86  F   UNL A   1      46.019  31.779  31.586  1.00  0.00    -0.206 F 
ATOM     87  C   UNL A   1      46.083  35.052  30.032  1.00  0.00     0.006 A 
ENDBRANCH  63  80
ENDBRANCH  37  38
ENDBRANCH  29  32
ENDBRANCH  27  28
ENDBRANCH  26  27
ENDBRANCH   1  26
TORSDOF 14
ENDMDL
