MODEL 1
REMARK VINA RESULT:     -11.5      0.000      0.000
REMARK SMILES O=C(NCCCNC(=O)[C@H](CO)NC(=O)[C@H](CS)NC(=O)[C@H](Cc1c[nH]c2ccccc12)NC(=O)c1ccc(F)cc1)c1ccc(-c2c3nc(c(-c4c(F)cccc4F)c4ccc([nH]4)c(-c4c(F)cccc4F)c4nc(c(-c5c(F)cccc5F)c5ccc2[nH]5)C=C4)C=C3)cc1
REMARK SMILES IDX 7 1 8 2 9 3 6 5 5 6 4 7 3 8 1 9 2 10 43 12 44 13 96 14 45 15
REMARK SMILES IDX 95 16 46 17 47 18 48 19 89 20 49 21 94 22 88 23 90 24 50 25
REMARK SMILES IDX 93 26 87 27 86 28 51 30 77 31 60 32 76 33 61 34 64 35 75 36
REMARK SMILES IDX 91 37 62 38 63 39 74 41 92 42 65 43 52 44 53 45 58 46 54 47
REMARK SMILES IDX 55 48 57 49 59 50 56 51 78 52 79 53 84 54 80 55 81 56 83 57
REMARK SMILES IDX 85 58 82 59 66 60 67 61 72 62 68 63 69 64 71 65 73 66 70 67
REMARK SMILES IDX 10 68 13 69 14 70 15 72 16 73 19 74 20 75 21 77 22 78 33 79
REMARK SMILES IDX 34 80 35 82 36 83 37 84 42 85 38 86 41 87 39 88 40 89 23 90
REMARK SMILES IDX 24 91 25 92 32 93 26 94 27 95 31 96 28 98 30 99 29 100
REMARK SMILES IDX 17 101 18 102 11 104 12 105
REMARK H PARENT 7 4 3 11 90 29 64 40 13 71 19 76 33 81 26 97 18 103 12 106
REMARK Flexibility Score: inf
ROOT
ATOM      1  N   UNL A   1      38.548  22.250  26.374  1.00  0.00    -0.354 N 
ATOM      2  C   UNL A   1      37.511  22.830  25.724  1.00  0.00     0.244 C 
ATOM      3  O   UNL A   1      37.137  23.920  26.156  1.00  0.00    -0.273 OA
ATOM      4  H   UNL A   1      38.736  22.628  27.263  1.00  0.00     0.163 HD
ENDROOT
BRANCH   1   5
ATOM      5  C   UNL A   1      39.425  21.168  25.983  1.00  0.00     0.117 C 
BRANCH   5   6
ATOM      6  C   UNL A   1      40.874  21.516  26.284  1.00  0.00     0.042 C 
BRANCH   6   7
ATOM      7  C   UNL A   1      41.098  23.011  26.471  1.00  0.00     0.118 C 
BRANCH   7   8
ATOM      8  N   UNL A   1      42.249  23.484  25.714  1.00  0.00    -0.352 N 
ATOM      9  O   UNL A   1      43.607  25.053  24.825  1.00  0.00    -0.269 OA
ATOM     10  C   UNL A   1      42.819  24.731  25.710  1.00  0.00     0.251 C 
ATOM     11  H   UNL A   1      42.676  22.819  25.128  1.00  0.00     0.163 HD
BRANCH  10  12
ATOM     12  C   UNL A   1      42.469  25.680  26.782  1.00  0.00     0.039 A 
ATOM     13  C   UNL A   1      41.594  25.282  27.796  1.00  0.00     0.014 A 
ATOM     14  C   UNL A   1      43.033  26.957  26.789  1.00  0.00     0.014 A 
ATOM     15  C   UNL A   1      41.181  26.199  28.747  1.00  0.00     0.010 A 
ATOM     16  C   UNL A   1      42.697  27.848  27.809  1.00  0.00     0.010 A 
ATOM     17  C   UNL A   1      41.767  27.472  28.792  1.00  0.00    -0.014 A 
BRANCH  17  18
ATOM     18  C   UNL A   1      41.513  28.326  29.973  1.00  0.00     0.031 A 
ATOM     19  C   UNL A   1      42.346  28.218  31.211  1.00  0.00     0.074 A 
ATOM     20  C   UNL A   1      40.501  29.211  29.889  1.00  0.00     0.049 A 
ATOM     21  N   UNL A   1      42.216  28.869  32.338  1.00  0.00    -0.248 NA
ATOM     22  C   UNL A   1      43.463  27.260  31.195  1.00  0.00     0.031 C 
ATOM     23  C   UNL A   1      39.627  29.380  28.722  1.00  0.00     0.029 A 
ATOM     24  N   UNL A   1      40.038  30.139  30.784  1.00  0.00    -0.354 N 
ATOM     25  C   UNL A   1      43.216  28.389  33.171  1.00  0.00     0.074 A 
ATOM     26  C   UNL A   1      43.944  27.384  32.427  1.00  0.00     0.031 C 
ATOM     27  C   UNL A   1      38.761  30.374  28.958  1.00  0.00     0.029 A 
ATOM     28  C   UNL A   1      38.964  30.857  30.316  1.00  0.00     0.049 A 
ATOM     29  H   UNL A   1      40.435  30.277  31.673  1.00  0.00     0.167 HD
ATOM     30  C   UNL A   1      43.491  28.766  34.440  1.00  0.00     0.037 A 
ATOM     31  C   UNL A   1      38.196  31.777  30.927  1.00  0.00     0.037 A 
ATOM     32  C   UNL A   1      42.772  29.792  35.150  1.00  0.00     0.049 A 
ATOM     33  C   UNL A   1      38.507  32.143  32.345  1.00  0.00     0.074 A 
ATOM     34  C   UNL A   1      43.020  30.294  36.416  1.00  0.00     0.029 A 
ATOM     35  N   UNL A   1      41.664  30.468  34.660  1.00  0.00    -0.354 N 
ATOM     36  N   UNL A   1      39.479  31.707  33.109  1.00  0.00    -0.248 NA
ATOM     37  C   UNL A   1      37.612  33.109  32.994  1.00  0.00     0.031 C 
ATOM     38  C   UNL A   1      42.034  31.238  36.712  1.00  0.00     0.029 A 
ATOM     39  C   UNL A   1      41.195  31.354  35.614  1.00  0.00     0.049 A 
ATOM     40  H   UNL A   1      41.271  30.337  33.767  1.00  0.00     0.167 HD
ATOM     41  C   UNL A   1      39.312  32.339  34.330  1.00  0.00     0.074 A 
ATOM     42  C   UNL A   1      38.161  33.210  34.199  1.00  0.00     0.031 C 
ATOM     43  C   UNL A   1      40.042  32.201  35.463  1.00  0.00     0.037 A 
BRANCH  30  44
ATOM     44  C   UNL A   1      44.608  28.081  35.166  1.00  0.00     0.057 A 
ATOM     45  C   UNL A   1      45.923  28.554  35.052  1.00  0.00     0.134 A 
ATOM     46  C   UNL A   1      44.408  26.885  35.863  1.00  0.00     0.134 A 
ATOM     47  F   UNL A   1      46.181  29.692  34.389  1.00  0.00    -0.206 F 
ATOM     48  C   UNL A   1      47.002  27.846  35.582  1.00  0.00     0.040 A 
ATOM     49  C   UNL A   1      45.479  26.175  36.412  1.00  0.00     0.040 A 
ATOM     50  F   UNL A   1      43.174  26.383  36.013  1.00  0.00    -0.206 F 
ATOM     51  C   UNL A   1      46.782  26.649  36.260  1.00  0.00     0.006 A 
ENDBRANCH  30  44
BRANCH  31  52
ATOM     52  C   UNL A   1      37.043  32.364  30.201  1.00  0.00     0.057 A 
ATOM     53  C   UNL A   1      35.761  31.808  30.308  1.00  0.00     0.134 A 
ATOM     54  C   UNL A   1      37.203  33.460  29.349  1.00  0.00     0.134 A 
ATOM     55  F   UNL A   1      35.547  30.747  31.102  1.00  0.00    -0.206 F 
ATOM     56  C   UNL A   1      34.684  32.304  29.574  1.00  0.00     0.040 A 
ATOM     57  C   UNL A   1      36.128  33.986  28.630  1.00  0.00     0.040 A 
ATOM     58  F   UNL A   1      38.403  34.043  29.216  1.00  0.00    -0.206 F 
ATOM     59  C   UNL A   1      34.866  33.400  28.734  1.00  0.00     0.006 A 
ENDBRANCH  31  52
BRANCH  43  60
ATOM     60  C   UNL A   1      39.611  32.999  36.654  1.00  0.00     0.057 A 
ATOM     61  C   UNL A   1      38.585  32.541  37.490  1.00  0.00     0.134 A 
ATOM     62  C   UNL A   1      40.159  34.259  36.918  1.00  0.00     0.134 A 
ATOM     63  F   UNL A   1      38.017  31.345  37.279  1.00  0.00    -0.206 F 
ATOM     64  C   UNL A   1      38.103  33.323  38.540  1.00  0.00     0.040 A 
ATOM     65  C   UNL A   1      39.699  35.041  37.978  1.00  0.00     0.040 A 
ATOM     66  F   UNL A   1      41.153  34.742  36.159  1.00  0.00    -0.206 F 
ATOM     67  C   UNL A   1      38.661  34.577  38.785  1.00  0.00     0.006 A 
ENDBRANCH  43  60
ENDBRANCH  17  18
ENDBRANCH  10  12
ENDBRANCH   7   8
ENDBRANCH   6   7
ENDBRANCH   5   6
ENDBRANCH   1   5
BRANCH   2  68
ATOM     68  C   UNL A   1      36.779  22.139  24.569  1.00  0.00     0.197 C 
BRANCH  68  69
ATOM     69  N   UNL A   1      36.236  20.825  24.938  1.00  0.00    -0.340 N 
ATOM     70  C   UNL A   1      34.940  20.374  24.869  1.00  0.00     0.244 C 
ATOM     71  H   UNL A   1      36.892  20.176  25.282  1.00  0.00     0.164 HD
ATOM     72  O   UNL A   1      34.729  19.176  25.066  1.00  0.00    -0.273 OA
BRANCH  70  73
ATOM     73  C   UNL A   1      33.791  21.374  24.617  1.00  0.00     0.181 C 
BRANCH  73  74
ATOM     74  N   UNL A   1      32.914  20.992  23.505  1.00  0.00    -0.342 N 
ATOM     75  C   UNL A   1      32.067  21.786  22.767  1.00  0.00     0.243 C 
ATOM     76  H   UNL A   1      32.934  20.040  23.253  1.00  0.00     0.164 HD
ATOM     77  O   UNL A   1      31.327  21.252  21.942  1.00  0.00    -0.273 OA
BRANCH  75  78
ATOM     78  C   UNL A   1      32.071  23.317  23.011  1.00  0.00     0.176 C 
BRANCH  78  79
ATOM     79  N   UNL A   1      32.676  23.946  21.827  1.00  0.00    -0.340 N 
ATOM     80  C   UNL A   1      33.131  25.205  21.537  1.00  0.00     0.251 C 
ATOM     81  H   UNL A   1      32.777  23.321  21.072  1.00  0.00     0.164 HD
ATOM     82  O   UNL A   1      33.196  25.480  20.336  1.00  0.00    -0.269 OA
BRANCH  80  83
ATOM     83  C   UNL A   1      33.609  26.214  22.539  1.00  0.00     0.040 A 
ATOM     84  C   UNL A   1      33.653  27.601  22.345  1.00  0.00     0.017 A 
ATOM     85  C   UNL A   1      33.890  25.733  23.832  1.00  0.00     0.017 A 
ATOM     86  C   UNL A   1      33.957  28.477  23.394  1.00  0.00     0.040 A 
ATOM     87  C   UNL A   1      34.186  26.604  24.886  1.00  0.00     0.040 A 
ATOM     88  C   UNL A   1      34.214  27.970  24.657  1.00  0.00     0.123 A 
ATOM     89  F   UNL A   1      34.469  28.812  25.667  1.00  0.00    -0.207 F 
ENDBRANCH  80  83
ENDBRANCH  78  79
BRANCH  78  90
ATOM     90  C   UNL A   1      30.651  23.874  23.258  1.00  0.00     0.072 C 
BRANCH  90  91
ATOM     91  C   UNL A   1      30.643  25.058  24.193  1.00  0.00    -0.020 A 
ATOM     92  C   UNL A   1      30.775  25.016  25.570  1.00  0.00     0.087 A 
ATOM     93  C   UNL A   1      30.493  26.443  23.846  1.00  0.00     0.003 A 
ATOM     94  N   UNL A   1      30.871  26.297  26.037  1.00  0.00    -0.361 N 
ATOM     95  C   UNL A   1      30.662  27.188  25.015  1.00  0.00     0.046 A 
ATOM     96  C   UNL A   1      30.237  27.141  22.647  1.00  0.00     0.010 A 
ATOM     97  H   UNL A   1      31.063  26.545  26.970  1.00  0.00     0.166 HD
ATOM     98  C   UNL A   1      30.612  28.587  25.045  1.00  0.00     0.026 A 
ATOM     99  C   UNL A   1      30.148  28.539  22.665  1.00  0.00     0.001 A 
ATOM    100  C   UNL A   1      30.339  29.250  23.846  1.00  0.00     0.002 A 
ENDBRANCH  90  91
ENDBRANCH  78  90
ENDBRANCH  75  78
ENDBRANCH  73  74
BRANCH  73 101
ATOM    101  C   UNL A   1      33.011  21.644  25.915  1.00  0.00     0.101 C 
BRANCH 101 102
ATOM    102  S   UNL A   1      34.032  22.145  27.337  1.00  0.00    -0.177 SA
ATOM    103  H   UNL A   1      33.469  23.225  27.942  1.00  0.00     0.102 HD
ENDBRANCH 101 102
ENDBRANCH  73 101
ENDBRANCH  70  73
ENDBRANCH  68  69
BRANCH  68 104
ATOM    104  C   UNL A   1      35.759  23.082  23.918  1.00  0.00     0.191 C 
BRANCH 104 105
ATOM    105  O   UNL A   1      35.838  23.046  22.495  1.00  0.00    -0.394 OA
ATOM    106  H   UNL A   1      35.879  22.124  22.197  1.00  0.00     0.210 HD
ENDBRANCH 104 105
ENDBRANCH  68 104
ENDBRANCH   2  68
TORSDOF 22
ENDMDL
MODEL 2
REMARK VINA RESULT:     -11.5      0.806      5.799
REMARK SMILES O=C(NCCCNC(=O)[C@H](CO)NC(=O)[C@H](CS)NC(=O)[C@H](Cc1c[nH]c2ccccc12)NC(=O)c1ccc(F)cc1)c1ccc(-c2c3nc(c(-c4c(F)cccc4F)c4ccc([nH]4)c(-c4c(F)cccc4F)c4nc(c(-c5c(F)cccc5F)c5ccc2[nH]5)C=C4)C=C3)cc1
REMARK SMILES IDX 7 1 8 2 9 3 6 5 5 6 4 7 3 8 1 9 2 10 43 12 44 13 96 14 45 15
REMARK SMILES IDX 95 16 46 17 47 18 48 19 89 20 49 21 94 22 88 23 90 24 50 25
REMARK SMILES IDX 93 26 87 27 86 28 51 30 77 31 60 32 76 33 61 34 64 35 75 36
REMARK SMILES IDX 91 37 62 38 63 39 74 41 92 42 65 43 52 44 53 45 58 46 54 47
REMARK SMILES IDX 55 48 57 49 59 50 56 51 78 52 79 53 84 54 80 55 81 56 83 57
REMARK SMILES IDX 85 58 82 59 66 60 67 61 72 62 68 63 69 64 71 65 73 66 70 67
REMARK SMILES IDX 10 68 13 69 14 70 15 72 16 73 19 74 20 75 21 77 22 78 33 79
REMARK SMILES IDX 34 80 35 82 36 83 37 84 42 85 38 86 41 87 39 88 40 89 23 90
REMARK SMILES IDX 24 91 25 92 32 93 26 94 27 95 31 96 28 98 30 99 29 100
REMARK SMILES IDX 17 101 18 102 11 104 12 105
REMARK H PARENT 7 4 3 11 90 29 64 40 13 71 19 76 33 81 26 97 18 103 12 106
REMARK Flexibility Score: inf
ROOT
ATOM      1  N   UNL A   1      38.587  22.559  26.502  1.00  0.00    -0.354 N 
ATOM      2  C   UNL A   1      37.539  23.000  25.766  1.00  0.00     0.244 C 
ATOM      3  O   UNL A   1      36.989  24.028  26.160  1.00  0.00    -0.273 OA
ATOM      4  H   UNL A   1      38.649  22.954  27.402  1.00  0.00     0.163 HD
ENDROOT
BRANCH   1   5
ATOM      5  C   UNL A   1      39.629  21.606  26.190  1.00  0.00     0.117 C 
BRANCH   5   6
ATOM      6  C   UNL A   1      41.001  22.214  26.431  1.00  0.00     0.042 C 
BRANCH   6   7
ATOM      7  C   UNL A   1      40.976  23.736  26.473  1.00  0.00     0.118 C 
BRANCH   7   8
ATOM      8  N   UNL A   1      42.062  24.317  25.693  1.00  0.00    -0.352 N 
ATOM      9  O   UNL A   1      43.326  26.005  24.891  1.00  0.00    -0.269 OA
ATOM     10  C   UNL A   1      42.611  25.570  25.788  1.00  0.00     0.251 C 
ATOM     11  H   UNL A   1      42.455  23.730  25.009  1.00  0.00     0.163 HD
BRANCH  10  12
ATOM     12  C   UNL A   1      42.325  26.386  26.981  1.00  0.00     0.039 A 
ATOM     13  C   UNL A   1      42.718  27.727  27.009  1.00  0.00     0.014 A 
ATOM     14  C   UNL A   1      41.644  25.822  28.061  1.00  0.00     0.014 A 
ATOM     15  C   UNL A   1      42.546  28.470  28.164  1.00  0.00     0.010 A 
ATOM     16  C   UNL A   1      41.377  26.603  29.185  1.00  0.00     0.010 A 
ATOM     17  C   UNL A   1      41.829  27.931  29.242  1.00  0.00    -0.014 A 
BRANCH  17  18
ATOM     18  C   UNL A   1      41.423  28.832  30.342  1.00  0.00     0.031 A 
ATOM     19  C   UNL A   1      40.233  29.731  30.222  1.00  0.00     0.074 A 
ATOM     20  C   UNL A   1      42.169  28.810  31.465  1.00  0.00     0.049 A 
ATOM     21  N   UNL A   1      39.782  30.604  31.084  1.00  0.00    -0.248 NA
ATOM     22  C   UNL A   1      39.448  29.651  28.979  1.00  0.00     0.031 C 
ATOM     23  C   UNL A   1      43.356  27.971  31.670  1.00  0.00     0.029 A 
ATOM     24  N   UNL A   1      42.043  29.495  32.645  1.00  0.00    -0.354 N 
ATOM     25  C   UNL A   1      38.677  31.191  30.487  1.00  0.00     0.074 A 
ATOM     26  C   UNL A   1      38.525  30.584  29.182  1.00  0.00     0.031 C 
ATOM     27  C   UNL A   1      43.824  28.163  32.909  1.00  0.00     0.029 A 
ATOM     28  C   UNL A   1      43.024  29.192  33.557  1.00  0.00     0.049 A 
ATOM     29  H   UNL A   1      41.320  30.140  32.821  1.00  0.00     0.167 HD
ATOM     30  C   UNL A   1      37.868  32.148  30.997  1.00  0.00     0.037 A 
ATOM     31  C   UNL A   1      43.280  29.715  34.769  1.00  0.00     0.037 A 
ATOM     32  C   UNL A   1      38.020  32.716  32.312  1.00  0.00     0.049 A 
ATOM     33  C   UNL A   1      42.387  30.799  35.286  1.00  0.00     0.074 A 
ATOM     34  C   UNL A   1      37.210  33.642  32.945  1.00  0.00     0.029 A 
ATOM     35  N   UNL A   1      39.050  32.415  33.191  1.00  0.00    -0.354 N 
ATOM     36  N   UNL A   1      41.323  31.320  34.725  1.00  0.00    -0.248 NA
ATOM     37  C   UNL A   1      42.733  31.383  36.588  1.00  0.00     0.031 C 
ATOM     38  C   UNL A   1      37.775  33.939  34.187  1.00  0.00     0.029 A 
ATOM     39  C   UNL A   1      38.917  33.168  34.345  1.00  0.00     0.049 A 
ATOM     40  H   UNL A   1      39.769  31.764  33.019  1.00  0.00     0.167 HD
ATOM     41  C   UNL A   1      40.873  32.295  35.600  1.00  0.00     0.074 A 
ATOM     42  C   UNL A   1      41.764  32.277  36.743  1.00  0.00     0.031 C 
ATOM     43  C   UNL A   1      39.822  33.138  35.463  1.00  0.00     0.037 A 
BRANCH  30  44
ATOM     44  C   UNL A   1      36.743  32.662  30.151  1.00  0.00     0.057 A 
ATOM     45  C   UNL A   1      35.444  32.166  30.323  1.00  0.00     0.134 A 
ATOM     46  C   UNL A   1      36.966  33.541  29.086  1.00  0.00     0.134 A 
ATOM     47  F   UNL A   1      35.168  31.313  31.322  1.00  0.00    -0.206 F 
ATOM     48  C   UNL A   1      34.411  32.505  29.447  1.00  0.00     0.040 A 
ATOM     49  C   UNL A   1      35.937  33.900  28.212  1.00  0.00     0.040 A 
ATOM     50  F   UNL A   1      38.185  34.056  28.872  1.00  0.00    -0.206 F 
ATOM     51  C   UNL A   1      34.658  33.370  28.384  1.00  0.00     0.006 A 
ENDBRANCH  30  44
BRANCH  31  52
ATOM     52  C   UNL A   1      44.459  29.241  35.534  1.00  0.00     0.057 A 
ATOM     53  C   UNL A   1      44.345  28.210  36.478  1.00  0.00     0.134 A 
ATOM     54  C   UNL A   1      45.714  29.836  35.377  1.00  0.00     0.134 A 
ATOM     55  F   UNL A   1      43.164  27.607  36.682  1.00  0.00    -0.206 F 
ATOM     56  C   UNL A   1      45.429  27.807  37.255  1.00  0.00     0.040 A 
ATOM     57  C   UNL A   1      46.816  29.422  36.129  1.00  0.00     0.040 A 
ATOM     58  F   UNL A   1      45.889  30.818  34.481  1.00  0.00    -0.206 F 
ATOM     59  C   UNL A   1      46.672  28.411  37.079  1.00  0.00     0.006 A 
ENDBRANCH  31  52
BRANCH  43  60
ATOM     60  C   UNL A   1      39.585  34.119  36.568  1.00  0.00     0.057 A 
ATOM     61  C   UNL A   1      40.117  35.413  36.505  1.00  0.00     0.134 A 
ATOM     62  C   UNL A   1      38.899  33.749  37.731  1.00  0.00     0.134 A 
ATOM     63  F   UNL A   1      40.790  35.820  35.419  1.00  0.00    -0.206 F 
ATOM     64  C   UNL A   1      39.992  36.300  37.573  1.00  0.00     0.040 A 
ATOM     65  C   UNL A   1      38.750  34.635  38.797  1.00  0.00     0.040 A 
ATOM     66  F   UNL A   1      38.357  32.527  37.841  1.00  0.00    -0.206 F 
ATOM     67  C   UNL A   1      39.308  35.911  38.724  1.00  0.00     0.006 A 
ENDBRANCH  43  60
ENDBRANCH  17  18
ENDBRANCH  10  12
ENDBRANCH   7   8
ENDBRANCH   6   7
ENDBRANCH   5   6
ENDBRANCH   1   5
BRANCH   2  68
ATOM     68  C   UNL A   1      37.004  22.225  24.557  1.00  0.00     0.197 C 
BRANCH  68  69
ATOM     69  N   UNL A   1      36.530  20.878  24.904  1.00  0.00    -0.340 N 
ATOM     70  C   UNL A   1      35.251  20.377  24.875  1.00  0.00     0.244 C 
ATOM     71  H   UNL A   1      37.227  20.246  25.195  1.00  0.00     0.164 HD
ATOM     72  O   UNL A   1      35.098  19.165  25.039  1.00  0.00    -0.273 OA
BRANCH  70  73
ATOM     73  C   UNL A   1      34.053  21.336  24.708  1.00  0.00     0.181 C 
BRANCH  73  74
ATOM     74  N   UNL A   1      33.204  21.020  23.555  1.00  0.00    -0.342 N 
ATOM     75  C   UNL A   1      32.306  21.832  22.901  1.00  0.00     0.243 C 
ATOM     76  H   UNL A   1      33.288  20.105  23.201  1.00  0.00     0.164 HD
ATOM     77  O   UNL A   1      31.604  21.342  22.017  1.00  0.00    -0.273 OA
BRANCH  75  78
ATOM     78  C   UNL A   1      32.208  23.324  23.310  1.00  0.00     0.176 C 
BRANCH  78  79
ATOM     79  N   UNL A   1      32.988  24.096  22.331  1.00  0.00    -0.340 N 
ATOM     80  C   UNL A   1      33.482  25.374  22.293  1.00  0.00     0.251 C 
ATOM     81  H   UNL A   1      33.204  23.580  21.522  1.00  0.00     0.164 HD
ATOM     82  O   UNL A   1      33.731  25.810  21.167  1.00  0.00    -0.269 OA
BRANCH  80  83
ATOM     83  C   UNL A   1      33.801  26.225  23.487  1.00  0.00     0.040 A 
ATOM     84  C   UNL A   1      33.826  27.625  23.510  1.00  0.00     0.017 A 
ATOM     85  C   UNL A   1      33.935  25.555  24.718  1.00  0.00     0.017 A 
ATOM     86  C   UNL A   1      33.970  28.335  24.708  1.00  0.00     0.040 A 
ATOM     87  C   UNL A   1      34.070  26.259  25.920  1.00  0.00     0.040 A 
ATOM     88  C   UNL A   1      34.084  27.645  25.904  1.00  0.00     0.123 A 
ATOM     89  F   UNL A   1      34.186  28.326  27.051  1.00  0.00    -0.207 F 
ENDBRANCH  80  83
ENDBRANCH  78  79
BRANCH  78  90
ATOM     90  C   UNL A   1      30.746  23.823  23.358  1.00  0.00     0.072 C 
BRANCH  90  91
ATOM     91  C   UNL A   1      30.577  25.052  24.216  1.00  0.00    -0.020 A 
ATOM     92  C   UNL A   1      30.483  25.082  25.596  1.00  0.00     0.087 A 
ATOM     93  C   UNL A   1      30.474  26.415  23.776  1.00  0.00     0.003 A 
ATOM     94  N   UNL A   1      30.491  26.387  26.004  1.00  0.00    -0.361 N 
ATOM     95  C   UNL A   1      30.444  27.221  24.916  1.00  0.00     0.046 A 
ATOM     96  C   UNL A   1      30.411  27.046  22.516  1.00  0.00     0.010 A 
ATOM     97  H   UNL A   1      30.527  26.685  26.942  1.00  0.00     0.166 HD
ATOM     98  C   UNL A   1      30.378  28.618  24.863  1.00  0.00     0.026 A 
ATOM     99  C   UNL A   1      30.308  28.442  22.446  1.00  0.00     0.001 A 
ATOM    100  C   UNL A   1      30.299  29.216  23.603  1.00  0.00     0.002 A 
ENDBRANCH  90  91
ENDBRANCH  78  90
ENDBRANCH  75  78
ENDBRANCH  73  74
BRANCH  73 101
ATOM    101  C   UNL A   1      33.252  21.437  26.018  1.00  0.00     0.101 C 
BRANCH 101 102
ATOM    102  S   UNL A   1      33.935  22.591  27.251  1.00  0.00    -0.177 SA
ATOM    103  H   UNL A   1      33.541  22.211  28.496  1.00  0.00     0.102 HD
ENDBRANCH 101 102
ENDBRANCH  73 101
ENDBRANCH  70  73
ENDBRANCH  68  69
BRANCH  68 104
ATOM    104  C   UNL A   1      35.992  23.064  23.766  1.00  0.00     0.191 C 
BRANCH 104 105
ATOM    105  O   UNL A   1      36.182  22.935  22.359  1.00  0.00    -0.394 OA
ATOM    106  H   UNL A   1      37.104  23.140  22.138  1.00  0.00     0.210 HD
ENDBRANCH 104 105
ENDBRANCH  68 104
ENDBRANCH   2  68
TORSDOF 22
ENDMDL
MODEL 3
REMARK VINA RESULT:     -11.2      6.615     10.203
REMARK SMILES O=C(NCCCNC(=O)[C@H](CO)NC(=O)[C@H](CS)NC(=O)[C@H](Cc1c[nH]c2ccccc12)NC(=O)c1ccc(F)cc1)c1ccc(-c2c3nc(c(-c4c(F)cccc4F)c4ccc([nH]4)c(-c4c(F)cccc4F)c4nc(c(-c5c(F)cccc5F)c5ccc2[nH]5)C=C4)C=C3)cc1
REMARK SMILES IDX 7 1 8 2 9 3 6 5 5 6 4 7 3 8 1 9 2 10 43 12 44 13 96 14 45 15
REMARK SMILES IDX 95 16 46 17 47 18 48 19 89 20 49 21 94 22 88 23 90 24 50 25
REMARK SMILES IDX 93 26 87 27 86 28 51 30 77 31 60 32 76 33 61 34 64 35 75 36
REMARK SMILES IDX 91 37 62 38 63 39 74 41 92 42 65 43 52 44 53 45 58 46 54 47
REMARK SMILES IDX 55 48 57 49 59 50 56 51 78 52 79 53 84 54 80 55 81 56 83 57
REMARK SMILES IDX 85 58 82 59 66 60 67 61 72 62 68 63 69 64 71 65 73 66 70 67
REMARK SMILES IDX 10 68 13 69 14 70 15 72 16 73 19 74 20 75 21 77 22 78 33 79
REMARK SMILES IDX 34 80 35 82 36 83 37 84 42 85 38 86 41 87 39 88 40 89 23 90
REMARK SMILES IDX 24 91 25 92 32 93 26 94 27 95 31 96 28 98 30 99 29 100
REMARK SMILES IDX 17 101 18 102 11 104 12 105
REMARK H PARENT 7 4 3 11 90 29 64 40 13 71 19 76 33 81 26 97 18 103 12 106
REMARK Flexibility Score: inf
ROOT
ATOM      1  N   UNL A   1      37.378  23.982  26.749  1.00  0.00    -0.354 N 
ATOM      2  C   UNL A   1      36.399  23.606  25.892  1.00  0.00     0.244 C 
ATOM      3  O   UNL A   1      35.264  24.003  26.152  1.00  0.00    -0.273 OA
ATOM      4  H   UNL A   1      37.055  24.321  27.615  1.00  0.00     0.163 HD
ENDROOT
BRANCH   1   5
ATOM      5  C   UNL A   1      38.817  23.970  26.607  1.00  0.00     0.117 C 
BRANCH   5   6
ATOM      6  C   UNL A   1      39.397  25.346  26.896  1.00  0.00     0.042 C 
BRANCH   6   7
ATOM      7  C   UNL A   1      40.896  25.422  26.644  1.00  0.00     0.118 C 
BRANCH   7   8
ATOM      8  N   UNL A   1      41.506  24.099  26.604  1.00  0.00    -0.352 N 
ATOM      9  O   UNL A   1      43.109  22.603  26.069  1.00  0.00    -0.269 OA
ATOM     10  C   UNL A   1      42.808  23.763  26.333  1.00  0.00     0.251 C 
ATOM     11  H   UNL A   1      40.904  23.346  26.799  1.00  0.00     0.163 HD
BRANCH  10  12
ATOM     12  C   UNL A   1      43.838  24.816  26.360  1.00  0.00     0.039 A 
ATOM     13  C   UNL A   1      44.223  25.434  25.168  1.00  0.00     0.014 A 
ATOM     14  C   UNL A   1      44.402  25.204  27.577  1.00  0.00     0.014 A 
ATOM     15  C   UNL A   1      45.261  26.349  25.171  1.00  0.00     0.010 A 
ATOM     16  C   UNL A   1      45.375  26.203  27.593  1.00  0.00     0.010 A 
ATOM     17  C   UNL A   1      45.811  26.779  26.389  1.00  0.00    -0.014 A 
BRANCH  17  18
ATOM     18  C   UNL A   1      46.716  27.949  26.382  1.00  0.00     0.031 A 
ATOM     19  C   UNL A   1      46.194  29.345  26.508  1.00  0.00     0.074 A 
ATOM     20  C   UNL A   1      48.037  27.707  26.262  1.00  0.00     0.049 A 
ATOM     21  N   UNL A   1      46.861  30.469  26.476  1.00  0.00    -0.248 NA
ATOM     22  C   UNL A   1      44.743  29.512  26.687  1.00  0.00     0.031 C 
ATOM     23  C   UNL A   1      48.638  26.375  26.123  1.00  0.00     0.029 A 
ATOM     24  N   UNL A   1      49.111  28.556  26.246  1.00  0.00    -0.354 N 
ATOM     25  C   UNL A   1      45.916  31.475  26.610  1.00  0.00     0.074 A 
ATOM     26  C   UNL A   1      44.623  30.834  26.716  1.00  0.00     0.031 C 
ATOM     27  C   UNL A   1      49.970  26.494  26.075  1.00  0.00     0.029 A 
ATOM     28  C   UNL A   1      50.314  27.909  26.097  1.00  0.00     0.049 A 
ATOM     29  H   UNL A   1      49.029  29.533  26.332  1.00  0.00     0.167 HD
ATOM     30  C   UNL A   1      46.125  32.811  26.644  1.00  0.00     0.037 A 
ATOM     31  C   UNL A   1      51.557  28.400  25.951  1.00  0.00     0.037 A 
ATOM     32  C   UNL A   1      47.426  33.426  26.568  1.00  0.00     0.049 A 
ATOM     33  C   UNL A   1      51.747  29.884  25.956  1.00  0.00     0.074 A 
ATOM     34  C   UNL A   1      47.746  34.769  26.663  1.00  0.00     0.029 A 
ATOM     35  N   UNL A   1      48.616  32.741  26.376  1.00  0.00    -0.354 N 
ATOM     36  N   UNL A   1      50.847  30.824  26.119  1.00  0.00    -0.248 NA
ATOM     37  C   UNL A   1      53.110  30.382  25.738  1.00  0.00     0.031 C 
ATOM     38  C   UNL A   1      49.124  34.903  26.479  1.00  0.00     0.029 A 
ATOM     39  C   UNL A   1      49.668  33.639  26.310  1.00  0.00     0.049 A 
ATOM     40  H   UNL A   1      48.701  31.764  26.297  1.00  0.00     0.167 HD
ATOM     41  C   UNL A   1      51.532  32.024  26.020  1.00  0.00     0.074 A 
ATOM     42  C   UNL A   1      52.928  31.695  25.808  1.00  0.00     0.031 C 
ATOM     43  C   UNL A   1      51.046  33.286  26.088  1.00  0.00     0.037 A 
BRANCH  30  44
ATOM     44  C   UNL A   1      44.940  33.720  26.762  1.00  0.00     0.057 A 
ATOM     45  C   UNL A   1      44.405  34.025  28.022  1.00  0.00     0.134 A 
ATOM     46  C   UNL A   1      44.251  34.182  25.636  1.00  0.00     0.134 A 
ATOM     47  F   UNL A   1      45.016  33.605  29.140  1.00  0.00    -0.206 F 
ATOM     48  C   UNL A   1      43.210  34.735  28.154  1.00  0.00     0.040 A 
ATOM     49  C   UNL A   1      43.063  34.906  25.757  1.00  0.00     0.040 A 
ATOM     50  F   UNL A   1      44.715  33.928  24.404  1.00  0.00    -0.206 F 
ATOM     51  C   UNL A   1      42.533  35.172  27.019  1.00  0.00     0.006 A 
ENDBRANCH  30  44
BRANCH  31  52
ATOM     52  C   UNL A   1      52.691  27.466  25.744  1.00  0.00     0.057 A 
ATOM     53  C   UNL A   1      53.021  27.000  24.464  1.00  0.00     0.134 A 
ATOM     54  C   UNL A   1      53.439  26.982  26.821  1.00  0.00     0.134 A 
ATOM     55  F   UNL A   1      52.333  27.420  23.392  1.00  0.00    -0.206 F 
ATOM     56  C   UNL A   1      54.037  26.066  24.265  1.00  0.00     0.040 A 
ATOM     57  C   UNL A   1      54.477  26.068  26.633  1.00  0.00     0.040 A 
ATOM     58  F   UNL A   1      53.179  27.401  28.068  1.00  0.00    -0.206 F 
ATOM     59  C   UNL A   1      54.772  25.600  25.353  1.00  0.00     0.006 A 
ENDBRANCH  31  52
BRANCH  43  60
ATOM     60  C   UNL A   1      52.024  34.406  25.918  1.00  0.00     0.057 A 
ATOM     61  C   UNL A   1      52.401  34.841  24.641  1.00  0.00     0.134 A 
ATOM     62  C   UNL A   1      52.655  34.991  27.022  1.00  0.00     0.134 A 
ATOM     63  F   UNL A   1      51.836  34.311  23.547  1.00  0.00    -0.206 F 
ATOM     64  C   UNL A   1      53.389  35.810  24.469  1.00  0.00     0.040 A 
ATOM     65  C   UNL A   1      53.630  35.975  26.862  1.00  0.00     0.040 A 
ATOM     66  F   UNL A   1      52.325  34.622  28.268  1.00  0.00    -0.206 F 
ATOM     67  C   UNL A   1      54.006  36.379  25.582  1.00  0.00     0.006 A 
ENDBRANCH  43  60
ENDBRANCH  17  18
ENDBRANCH  10  12
ENDBRANCH   7   8
ENDBRANCH   6   7
ENDBRANCH   5   6
ENDBRANCH   1   5
BRANCH   2  68
ATOM     68  C   UNL A   1      36.662  22.666  24.711  1.00  0.00     0.197 C 
BRANCH  68  69
ATOM     69  N   UNL A   1      36.375  21.260  25.021  1.00  0.00    -0.340 N 
ATOM     70  C   UNL A   1      35.187  20.578  24.923  1.00  0.00     0.244 C 
ATOM     71  H   UNL A   1      37.141  20.732  25.342  1.00  0.00     0.164 HD
ATOM     72  O   UNL A   1      35.205  19.354  25.068  1.00  0.00    -0.273 OA
BRANCH  70  73
ATOM     73  C   UNL A   1      33.870  21.354  24.704  1.00  0.00     0.181 C 
BRANCH  73  74
ATOM     74  N   UNL A   1      33.133  20.933  23.507  1.00  0.00    -0.342 N 
ATOM     75  C   UNL A   1      32.326  21.686  22.686  1.00  0.00     0.243 C 
ATOM     76  H   UNL A   1      33.227  19.985  23.260  1.00  0.00     0.164 HD
ATOM     77  O   UNL A   1      31.704  21.119  21.790  1.00  0.00    -0.273 OA
BRANCH  75  78
ATOM     78  C   UNL A   1      32.227  23.214  22.929  1.00  0.00     0.176 C 
BRANCH  78  79
ATOM     79  N   UNL A   1      32.706  23.881  21.708  1.00  0.00    -0.340 N 
ATOM     80  C   UNL A   1      33.055  25.168  21.393  1.00  0.00     0.251 C 
ATOM     81  H   UNL A   1      32.795  23.265  20.946  1.00  0.00     0.164 HD
ATOM     82  O   UNL A   1      33.018  25.447  20.192  1.00  0.00    -0.269 OA
BRANCH  80  83
ATOM     83  C   UNL A   1      33.534  26.207  22.364  1.00  0.00     0.040 A 
ATOM     84  C   UNL A   1      33.556  27.589  22.138  1.00  0.00     0.017 A 
ATOM     85  C   UNL A   1      33.842  25.760  23.663  1.00  0.00     0.017 A 
ATOM     86  C   UNL A   1      33.863  28.494  23.162  1.00  0.00     0.040 A 
ATOM     87  C   UNL A   1      34.141  26.659  24.692  1.00  0.00     0.040 A 
ATOM     88  C   UNL A   1      34.146  28.020  24.432  1.00  0.00     0.123 A 
ATOM     89  F   UNL A   1      34.405  28.888  25.417  1.00  0.00    -0.207 F 
ENDBRANCH  80  83
ENDBRANCH  78  79
BRANCH  78  90
ATOM     90  C   UNL A   1      30.787  23.661  23.266  1.00  0.00     0.072 C 
BRANCH  90  91
ATOM     91  C   UNL A   1      30.745  24.791  24.264  1.00  0.00    -0.020 A 
ATOM     92  C   UNL A   1      30.905  24.681  25.634  1.00  0.00     0.087 A 
ATOM     93  C   UNL A   1      30.527  26.185  23.996  1.00  0.00     0.003 A 
ATOM     94  N   UNL A   1      30.953  25.938  26.169  1.00  0.00    -0.361 N 
ATOM     95  C   UNL A   1      30.685  26.873  25.200  1.00  0.00     0.046 A 
ATOM     96  C   UNL A   1      30.216  26.934  22.841  1.00  0.00     0.010 A 
ATOM     97  H   UNL A   1      31.153  26.144  27.111  1.00  0.00     0.166 HD
ATOM     98  C   UNL A   1      30.573  28.264  25.308  1.00  0.00     0.026 A 
ATOM     99  C   UNL A   1      30.065  28.323  22.937  1.00  0.00     0.001 A 
ATOM    100  C   UNL A   1      30.248  28.978  24.152  1.00  0.00     0.002 A 
ENDBRANCH  90  91
ENDBRANCH  78  90
ENDBRANCH  75  78
ENDBRANCH  73  74
BRANCH  73 101
ATOM    101  C   UNL A   1      33.001  21.319  25.973  1.00  0.00     0.101 C 
BRANCH 101 102
ATOM    102  S   UNL A   1      33.904  21.590  27.531  1.00  0.00    -0.177 SA
ATOM    103  H   UNL A   1      35.037  20.838  27.536  1.00  0.00     0.102 HD
ENDBRANCH 101 102
ENDBRANCH  73 101
ENDBRANCH  70  73
ENDBRANCH  68  69
BRANCH  68 104
ATOM    104  C   UNL A   1      35.984  23.180  23.433  1.00  0.00     0.191 C 
BRANCH 104 105
ATOM    105  O   UNL A   1      36.762  22.902  22.272  1.00  0.00    -0.394 OA
ATOM    106  H   UNL A   1      37.418  23.606  22.146  1.00  0.00     0.210 HD
ENDBRANCH 104 105
ENDBRANCH  68 104
ENDBRANCH   2  68
TORSDOF 22
ENDMDL
