MODEL 1
REMARK VINA RESULT:     -11.4      0.000      0.000
REMARK SMILES C[C@@H](NC(=O)[C@@H]1CC[C@@H]2CCCC[C@@H]2[NH2+]1)C(=O)NCCCNC(=O)c1ccc(-c2c3nc(c(-c4c(F)cccc4F)c4ccc([nH]4)c(-c4c(F)cccc4F)c4nc(c(-c5c(F)cccc5F)c5ccc2[nH]5)C=C4)C=C3)cc1
REMARK SMILES IDX 20 1 19 2 18 3 16 4 17 5 2 7 1 8 3 9 4 10 5 12 6 13 7 14
REMARK SMILES IDX 15 15 8 16 14 17 9 20 13 21 10 22 12 23 11 24 21 25 22 26
REMARK SMILES IDX 23 27 24 29 25 30 26 31 78 32 27 33 77 34 28 35 29 36 30 37
REMARK SMILES IDX 71 38 31 39 76 40 70 41 72 42 32 43 75 44 69 45 68 46 33 48
REMARK SMILES IDX 59 49 42 50 58 51 43 52 46 53 57 54 73 55 44 56 45 57 56 59
REMARK SMILES IDX 74 60 47 61 34 62 35 63 40 64 36 65 37 66 39 67 41 68 38 69
REMARK SMILES IDX 60 70 61 71 66 72 62 73 63 74 65 75 67 76 64 77 48 78 49 79
REMARK SMILES IDX 54 80 50 81 51 82 53 83 55 84 52 85
REMARK H PARENT 18 6 3 11 15 18 15 19 22 28 72 47 46 58
REMARK Flexibility Score: inf
ROOT
ATOM      1  C   UNL A   1      33.655  33.827  28.143  1.00  0.00     0.042 C 
ENDROOT
BRANCH   1   2
ATOM      2  C   UNL A   1      34.045  35.205  28.735  1.00  0.00     0.117 C 
BRANCH   2   3
ATOM      3  N   UNL A   1      33.050  35.849  29.567  1.00  0.00    -0.354 N 
ATOM      4  C   UNL A   1      32.959  36.012  30.917  1.00  0.00     0.242 C 
ATOM      5  O   UNL A   1      31.936  36.576  31.326  1.00  0.00    -0.273 OA
ATOM      6  H   UNL A   1      32.301  36.243  29.064  1.00  0.00     0.163 HD
BRANCH   4   7
ATOM      7  C   UNL A   1      33.985  35.456  31.937  1.00  0.00     0.168 C 
ATOM      8  C   UNL A   1      34.199  36.529  33.013  1.00  0.00     0.041 C 
BRANCH   7   9
ATOM      9  N   UNL A   1      33.822  34.143  32.590  1.00  0.00    -0.339 N 
ATOM     10  C   UNL A   1      34.841  33.320  33.010  1.00  0.00     0.278 C 
ATOM     11  H   UNL A   1      32.901  33.827  32.738  1.00  0.00     0.164 HD
ATOM     12  O   UNL A   1      34.997  33.214  34.233  1.00  0.00    -0.268 OA
BRANCH  10  13
ATOM     13  C   UNL A   1      35.619  32.381  32.040  1.00  0.00     0.272 C 
ATOM     14  C   UNL A   1      36.189  31.118  32.640  1.00  0.00     0.076 C 
ATOM     15  N   UNL A   1      36.717  33.132  31.348  1.00  0.00    -0.333 N 
ATOM     16  C   UNL A   1      37.281  31.507  33.610  1.00  0.00     0.016 C 
ATOM     17  C   UNL A   1      37.972  33.356  32.112  1.00  0.00     0.186 C 
ATOM     18  H   UNL A   1      36.348  34.047  31.091  1.00  0.00     0.347 HD
ATOM     19  H   UNL A   1      36.989  32.538  30.565  1.00  0.00     0.347 HD
ATOM     20  C   UNL A   1      38.455  32.102  32.861  1.00  0.00     0.048 C 
ATOM     21  C   UNL A   1      37.882  34.620  32.991  1.00  0.00     0.065 C 
ATOM     22  C   UNL A   1      39.618  32.381  33.821  1.00  0.00     0.010 C 
ATOM     23  C   UNL A   1      38.979  34.786  34.042  1.00  0.00     0.006 C 
ATOM     24  C   UNL A   1      39.310  33.508  34.795  1.00  0.00     0.001 C 
ENDBRANCH  10  13
ENDBRANCH   7   9
ENDBRANCH   4   7
ENDBRANCH   2   3
ENDBRANCH   1   2
BRANCH   1  25
ATOM     25  C   UNL A   1      34.521  32.587  28.445  1.00  0.00     0.118 C 
BRANCH  25  26
ATOM     26  N   UNL A   1      33.916  31.287  28.124  1.00  0.00    -0.352 N 
ATOM     27  C   UNL A   1      34.468  30.055  27.866  1.00  0.00     0.251 C 
ATOM     28  H   UNL A   1      32.933  31.301  28.089  1.00  0.00     0.163 HD
ATOM     29  O   UNL A   1      33.810  29.162  27.354  1.00  0.00    -0.269 OA
BRANCH  27  30
ATOM     30  C   UNL A   1      35.856  29.803  28.269  1.00  0.00     0.039 A 
ATOM     31  C   UNL A   1      36.163  29.369  29.561  1.00  0.00     0.014 A 
ATOM     32  C   UNL A   1      36.861  30.051  27.338  1.00  0.00     0.014 A 
ATOM     33  C   UNL A   1      37.492  29.094  29.884  1.00  0.00     0.010 A 
ATOM     34  C   UNL A   1      38.154  29.667  27.618  1.00  0.00     0.010 A 
ATOM     35  C   UNL A   1      38.484  29.199  28.898  1.00  0.00    -0.014 A 
BRANCH  35  36
ATOM     36  C   UNL A   1      39.902  28.860  29.135  1.00  0.00     0.031 A 
ATOM     37  C   UNL A   1      40.827  29.938  29.626  1.00  0.00     0.074 A 
ATOM     38  C   UNL A   1      40.369  27.665  28.733  1.00  0.00     0.049 A 
ATOM     39  N   UNL A   1      42.133  29.967  29.639  1.00  0.00    -0.248 NA
ATOM     40  C   UNL A   1      40.192  31.181  30.100  1.00  0.00     0.031 C 
ATOM     41  C   UNL A   1      39.558  26.578  28.176  1.00  0.00     0.029 A 
ATOM     42  N   UNL A   1      41.648  27.178  28.695  1.00  0.00    -0.354 N 
ATOM     43  C   UNL A   1      42.472  31.243  30.070  1.00  0.00     0.074 A 
ATOM     44  C   UNL A   1      41.239  31.975  30.254  1.00  0.00     0.031 C 
ATOM     45  C   UNL A   1      40.359  25.547  27.866  1.00  0.00     0.029 A 
ATOM     46  C   UNL A   1      41.739  25.918  28.157  1.00  0.00     0.049 A 
ATOM     47  H   UNL A   1      42.427  27.684  29.023  1.00  0.00     0.167 HD
ATOM     48  C   UNL A   1      43.704  31.747  30.310  1.00  0.00     0.037 A 
ATOM     49  C   UNL A   1      42.823  25.160  27.916  1.00  0.00     0.037 A 
ATOM     50  C   UNL A   1      44.911  30.977  30.176  1.00  0.00     0.049 A 
ATOM     51  C   UNL A   1      44.177  25.715  28.259  1.00  0.00     0.074 A 
ATOM     52  C   UNL A   1      46.210  31.345  30.470  1.00  0.00     0.029 A 
ATOM     53  N   UNL A   1      44.955  29.667  29.720  1.00  0.00    -0.354 N 
ATOM     54  N   UNL A   1      44.488  26.904  28.719  1.00  0.00    -0.248 NA
ATOM     55  C   UNL A   1      45.327  24.826  28.057  1.00  0.00     0.031 C 
ATOM     56  C   UNL A   1      47.045  30.263  30.169  1.00  0.00     0.029 A 
ATOM     57  C   UNL A   1      46.261  29.210  29.724  1.00  0.00     0.049 A 
ATOM     58  H   UNL A   1      44.173  29.140  29.435  1.00  0.00     0.167 HD
ATOM     59  C   UNL A   1      45.864  26.898  28.890  1.00  0.00     0.074 A 
ATOM     60  C   UNL A   1      46.326  25.582  28.493  1.00  0.00     0.031 C 
ATOM     61  C   UNL A   1      46.678  27.886  29.335  1.00  0.00     0.037 A 
BRANCH  48  62
ATOM     62  C   UNL A   1      43.795  33.179  30.754  1.00  0.00     0.057 A 
ATOM     63  C   UNL A   1      43.967  34.228  29.840  1.00  0.00     0.134 A 
ATOM     64  C   UNL A   1      43.708  33.517  32.111  1.00  0.00     0.134 A 
ATOM     65  F   UNL A   1      44.073  33.974  28.526  1.00  0.00    -0.206 F 
ATOM     66  C   UNL A   1      44.084  35.554  30.260  1.00  0.00     0.040 A 
ATOM     67  C   UNL A   1      43.793  34.843  32.541  1.00  0.00     0.040 A 
ATOM     68  F   UNL A   1      43.540  32.565  33.041  1.00  0.00    -0.206 F 
ATOM     69  C   UNL A   1      43.991  35.865  31.615  1.00  0.00     0.006 A 
ENDBRANCH  48  62
BRANCH  49  70
ATOM     70  C   UNL A   1      42.664  23.788  27.372  1.00  0.00     0.057 A 
ATOM     71  C   UNL A   1      42.760  23.551  25.997  1.00  0.00     0.134 A 
ATOM     72  C   UNL A   1      42.440  22.685  28.204  1.00  0.00     0.134 A 
ATOM     73  F   UNL A   1      42.964  24.571  25.150  1.00  0.00    -0.206 F 
ATOM     74  C   UNL A   1      42.622  22.270  25.463  1.00  0.00     0.040 A 
ATOM     75  C   UNL A   1      42.323  21.393  27.685  1.00  0.00     0.040 A 
ATOM     76  F   UNL A   1      42.357  22.841  29.533  1.00  0.00    -0.206 F 
ATOM     77  C   UNL A   1      42.407  21.184  26.310  1.00  0.00     0.006 A 
ENDBRANCH  49  70
BRANCH  61  78
ATOM     78  C   UNL A   1      48.135  27.564  29.454  1.00  0.00     0.057 A 
ATOM     79  C   UNL A   1      48.660  26.934  30.587  1.00  0.00     0.134 A 
ATOM     80  C   UNL A   1      49.009  27.841  28.396  1.00  0.00     0.134 A 
ATOM     81  F   UNL A   1      47.873  26.655  31.638  1.00  0.00    -0.206 F 
ATOM     82  C   UNL A   1      50.013  26.605  30.672  1.00  0.00     0.040 A 
ATOM     83  C   UNL A   1      50.358  27.494  28.459  1.00  0.00     0.040 A 
ATOM     84  F   UNL A   1      48.562  28.435  27.280  1.00  0.00    -0.206 F 
ATOM     85  C   UNL A   1      50.864  26.878  29.602  1.00  0.00     0.006 A 
ENDBRANCH  61  78
ENDBRANCH  35  36
ENDBRANCH  27  30
ENDBRANCH  25  26
ENDBRANCH   1  25
TORSDOF 12
ENDMDL
MODEL 2
REMARK VINA RESULT:     -11.3      3.912     11.222
REMARK SMILES C[C@@H](NC(=O)[C@@H]1CC[C@@H]2CCCC[C@@H]2[NH2+]1)C(=O)NCCCNC(=O)c1ccc(-c2c3nc(c(-c4c(F)cccc4F)c4ccc([nH]4)c(-c4c(F)cccc4F)c4nc(c(-c5c(F)cccc5F)c5ccc2[nH]5)C=C4)C=C3)cc1
REMARK SMILES IDX 20 1 19 2 18 3 16 4 17 5 2 7 1 8 3 9 4 10 5 12 6 13 7 14
REMARK SMILES IDX 15 15 8 16 14 17 9 20 13 21 10 22 12 23 11 24 21 25 22 26
REMARK SMILES IDX 23 27 24 29 25 30 26 31 78 32 27 33 77 34 28 35 29 36 30 37
REMARK SMILES IDX 71 38 31 39 76 40 70 41 72 42 32 43 75 44 69 45 68 46 33 48
REMARK SMILES IDX 59 49 42 50 58 51 43 52 46 53 57 54 73 55 44 56 45 57 56 59
REMARK SMILES IDX 74 60 47 61 34 62 35 63 40 64 36 65 37 66 39 67 41 68 38 69
REMARK SMILES IDX 60 70 61 71 66 72 62 73 63 74 65 75 67 76 64 77 48 78 49 79
REMARK SMILES IDX 54 80 50 81 51 82 53 83 55 84 52 85
REMARK H PARENT 18 6 3 11 15 18 15 19 22 28 72 47 46 58
REMARK Flexibility Score: inf
ROOT
ATOM      1  C   UNL A   1      40.933  20.280  26.460  1.00  0.00     0.042 C 
ENDROOT
BRANCH   1   2
ATOM      2  C   UNL A   1      42.317  19.823  26.987  1.00  0.00     0.117 C 
BRANCH   2   3
ATOM      3  N   UNL A   1      43.052  18.904  26.143  1.00  0.00    -0.354 N 
ATOM      4  C   UNL A   1      44.166  19.067  25.375  1.00  0.00     0.242 C 
ATOM      5  O   UNL A   1      44.520  18.078  24.720  1.00  0.00    -0.273 OA
ATOM      6  H   UNL A   1      42.678  17.994  26.119  1.00  0.00     0.163 HD
BRANCH   4   7
ATOM      7  C   UNL A   1      44.927  20.407  25.207  1.00  0.00     0.168 C 
ATOM      8  C   UNL A   1      46.403  20.075  24.953  1.00  0.00     0.041 C 
BRANCH   7   9
ATOM      9  N   UNL A   1      44.495  21.450  24.256  1.00  0.00    -0.339 N 
ATOM     10  C   UNL A   1      44.499  22.805  24.490  1.00  0.00     0.278 C 
ATOM     11  H   UNL A   1      44.175  21.148  23.375  1.00  0.00     0.164 HD
ATOM     12  O   UNL A   1      45.343  23.469  23.876  1.00  0.00    -0.268 OA
BRANCH  10  13
ATOM     13  C   UNL A   1      43.373  23.524  25.293  1.00  0.00     0.272 C 
ATOM     14  C   UNL A   1      43.149  24.983  24.976  1.00  0.00     0.076 C 
ATOM     15  N   UNL A   1      43.601  23.374  26.767  1.00  0.00    -0.333 N 
ATOM     16  C   UNL A   1      44.369  25.757  25.423  1.00  0.00     0.016 C 
ATOM     17  C   UNL A   1      44.602  24.275  27.395  1.00  0.00     0.186 C 
ATOM     18  H   UNL A   1      43.905  22.415  26.935  1.00  0.00     0.347 HD
ATOM     19  H   UNL A   1      42.712  23.629  27.198  1.00  0.00     0.347 HD
ATOM     20  C   UNL A   1      44.472  25.737  26.933  1.00  0.00     0.048 C 
ATOM     21  C   UNL A   1      46.029  23.703  27.282  1.00  0.00     0.065 C 
ATOM     22  C   UNL A   1      45.631  26.626  27.404  1.00  0.00     0.010 C 
ATOM     23  C   UNL A   1      47.168  24.667  27.612  1.00  0.00     0.006 C 
ATOM     24  C   UNL A   1      46.990  26.057  27.024  1.00  0.00     0.001 C 
ENDBRANCH  10  13
ENDBRANCH   7   9
ENDBRANCH   4   7
ENDBRANCH   2   3
ENDBRANCH   1   2
BRANCH   1  25
ATOM     25  C   UNL A   1      40.404  21.686  26.807  1.00  0.00     0.118 C 
BRANCH  25  26
ATOM     26  N   UNL A   1      39.304  22.184  25.971  1.00  0.00    -0.352 N 
ATOM     27  C   UNL A   1      38.578  23.351  26.005  1.00  0.00     0.251 C 
ATOM     28  H   UNL A   1      39.037  21.567  25.252  1.00  0.00     0.163 HD
ATOM     29  O   UNL A   1      37.525  23.459  25.395  1.00  0.00    -0.269 OA
BRANCH  27  30
ATOM     30  C   UNL A   1      39.118  24.498  26.744  1.00  0.00     0.039 A 
ATOM     31  C   UNL A   1      39.968  25.417  26.126  1.00  0.00     0.014 A 
ATOM     32  C   UNL A   1      38.790  24.618  28.092  1.00  0.00     0.014 A 
ATOM     33  C   UNL A   1      40.416  26.520  26.853  1.00  0.00     0.010 A 
ATOM     34  C   UNL A   1      39.133  25.764  28.773  1.00  0.00     0.010 A 
ATOM     35  C   UNL A   1      39.961  26.719  28.166  1.00  0.00    -0.014 A 
BRANCH  35  36
ATOM     36  C   UNL A   1      40.329  27.894  28.982  1.00  0.00     0.031 A 
ATOM     37  C   UNL A   1      41.584  27.832  29.808  1.00  0.00     0.074 A 
ATOM     38  C   UNL A   1      39.452  28.904  29.114  1.00  0.00     0.049 A 
ATOM     39  N   UNL A   1      41.963  28.596  30.797  1.00  0.00    -0.248 NA
ATOM     40  C   UNL A   1      42.498  26.711  29.527  1.00  0.00     0.031 C 
ATOM     41  C   UNL A   1      38.173  29.019  28.406  1.00  0.00     0.029 A 
ATOM     42  N   UNL A   1      39.485  30.009  29.921  1.00  0.00    -0.354 N 
ATOM     43  C   UNL A   1      43.128  28.020  31.286  1.00  0.00     0.074 A 
ATOM     44  C   UNL A   1      43.362  26.814  30.525  1.00  0.00     0.031 C 
ATOM     45  C   UNL A   1      37.552  30.141  28.801  1.00  0.00     0.029 A 
ATOM     46  C   UNL A   1      38.364  30.796  29.820  1.00  0.00     0.049 A 
ATOM     47  H   UNL A   1      40.241  30.220  30.516  1.00  0.00     0.167 HD
ATOM     48  C   UNL A   1      43.938  28.472  32.270  1.00  0.00     0.037 A 
ATOM     49  C   UNL A   1      38.031  31.913  30.490  1.00  0.00     0.037 A 
ATOM     50  C   UNL A   1      43.713  29.708  32.971  1.00  0.00     0.049 A 
ATOM     51  C   UNL A   1      38.983  32.436  31.529  1.00  0.00     0.074 A 
ATOM     52  C   UNL A   1      44.504  30.318  33.926  1.00  0.00     0.029 A 
ATOM     53  N   UNL A   1      42.613  30.530  32.772  1.00  0.00    -0.354 N 
ATOM     54  N   UNL A   1      40.111  31.915  31.949  1.00  0.00    -0.248 NA
ATOM     55  C   UNL A   1      38.621  33.701  32.180  1.00  0.00     0.031 C 
ATOM     56  C   UNL A   1      43.870  31.501  34.323  1.00  0.00     0.029 A 
ATOM     57  C   UNL A   1      42.703  31.644  33.587  1.00  0.00     0.049 A 
ATOM     58  H   UNL A   1      41.877  30.348  32.143  1.00  0.00     0.167 HD
ATOM     59  C   UNL A   1      40.611  32.802  32.892  1.00  0.00     0.074 A 
ATOM     60  C   UNL A   1      39.665  33.898  32.974  1.00  0.00     0.031 C 
ATOM     61  C   UNL A   1      41.748  32.722  33.626  1.00  0.00     0.037 A 
BRANCH  48  62
ATOM     62  C   UNL A   1      45.137  27.639  32.623  1.00  0.00     0.057 A 
ATOM     63  C   UNL A   1      46.365  27.792  31.965  1.00  0.00     0.134 A 
ATOM     64  C   UNL A   1      45.066  26.672  33.634  1.00  0.00     0.134 A 
ATOM     65  F   UNL A   1      46.498  28.690  30.976  1.00  0.00    -0.206 F 
ATOM     66  C   UNL A   1      47.467  26.993  32.275  1.00  0.00     0.040 A 
ATOM     67  C   UNL A   1      46.170  25.888  33.974  1.00  0.00     0.040 A 
ATOM     68  F   UNL A   1      43.923  26.473  34.308  1.00  0.00    -0.206 F 
ATOM     69  C   UNL A   1      47.372  26.041  33.286  1.00  0.00     0.006 A 
ENDBRANCH  48  62
BRANCH  49  70
ATOM     70  C   UNL A   1      36.772  32.628  30.162  1.00  0.00     0.057 A 
ATOM     71  C   UNL A   1      36.724  33.531  29.095  1.00  0.00     0.134 A 
ATOM     72  C   UNL A   1      35.590  32.412  30.880  1.00  0.00     0.134 A 
ATOM     73  F   UNL A   1      37.828  33.786  28.377  1.00  0.00    -0.206 F 
ATOM     74  C   UNL A   1      35.551  34.209  28.762  1.00  0.00     0.040 A 
ATOM     75  C   UNL A   1      34.403  33.066  30.543  1.00  0.00     0.040 A 
ATOM     76  F   UNL A   1      35.565  31.545  31.902  1.00  0.00    -0.206 F 
ATOM     77  C   UNL A   1      34.384  33.973  29.485  1.00  0.00     0.006 A 
ENDBRANCH  49  70
BRANCH  61  78
ATOM     78  C   UNL A   1      42.045  33.869  34.543  1.00  0.00     0.057 A 
ATOM     79  C   UNL A   1      42.664  35.036  34.085  1.00  0.00     0.134 A 
ATOM     80  C   UNL A   1      41.655  33.819  35.887  1.00  0.00     0.134 A 
ATOM     81  F   UNL A   1      43.071  35.136  32.810  1.00  0.00    -0.206 F 
ATOM     82  C   UNL A   1      42.904  36.113  34.939  1.00  0.00     0.040 A 
ATOM     83  C   UNL A   1      41.866  34.898  36.744  1.00  0.00     0.040 A 
ATOM     84  F   UNL A   1      41.049  32.730  36.381  1.00  0.00    -0.206 F 
ATOM     85  C   UNL A   1      42.496  36.048  36.271  1.00  0.00     0.006 A 
ENDBRANCH  61  78
ENDBRANCH  35  36
ENDBRANCH  27  30
ENDBRANCH  25  26
ENDBRANCH   1  25
TORSDOF 12
ENDMDL
MODEL 3
REMARK VINA RESULT:     -11.1      4.059      9.208
REMARK SMILES C[C@@H](NC(=O)[C@@H]1CC[C@@H]2CCCC[C@@H]2[NH2+]1)C(=O)NCCCNC(=O)c1ccc(-c2c3nc(c(-c4c(F)cccc4F)c4ccc([nH]4)c(-c4c(F)cccc4F)c4nc(c(-c5c(F)cccc5F)c5ccc2[nH]5)C=C4)C=C3)cc1
REMARK SMILES IDX 20 1 19 2 18 3 16 4 17 5 2 7 1 8 3 9 4 10 5 12 6 13 7 14
REMARK SMILES IDX 15 15 8 16 14 17 9 20 13 21 10 22 12 23 11 24 21 25 22 26
REMARK SMILES IDX 23 27 24 29 25 30 26 31 78 32 27 33 77 34 28 35 29 36 30 37
REMARK SMILES IDX 71 38 31 39 76 40 70 41 72 42 32 43 75 44 69 45 68 46 33 48
REMARK SMILES IDX 59 49 42 50 58 51 43 52 46 53 57 54 73 55 44 56 45 57 56 59
REMARK SMILES IDX 74 60 47 61 34 62 35 63 40 64 36 65 37 66 39 67 41 68 38 69
REMARK SMILES IDX 60 70 61 71 66 72 62 73 63 74 65 75 67 76 64 77 48 78 49 79
REMARK SMILES IDX 54 80 50 81 51 82 53 83 55 84 52 85
REMARK H PARENT 18 6 3 11 15 18 15 19 22 28 72 47 46 58
REMARK Flexibility Score: inf
ROOT
ATOM      1  C   UNL A   1      37.114  20.353  24.986  1.00  0.00     0.042 C 
ENDROOT
BRANCH   1   2
ATOM      2  C   UNL A   1      35.883  21.286  25.117  1.00  0.00     0.117 C 
BRANCH   2   3
ATOM      3  N   UNL A   1      35.308  21.406  26.440  1.00  0.00    -0.354 N 
ATOM      4  C   UNL A   1      34.144  21.962  26.880  1.00  0.00     0.242 C 
ATOM      5  O   UNL A   1      33.967  21.946  28.105  1.00  0.00    -0.273 OA
ATOM      6  H   UNL A   1      35.860  21.014  27.154  1.00  0.00     0.163 HD
BRANCH   4   7
ATOM      7  C   UNL A   1      33.116  22.677  25.968  1.00  0.00     0.168 C 
ATOM      8  C   UNL A   1      32.104  21.625  25.494  1.00  0.00     0.041 C 
BRANCH   7   9
ATOM      9  N   UNL A   1      32.389  23.890  26.391  1.00  0.00    -0.339 N 
ATOM     10  C   UNL A   1      31.146  24.279  25.950  1.00  0.00     0.278 C 
ATOM     11  H   UNL A   1      32.835  24.473  27.047  1.00  0.00     0.164 HD
ATOM     12  O   UNL A   1      30.219  24.193  26.766  1.00  0.00    -0.268 OA
BRANCH  10  13
ATOM     13  C   UNL A   1      30.925  25.011  24.592  1.00  0.00     0.272 C 
ATOM     14  C   UNL A   1      32.133  25.138  23.694  1.00  0.00     0.076 C 
ATOM     15  N   UNL A   1      30.339  26.372  24.816  1.00  0.00    -0.333 N 
ATOM     16  C   UNL A   1      33.127  26.059  24.367  1.00  0.00     0.016 C 
ATOM     17  C   UNL A   1      31.269  27.454  25.230  1.00  0.00     0.186 C 
ATOM     18  H   UNL A   1      29.629  26.284  25.544  1.00  0.00     0.347 HD
ATOM     19  H   UNL A   1      29.989  26.662  23.903  1.00  0.00     0.347 HD
ATOM     20  C   UNL A   1      32.576  27.468  24.419  1.00  0.00     0.048 C 
ATOM     21  C   UNL A   1      31.476  27.469  26.758  1.00  0.00     0.065 C 
ATOM     22  C   UNL A   1      33.627  28.434  24.981  1.00  0.00     0.010 C 
ATOM     23  C   UNL A   1      32.634  28.326  27.271  1.00  0.00     0.006 C 
ATOM     24  C   UNL A   1      33.910  28.191  26.456  1.00  0.00     0.001 C 
ENDBRANCH  10  13
ENDBRANCH   7   9
ENDBRANCH   4   7
ENDBRANCH   2   3
ENDBRANCH   1   2
BRANCH   1  25
ATOM     25  C   UNL A   1      38.491  20.820  25.498  1.00  0.00     0.118 C 
BRANCH  25  26
ATOM     26  N   UNL A   1      39.501  19.768  25.678  1.00  0.00    -0.352 N 
ATOM     27  C   UNL A   1      40.847  19.822  25.952  1.00  0.00     0.251 C 
ATOM     28  H   UNL A   1      39.147  18.855  25.586  1.00  0.00     0.163 HD
ATOM     29  O   UNL A   1      41.564  18.846  25.794  1.00  0.00    -0.269 OA
BRANCH  27  30
ATOM     30  C   UNL A   1      41.408  21.063  26.498  1.00  0.00     0.039 A 
ATOM     31  C   UNL A   1      41.876  22.074  25.655  1.00  0.00     0.014 A 
ATOM     32  C   UNL A   1      41.500  21.184  27.882  1.00  0.00     0.014 A 
ATOM     33  C   UNL A   1      42.354  23.257  26.217  1.00  0.00     0.010 A 
ATOM     34  C   UNL A   1      41.859  22.394  28.434  1.00  0.00     0.010 A 
ATOM     35  C   UNL A   1      42.303  23.437  27.608  1.00  0.00    -0.014 A 
BRANCH  35  36
ATOM     36  C   UNL A   1      42.723  24.682  28.280  1.00  0.00     0.031 A 
ATOM     37  C   UNL A   1      41.690  25.744  28.541  1.00  0.00     0.074 A 
ATOM     38  C   UNL A   1      44.033  24.918  28.471  1.00  0.00     0.049 A 
ATOM     39  N   UNL A   1      41.855  27.002  28.849  1.00  0.00    -0.248 NA
ATOM     40  C   UNL A   1      40.283  25.346  28.357  1.00  0.00     0.031 C 
ATOM     41  C   UNL A   1      45.118  23.975  28.183  1.00  0.00     0.029 A 
ATOM     42  N   UNL A   1      44.678  26.040  28.918  1.00  0.00    -0.354 N 
ATOM     43  C   UNL A   1      40.580  27.555  28.844  1.00  0.00     0.074 A 
ATOM     44  C   UNL A   1      39.662  26.512  28.448  1.00  0.00     0.031 C 
ATOM     45  C   UNL A   1      46.293  24.555  28.474  1.00  0.00     0.029 A 
ATOM     46  C   UNL A   1      46.046  25.920  28.923  1.00  0.00     0.049 A 
ATOM     47  H   UNL A   1      44.206  26.853  29.209  1.00  0.00     0.167 HD
ATOM     48  C   UNL A   1      40.213  28.817  29.163  1.00  0.00     0.037 A 
ATOM     49  C   UNL A   1      46.990  26.824  29.242  1.00  0.00     0.037 A 
ATOM     50  C   UNL A   1      41.142  29.819  29.612  1.00  0.00     0.049 A 
ATOM     51  C   UNL A   1      46.552  28.198  29.663  1.00  0.00     0.074 A 
ATOM     52  C   UNL A   1      40.885  31.106  30.046  1.00  0.00     0.029 A 
ATOM     53  N   UNL A   1      42.514  29.630  29.697  1.00  0.00    -0.354 N 
ATOM     54  N   UNL A   1      45.340  28.699  29.710  1.00  0.00    -0.248 NA
ATOM     55  C   UNL A   1      47.607  29.129  30.082  1.00  0.00     0.031 C 
ATOM     56  C   UNL A   1      42.107  31.705  30.372  1.00  0.00     0.029 A 
ATOM     57  C   UNL A   1      43.119  30.778  30.177  1.00  0.00     0.049 A 
ATOM     58  H   UNL A   1      42.988  28.802  29.452  1.00  0.00     0.167 HD
ATOM     59  C   UNL A   1      45.482  29.993  30.190  1.00  0.00     0.074 A 
ATOM     60  C   UNL A   1      46.898  30.194  30.429  1.00  0.00     0.031 C 
ATOM     61  C   UNL A   1      44.532  30.933  30.416  1.00  0.00     0.037 A 
BRANCH  48  62
ATOM     62  C   UNL A   1      38.756  29.166  29.054  1.00  0.00     0.057 A 
ATOM     63  C   UNL A   1      37.893  29.092  30.155  1.00  0.00     0.134 A 
ATOM     64  C   UNL A   1      38.208  29.585  27.835  1.00  0.00     0.134 A 
ATOM     65  F   UNL A   1      38.349  28.683  31.350  1.00  0.00    -0.206 F 
ATOM     66  C   UNL A   1      36.533  29.386  30.041  1.00  0.00     0.040 A 
ATOM     67  C   UNL A   1      36.856  29.912  27.715  1.00  0.00     0.040 A 
ATOM     68  F   UNL A   1      38.977  29.682  26.740  1.00  0.00    -0.206 F 
ATOM     69  C   UNL A   1      36.013  29.803  28.819  1.00  0.00     0.006 A 
ENDBRANCH  48  62
BRANCH  49  70
ATOM     70  C   UNL A   1      48.423  26.438  29.224  1.00  0.00     0.057 A 
ATOM     71  C   UNL A   1      49.221  26.717  28.110  1.00  0.00     0.134 A 
ATOM     72  C   UNL A   1      49.034  25.813  30.316  1.00  0.00     0.134 A 
ATOM     73  F   UNL A   1      48.688  27.308  27.029  1.00  0.00    -0.206 F 
ATOM     74  C   UNL A   1      50.572  26.373  28.072  1.00  0.00     0.040 A 
ATOM     75  C   UNL A   1      50.392  25.483  30.301  1.00  0.00     0.040 A 
ATOM     76  F   UNL A   1      48.329  25.534  31.422  1.00  0.00    -0.206 F 
ATOM     77  C   UNL A   1      51.163  25.757  29.173  1.00  0.00     0.006 A 
ENDBRANCH  49  70
BRANCH  61  78
ATOM     78  C   UNL A   1      44.992  32.240  30.985  1.00  0.00     0.057 A 
ATOM     79  C   UNL A   1      45.339  33.318  30.166  1.00  0.00     0.134 A 
ATOM     80  C   UNL A   1      45.035  32.431  32.372  1.00  0.00     0.134 A 
ATOM     81  F   UNL A   1      45.330  33.190  28.830  1.00  0.00    -0.206 F 
ATOM     82  C   UNL A   1      45.732  34.543  30.706  1.00  0.00     0.040 A 
ATOM     83  C   UNL A   1      45.401  33.658  32.924  1.00  0.00     0.040 A 
ATOM     84  F   UNL A   1      44.704  31.436  33.208  1.00  0.00    -0.206 F 
ATOM     85  C   UNL A   1      45.755  34.717  32.090  1.00  0.00     0.006 A 
ENDBRANCH  61  78
ENDBRANCH  35  36
ENDBRANCH  27  30
ENDBRANCH  25  26
ENDBRANCH   1  25
TORSDOF 12
ENDMDL
