MODEL 1
REMARK VINA RESULT:     -12.3      0.000      0.000
REMARK SMILES Cc1ccc(OCC(=O)NC(=S)Nc2ccc(C(=O)NCCCNC(=O)c3ccc(-c4c5nc(c(-c6c(F)cccc6F)c6ccc([nH]6)c(-c6c(F)cccc6F)c6nc(c(-c7c(F)cccc7F)c7ccc4[nH]7)C=C6)C=C5)cc3)cc2)cc1
REMARK SMILES IDX 18 1 19 2 20 3 17 5 14 6 15 7 82 8 16 9 81 10 13 11 11 13
REMARK SMILES IDX 12 14 10 15 8 16 9 17 7 19 6 20 5 21 1 22 2 23 3 24 84 25
REMARK SMILES IDX 4 26 83 27 21 28 22 29 23 30 24 31 25 32 26 34 27 35 28 36
REMARK SMILES IDX 80 37 29 38 79 39 30 40 31 41 32 42 73 43 33 44 78 45 72 46
REMARK SMILES IDX 74 47 34 48 77 49 71 50 70 51 35 53 61 54 44 55 60 56 45 57
REMARK SMILES IDX 48 58 59 59 75 60 46 61 47 62 58 64 76 65 49 66 36 67 37 68
REMARK SMILES IDX 42 69 38 70 39 71 41 72 43 73 40 74 62 75 63 76 68 77 64 78
REMARK SMILES IDX 65 79 67 80 69 81 66 82 50 83 51 84 56 85 52 86 53 87 55 88
REMARK SMILES IDX 57 89 54 90
REMARK H PARENT 20 4 13 12 10 18 24 33 74 52 48 63
REMARK Flexibility Score: inf
ROOT
ATOM      1  C   UNL A   1      32.162  27.685  25.377  1.00  0.00     0.251 C 
ATOM      2  O   UNL A   1      31.076  27.777  24.817  1.00  0.00    -0.269 OA
ATOM      3  N   UNL A   1      32.803  28.804  25.862  1.00  0.00    -0.352 N 
ATOM      4  H   UNL A   1      32.389  29.665  25.626  1.00  0.00     0.163 HD
ENDROOT
BRANCH   1   5
ATOM      5  C   UNL A   1      32.768  26.353  25.576  1.00  0.00     0.039 A 
ATOM      6  C   UNL A   1      34.014  23.959  26.231  1.00  0.00     0.040 A 
ATOM      7  C   UNL A   1      34.630  24.841  25.341  1.00  0.00     0.027 A 
ATOM      8  C   UNL A   1      32.713  24.202  26.679  1.00  0.00     0.027 A 
ATOM      9  C   UNL A   1      34.024  26.059  25.042  1.00  0.00     0.016 A 
ATOM     10  C   UNL A   1      32.075  25.395  26.323  1.00  0.00     0.016 A 
BRANCH   6  11
ATOM     11  N   UNL A   1      34.758  22.851  26.641  1.00  0.00    -0.332 N 
ATOM     12  H   UNL A   1      35.209  22.951  27.510  1.00  0.00     0.169 HD
BRANCH  11  13
ATOM     13  C   UNL A   1      34.952  21.665  26.031  1.00  0.00     0.177 C 
ATOM     14  S   UNL A   1      36.365  21.438  25.160  1.00  0.00    -0.040 S 
BRANCH  13  15
ATOM     15  N   UNL A   1      34.092  20.602  26.136  1.00  0.00    -0.300 N 
ATOM     16  C   UNL A   1      33.124  19.923  25.407  1.00  0.00     0.264 C 
ATOM     17  O   UNL A   1      32.679  18.876  25.894  1.00  0.00    -0.271 OA
ATOM     18  H   UNL A   1      34.194  20.180  27.020  1.00  0.00     0.172 HD
BRANCH  16  19
ATOM     19  C   UNL A   1      32.580  20.432  24.080  1.00  0.00     0.329 C 
BRANCH  19  20
ATOM     20  O   UNL A   1      31.636  21.473  24.261  1.00  0.00    -0.484 OA
BRANCH  20  21
ATOM     21  C   UNL A   1      31.775  22.617  23.526  1.00  0.00     0.120 A 
ATOM     22  C   UNL A   1      32.752  26.160  21.252  1.00  0.00     0.044 C 
ATOM     23  C   UNL A   1      32.397  24.927  22.030  1.00  0.00    -0.051 A 
ATOM     24  C   UNL A   1      33.285  23.849  22.072  1.00  0.00     0.007 A 
ATOM     25  C   UNL A   1      31.201  24.844  22.751  1.00  0.00     0.007 A 
ATOM     26  C   UNL A   1      32.977  22.711  22.820  1.00  0.00     0.047 A 
ATOM     27  C   UNL A   1      30.889  23.693  23.492  1.00  0.00     0.047 A 
ENDBRANCH  20  21
ENDBRANCH  19  20
ENDBRANCH  16  19
ENDBRANCH  13  15
ENDBRANCH  11  13
ENDBRANCH   6  11
ENDBRANCH   1   5
BRANCH   3  28
ATOM     28  C   UNL A   1      34.010  28.890  26.675  1.00  0.00     0.118 C 
BRANCH  28  29
ATOM     29  C   UNL A   1      34.367  30.328  27.027  1.00  0.00     0.042 C 
BRANCH  29  30
ATOM     30  C   UNL A   1      34.406  30.608  28.523  1.00  0.00     0.118 C 
BRANCH  30  31
ATOM     31  N   UNL A   1      35.444  31.553  28.938  1.00  0.00    -0.352 N 
ATOM     32  C   UNL A   1      36.805  31.322  29.120  1.00  0.00     0.251 C 
ATOM     33  H   UNL A   1      35.140  32.474  29.111  1.00  0.00     0.163 HD
ATOM     34  O   UNL A   1      37.565  32.225  29.400  1.00  0.00    -0.269 OA
BRANCH  32  35
ATOM     35  C   UNL A   1      37.314  29.958  28.836  1.00  0.00     0.039 A 
ATOM     36  C   UNL A   1      37.505  29.096  29.919  1.00  0.00     0.014 A 
ATOM     37  C   UNL A   1      37.876  29.679  27.596  1.00  0.00     0.014 A 
ATOM     38  C   UNL A   1      38.498  28.125  29.834  1.00  0.00     0.010 A 
ATOM     39  C   UNL A   1      38.935  28.796  27.546  1.00  0.00     0.010 A 
ATOM     40  C   UNL A   1      39.298  28.080  28.692  1.00  0.00    -0.014 A 
BRANCH  40  41
ATOM     41  C   UNL A   1      40.603  27.426  28.664  1.00  0.00     0.031 A 
ATOM     42  C   UNL A   1      40.715  25.984  28.377  1.00  0.00     0.074 A 
ATOM     43  C   UNL A   1      41.726  28.161  28.834  1.00  0.00     0.049 A 
ATOM     44  N   UNL A   1      41.725  25.255  28.715  1.00  0.00    -0.248 NA
ATOM     45  C   UNL A   1      39.663  25.235  27.704  1.00  0.00     0.031 C 
ATOM     46  C   UNL A   1      43.107  27.740  28.610  1.00  0.00     0.029 A 
ATOM     47  N   UNL A   1      41.843  29.402  29.477  1.00  0.00    -0.354 N 
ATOM     48  C   UNL A   1      41.588  24.032  28.103  1.00  0.00     0.074 A 
ATOM     49  C   UNL A   1      40.264  24.056  27.521  1.00  0.00     0.031 C 
ATOM     50  C   UNL A   1      43.916  28.507  29.358  1.00  0.00     0.029 A 
ATOM     51  C   UNL A   1      43.072  29.354  30.179  1.00  0.00     0.049 A 
ATOM     52  H   UNL A   1      41.204  30.150  29.446  1.00  0.00     0.167 HD
ATOM     53  C   UNL A   1      42.652  23.178  28.071  1.00  0.00     0.037 A 
ATOM     54  C   UNL A   1      43.095  29.413  31.542  1.00  0.00     0.037 A 
ATOM     55  C   UNL A   1      43.793  23.709  28.817  1.00  0.00     0.049 A 
ATOM     56  C   UNL A   1      43.640  28.173  32.220  1.00  0.00     0.074 A 
ATOM     57  C   UNL A   1      44.965  24.363  28.472  1.00  0.00     0.029 A 
ATOM     58  N   UNL A   1      43.674  23.848  30.187  1.00  0.00    -0.354 N 
ATOM     59  N   UNL A   1      44.059  27.108  31.593  1.00  0.00    -0.248 NA
ATOM     60  C   UNL A   1      43.660  28.003  33.674  1.00  0.00     0.031 C 
ATOM     61  C   UNL A   1      45.543  24.902  29.659  1.00  0.00     0.029 A 
ATOM     62  C   UNL A   1      44.723  24.570  30.722  1.00  0.00     0.049 A 
ATOM     63  H   UNL A   1      42.932  23.479  30.718  1.00  0.00     0.167 HD
ATOM     64  C   UNL A   1      44.335  26.123  32.505  1.00  0.00     0.074 A 
ATOM     65  C   UNL A   1      44.078  26.733  33.795  1.00  0.00     0.031 C 
ATOM     66  C   UNL A   1      44.709  24.860  32.145  1.00  0.00     0.037 A 
BRANCH  53  67
ATOM     67  C   UNL A   1      42.730  21.961  27.179  1.00  0.00     0.057 A 
ATOM     68  C   UNL A   1      41.906  20.841  27.410  1.00  0.00     0.134 A 
ATOM     69  C   UNL A   1      43.618  21.807  26.101  1.00  0.00     0.134 A 
ATOM     70  F   UNL A   1      40.925  20.865  28.321  1.00  0.00    -0.206 F 
ATOM     71  C   UNL A   1      42.048  19.633  26.716  1.00  0.00     0.040 A 
ATOM     72  C   UNL A   1      43.814  20.586  25.438  1.00  0.00     0.040 A 
ATOM     73  F   UNL A   1      44.291  22.847  25.592  1.00  0.00    -0.206 F 
ATOM     74  C   UNL A   1      43.036  19.485  25.757  1.00  0.00     0.006 A 
ENDBRANCH  53  67
BRANCH  54  75
ATOM     75  C   UNL A   1      42.036  30.302  32.089  1.00  0.00     0.057 A 
ATOM     76  C   UNL A   1      42.223  31.695  32.010  1.00  0.00     0.134 A 
ATOM     77  C   UNL A   1      40.736  29.847  32.319  1.00  0.00     0.134 A 
ATOM     78  F   UNL A   1      43.449  32.200  31.793  1.00  0.00    -0.206 F 
ATOM     79  C   UNL A   1      41.149  32.587  32.028  1.00  0.00     0.040 A 
ATOM     80  C   UNL A   1      39.655  30.734  32.358  1.00  0.00     0.040 A 
ATOM     81  F   UNL A   1      40.474  28.535  32.387  1.00  0.00    -0.206 F 
ATOM     82  C   UNL A   1      39.854  32.100  32.166  1.00  0.00     0.006 A 
ENDBRANCH  54  75
BRANCH  66  83
ATOM     83  C   UNL A   1      45.066  23.788  33.136  1.00  0.00     0.057 A 
ATOM     84  C   UNL A   1      44.156  22.798  33.533  1.00  0.00     0.134 A 
ATOM     85  C   UNL A   1      46.299  23.787  33.817  1.00  0.00     0.134 A 
ATOM     86  F   UNL A   1      42.922  22.744  33.009  1.00  0.00    -0.206 F 
ATOM     87  C   UNL A   1      44.472  21.836  34.501  1.00  0.00     0.040 A 
ATOM     88  C   UNL A   1      46.608  22.864  34.819  1.00  0.00     0.040 A 
ATOM     89  F   UNL A   1      47.267  24.668  33.525  1.00  0.00    -0.206 F 
ATOM     90  C   UNL A   1      45.698  21.873  35.155  1.00  0.00     0.006 A 
ENDBRANCH  66  83
ENDBRANCH  40  41
ENDBRANCH  32  35
ENDBRANCH  30  31
ENDBRANCH  29  30
ENDBRANCH  28  29
ENDBRANCH   3  28
TORSDOF 16
ENDMDL
MODEL 2
REMARK VINA RESULT:     -12.3      3.716      9.190
REMARK SMILES Cc1ccc(OCC(=O)NC(=S)Nc2ccc(C(=O)NCCCNC(=O)c3ccc(-c4c5nc(c(-c6c(F)cccc6F)c6ccc([nH]6)c(-c6c(F)cccc6F)c6nc(c(-c7c(F)cccc7F)c7ccc4[nH]7)C=C6)C=C5)cc3)cc2)cc1
REMARK SMILES IDX 18 1 19 2 20 3 17 5 14 6 15 7 82 8 16 9 81 10 13 11 11 13
REMARK SMILES IDX 12 14 10 15 8 16 9 17 7 19 6 20 5 21 1 22 2 23 3 24 84 25
REMARK SMILES IDX 4 26 83 27 21 28 22 29 23 30 24 31 25 32 26 34 27 35 28 36
REMARK SMILES IDX 80 37 29 38 79 39 30 40 31 41 32 42 73 43 33 44 78 45 72 46
REMARK SMILES IDX 74 47 34 48 77 49 71 50 70 51 35 53 61 54 44 55 60 56 45 57
REMARK SMILES IDX 48 58 59 59 75 60 46 61 47 62 58 64 76 65 49 66 36 67 37 68
REMARK SMILES IDX 42 69 38 70 39 71 41 72 43 73 40 74 62 75 63 76 68 77 64 78
REMARK SMILES IDX 65 79 67 80 69 81 66 82 50 83 51 84 56 85 52 86 53 87 55 88
REMARK SMILES IDX 57 89 54 90
REMARK H PARENT 20 4 13 12 10 18 24 33 74 52 48 63
REMARK Flexibility Score: inf
ROOT
ATOM      1  C   UNL A   1      34.821  22.918  24.526  1.00  0.00     0.251 C 
ATOM      2  O   UNL A   1      34.157  22.027  24.010  1.00  0.00    -0.269 OA
ATOM      3  N   UNL A   1      36.040  22.643  25.108  1.00  0.00    -0.352 N 
ATOM      4  H   UNL A   1      36.270  21.688  25.177  1.00  0.00     0.163 HD
ENDROOT
BRANCH   1   5
ATOM      5  C   UNL A   1      34.333  24.310  24.480  1.00  0.00     0.039 A 
ATOM      6  C   UNL A   1      33.717  27.016  24.348  1.00  0.00     0.040 A 
ATOM      7  C   UNL A   1      33.803  26.383  25.590  1.00  0.00     0.027 A 
ATOM      8  C   UNL A   1      33.792  26.269  23.169  1.00  0.00     0.027 A 
ATOM      9  C   UNL A   1      34.149  25.036  25.659  1.00  0.00     0.016 A 
ATOM     10  C   UNL A   1      34.072  24.900  23.239  1.00  0.00     0.016 A 
BRANCH   6  11
ATOM     11  N   UNL A   1      33.561  28.403  24.354  1.00  0.00    -0.332 N 
ATOM     12  H   UNL A   1      34.399  28.916  24.306  1.00  0.00     0.169 HD
BRANCH  11  13
ATOM     13  C   UNL A   1      32.439  29.148  24.413  1.00  0.00     0.177 C 
ATOM     14  S   UNL A   1      31.955  29.745  25.901  1.00  0.00    -0.040 S 
BRANCH  13  15
ATOM     15  N   UNL A   1      31.702  29.507  23.313  1.00  0.00    -0.300 N 
ATOM     16  C   UNL A   1      30.735  29.002  22.453  1.00  0.00     0.264 C 
ATOM     17  O   UNL A   1      30.244  29.787  21.631  1.00  0.00    -0.271 OA
ATOM     18  H   UNL A   1      31.935  30.425  23.045  1.00  0.00     0.172 HD
BRANCH  16  19
ATOM     19  C   UNL A   1      30.298  27.545  22.462  1.00  0.00     0.329 C 
BRANCH  19  20
ATOM     20  O   UNL A   1      29.689  27.183  23.689  1.00  0.00    -0.484 OA
BRANCH  20  21
ATOM     21  C   UNL A   1      30.103  26.040  24.313  1.00  0.00     0.120 A 
ATOM     22  C   UNL A   1      31.204  22.155  25.856  1.00  0.00     0.044 C 
ATOM     23  C   UNL A   1      30.837  23.512  25.328  1.00  0.00    -0.051 A 
ATOM     24  C   UNL A   1      30.723  23.717  23.950  1.00  0.00     0.007 A 
ATOM     25  C   UNL A   1      30.570  24.578  26.193  1.00  0.00     0.007 A 
ATOM     26  C   UNL A   1      30.351  24.967  23.453  1.00  0.00     0.047 A 
ATOM     27  C   UNL A   1      30.208  25.837  25.689  1.00  0.00     0.047 A 
ENDBRANCH  20  21
ENDBRANCH  19  20
ENDBRANCH  16  19
ENDBRANCH  13  15
ENDBRANCH  11  13
ENDBRANCH   6  11
ENDBRANCH   1   5
BRANCH   3  28
ATOM     28  C   UNL A   1      37.035  23.568  25.636  1.00  0.00     0.118 C 
BRANCH  28  29
ATOM     29  C   UNL A   1      38.459  23.095  25.374  1.00  0.00     0.042 C 
BRANCH  29  30
ATOM     30  C   UNL A   1      39.235  22.743  26.635  1.00  0.00     0.118 C 
BRANCH  30  31
ATOM     31  N   UNL A   1      40.666  23.048  26.574  1.00  0.00    -0.352 N 
ATOM     32  C   UNL A   1      41.294  24.285  26.681  1.00  0.00     0.251 C 
ATOM     33  H   UNL A   1      41.263  22.276  26.439  1.00  0.00     0.163 HD
ATOM     34  O   UNL A   1      42.503  24.380  26.683  1.00  0.00    -0.269 OA
BRANCH  32  35
ATOM     35  C   UNL A   1      40.437  25.472  26.921  1.00  0.00     0.039 A 
ATOM     36  C   UNL A   1      40.748  26.650  26.235  1.00  0.00     0.014 A 
ATOM     37  C   UNL A   1      39.579  25.490  28.015  1.00  0.00     0.014 A 
ATOM     38  C   UNL A   1      40.441  27.870  26.829  1.00  0.00     0.010 A 
ATOM     39  C   UNL A   1      39.373  26.693  28.659  1.00  0.00     0.010 A 
ATOM     40  C   UNL A   1      39.879  27.874  28.106  1.00  0.00    -0.014 A 
BRANCH  40  41
ATOM     41  C   UNL A   1      39.914  29.041  28.983  1.00  0.00     0.031 A 
ATOM     42  C   UNL A   1      38.855  30.064  28.916  1.00  0.00     0.074 A 
ATOM     43  C   UNL A   1      40.889  29.151  29.914  1.00  0.00     0.049 A 
ATOM     44  N   UNL A   1      38.993  31.277  29.331  1.00  0.00    -0.248 NA
ATOM     45  C   UNL A   1      37.546  29.799  28.336  1.00  0.00     0.031 C 
ATOM     46  C   UNL A   1      40.960  30.104  31.019  1.00  0.00     0.029 A 
ATOM     47  N   UNL A   1      42.153  28.543  29.901  1.00  0.00    -0.354 N 
ATOM     48  C   UNL A   1      37.756  31.875  29.314  1.00  0.00     0.074 A 
ATOM     49  C   UNL A   1      36.896  30.925  28.643  1.00  0.00     0.031 C 
ATOM     50  C   UNL A   1      42.246  30.258  31.371  1.00  0.00     0.029 A 
ATOM     51  C   UNL A   1      43.048  29.509  30.422  1.00  0.00     0.049 A 
ATOM     52  H   UNL A   1      42.371  27.633  29.594  1.00  0.00     0.167 HD
ATOM     53  C   UNL A   1      37.577  33.062  29.963  1.00  0.00     0.037 A 
ATOM     54  C   UNL A   1      44.042  30.024  29.643  1.00  0.00     0.037 A 
ATOM     55  C   UNL A   1      38.833  33.566  30.520  1.00  0.00     0.049 A 
ATOM     56  C   UNL A   1      43.933  31.512  29.382  1.00  0.00     0.074 A 
ATOM     57  C   UNL A   1      39.417  33.556  31.777  1.00  0.00     0.029 A 
ATOM     58  N   UNL A   1      39.832  33.951  29.645  1.00  0.00    -0.354 N 
ATOM     59  N   UNL A   1      42.980  32.279  29.839  1.00  0.00    -0.248 NA
ATOM     60  C   UNL A   1      44.847  32.236  28.495  1.00  0.00     0.031 C 
ATOM     61  C   UNL A   1      40.784  33.935  31.639  1.00  0.00     0.029 A 
ATOM     62  C   UNL A   1      41.026  34.179  30.299  1.00  0.00     0.049 A 
ATOM     63  H   UNL A   1      39.708  34.049  28.674  1.00  0.00     0.167 HD
ATOM     64  C   UNL A   1      43.099  33.529  29.289  1.00  0.00     0.074 A 
ATOM     65  C   UNL A   1      44.287  33.455  28.460  1.00  0.00     0.031 C 
ATOM     66  C   UNL A   1      42.194  34.526  29.508  1.00  0.00     0.037 A 
BRANCH  53  67
ATOM     67  C   UNL A   1      36.224  33.656  30.280  1.00  0.00     0.057 A 
ATOM     68  C   UNL A   1      35.387  34.135  29.253  1.00  0.00     0.134 A 
ATOM     69  C   UNL A   1      35.700  33.823  31.573  1.00  0.00     0.134 A 
ATOM     70  F   UNL A   1      35.680  33.948  27.960  1.00  0.00    -0.206 F 
ATOM     71  C   UNL A   1      34.199  34.834  29.501  1.00  0.00     0.040 A 
ATOM     72  C   UNL A   1      34.546  34.574  31.841  1.00  0.00     0.040 A 
ATOM     73  F   UNL A   1      36.243  33.212  32.635  1.00  0.00    -0.206 F 
ATOM     74  C   UNL A   1      33.796  35.098  30.800  1.00  0.00     0.006 A 
ENDBRANCH  53  67
BRANCH  54  75
ATOM     75  C   UNL A   1      44.602  29.020  28.700  1.00  0.00     0.057 A 
ATOM     76  C   UNL A   1      45.478  28.042  29.205  1.00  0.00     0.134 A 
ATOM     77  C   UNL A   1      44.020  28.772  27.455  1.00  0.00     0.134 A 
ATOM     78  F   UNL A   1      46.075  28.220  30.396  1.00  0.00    -0.206 F 
ATOM     79  C   UNL A   1      45.665  26.816  28.564  1.00  0.00     0.040 A 
ATOM     80  C   UNL A   1      44.216  27.554  26.795  1.00  0.00     0.040 A 
ATOM     81  F   UNL A   1      43.159  29.646  26.916  1.00  0.00    -0.206 F 
ATOM     82  C   UNL A   1      45.001  26.556  27.371  1.00  0.00     0.006 A 
ENDBRANCH  54  75
BRANCH  66  83
ATOM     83  C   UNL A   1      42.341  35.915  28.953  1.00  0.00     0.057 A 
ATOM     84  C   UNL A   1      41.769  36.303  27.733  1.00  0.00     0.134 A 
ATOM     85  C   UNL A   1      43.167  36.877  29.569  1.00  0.00     0.134 A 
ATOM     86  F   UNL A   1      41.025  35.447  27.017  1.00  0.00    -0.206 F 
ATOM     87  C   UNL A   1      41.959  37.580  27.190  1.00  0.00     0.040 A 
ATOM     88  C   UNL A   1      43.403  38.136  29.013  1.00  0.00     0.040 A 
ATOM     89  F   UNL A   1      43.763  36.644  30.747  1.00  0.00    -0.206 F 
ATOM     90  C   UNL A   1      42.786  38.499  27.826  1.00  0.00     0.006 A 
ENDBRANCH  66  83
ENDBRANCH  40  41
ENDBRANCH  32  35
ENDBRANCH  30  31
ENDBRANCH  29  30
ENDBRANCH  28  29
ENDBRANCH   3  28
TORSDOF 16
ENDMDL
MODEL 3
REMARK VINA RESULT:     -11.6      2.226      3.634
REMARK SMILES Cc1ccc(OCC(=O)NC(=S)Nc2ccc(C(=O)NCCCNC(=O)c3ccc(-c4c5nc(c(-c6c(F)cccc6F)c6ccc([nH]6)c(-c6c(F)cccc6F)c6nc(c(-c7c(F)cccc7F)c7ccc4[nH]7)C=C6)C=C5)cc3)cc2)cc1
REMARK SMILES IDX 18 1 19 2 20 3 17 5 14 6 15 7 82 8 16 9 81 10 13 11 11 13
REMARK SMILES IDX 12 14 10 15 8 16 9 17 7 19 6 20 5 21 1 22 2 23 3 24 84 25
REMARK SMILES IDX 4 26 83 27 21 28 22 29 23 30 24 31 25 32 26 34 27 35 28 36
REMARK SMILES IDX 80 37 29 38 79 39 30 40 31 41 32 42 73 43 33 44 78 45 72 46
REMARK SMILES IDX 74 47 34 48 77 49 71 50 70 51 35 53 61 54 44 55 60 56 45 57
REMARK SMILES IDX 48 58 59 59 75 60 46 61 47 62 58 64 76 65 49 66 36 67 37 68
REMARK SMILES IDX 42 69 38 70 39 71 41 72 43 73 40 74 62 75 63 76 68 77 64 78
REMARK SMILES IDX 65 79 67 80 69 81 66 82 50 83 51 84 56 85 52 86 53 87 55 88
REMARK SMILES IDX 57 89 54 90
REMARK H PARENT 20 4 13 12 10 18 24 33 74 52 48 63
REMARK Flexibility Score: inf
ROOT
ATOM      1  C   UNL A   1      31.995  27.482  25.696  1.00  0.00     0.251 C 
ATOM      2  O   UNL A   1      31.013  27.594  24.970  1.00  0.00    -0.269 OA
ATOM      3  N   UNL A   1      32.437  28.545  26.453  1.00  0.00    -0.352 N 
ATOM      4  H   UNL A   1      31.989  29.404  26.280  1.00  0.00     0.163 HD
ENDROOT
BRANCH   1   5
ATOM      5  C   UNL A   1      32.681  26.179  25.797  1.00  0.00     0.039 A 
ATOM      6  C   UNL A   1      34.081  23.827  26.270  1.00  0.00     0.040 A 
ATOM      7  C   UNL A   1      34.618  24.795  25.419  1.00  0.00     0.027 A 
ATOM      8  C   UNL A   1      32.783  23.967  26.768  1.00  0.00     0.027 A 
ATOM      9  C   UNL A   1      33.934  25.991  25.211  1.00  0.00     0.016 A 
ATOM     10  C   UNL A   1      32.067  25.140  26.504  1.00  0.00     0.016 A 
BRANCH   6  11
ATOM     11  N   UNL A   1      34.900  22.743  26.590  1.00  0.00    -0.332 N 
ATOM     12  H   UNL A   1      35.370  22.817  27.451  1.00  0.00     0.169 HD
BRANCH  11  13
ATOM     13  C   UNL A   1      35.143  21.609  25.904  1.00  0.00     0.177 C 
ATOM     14  S   UNL A   1      36.529  21.527  24.967  1.00  0.00    -0.040 S 
BRANCH  13  15
ATOM     15  N   UNL A   1      34.358  20.487  25.978  1.00  0.00    -0.300 N 
ATOM     16  C   UNL A   1      33.157  19.979  25.498  1.00  0.00     0.264 C 
ATOM     17  O   UNL A   1      32.905  18.793  25.748  1.00  0.00    -0.271 OA
ATOM     18  H   UNL A   1      34.786  19.822  26.564  1.00  0.00     0.172 HD
BRANCH  16  19
ATOM     19  C   UNL A   1      32.151  20.822  24.728  1.00  0.00     0.329 C 
BRANCH  19  20
ATOM     20  O   UNL A   1      32.726  21.411  23.576  1.00  0.00    -0.484 OA
BRANCH  20  21
ATOM     21  C   UNL A   1      32.284  22.641  23.180  1.00  0.00     0.120 A 
ATOM     22  C   UNL A   1      31.409  26.675  21.898  1.00  0.00     0.044 C 
ATOM     23  C   UNL A   1      31.697  25.268  22.333  1.00  0.00    -0.051 A 
ATOM     24  C   UNL A   1      32.905  24.661  21.977  1.00  0.00     0.007 A 
ATOM     25  C   UNL A   1      30.792  24.555  23.126  1.00  0.00     0.007 A 
ATOM     26  C   UNL A   1      33.194  23.364  22.405  1.00  0.00     0.047 A 
ATOM     27  C   UNL A   1      31.081  23.246  23.544  1.00  0.00     0.047 A 
ENDBRANCH  20  21
ENDBRANCH  19  20
ENDBRANCH  16  19
ENDBRANCH  13  15
ENDBRANCH  11  13
ENDBRANCH   6  11
ENDBRANCH   1   5
BRANCH   3  28
ATOM     28  C   UNL A   1      33.478  28.575  27.473  1.00  0.00     0.118 C 
BRANCH  28  29
ATOM     29  C   UNL A   1      34.759  29.229  26.972  1.00  0.00     0.042 C 
BRANCH  29  30
ATOM     30  C   UNL A   1      35.258  30.366  27.852  1.00  0.00     0.118 C 
BRANCH  30  31
ATOM     31  N   UNL A   1      34.274  31.422  28.098  1.00  0.00    -0.352 N 
ATOM     32  C   UNL A   1      34.384  32.535  28.928  1.00  0.00     0.251 C 
ATOM     33  H   UNL A   1      33.422  31.335  27.612  1.00  0.00     0.163 HD
ATOM     34  O   UNL A   1      33.508  33.372  28.979  1.00  0.00    -0.269 OA
BRANCH  32  35
ATOM     35  C   UNL A   1      35.665  32.727  29.652  1.00  0.00     0.039 A 
ATOM     36  C   UNL A   1      36.668  33.463  29.018  1.00  0.00     0.014 A 
ATOM     37  C   UNL A   1      35.953  31.936  30.759  1.00  0.00     0.014 A 
ATOM     38  C   UNL A   1      37.997  33.170  29.306  1.00  0.00     0.010 A 
ATOM     39  C   UNL A   1      37.264  31.563  30.967  1.00  0.00     0.010 A 
ATOM     40  C   UNL A   1      38.279  32.119  30.181  1.00  0.00    -0.014 A 
BRANCH  40  41
ATOM     41  C   UNL A   1      39.577  31.452  30.225  1.00  0.00     0.031 A 
ATOM     42  C   UNL A   1      39.786  30.168  29.532  1.00  0.00     0.074 A 
ATOM     43  C   UNL A   1      40.618  32.051  30.848  1.00  0.00     0.049 A 
ATOM     44  N   UNL A   1      40.721  29.329  29.829  1.00  0.00    -0.248 NA
ATOM     45  C   UNL A   1      38.923  29.710  28.453  1.00  0.00     0.031 C 
ATOM     46  C   UNL A   1      42.026  31.663  30.800  1.00  0.00     0.029 A 
ATOM     47  N   UNL A   1      40.562  33.024  31.857  1.00  0.00    -0.354 N 
ATOM     48  C   UNL A   1      40.750  28.364  28.852  1.00  0.00     0.074 A 
ATOM     49  C   UNL A   1      39.580  28.622  28.041  1.00  0.00     0.031 C 
ATOM     50  C   UNL A   1      42.636  32.125  31.903  1.00  0.00     0.029 A 
ATOM     51  C   UNL A   1      41.615  32.709  32.751  1.00  0.00     0.049 A 
ATOM     52  H   UNL A   1      39.924  33.771  31.928  1.00  0.00     0.167 HD
ATOM     53  C   UNL A   1      41.819  27.519  28.778  1.00  0.00     0.037 A 
ATOM     54  C   UNL A   1      41.345  32.340  34.036  1.00  0.00     0.037 A 
ATOM     55  C   UNL A   1      42.760  27.743  29.875  1.00  0.00     0.049 A 
ATOM     56  C   UNL A   1      41.766  30.929  34.391  1.00  0.00     0.074 A 
ATOM     57  C   UNL A   1      43.961  28.423  30.008  1.00  0.00     0.029 A 
ATOM     58  N   UNL A   1      42.349  27.454  31.163  1.00  0.00    -0.354 N 
ATOM     59  N   UNL A   1      42.338  30.095  33.565  1.00  0.00    -0.248 NA
ATOM     60  C   UNL A   1      41.481  30.314  35.689  1.00  0.00     0.031 C 
ATOM     61  C   UNL A   1      44.259  28.541  31.397  1.00  0.00     0.029 A 
ATOM     62  C   UNL A   1      43.240  27.929  32.105  1.00  0.00     0.049 A 
ATOM     63  H   UNL A   1      41.522  26.969  31.383  1.00  0.00     0.167 HD
ATOM     64  C   UNL A   1      42.440  28.865  34.160  1.00  0.00     0.074 A 
ATOM     65  C   UNL A   1      41.898  29.053  35.492  1.00  0.00     0.031 C 
ATOM     66  C   UNL A   1      42.916  27.763  33.511  1.00  0.00     0.037 A 
BRANCH  53  67
ATOM     67  C   UNL A   1      42.118  26.637  27.587  1.00  0.00     0.057 A 
ATOM     68  C   UNL A   1      42.057  25.233  27.694  1.00  0.00     0.134 A 
ATOM     69  C   UNL A   1      42.510  27.100  26.320  1.00  0.00     0.134 A 
ATOM     70  F   UNL A   1      41.589  24.630  28.794  1.00  0.00    -0.206 F 
ATOM     71  C   UNL A   1      42.476  24.371  26.672  1.00  0.00     0.040 A 
ATOM     72  C   UNL A   1      42.990  26.253  25.310  1.00  0.00     0.040 A 
ATOM     73  F   UNL A   1      42.385  28.388  25.974  1.00  0.00    -0.206 F 
ATOM     74  C   UNL A   1      42.989  24.879  25.491  1.00  0.00     0.006 A 
ENDBRANCH  53  67
BRANCH  54  75
ATOM     75  C   UNL A   1      40.170  33.058  34.598  1.00  0.00     0.057 A 
ATOM     76  C   UNL A   1      38.930  32.395  34.625  1.00  0.00     0.134 A 
ATOM     77  C   UNL A   1      40.313  34.174  35.425  1.00  0.00     0.134 A 
ATOM     78  F   UNL A   1      38.724  31.316  33.851  1.00  0.00    -0.206 F 
ATOM     79  C   UNL A   1      37.924  32.745  35.528  1.00  0.00     0.040 A 
ATOM     80  C   UNL A   1      39.305  34.546  36.321  1.00  0.00     0.040 A 
ATOM     81  F   UNL A   1      41.472  34.847  35.471  1.00  0.00    -0.206 F 
ATOM     82  C   UNL A   1      38.128  33.804  36.407  1.00  0.00     0.006 A 
ENDBRANCH  54  75
BRANCH  66  83
ATOM     83  C   UNL A   1      43.082  26.421  34.168  1.00  0.00     0.057 A 
ATOM     84  C   UNL A   1      42.014  25.738  34.765  1.00  0.00     0.134 A 
ATOM     85  C   UNL A   1      44.350  25.826  34.331  1.00  0.00     0.134 A 
ATOM     86  F   UNL A   1      40.771  26.245  34.742  1.00  0.00    -0.206 F 
ATOM     87  C   UNL A   1      42.183  24.517  35.429  1.00  0.00     0.040 A 
ATOM     88  C   UNL A   1      44.539  24.633  35.033  1.00  0.00     0.040 A 
ATOM     89  F   UNL A   1      45.455  26.364  33.796  1.00  0.00    -0.206 F 
ATOM     90  C   UNL A   1      43.451  23.965  35.573  1.00  0.00     0.006 A 
ENDBRANCH  66  83
ENDBRANCH  40  41
ENDBRANCH  32  35
ENDBRANCH  30  31
ENDBRANCH  29  30
ENDBRANCH  28  29
ENDBRANCH   3  28
TORSDOF 16
ENDMDL
