MODEL 1
REMARK VINA RESULT:     -11.2      0.000      0.000
REMARK SMILES COCCCC(=O)Nc1nc2ccc(C(=O)NCCCNC(=O)c3ccc(-c4c5nc(c(-c6c(F)cccc6F)c6ccc([nH]6)c(-c6c(F)cccc6F)c6nc(c(-c7c(F)cccc7F)c7ccc4[nH]7)C=C6)C=C5)cc3)cc2s1
REMARK SMILES IDX 15 1 16 2 17 3 14 5 9 6 10 7 80 8 11 9 79 10 12 11 78 12
REMARK SMILES IDX 13 13 8 14 6 15 7 16 5 18 4 19 3 20 2 21 1 22 18 23 19 24
REMARK SMILES IDX 20 25 21 26 22 27 23 29 24 30 25 31 77 32 26 33 76 34 27 35
REMARK SMILES IDX 28 36 29 37 70 38 30 39 75 40 69 41 71 42 31 43 74 44 68 45
REMARK SMILES IDX 67 46 32 48 58 49 41 50 57 51 42 52 45 53 56 54 72 55 43 56
REMARK SMILES IDX 44 57 55 59 73 60 46 61 33 62 34 63 39 64 35 65 36 66 38 67
REMARK SMILES IDX 40 68 37 69 59 70 60 71 65 72 61 73 62 74 64 75 66 76 63 77
REMARK SMILES IDX 47 78 48 79 53 80 49 81 50 82 52 83 54 84 51 85
REMARK H PARENT 17 4 8 17 21 28 71 47 45 58
REMARK Flexibility Score: inf
ROOT
ATOM      1  C   UNL A   1      33.588  20.128  25.085  1.00  0.00     0.251 C 
ATOM      2  O   UNL A   1      32.742  19.249  25.285  1.00  0.00    -0.269 OA
ATOM      3  N   UNL A   1      34.904  19.829  25.293  1.00  0.00    -0.352 N 
ATOM      4  H   UNL A   1      35.067  18.961  25.730  1.00  0.00     0.163 HD
ENDROOT
BRANCH   1   5
ATOM      5  C   UNL A   1      33.134  21.460  24.617  1.00  0.00     0.041 A 
ATOM      6  C   UNL A   1      33.150  26.131  24.450  1.00  0.00     0.190 A 
ATOM      7  N   UNL A   1      32.839  25.443  23.383  1.00  0.00    -0.220 NA
ATOM      8  S   UNL A   1      32.999  25.319  25.943  1.00  0.00    -0.097 S 
ATOM      9  C   UNL A   1      32.753  24.099  23.729  1.00  0.00     0.084 A 
ATOM     10  C   UNL A   1      32.987  23.821  25.079  1.00  0.00     0.057 A 
ATOM     11  C   UNL A   1      32.571  23.021  22.839  1.00  0.00     0.031 A 
ATOM     12  C   UNL A   1      33.191  22.513  25.544  1.00  0.00     0.035 A 
ATOM     13  C   UNL A   1      32.798  21.711  23.285  1.00  0.00     0.016 A 
BRANCH   6  14
ATOM     14  N   UNL A   1      33.383  27.465  24.531  1.00  0.00    -0.302 N 
ATOM     15  C   UNL A   1      32.462  28.463  24.536  1.00  0.00     0.226 C 
ATOM     16  O   UNL A   1      32.886  29.614  24.694  1.00  0.00    -0.275 OA
ATOM     17  H   UNL A   1      34.326  27.741  24.595  1.00  0.00     0.172 HD
BRANCH  15  18
ATOM     18  C   UNL A   1      30.961  28.242  24.365  1.00  0.00     0.103 C 
BRANCH  18  19
ATOM     19  C   UNL A   1      30.362  28.414  22.963  1.00  0.00     0.038 C 
BRANCH  19  20
ATOM     20  C   UNL A   1      29.683  29.741  22.616  1.00  0.00     0.160 C 
BRANCH  20  21
ATOM     21  O   UNL A   1      29.090  29.787  21.323  1.00  0.00    -0.385 OA
ATOM     22  C   UNL A   1      28.116  30.798  21.135  1.00  0.00     0.194 C 
ENDBRANCH  20  21
ENDBRANCH  19  20
ENDBRANCH  18  19
ENDBRANCH  15  18
ENDBRANCH   6  14
ENDBRANCH   1   5
BRANCH   3  23
ATOM     23  C   UNL A   1      36.099  20.587  24.975  1.00  0.00     0.118 C 
BRANCH  23  24
ATOM     24  C   UNL A   1      37.331  19.688  24.912  1.00  0.00     0.042 C 
BRANCH  24  25
ATOM     25  C   UNL A   1      38.592  20.341  25.473  1.00  0.00     0.118 C 
BRANCH  25  26
ATOM     26  N   UNL A   1      39.671  19.377  25.655  1.00  0.00    -0.352 N 
ATOM     27  C   UNL A   1      40.973  19.572  26.026  1.00  0.00     0.251 C 
ATOM     28  H   UNL A   1      39.424  18.439  25.483  1.00  0.00     0.163 HD
ATOM     29  O   UNL A   1      41.788  18.648  25.881  1.00  0.00    -0.269 OA
BRANCH  27  30
ATOM     30  C   UNL A   1      41.427  20.858  26.589  1.00  0.00     0.039 A 
ATOM     31  C   UNL A   1      41.969  21.820  25.731  1.00  0.00     0.014 A 
ATOM     32  C   UNL A   1      41.370  21.102  27.964  1.00  0.00     0.014 A 
ATOM     33  C   UNL A   1      42.403  23.045  26.244  1.00  0.00     0.010 A 
ATOM     34  C   UNL A   1      41.733  22.351  28.464  1.00  0.00     0.010 A 
ATOM     35  C   UNL A   1      42.260  23.331  27.611  1.00  0.00    -0.014 A 
BRANCH  35  36
ATOM     36  C   UNL A   1      42.657  24.650  28.167  1.00  0.00     0.031 A 
ATOM     37  C   UNL A   1      41.625  25.722  28.386  1.00  0.00     0.074 A 
ATOM     38  C   UNL A   1      43.958  24.905  28.407  1.00  0.00     0.049 A 
ATOM     39  N   UNL A   1      41.788  26.957  28.789  1.00  0.00    -0.248 NA
ATOM     40  C   UNL A   1      40.229  25.368  28.086  1.00  0.00     0.031 C 
ATOM     41  C   UNL A   1      45.058  23.964  28.188  1.00  0.00     0.029 A 
ATOM     42  N   UNL A   1      44.576  26.037  28.874  1.00  0.00    -0.354 N 
ATOM     43  C   UNL A   1      40.524  27.531  28.771  1.00  0.00     0.074 A 
ATOM     44  C   UNL A   1      39.612  26.526  28.270  1.00  0.00     0.031 C 
ATOM     45  C   UNL A   1      46.213  24.551  28.537  1.00  0.00     0.029 A 
ATOM     46  C   UNL A   1      45.941  25.918  28.967  1.00  0.00     0.049 A 
ATOM     47  H   UNL A   1      44.088  26.856  29.119  1.00  0.00     0.167 HD
ATOM     48  C   UNL A   1      40.153  28.776  29.154  1.00  0.00     0.037 A 
ATOM     49  C   UNL A   1      46.871  26.815  29.346  1.00  0.00     0.037 A 
ATOM     50  C   UNL A   1      41.061  29.765  29.675  1.00  0.00     0.049 A 
ATOM     51  C   UNL A   1      46.437  28.189  29.773  1.00  0.00     0.074 A 
ATOM     52  C   UNL A   1      40.776  31.030  30.156  1.00  0.00     0.029 A 
ATOM     53  N   UNL A   1      42.434  29.599  29.778  1.00  0.00    -0.354 N 
ATOM     54  N   UNL A   1      45.228  28.695  29.819  1.00  0.00    -0.248 NA
ATOM     55  C   UNL A   1      47.492  29.113  30.206  1.00  0.00     0.031 C 
ATOM     56  C   UNL A   1      41.981  31.648  30.505  1.00  0.00     0.029 A 
ATOM     57  C   UNL A   1      43.012  30.747  30.291  1.00  0.00     0.049 A 
ATOM     58  H   UNL A   1      42.925  28.784  29.523  1.00  0.00     0.167 HD
ATOM     59  C   UNL A   1      45.373  29.985  30.311  1.00  0.00     0.074 A 
ATOM     60  C   UNL A   1      46.787  30.179  30.560  1.00  0.00     0.031 C 
ATOM     61  C   UNL A   1      44.422  30.924  30.537  1.00  0.00     0.037 A 
BRANCH  48  62
ATOM     62  C   UNL A   1      38.701  29.139  29.022  1.00  0.00     0.057 A 
ATOM     63  C   UNL A   1      37.817  29.069  30.107  1.00  0.00     0.134 A 
ATOM     64  C   UNL A   1      38.184  29.585  27.799  1.00  0.00     0.134 A 
ATOM     65  F   UNL A   1      38.242  28.639  31.305  1.00  0.00    -0.206 F 
ATOM     66  C   UNL A   1      36.466  29.399  29.973  1.00  0.00     0.040 A 
ATOM     67  C   UNL A   1      36.843  29.945  27.660  1.00  0.00     0.040 A 
ATOM     68  F   UNL A   1      38.975  29.684  26.719  1.00  0.00    -0.206 F 
ATOM     69  C   UNL A   1      35.977  29.844  28.747  1.00  0.00     0.006 A 
ENDBRANCH  48  62
BRANCH  49  70
ATOM     70  C   UNL A   1      48.305  26.429  29.364  1.00  0.00     0.057 A 
ATOM     71  C   UNL A   1      49.133  26.678  28.263  1.00  0.00     0.134 A 
ATOM     72  C   UNL A   1      48.884  25.815  30.481  1.00  0.00     0.134 A 
ATOM     73  F   UNL A   1      48.632  27.249  27.158  1.00  0.00    -0.206 F 
ATOM     74  C   UNL A   1      50.482  26.317  28.265  1.00  0.00     0.040 A 
ATOM     75  C   UNL A   1      50.236  25.471  30.507  1.00  0.00     0.040 A 
ATOM     76  F   UNL A   1      48.147  25.559  31.571  1.00  0.00    -0.206 F 
ATOM     77  C   UNL A   1      51.038  25.718  29.393  1.00  0.00     0.006 A 
ENDBRANCH  49  70
BRANCH  61  78
ATOM     78  C   UNL A   1      44.874  32.234  31.112  1.00  0.00     0.057 A 
ATOM     79  C   UNL A   1      45.274  33.302  30.300  1.00  0.00     0.134 A 
ATOM     80  C   UNL A   1      44.870  32.442  32.498  1.00  0.00     0.134 A 
ATOM     81  F   UNL A   1      45.312  33.165  28.965  1.00  0.00    -0.206 F 
ATOM     82  C   UNL A   1      45.674  34.523  30.846  1.00  0.00     0.040 A 
ATOM     83  C   UNL A   1      45.241  33.665  33.054  1.00  0.00     0.040 A 
ATOM     84  F   UNL A   1      44.491  31.462  33.333  1.00  0.00    -0.206 F 
ATOM     85  C   UNL A   1      45.651  34.710  32.227  1.00  0.00     0.006 A 
ENDBRANCH  61  78
ENDBRANCH  35  36
ENDBRANCH  27  30
ENDBRANCH  25  26
ENDBRANCH  24  25
ENDBRANCH  23  24
ENDBRANCH   3  23
TORSDOF 15
ENDMDL
MODEL 2
REMARK VINA RESULT:     -11.2      4.390      9.668
REMARK SMILES COCCCC(=O)Nc1nc2ccc(C(=O)NCCCNC(=O)c3ccc(-c4c5nc(c(-c6c(F)cccc6F)c6ccc([nH]6)c(-c6c(F)cccc6F)c6nc(c(-c7c(F)cccc7F)c7ccc4[nH]7)C=C6)C=C5)cc3)cc2s1
REMARK SMILES IDX 15 1 16 2 17 3 14 5 9 6 10 7 80 8 11 9 79 10 12 11 78 12
REMARK SMILES IDX 13 13 8 14 6 15 7 16 5 18 4 19 3 20 2 21 1 22 18 23 19 24
REMARK SMILES IDX 20 25 21 26 22 27 23 29 24 30 25 31 77 32 26 33 76 34 27 35
REMARK SMILES IDX 28 36 29 37 70 38 30 39 75 40 69 41 71 42 31 43 74 44 68 45
REMARK SMILES IDX 67 46 32 48 58 49 41 50 57 51 42 52 45 53 56 54 72 55 43 56
REMARK SMILES IDX 44 57 55 59 73 60 46 61 33 62 34 63 39 64 35 65 36 66 38 67
REMARK SMILES IDX 40 68 37 69 59 70 60 71 65 72 61 73 62 74 64 75 66 76 63 77
REMARK SMILES IDX 47 78 48 79 53 80 49 81 50 82 52 83 54 84 51 85
REMARK H PARENT 17 4 8 17 21 28 71 47 45 58
REMARK Flexibility Score: inf
ROOT
ATOM      1  C   UNL A   1      31.260  29.169  24.371  1.00  0.00     0.251 C 
ATOM      2  O   UNL A   1      30.860  29.048  23.208  1.00  0.00    -0.269 OA
ATOM      3  N   UNL A   1      31.183  30.397  24.965  1.00  0.00    -0.352 N 
ATOM      4  H   UNL A   1      30.940  31.134  24.359  1.00  0.00     0.163 HD
ENDROOT
BRANCH   1   5
ATOM      5  C   UNL A   1      31.791  27.975  25.070  1.00  0.00     0.041 A 
ATOM      6  C   UNL A   1      32.093  23.415  26.051  1.00  0.00     0.190 A 
ATOM      7  N   UNL A   1      33.157  24.171  26.138  1.00  0.00    -0.220 NA
ATOM      8  S   UNL A   1      30.589  24.217  26.118  1.00  0.00    -0.097 S 
ATOM      9  C   UNL A   1      32.777  25.496  25.954  1.00  0.00     0.084 A 
ATOM     10  C   UNL A   1      31.408  25.695  25.752  1.00  0.00     0.057 A 
ATOM     11  C   UNL A   1      33.644  26.601  25.843  1.00  0.00     0.031 A 
ATOM     12  C   UNL A   1      30.894  26.920  25.301  1.00  0.00     0.035 A 
ATOM     13  C   UNL A   1      33.148  27.823  25.368  1.00  0.00     0.016 A 
BRANCH   6  14
ATOM     14  N   UNL A   1      32.038  22.060  26.117  1.00  0.00    -0.302 N 
ATOM     15  C   UNL A   1      32.156  21.182  25.088  1.00  0.00     0.226 C 
ATOM     16  O   UNL A   1      32.151  19.979  25.377  1.00  0.00    -0.275 OA
ATOM     17  H   UNL A   1      31.897  21.671  27.010  1.00  0.00     0.172 HD
BRANCH  15  18
ATOM     18  C   UNL A   1      32.297  21.592  23.625  1.00  0.00     0.103 C 
BRANCH  18  19
ATOM     19  C   UNL A   1      33.636  22.188  23.169  1.00  0.00     0.038 C 
BRANCH  19  20
ATOM     20  C   UNL A   1      33.653  23.621  22.630  1.00  0.00     0.160 C 
BRANCH  20  21
ATOM     21  O   UNL A   1      32.383  24.262  22.604  1.00  0.00    -0.385 OA
ATOM     22  C   UNL A   1      32.390  25.609  22.166  1.00  0.00     0.194 C 
ENDBRANCH  20  21
ENDBRANCH  19  20
ENDBRANCH  18  19
ENDBRANCH  15  18
ENDBRANCH   6  14
ENDBRANCH   1   5
BRANCH   3  23
ATOM     23  C   UNL A   1      31.404  30.787  26.345  1.00  0.00     0.118 C 
BRANCH  23  24
ATOM     24  C   UNL A   1      31.394  32.305  26.505  1.00  0.00     0.042 C 
BRANCH  24  25
ATOM     25  C   UNL A   1      32.656  32.856  27.164  1.00  0.00     0.118 C 
BRANCH  25  26
ATOM     26  N   UNL A   1      32.475  34.225  27.632  1.00  0.00    -0.352 N 
ATOM     27  C   UNL A   1      33.050  34.879  28.685  1.00  0.00     0.251 C 
ATOM     28  H   UNL A   1      31.838  34.762  27.106  1.00  0.00     0.163 HD
ATOM     29  O   UNL A   1      32.574  35.962  29.058  1.00  0.00    -0.269 OA
BRANCH  27  30
ATOM     30  C   UNL A   1      34.220  34.322  29.390  1.00  0.00     0.039 A 
ATOM     31  C   UNL A   1      34.022  33.607  30.575  1.00  0.00     0.014 A 
ATOM     32  C   UNL A   1      35.518  34.543  28.918  1.00  0.00     0.014 A 
ATOM     33  C   UNL A   1      35.116  33.069  31.255  1.00  0.00     0.010 A 
ATOM     34  C   UNL A   1      36.602  33.943  29.556  1.00  0.00     0.010 A 
ATOM     35  C   UNL A   1      36.413  33.207  30.735  1.00  0.00    -0.014 A 
BRANCH  35  36
ATOM     36  C   UNL A   1      37.584  32.591  31.409  1.00  0.00     0.031 A 
ATOM     37  C   UNL A   1      38.284  31.414  30.786  1.00  0.00     0.074 A 
ATOM     38  C   UNL A   1      37.971  33.046  32.616  1.00  0.00     0.049 A 
ATOM     39  N   UNL A   1      39.272  30.695  31.258  1.00  0.00    -0.248 NA
ATOM     40  C   UNL A   1      37.792  30.970  29.474  1.00  0.00     0.031 C 
ATOM     41  C   UNL A   1      37.340  34.148  33.346  1.00  0.00     0.029 A 
ATOM     42  N   UNL A   1      38.977  32.628  33.449  1.00  0.00    -0.354 N 
ATOM     43  C   UNL A   1      39.503  29.705  30.312  1.00  0.00     0.074 A 
ATOM     44  C   UNL A   1      38.522  29.883  29.265  1.00  0.00     0.031 C 
ATOM     45  C   UNL A   1      37.986  34.331  34.508  1.00  0.00     0.029 A 
ATOM     46  C   UNL A   1      39.048  33.338  34.623  1.00  0.00     0.049 A 
ATOM     47  H   UNL A   1      39.590  31.891  33.226  1.00  0.00     0.167 HD
ATOM     48  C   UNL A   1      40.459  28.745  30.308  1.00  0.00     0.037 A 
ATOM     49  C   UNL A   1      39.870  33.196  35.680  1.00  0.00     0.037 A 
ATOM     50  C   UNL A   1      41.449  28.586  31.341  1.00  0.00     0.049 A 
ATOM     51  C   UNL A   1      40.927  32.128  35.651  1.00  0.00     0.074 A 
ATOM     52  C   UNL A   1      42.502  27.691  31.397  1.00  0.00     0.029 A 
ATOM     53  N   UNL A   1      41.504  29.340  32.504  1.00  0.00    -0.354 N 
ATOM     54  N   UNL A   1      41.181  31.243  34.717  1.00  0.00    -0.248 NA
ATOM     55  C   UNL A   1      41.814  32.041  36.818  1.00  0.00     0.031 C 
ATOM     56  C   UNL A   1      43.166  27.871  32.615  1.00  0.00     0.029 A 
ATOM     57  C   UNL A   1      42.558  28.914  33.295  1.00  0.00     0.049 A 
ATOM     58  H   UNL A   1      40.885  30.071  32.733  1.00  0.00     0.167 HD
ATOM     59  C   UNL A   1      42.272  30.514  35.169  1.00  0.00     0.074 A 
ATOM     60  C   UNL A   1      42.640  31.069  36.456  1.00  0.00     0.031 C 
ATOM     61  C   UNL A   1      42.913  29.479  34.572  1.00  0.00     0.037 A 
BRANCH  48  62
ATOM     62  C   UNL A   1      40.477  27.790  29.148  1.00  0.00     0.057 A 
ATOM     63  C   UNL A   1      39.684  26.634  29.126  1.00  0.00     0.134 A 
ATOM     64  C   UNL A   1      41.280  28.041  28.028  1.00  0.00     0.134 A 
ATOM     65  F   UNL A   1      38.899  26.328  30.169  1.00  0.00    -0.206 F 
ATOM     66  C   UNL A   1      39.714  25.748  28.047  1.00  0.00     0.040 A 
ATOM     67  C   UNL A   1      41.297  27.177  26.932  1.00  0.00     0.040 A 
ATOM     68  F   UNL A   1      42.060  29.132  27.979  1.00  0.00    -0.206 F 
ATOM     69  C   UNL A   1      40.518  26.022  26.943  1.00  0.00     0.006 A 
ENDBRANCH  48  62
BRANCH  49  70
ATOM     70  C   UNL A   1      39.741  34.110  36.844  1.00  0.00     0.057 A 
ATOM     71  C   UNL A   1      40.325  35.382  36.831  1.00  0.00     0.134 A 
ATOM     72  C   UNL A   1      39.024  33.740  37.988  1.00  0.00     0.134 A 
ATOM     73  F   UNL A   1      41.038  35.786  35.770  1.00  0.00    -0.206 F 
ATOM     74  C   UNL A   1      40.214  36.248  37.920  1.00  0.00     0.040 A 
ATOM     75  C   UNL A   1      38.884  34.605  39.073  1.00  0.00     0.040 A 
ATOM     76  F   UNL A   1      38.432  32.538  38.058  1.00  0.00    -0.206 F 
ATOM     77  C   UNL A   1      39.485  35.862  39.043  1.00  0.00     0.006 A 
ENDBRANCH  49  70
BRANCH  61  78
ATOM     78  C   UNL A   1      44.098  28.901  35.289  1.00  0.00     0.057 A 
ATOM     79  C   UNL A   1      45.401  29.358  35.058  1.00  0.00     0.134 A 
ATOM     80  C   UNL A   1      43.925  27.901  36.256  1.00  0.00     0.134 A 
ATOM     81  F   UNL A   1      45.636  30.305  34.136  1.00  0.00    -0.206 F 
ATOM     82  C   UNL A   1      46.493  28.826  35.745  1.00  0.00     0.040 A 
ATOM     83  C   UNL A   1      45.005  27.381  36.969  1.00  0.00     0.040 A 
ATOM     84  F   UNL A   1      42.702  27.424  36.532  1.00  0.00    -0.206 F 
ATOM     85  C   UNL A   1      46.295  27.839  36.710  1.00  0.00     0.006 A 
ENDBRANCH  61  78
ENDBRANCH  35  36
ENDBRANCH  27  30
ENDBRANCH  25  26
ENDBRANCH  24  25
ENDBRANCH  23  24
ENDBRANCH   3  23
TORSDOF 15
ENDMDL
MODEL 3
REMARK VINA RESULT:     -11.1      4.352      9.855
REMARK SMILES COCCCC(=O)Nc1nc2ccc(C(=O)NCCCNC(=O)c3ccc(-c4c5nc(c(-c6c(F)cccc6F)c6ccc([nH]6)c(-c6c(F)cccc6F)c6nc(c(-c7c(F)cccc7F)c7ccc4[nH]7)C=C6)C=C5)cc3)cc2s1
REMARK SMILES IDX 15 1 16 2 17 3 14 5 9 6 10 7 80 8 11 9 79 10 12 11 78 12
REMARK SMILES IDX 13 13 8 14 6 15 7 16 5 18 4 19 3 20 2 21 1 22 18 23 19 24
REMARK SMILES IDX 20 25 21 26 22 27 23 29 24 30 25 31 77 32 26 33 76 34 27 35
REMARK SMILES IDX 28 36 29 37 70 38 30 39 75 40 69 41 71 42 31 43 74 44 68 45
REMARK SMILES IDX 67 46 32 48 58 49 41 50 57 51 42 52 45 53 56 54 72 55 43 56
REMARK SMILES IDX 44 57 55 59 73 60 46 61 33 62 34 63 39 64 35 65 36 66 38 67
REMARK SMILES IDX 40 68 37 69 59 70 60 71 65 72 61 73 62 74 64 75 66 76 63 77
REMARK SMILES IDX 47 78 48 79 53 80 49 81 50 82 52 83 54 84 51 85
REMARK H PARENT 17 4 8 17 21 28 71 47 45 58
REMARK Flexibility Score: inf
ROOT
ATOM      1  C   UNL A   1      33.151  28.999  26.253  1.00  0.00     0.251 C 
ATOM      2  O   UNL A   1      34.337  28.776  26.516  1.00  0.00    -0.269 OA
ATOM      3  N   UNL A   1      32.666  30.263  26.439  1.00  0.00    -0.352 N 
ATOM      4  H   UNL A   1      33.277  30.875  26.909  1.00  0.00     0.163 HD
ENDROOT
BRANCH   1   5
ATOM      5  C   UNL A   1      32.314  27.889  25.738  1.00  0.00     0.041 A 
ATOM      6  C   UNL A   1      31.456  24.006  23.282  1.00  0.00     0.190 A 
ATOM      7  N   UNL A   1      30.808  24.228  24.396  1.00  0.00    -0.220 NA
ATOM      8  S   UNL A   1      32.155  25.369  22.531  1.00  0.00    -0.097 S 
ATOM      9  C   UNL A   1      31.121  25.506  24.847  1.00  0.00     0.084 A 
ATOM     10  C   UNL A   1      31.999  26.222  24.026  1.00  0.00     0.057 A 
ATOM     11  C   UNL A   1      30.734  26.071  26.078  1.00  0.00     0.031 A 
ATOM     12  C   UNL A   1      32.614  27.408  24.453  1.00  0.00     0.035 A 
ATOM     13  C   UNL A   1      31.360  27.242  26.528  1.00  0.00     0.016 A 
BRANCH   6  14
ATOM     14  N   UNL A   1      31.470  22.863  22.551  1.00  0.00    -0.302 N 
ATOM     15  C   UNL A   1      32.135  21.714  22.834  1.00  0.00     0.226 C 
ATOM     16  O   UNL A   1      31.951  20.759  22.068  1.00  0.00    -0.275 OA
ATOM     17  H   UNL A   1      30.938  22.868  21.723  1.00  0.00     0.172 HD
BRANCH  15  18
ATOM     18  C   UNL A   1      33.073  21.539  24.025  1.00  0.00     0.103 C 
BRANCH  18  19
ATOM     19  C   UNL A   1      32.536  20.811  25.265  1.00  0.00     0.038 C 
BRANCH  19  20
ATOM     20  C   UNL A   1      33.070  19.411  25.579  1.00  0.00     0.160 C 
BRANCH  20  21
ATOM     21  O   UNL A   1      32.103  18.372  25.488  1.00  0.00    -0.385 OA
ATOM     22  C   UNL A   1      32.592  17.124  25.026  1.00  0.00     0.194 C 
ENDBRANCH  20  21
ENDBRANCH  19  20
ENDBRANCH  18  19
ENDBRANCH  15  18
ENDBRANCH   6  14
ENDBRANCH   1   5
BRANCH   3  23
ATOM     23  C   UNL A   1      31.395  30.845  26.054  1.00  0.00     0.118 C 
BRANCH  23  24
ATOM     24  C   UNL A   1      31.281  32.295  26.516  1.00  0.00     0.042 C 
BRANCH  24  25
ATOM     25  C   UNL A   1      32.532  32.809  27.225  1.00  0.00     0.118 C 
BRANCH  25  26
ATOM     26  N   UNL A   1      32.401  34.207  27.619  1.00  0.00    -0.352 N 
ATOM     27  C   UNL A   1      33.043  34.909  28.601  1.00  0.00     0.251 C 
ATOM     28  H   UNL A   1      31.748  34.727  27.096  1.00  0.00     0.163 HD
ATOM     29  O   UNL A   1      32.607  36.022  28.932  1.00  0.00    -0.269 OA
BRANCH  27  30
ATOM     30  C   UNL A   1      34.238  34.368  29.276  1.00  0.00     0.039 A 
ATOM     31  C   UNL A   1      34.083  33.688  30.488  1.00  0.00     0.014 A 
ATOM     32  C   UNL A   1      35.517  34.571  28.749  1.00  0.00     0.014 A 
ATOM     33  C   UNL A   1      35.201  33.167  31.142  1.00  0.00     0.010 A 
ATOM     34  C   UNL A   1      36.623  33.986  29.363  1.00  0.00     0.010 A 
ATOM     35  C   UNL A   1      36.477  33.286  30.569  1.00  0.00    -0.014 A 
BRANCH  35  36
ATOM     36  C   UNL A   1      37.672  32.685  31.216  1.00  0.00     0.031 A 
ATOM     37  C   UNL A   1      38.333  31.476  30.613  1.00  0.00     0.074 A 
ATOM     38  C   UNL A   1      38.115  33.185  32.385  1.00  0.00     0.049 A 
ATOM     39  N   UNL A   1      39.334  30.767  31.069  1.00  0.00    -0.248 NA
ATOM     40  C   UNL A   1      37.779  30.983  29.342  1.00  0.00     0.031 C 
ATOM     41  C   UNL A   1      37.528  34.322  33.095  1.00  0.00     0.029 A 
ATOM     42  N   UNL A   1      39.154  32.791  33.190  1.00  0.00    -0.354 N 
ATOM     43  C   UNL A   1      39.515  29.736  30.157  1.00  0.00     0.074 A 
ATOM     44  C   UNL A   1      38.489  29.882  29.147  1.00  0.00     0.031 C 
ATOM     45  C   UNL A   1      38.226  34.546  34.219  1.00  0.00     0.029 A 
ATOM     46  C   UNL A   1      39.284  33.547  34.329  1.00  0.00     0.049 A 
ATOM     47  H   UNL A   1      39.750  32.039  32.971  1.00  0.00     0.167 HD
ATOM     48  C   UNL A   1      40.461  28.766  30.150  1.00  0.00     0.037 A 
ATOM     49  C   UNL A   1      40.151  33.441  35.353  1.00  0.00     0.037 A 
ATOM     50  C   UNL A   1      41.494  28.640  31.144  1.00  0.00     0.049 A 
ATOM     51  C   UNL A   1      41.195  32.361  35.322  1.00  0.00     0.074 A 
ATOM     52  C   UNL A   1      42.541  27.737  31.190  1.00  0.00     0.029 A 
ATOM     53  N   UNL A   1      41.608  29.440  32.271  1.00  0.00    -0.354 N 
ATOM     54  N   UNL A   1      41.400  31.436  34.416  1.00  0.00    -0.248 NA
ATOM     55  C   UNL A   1      42.133  32.313  36.451  1.00  0.00     0.031 C 
ATOM     56  C   UNL A   1      43.259  27.959  32.370  1.00  0.00     0.029 A 
ATOM     57  C   UNL A   1      42.692  29.036  33.032  1.00  0.00     0.049 A 
ATOM     58  H   UNL A   1      41.006  30.186  32.497  1.00  0.00     0.167 HD
ATOM     59  C   UNL A   1      42.504  30.714  34.849  1.00  0.00     0.074 A 
ATOM     60  C   UNL A   1      42.933  31.317  36.094  1.00  0.00     0.031 C 
ATOM     61  C   UNL A   1      43.108  29.649  34.268  1.00  0.00     0.037 A 
BRANCH  48  62
ATOM     62  C   UNL A   1      40.419  27.764  29.031  1.00  0.00     0.057 A 
ATOM     63  C   UNL A   1      41.200  27.909  27.876  1.00  0.00     0.134 A 
ATOM     64  C   UNL A   1      39.603  26.629  29.118  1.00  0.00     0.134 A 
ATOM     65  F   UNL A   1      41.995  28.977  27.721  1.00  0.00    -0.206 F 
ATOM     66  C   UNL A   1      41.147  26.977  26.837  1.00  0.00     0.040 A 
ATOM     67  C   UNL A   1      39.564  25.676  28.099  1.00  0.00     0.040 A 
ATOM     68  F   UNL A   1      38.834  26.423  30.199  1.00  0.00    -0.206 F 
ATOM     69  C   UNL A   1      40.331  25.854  26.950  1.00  0.00     0.006 A 
ENDBRANCH  48  62
BRANCH  49  70
ATOM     70  C   UNL A   1      40.082  34.402  36.483  1.00  0.00     0.057 A 
ATOM     71  C   UNL A   1      40.728  35.642  36.416  1.00  0.00     0.134 A 
ATOM     72  C   UNL A   1      39.360  34.113  37.647  1.00  0.00     0.134 A 
ATOM     73  F   UNL A   1      41.448  35.969  35.333  1.00  0.00    -0.206 F 
ATOM     74  C   UNL A   1      40.674  36.553  37.472  1.00  0.00     0.040 A 
ATOM     75  C   UNL A   1      39.277  35.024  38.700  1.00  0.00     0.040 A 
ATOM     76  F   UNL A   1      38.710  32.946  37.768  1.00  0.00    -0.206 F 
ATOM     77  C   UNL A   1      39.940  36.247  38.616  1.00  0.00     0.006 A 
ENDBRANCH  49  70
BRANCH  61  78
ATOM     78  C   UNL A   1      44.319  29.088  34.955  1.00  0.00     0.057 A 
ATOM     79  C   UNL A   1      44.219  28.124  35.965  1.00  0.00     0.134 A 
ATOM     80  C   UNL A   1      45.605  29.490  34.570  1.00  0.00     0.134 A 
ATOM     81  F   UNL A   1      43.015  27.705  36.389  1.00  0.00    -0.206 F 
ATOM     82  C   UNL A   1      45.352  27.595  36.584  1.00  0.00     0.040 A 
ATOM     83  C   UNL A   1      46.746  28.949  35.162  1.00  0.00     0.040 A 
ATOM     84  F   UNL A   1      45.772  30.405  33.603  1.00  0.00    -0.206 F 
ATOM     85  C   UNL A   1      46.622  28.002  36.176  1.00  0.00     0.006 A 
ENDBRANCH  61  78
ENDBRANCH  35  36
ENDBRANCH  27  30
ENDBRANCH  25  26
ENDBRANCH  24  25
ENDBRANCH  23  24
ENDBRANCH   3  23
TORSDOF 15
ENDMDL
