MODEL 1
REMARK VINA RESULT:     -12.2      0.000      0.000
REMARK SMILES O=C(NCCCNC(=O)[C@@H]1[C@H](C(=O)Nc2ccccc2Cc2ccccc2)[C@H]2C=C[C@@H]1O2)c1ccc(-c2c3nc(c(-c4c(F)cccc4F)c4ccc([nH]4)c(-c4c(F)cccc4F)c4nc(c(-c5c(F)cccc5F)c5ccc2[nH]5)C=C4)C=C3)cc1
REMARK SMILES IDX 6 1 5 2 4 3 3 4 1 5 2 6 33 8 34 9 86 10 35 11 85 12 36 13
REMARK SMILES IDX 37 14 38 15 79 16 39 17 84 18 78 19 80 20 40 21 83 22 77 23
REMARK SMILES IDX 76 24 41 26 67 27 50 28 66 29 51 30 54 31 65 32 81 33 52 34
REMARK SMILES IDX 53 35 64 37 82 38 55 39 42 40 43 41 48 42 44 43 45 44 47 45
REMARK SMILES IDX 49 46 46 47 68 48 69 49 74 50 70 51 71 52 73 53 75 54 72 55
REMARK SMILES IDX 56 56 57 57 62 58 58 59 59 60 61 61 63 62 60 63 7 64 8 65
REMARK SMILES IDX 9 67 10 68 11 69 31 70 28 71 30 72 32 73 29 74 12 75 13 76
REMARK SMILES IDX 14 77 15 79 16 80 20 81 17 82 19 83 18 84 21 85 22 86 23 87
REMARK SMILES IDX 27 88 24 89 26 90 25 91
REMARK H PARENT 3 7 80 25 54 36 7 66 14 78
REMARK Flexibility Score: inf
ROOT
ATOM      1  C   UNL A   1      33.811  30.779  27.548  1.00  0.00     0.117 C 
ENDROOT
BRANCH   1   2
ATOM      2  C   UNL A   1      32.648  31.766  27.539  1.00  0.00     0.042 C 
BRANCH   2   3
ATOM      3  C   UNL A   1      33.091  33.151  27.050  1.00  0.00     0.118 C 
BRANCH   3   4
ATOM      4  N   UNL A   1      32.652  34.216  27.933  1.00  0.00    -0.352 N 
ATOM      5  O   UNL A   1      32.621  35.449  29.825  1.00  0.00    -0.269 OA
ATOM      6  C   UNL A   1      33.207  34.654  29.116  1.00  0.00     0.251 C 
ATOM      7  H   UNL A   1      31.840  34.693  27.646  1.00  0.00     0.163 HD
BRANCH   6   8
ATOM      8  C   UNL A   1      34.516  34.106  29.531  1.00  0.00     0.039 A 
ATOM      9  C   UNL A   1      35.688  34.493  28.878  1.00  0.00     0.014 A 
ATOM     10  C   UNL A   1      34.561  33.185  30.580  1.00  0.00     0.014 A 
ATOM     11  C   UNL A   1      36.883  33.848  29.172  1.00  0.00     0.010 A 
ATOM     12  C   UNL A   1      35.781  32.602  30.933  1.00  0.00     0.010 A 
ATOM     13  C   UNL A   1      36.947  32.905  30.211  1.00  0.00    -0.014 A 
BRANCH  13  14
ATOM     14  C   UNL A   1      38.250  32.292  30.570  1.00  0.00     0.031 A 
ATOM     15  C   UNL A   1      38.716  31.015  29.927  1.00  0.00     0.074 A 
ATOM     16  C   UNL A   1      39.020  32.905  31.491  1.00  0.00     0.049 A 
ATOM     17  N   UNL A   1      39.799  30.318  30.167  1.00  0.00    -0.248 NA
ATOM     18  C   UNL A   1      37.851  30.436  28.887  1.00  0.00     0.031 C 
ATOM     19  C   UNL A   1      38.670  34.145  32.189  1.00  0.00     0.029 A 
ATOM     20  N   UNL A   1      40.253  32.578  31.994  1.00  0.00    -0.354 N 
ATOM     21  C   UNL A   1      39.734  29.210  29.331  1.00  0.00     0.074 A 
ATOM     22  C   UNL A   1      38.497  29.317  28.587  1.00  0.00     0.031 C 
ATOM     23  C   UNL A   1      39.679  34.493  32.998  1.00  0.00     0.029 A 
ATOM     24  C   UNL A   1      40.713  33.469  32.931  1.00  0.00     0.049 A 
ATOM     25  H   UNL A   1      40.757  31.782  31.710  1.00  0.00     0.167 HD
ATOM     26  C   UNL A   1      40.628  28.200  29.200  1.00  0.00     0.037 A 
ATOM     27  C   UNL A   1      41.833  33.451  33.677  1.00  0.00     0.037 A 
ATOM     28  C   UNL A   1      41.869  28.115  29.927  1.00  0.00     0.049 A 
ATOM     29  C   UNL A   1      42.796  32.315  33.520  1.00  0.00     0.074 A 
ATOM     30  C   UNL A   1      42.858  27.148  29.837  1.00  0.00     0.029 A 
ATOM     31  N   UNL A   1      42.294  29.030  30.877  1.00  0.00    -0.354 N 
ATOM     32  N   UNL A   1      42.726  31.281  32.716  1.00  0.00    -0.248 NA
ATOM     33  C   UNL A   1      43.989  32.335  34.376  1.00  0.00     0.031 C 
ATOM     34  C   UNL A   1      43.862  27.460  30.760  1.00  0.00     0.029 A 
ATOM     35  C   UNL A   1      43.520  28.643  31.393  1.00  0.00     0.049 A 
ATOM     36  H   UNL A   1      41.798  29.838  31.145  1.00  0.00     0.167 HD
ATOM     37  C   UNL A   1      43.871  30.535  32.960  1.00  0.00     0.074 A 
ATOM     38  C   UNL A   1      44.627  31.246  33.970  1.00  0.00     0.031 C 
ATOM     39  C   UNL A   1      44.258  29.364  32.399  1.00  0.00     0.037 A 
BRANCH  26  40
ATOM     40  C   UNL A   1      40.296  27.090  28.245  1.00  0.00     0.057 A 
ATOM     41  C   UNL A   1      40.829  27.040  26.951  1.00  0.00     0.134 A 
ATOM     42  C   UNL A   1      39.486  26.020  28.651  1.00  0.00     0.134 A 
ATOM     43  F   UNL A   1      41.604  28.035  26.496  1.00  0.00    -0.206 F 
ATOM     44  C   UNL A   1      40.559  25.973  26.091  1.00  0.00     0.040 A 
ATOM     45  C   UNL A   1      39.226  24.938  27.808  1.00  0.00     0.040 A 
ATOM     46  F   UNL A   1      38.949  26.001  29.880  1.00  0.00    -0.206 F 
ATOM     47  C   UNL A   1      39.761  24.914  26.522  1.00  0.00     0.006 A 
ENDBRANCH  26  40
BRANCH  27  48
ATOM     48  C   UNL A   1      42.084  34.544  34.650  1.00  0.00     0.057 A 
ATOM     49  C   UNL A   1      42.704  35.734  34.256  1.00  0.00     0.134 A 
ATOM     50  C   UNL A   1      41.692  34.429  35.989  1.00  0.00     0.134 A 
ATOM     51  F   UNL A   1      43.116  35.894  32.990  1.00  0.00    -0.206 F 
ATOM     52  C   UNL A   1      42.934  36.770  35.162  1.00  0.00     0.040 A 
ATOM     53  C   UNL A   1      41.891  35.468  36.899  1.00  0.00     0.040 A 
ATOM     54  F   UNL A   1      41.086  33.316  36.425  1.00  0.00    -0.206 F 
ATOM     55  C   UNL A   1      42.520  36.641  36.487  1.00  0.00     0.006 A 
ENDBRANCH  27  48
BRANCH  39  56
ATOM     56  C   UNL A   1      45.570  28.799  32.852  1.00  0.00     0.057 A 
ATOM     57  C   UNL A   1      46.775  29.143  32.225  1.00  0.00     0.134 A 
ATOM     58  C   UNL A   1      45.631  27.916  33.936  1.00  0.00     0.134 A 
ATOM     59  F   UNL A   1      46.780  29.972  31.170  1.00  0.00    -0.206 F 
ATOM     60  C   UNL A   1      47.992  28.608  32.647  1.00  0.00     0.040 A 
ATOM     61  C   UNL A   1      46.845  27.393  34.382  1.00  0.00     0.040 A 
ATOM     62  F   UNL A   1      44.513  27.552  34.582  1.00  0.00    -0.206 F 
ATOM     63  C   UNL A   1      48.029  27.734  33.732  1.00  0.00     0.006 A 
ENDBRANCH  39  56
ENDBRANCH  13  14
ENDBRANCH   6   8
ENDBRANCH   3   4
ENDBRANCH   2   3
ENDBRANCH   1   2
BRANCH   1  64
ATOM     64  N   UNL A   1      33.310  29.426  27.433  1.00  0.00    -0.356 N 
ATOM     65  C   UNL A   1      33.580  28.694  26.315  1.00  0.00     0.227 C 
ATOM     66  H   UNL A   1      32.775  29.035  28.161  1.00  0.00     0.163 HD
ATOM     67  O   UNL A   1      34.457  27.852  26.435  1.00  0.00    -0.275 OA
BRANCH  65  68
ATOM     68  C   UNL A   1      32.564  28.810  25.196  1.00  0.00     0.127 C 
ATOM     69  C   UNL A   1      31.233  28.141  25.611  1.00  0.00     0.127 C 
ATOM     70  C   UNL A   1      32.766  28.169  23.808  1.00  0.00     0.155 C 
ATOM     71  C   UNL A   1      30.775  27.453  24.341  1.00  0.00     0.155 C 
ATOM     72  C   UNL A   1      31.812  28.854  22.864  1.00  0.00     0.004 C 
ATOM     73  O   UNL A   1      32.037  26.915  23.902  1.00  0.00    -0.365 OA
ATOM     74  C   UNL A   1      30.581  28.457  23.232  1.00  0.00     0.004 C 
BRANCH  69  75
ATOM     75  C   UNL A   1      31.290  27.265  26.847  1.00  0.00     0.231 C 
ATOM     76  O   UNL A   1      31.072  27.859  27.924  1.00  0.00    -0.274 OA
ATOM     77  N   UNL A   1      31.515  25.943  27.005  1.00  0.00    -0.325 N 
ATOM     78  H   UNL A   1      31.518  25.758  27.972  1.00  0.00     0.169 HD
BRANCH  77  79
ATOM     79  C   UNL A   1      31.746  24.717  26.334  1.00  0.00     0.044 A 
ATOM     80  C   UNL A   1      30.603  23.886  26.481  1.00  0.00     0.026 A 
ATOM     81  C   UNL A   1      32.894  24.141  25.726  1.00  0.00    -0.020 A 
ATOM     82  C   UNL A   1      30.534  22.581  25.999  1.00  0.00     0.002 A 
ATOM     83  C   UNL A   1      32.789  22.807  25.241  1.00  0.00     0.006 A 
ATOM     84  C   UNL A   1      31.633  22.040  25.369  1.00  0.00     0.000 A 
BRANCH  81  85
ATOM     85  C   UNL A   1      34.245  24.764  25.455  1.00  0.00     0.073 C 
BRANCH  85  86
ATOM     86  C   UNL A   1      35.468  23.930  25.073  1.00  0.00    -0.044 A 
ATOM     87  C   UNL A   1      35.710  23.565  23.739  1.00  0.00     0.004 A 
ATOM     88  C   UNL A   1      36.274  23.342  26.062  1.00  0.00     0.004 A 
ATOM     89  C   UNL A   1      36.655  22.588  23.408  1.00  0.00     0.000 A 
ATOM     90  C   UNL A   1      37.245  22.387  25.729  1.00  0.00     0.000 A 
ATOM     91  C   UNL A   1      37.417  21.990  24.405  1.00  0.00     0.000 A 
ENDBRANCH  85  86
ENDBRANCH  81  85
ENDBRANCH  77  79
ENDBRANCH  69  75
ENDBRANCH  65  68
ENDBRANCH   1  64
TORSDOF 14
ENDMDL
MODEL 2
REMARK VINA RESULT:     -12.1      3.378      8.828
REMARK SMILES O=C(NCCCNC(=O)[C@@H]1[C@H](C(=O)Nc2ccccc2Cc2ccccc2)[C@H]2C=C[C@@H]1O2)c1ccc(-c2c3nc(c(-c4c(F)cccc4F)c4ccc([nH]4)c(-c4c(F)cccc4F)c4nc(c(-c5c(F)cccc5F)c5ccc2[nH]5)C=C4)C=C3)cc1
REMARK SMILES IDX 6 1 5 2 4 3 3 4 1 5 2 6 33 8 34 9 86 10 35 11 85 12 36 13
REMARK SMILES IDX 37 14 38 15 79 16 39 17 84 18 78 19 80 20 40 21 83 22 77 23
REMARK SMILES IDX 76 24 41 26 67 27 50 28 66 29 51 30 54 31 65 32 81 33 52 34
REMARK SMILES IDX 53 35 64 37 82 38 55 39 42 40 43 41 48 42 44 43 45 44 47 45
REMARK SMILES IDX 49 46 46 47 68 48 69 49 74 50 70 51 71 52 73 53 75 54 72 55
REMARK SMILES IDX 56 56 57 57 62 58 58 59 59 60 61 61 63 62 60 63 7 64 8 65
REMARK SMILES IDX 9 67 10 68 11 69 31 70 28 71 30 72 32 73 29 74 12 75 13 76
REMARK SMILES IDX 14 77 15 79 16 80 20 81 17 82 19 83 18 84 21 85 22 86 23 87
REMARK SMILES IDX 27 88 24 89 26 90 25 91
REMARK H PARENT 3 7 80 25 54 36 7 66 14 78
REMARK Flexibility Score: inf
ROOT
ATOM      1  C   UNL A   1      36.114  20.514  25.202  1.00  0.00     0.117 C 
ENDROOT
BRANCH   1   2
ATOM      2  C   UNL A   1      37.485  20.118  24.663  1.00  0.00     0.042 C 
BRANCH   2   3
ATOM      3  C   UNL A   1      38.600  20.459  25.659  1.00  0.00     0.118 C 
BRANCH   3   4
ATOM      4  N   UNL A   1      39.664  19.472  25.658  1.00  0.00    -0.352 N 
ATOM      5  O   UNL A   1      41.795  18.732  25.766  1.00  0.00    -0.269 OA
ATOM      6  C   UNL A   1      40.995  19.623  25.981  1.00  0.00     0.251 C 
ATOM      7  H   UNL A   1      39.396  18.564  25.387  1.00  0.00     0.163 HD
BRANCH   6   8
ATOM      8  C   UNL A   1      41.445  20.908  26.557  1.00  0.00     0.039 A 
ATOM      9  C   UNL A   1      41.345  21.144  27.929  1.00  0.00     0.014 A 
ATOM     10  C   UNL A   1      41.961  21.887  25.706  1.00  0.00     0.014 A 
ATOM     11  C   UNL A   1      41.618  22.412  28.430  1.00  0.00     0.010 A 
ATOM     12  C   UNL A   1      42.319  23.134  26.226  1.00  0.00     0.010 A 
ATOM     13  C   UNL A   1      42.120  23.417  27.587  1.00  0.00    -0.014 A 
BRANCH  13  14
ATOM     14  C   UNL A   1      42.492  24.737  28.155  1.00  0.00     0.031 A 
ATOM     15  C   UNL A   1      41.457  25.802  28.396  1.00  0.00     0.074 A 
ATOM     16  C   UNL A   1      43.784  24.969  28.458  1.00  0.00     0.049 A 
ATOM     17  N   UNL A   1      41.622  27.026  28.833  1.00  0.00    -0.248 NA
ATOM     18  C   UNL A   1      40.059  25.455  28.100  1.00  0.00     0.031 C 
ATOM     19  C   UNL A   1      44.878  24.014  28.261  1.00  0.00     0.029 A 
ATOM     20  N   UNL A   1      44.398  26.070  28.998  1.00  0.00    -0.354 N 
ATOM     21  C   UNL A   1      40.357  27.602  28.838  1.00  0.00     0.074 A 
ATOM     22  C   UNL A   1      39.436  26.600  28.347  1.00  0.00     0.031 C 
ATOM     23  C   UNL A   1      46.019  24.555  28.710  1.00  0.00     0.029 A 
ATOM     24  C   UNL A   1      45.753  25.916  29.158  1.00  0.00     0.049 A 
ATOM     25  H   UNL A   1      43.913  26.890  29.246  1.00  0.00     0.167 HD
ATOM     26  C   UNL A   1      40.003  28.853  29.220  1.00  0.00     0.037 A 
ATOM     27  C   UNL A   1      46.685  26.783  29.592  1.00  0.00     0.037 A 
ATOM     28  C   UNL A   1      40.923  29.837  29.732  1.00  0.00     0.049 A 
ATOM     29  C   UNL A   1      46.265  28.163  29.995  1.00  0.00     0.074 A 
ATOM     30  C   UNL A   1      40.654  31.120  30.180  1.00  0.00     0.029 A 
ATOM     31  N   UNL A   1      42.290  29.647  29.867  1.00  0.00    -0.354 N 
ATOM     32  N   UNL A   1      45.064  28.689  30.007  1.00  0.00    -0.248 NA
ATOM     33  C   UNL A   1      47.327  29.075  30.439  1.00  0.00     0.031 C 
ATOM     34  C   UNL A   1      41.863  31.719  30.549  1.00  0.00     0.029 A 
ATOM     35  C   UNL A   1      42.879  30.795  30.373  1.00  0.00     0.049 A 
ATOM     36  H   UNL A   1      42.771  28.819  29.638  1.00  0.00     0.167 HD
ATOM     37  C   UNL A   1      45.224  29.987  30.470  1.00  0.00     0.074 A 
ATOM     38  C   UNL A   1      46.635  30.162  30.748  1.00  0.00     0.031 C 
ATOM     39  C   UNL A   1      44.286  30.950  30.644  1.00  0.00     0.037 A 
BRANCH  26  40
ATOM     40  C   UNL A   1      38.559  29.244  29.089  1.00  0.00     0.057 A 
ATOM     41  C   UNL A   1      37.686  29.243  30.184  1.00  0.00     0.134 A 
ATOM     42  C   UNL A   1      38.053  29.694  27.861  1.00  0.00     0.134 A 
ATOM     43  F   UNL A   1      38.103  28.816  31.384  1.00  0.00    -0.206 F 
ATOM     44  C   UNL A   1      36.360  29.663  30.060  1.00  0.00     0.040 A 
ATOM     45  C   UNL A   1      36.736  30.137  27.730  1.00  0.00     0.040 A 
ATOM     46  F   UNL A   1      38.837  29.728  26.773  1.00  0.00    -0.206 F 
ATOM     47  C   UNL A   1      35.884  30.119  28.833  1.00  0.00     0.006 A 
ENDBRANCH  26  40
BRANCH  27  48
ATOM     48  C   UNL A   1      48.108  26.365  29.647  1.00  0.00     0.057 A 
ATOM     49  C   UNL A   1      48.645  25.780  30.798  1.00  0.00     0.134 A 
ATOM     50  C   UNL A   1      48.956  26.523  28.544  1.00  0.00     0.134 A 
ATOM     51  F   UNL A   1      47.886  25.618  31.892  1.00  0.00    -0.206 F 
ATOM     52  C   UNL A   1      49.979  25.374  30.854  1.00  0.00     0.040 A 
ATOM     53  C   UNL A   1      50.283  26.096  28.577  1.00  0.00     0.040 A 
ATOM     54  F   UNL A   1      48.497  27.070  27.409  1.00  0.00    -0.206 F 
ATOM     55  C   UNL A   1      50.800  25.525  29.738  1.00  0.00     0.006 A 
ENDBRANCH  27  48
BRANCH  39  56
ATOM     56  C   UNL A   1      44.759  32.264  31.186  1.00  0.00     0.057 A 
ATOM     57  C   UNL A   1      45.143  33.313  30.341  1.00  0.00     0.134 A 
ATOM     58  C   UNL A   1      44.815  32.488  32.567  1.00  0.00     0.134 A 
ATOM     59  F   UNL A   1      45.127  33.154  29.009  1.00  0.00    -0.206 F 
ATOM     60  C   UNL A   1      45.589  34.532  30.852  1.00  0.00     0.040 A 
ATOM     61  C   UNL A   1      45.238  33.711  33.090  1.00  0.00     0.040 A 
ATOM     62  F   UNL A   1      44.456  31.525  33.428  1.00  0.00    -0.206 F 
ATOM     63  C   UNL A   1      45.633  34.735  32.231  1.00  0.00     0.006 A 
ENDBRANCH  39  56
ENDBRANCH  13  14
ENDBRANCH   6   8
ENDBRANCH   3   4
ENDBRANCH   2   3
ENDBRANCH   1   2
BRANCH   1  64
ATOM     64  N   UNL A   1      35.715  21.790  24.647  1.00  0.00    -0.356 N 
ATOM     65  C   UNL A   1      34.969  22.652  25.395  1.00  0.00     0.227 C 
ATOM     66  H   UNL A   1      35.982  22.035  23.732  1.00  0.00     0.163 HD
ATOM     67  O   UNL A   1      35.579  23.592  25.882  1.00  0.00    -0.275 OA
BRANCH  65  68
ATOM     68  C   UNL A   1      33.467  22.502  25.262  1.00  0.00     0.127 C 
ATOM     69  C   UNL A   1      32.942  23.379  24.102  1.00  0.00     0.127 C 
ATOM     70  C   UNL A   1      32.480  22.909  26.375  1.00  0.00     0.155 C 
ATOM     71  C   UNL A   1      31.637  23.930  24.641  1.00  0.00     0.155 C 
ATOM     72  C   UNL A   1      31.174  22.216  26.080  1.00  0.00     0.004 C 
ATOM     73  O   UNL A   1      32.055  24.243  25.983  1.00  0.00    -0.365 OA
ATOM     74  C   UNL A   1      30.684  22.808  24.976  1.00  0.00     0.004 C 
BRANCH  69  75
ATOM     75  C   UNL A   1      33.913  24.410  23.560  1.00  0.00     0.231 C 
ATOM     76  O   UNL A   1      34.767  23.962  22.767  1.00  0.00    -0.274 OA
ATOM     77  N   UNL A   1      34.019  25.741  23.760  1.00  0.00    -0.325 N 
ATOM     78  H   UNL A   1      34.812  26.051  23.266  1.00  0.00     0.169 HD
BRANCH  77  79
ATOM     79  C   UNL A   1      33.443  26.869  24.395  1.00  0.00     0.044 A 
ATOM     80  C   UNL A   1      34.086  27.074  25.645  1.00  0.00     0.026 A 
ATOM     81  C   UNL A   1      32.309  27.675  24.108  1.00  0.00    -0.020 A 
ATOM     82  C   UNL A   1      33.707  28.060  26.552  1.00  0.00     0.002 A 
ATOM     83  C   UNL A   1      31.950  28.676  25.054  1.00  0.00     0.006 A 
ATOM     84  C   UNL A   1      32.635  28.871  26.251  1.00  0.00     0.000 A 
BRANCH  81  85
ATOM     85  C   UNL A   1      31.421  27.672  22.884  1.00  0.00     0.073 C 
BRANCH  85  86
ATOM     86  C   UNL A   1      30.189  28.570  22.766  1.00  0.00    -0.044 A 
ATOM     87  C   UNL A   1      28.931  28.138  23.217  1.00  0.00     0.004 A 
ATOM     88  C   UNL A   1      30.239  29.766  22.032  1.00  0.00     0.004 A 
ATOM     89  C   UNL A   1      27.759  28.821  22.874  1.00  0.00     0.000 A 
ATOM     90  C   UNL A   1      29.068  30.470  21.717  1.00  0.00     0.000 A 
ATOM     91  C   UNL A   1      27.826  29.983  22.115  1.00  0.00     0.000 A 
ENDBRANCH  85  86
ENDBRANCH  81  85
ENDBRANCH  77  79
ENDBRANCH  69  75
ENDBRANCH  65  68
ENDBRANCH   1  64
TORSDOF 14
ENDMDL
MODEL 3
REMARK VINA RESULT:     -12.1      0.328      5.927
REMARK SMILES O=C(NCCCNC(=O)[C@@H]1[C@H](C(=O)Nc2ccccc2Cc2ccccc2)[C@H]2C=C[C@@H]1O2)c1ccc(-c2c3nc(c(-c4c(F)cccc4F)c4ccc([nH]4)c(-c4c(F)cccc4F)c4nc(c(-c5c(F)cccc5F)c5ccc2[nH]5)C=C4)C=C3)cc1
REMARK SMILES IDX 6 1 5 2 4 3 3 4 1 5 2 6 33 8 34 9 86 10 35 11 85 12 36 13
REMARK SMILES IDX 37 14 38 15 79 16 39 17 84 18 78 19 80 20 40 21 83 22 77 23
REMARK SMILES IDX 76 24 41 26 67 27 50 28 66 29 51 30 54 31 65 32 81 33 52 34
REMARK SMILES IDX 53 35 64 37 82 38 55 39 42 40 43 41 48 42 44 43 45 44 47 45
REMARK SMILES IDX 49 46 46 47 68 48 69 49 74 50 70 51 71 52 73 53 75 54 72 55
REMARK SMILES IDX 56 56 57 57 62 58 58 59 59 60 61 61 63 62 60 63 7 64 8 65
REMARK SMILES IDX 9 67 10 68 11 69 31 70 28 71 30 72 32 73 29 74 12 75 13 76
REMARK SMILES IDX 14 77 15 79 16 80 20 81 17 82 19 83 18 84 21 85 22 86 23 87
REMARK SMILES IDX 27 88 24 89 26 90 25 91
REMARK H PARENT 3 7 80 25 54 36 7 66 14 78
REMARK Flexibility Score: inf
ROOT
ATOM      1  C   UNL A   1      33.824  30.903  27.606  1.00  0.00     0.117 C 
ENDROOT
BRANCH   1   2
ATOM      2  C   UNL A   1      32.659  31.889  27.597  1.00  0.00     0.042 C 
BRANCH   2   3
ATOM      3  C   UNL A   1      33.122  33.300  27.211  1.00  0.00     0.118 C 
BRANCH   3   4
ATOM      4  N   UNL A   1      32.677  34.305  28.159  1.00  0.00    -0.352 N 
ATOM      5  O   UNL A   1      32.639  35.416  30.125  1.00  0.00    -0.269 OA
ATOM      6  C   UNL A   1      33.230  34.670  29.368  1.00  0.00     0.251 C 
ATOM      7  H   UNL A   1      31.864  34.796  27.902  1.00  0.00     0.163 HD
BRANCH   6   8
ATOM      8  C   UNL A   1      34.540  34.102  29.750  1.00  0.00     0.039 A 
ATOM      9  C   UNL A   1      35.702  34.481  29.074  1.00  0.00     0.014 A 
ATOM     10  C   UNL A   1      34.598  33.173  30.790  1.00  0.00     0.014 A 
ATOM     11  C   UNL A   1      36.896  33.818  29.335  1.00  0.00     0.010 A 
ATOM     12  C   UNL A   1      35.818  32.571  31.111  1.00  0.00     0.010 A 
ATOM     13  C   UNL A   1      36.970  32.866  30.365  1.00  0.00    -0.014 A 
BRANCH  13  14
ATOM     14  C   UNL A   1      38.274  32.234  30.690  1.00  0.00     0.031 A 
ATOM     15  C   UNL A   1      39.228  32.870  31.663  1.00  0.00     0.074 A 
ATOM     16  C   UNL A   1      38.592  31.067  30.096  1.00  0.00     0.049 A 
ATOM     17  N   UNL A   1      40.428  32.480  32.015  1.00  0.00    -0.248 NA
ATOM     18  C   UNL A   1      38.786  34.110  32.319  1.00  0.00     0.031 C 
ATOM     19  C   UNL A   1      37.749  30.358  29.129  1.00  0.00     0.029 A 
ATOM     20  N   UNL A   1      39.700  30.268  30.218  1.00  0.00    -0.354 N 
ATOM     21  C   UNL A   1      40.894  33.436  32.909  1.00  0.00     0.074 A 
ATOM     22  C   UNL A   1      39.854  34.435  33.035  1.00  0.00     0.031 C 
ATOM     23  C   UNL A   1      38.351  29.214  28.777  1.00  0.00     0.029 A 
ATOM     24  C   UNL A   1      39.650  29.142  29.434  1.00  0.00     0.049 A 
ATOM     25  H   UNL A   1      40.457  30.483  30.810  1.00  0.00     0.167 HD
ATOM     26  C   UNL A   1      42.081  33.471  33.563  1.00  0.00     0.037 A 
ATOM     27  C   UNL A   1      40.560  28.170  29.243  1.00  0.00     0.037 A 
ATOM     28  C   UNL A   1      43.099  32.459  33.451  1.00  0.00     0.049 A 
ATOM     29  C   UNL A   1      41.868  28.243  29.969  1.00  0.00     0.074 A 
ATOM     30  C   UNL A   1      44.321  32.387  34.101  1.00  0.00     0.029 A 
ATOM     31  N   UNL A   1      43.017  31.339  32.636  1.00  0.00    -0.354 N 
ATOM     32  N   UNL A   1      42.288  29.147  30.821  1.00  0.00    -0.248 NA
ATOM     33  C   UNL A   1      42.832  27.167  29.705  1.00  0.00     0.031 C 
ATOM     34  C   UNL A   1      44.992  31.245  33.651  1.00  0.00     0.029 A 
ATOM     35  C   UNL A   1      44.171  30.582  32.754  1.00  0.00     0.049 A 
ATOM     36  H   UNL A   1      42.250  31.115  32.061  1.00  0.00     0.167 HD
ATOM     37  C   UNL A   1      43.559  28.743  31.204  1.00  0.00     0.074 A 
ATOM     38  C   UNL A   1      43.832  27.502  30.508  1.00  0.00     0.031 C 
ATOM     39  C   UNL A   1      44.424  29.349  32.053  1.00  0.00     0.037 A 
BRANCH  26  40
ATOM     40  C   UNL A   1      42.357  34.649  34.452  1.00  0.00     0.057 A 
ATOM     41  C   UNL A   1      42.889  35.845  33.955  1.00  0.00     0.134 A 
ATOM     42  C   UNL A   1      42.020  34.609  35.812  1.00  0.00     0.134 A 
ATOM     43  F   UNL A   1      43.242  35.948  32.665  1.00  0.00    -0.206 F 
ATOM     44  C   UNL A   1      43.089  36.954  34.781  1.00  0.00     0.040 A 
ATOM     45  C   UNL A   1      42.194  35.717  36.642  1.00  0.00     0.040 A 
ATOM     46  F   UNL A   1      41.498  33.497  36.351  1.00  0.00    -0.206 F 
ATOM     47  C   UNL A   1      42.733  36.894  36.127  1.00  0.00     0.006 A 
ENDBRANCH  26  40
BRANCH  27  48
ATOM     48  C   UNL A   1      40.259  27.058  28.308  1.00  0.00     0.057 A 
ATOM     49  C   UNL A   1      40.816  27.021  27.025  1.00  0.00     0.134 A 
ATOM     50  C   UNL A   1      39.426  25.997  28.683  1.00  0.00     0.134 A 
ATOM     51  F   UNL A   1      41.608  28.017  26.604  1.00  0.00    -0.206 F 
ATOM     52  C   UNL A   1      40.547  25.973  26.144  1.00  0.00     0.040 A 
ATOM     53  C   UNL A   1      39.171  24.929  27.822  1.00  0.00     0.040 A 
ATOM     54  F   UNL A   1      38.869  25.972  29.902  1.00  0.00    -0.206 F 
ATOM     55  C   UNL A   1      39.728  24.919  26.545  1.00  0.00     0.006 A 
ENDBRANCH  27  48
BRANCH  39  56
ATOM     56  C   UNL A   1      45.732  28.658  32.291  1.00  0.00     0.057 A 
ATOM     57  C   UNL A   1      46.864  28.935  31.513  1.00  0.00     0.134 A 
ATOM     58  C   UNL A   1      45.866  27.718  33.320  1.00  0.00     0.134 A 
ATOM     59  F   UNL A   1      46.795  29.814  30.502  1.00  0.00    -0.206 F 
ATOM     60  C   UNL A   1      48.077  28.283  31.736  1.00  0.00     0.040 A 
ATOM     61  C   UNL A   1      47.080  27.077  33.568  1.00  0.00     0.040 A 
ATOM     62  F   UNL A   1      44.821  27.413  34.104  1.00  0.00    -0.206 F 
ATOM     63  C   UNL A   1      48.188  27.354  32.770  1.00  0.00     0.006 A 
ENDBRANCH  39  56
ENDBRANCH  13  14
ENDBRANCH   6   8
ENDBRANCH   3   4
ENDBRANCH   2   3
ENDBRANCH   1   2
BRANCH   1  64
ATOM     64  N   UNL A   1      33.324  29.549  27.493  1.00  0.00    -0.356 N 
ATOM     65  C   UNL A   1      33.656  28.791  26.409  1.00  0.00     0.227 C 
ATOM     66  H   UNL A   1      32.746  29.176  28.197  1.00  0.00     0.163 HD
ATOM     67  O   UNL A   1      34.521  27.949  26.599  1.00  0.00    -0.275 OA
BRANCH  65  68
ATOM     68  C   UNL A   1      32.707  28.883  25.231  1.00  0.00     0.127 C 
ATOM     69  C   UNL A   1      31.358  28.210  25.576  1.00  0.00     0.127 C 
ATOM     70  C   UNL A   1      32.995  28.226  23.866  1.00  0.00     0.155 C 
ATOM     71  C   UNL A   1      30.981  27.501  24.291  1.00  0.00     0.155 C 
ATOM     72  C   UNL A   1      32.093  28.891  22.858  1.00  0.00     0.004 C 
ATOM     73  O   UNL A   1      32.271  26.967  23.934  1.00  0.00    -0.365 OA
ATOM     74  C   UNL A   1      30.845  28.489  23.158  1.00  0.00     0.004 C 
BRANCH  69  75
ATOM     75  C   UNL A   1      31.348  27.350  26.825  1.00  0.00     0.231 C 
ATOM     76  O   UNL A   1      31.099  27.964  27.884  1.00  0.00    -0.274 OA
ATOM     77  N   UNL A   1      31.541  26.027  27.010  1.00  0.00    -0.325 N 
ATOM     78  H   UNL A   1      31.501  25.855  27.978  1.00  0.00     0.169 HD
BRANCH  77  79
ATOM     79  C   UNL A   1      31.775  24.787  26.365  1.00  0.00     0.044 A 
ATOM     80  C   UNL A   1      30.616  23.974  26.491  1.00  0.00     0.026 A 
ATOM     81  C   UNL A   1      32.931  24.186  25.800  1.00  0.00    -0.020 A 
ATOM     82  C   UNL A   1      30.543  22.663  26.028  1.00  0.00     0.002 A 
ATOM     83  C   UNL A   1      32.822  22.845  25.334  1.00  0.00     0.006 A 
ATOM     84  C   UNL A   1      31.652  22.097  25.439  1.00  0.00     0.000 A 
BRANCH  81  85
ATOM     85  C   UNL A   1      34.298  24.786  25.560  1.00  0.00     0.073 C 
BRANCH  85  86
ATOM     86  C   UNL A   1      35.497  23.941  25.125  1.00  0.00    -0.044 A 
ATOM     87  C   UNL A   1      35.718  23.638  23.772  1.00  0.00     0.004 A 
ATOM     88  C   UNL A   1      36.296  23.285  26.075  1.00  0.00     0.004 A 
ATOM     89  C   UNL A   1      36.635  22.655  23.384  1.00  0.00     0.000 A 
ATOM     90  C   UNL A   1      37.240  22.324  25.686  1.00  0.00     0.000 A 
ATOM     91  C   UNL A   1      37.390  21.990  24.343  1.00  0.00     0.000 A 
ENDBRANCH  85  86
ENDBRANCH  81  85
ENDBRANCH  77  79
ENDBRANCH  69  75
ENDBRANCH  65  68
ENDBRANCH   1  64
TORSDOF 14
ENDMDL
