MODEL 1
REMARK VINA RESULT:     -11.5      0.000      0.000
REMARK SMILES [NH3+][C@H](C(=O)NCCCNC(=O)c1ccc(-c2c3nc(c(-c4c(F)cccc4F)c4ccc([nH]4)c(-c4c(F)cccc4F)c4nc(c(-c5c(F)cccc5F)c5ccc2[nH]5)C=C4)C=C3)cc1)c1cc2[nH]ccc2cc1O
REMARK SMILES IDX 7 1 6 2 5 3 3 4 4 5 2 7 1 8 66 12 67 13 74 14 68 15 73 16
REMARK SMILES IDX 69 17 72 18 70 19 71 21 75 22 8 24 9 25 10 26 11 28 12 29
REMARK SMILES IDX 13 30 65 31 14 32 64 33 15 34 16 35 17 36 58 37 18 38 63 39
REMARK SMILES IDX 57 40 59 41 19 42 62 43 56 44 55 45 20 47 46 48 29 49 45 50
REMARK SMILES IDX 30 51 33 52 44 53 60 54 31 55 32 56 43 58 61 59 34 60 21 61
REMARK SMILES IDX 22 62 27 63 23 64 24 65 26 66 28 67 25 68 47 69 48 70 53 71
REMARK SMILES IDX 49 72 50 73 52 74 54 75 51 76 35 77 36 78 41 79 37 80 38 81
REMARK SMILES IDX 40 82 42 83 39 84
REMARK H PARENT 5 6 1 9 1 10 1 11 69 20 75 23 9 27 59 46 33 57
REMARK Flexibility Score: inf
ROOT
ATOM      1  C   UNL A   1      34.006  28.425  25.799  1.00  0.00     0.042 C 
ENDROOT
BRANCH   1   2
ATOM      2  C   UNL A   1      33.399  27.187  25.160  1.00  0.00     0.118 C 
BRANCH   2   3
ATOM      3  N   UNL A   1      32.324  26.624  25.961  1.00  0.00    -0.351 N 
ATOM      4  C   UNL A   1      31.114  26.112  25.603  1.00  0.00     0.283 C 
ATOM      5  O   UNL A   1      30.465  25.569  26.503  1.00  0.00    -0.268 OA
ATOM      6  H   UNL A   1      32.501  26.611  26.929  1.00  0.00     0.163 HD
BRANCH   4   7
ATOM      7  C   UNL A   1      30.571  26.164  24.165  1.00  0.00     0.306 C 
BRANCH   7   8
ATOM      8  N   UNL A   1      29.964  24.869  23.769  1.00  0.00    -0.343 N 
ATOM      9  H   UNL A   1      28.983  25.011  23.532  1.00  0.00     0.345 HD
ATOM     10  H   UNL A   1      30.034  24.210  24.545  1.00  0.00     0.345 HD
ATOM     11  H   UNL A   1      30.459  24.494  22.960  1.00  0.00     0.345 HD
ENDBRANCH   7   8
BRANCH   7  12
ATOM     12  C   UNL A   1      29.665  27.330  23.778  1.00  0.00     0.063 A 
ATOM     13  C   UNL A   1      30.343  28.500  23.357  1.00  0.00     0.041 A 
ATOM     14  C   UNL A   1      28.269  27.312  23.677  1.00  0.00     0.126 A 
ATOM     15  C   UNL A   1      29.623  29.507  22.708  1.00  0.00     0.046 A 
ATOM     16  C   UNL A   1      27.562  28.310  22.992  1.00  0.00     0.057 A 
ATOM     17  N   UNL A   1      30.045  30.702  22.175  1.00  0.00    -0.361 N 
ATOM     18  C   UNL A   1      28.258  29.406  22.459  1.00  0.00     0.003 A 
ATOM     19  C   UNL A   1      29.026  31.286  21.471  1.00  0.00     0.083 A 
ATOM     20  H   UNL A   1      30.948  31.081  22.283  1.00  0.00     0.166 HD
ATOM     21  C   UNL A   1      27.899  30.514  21.645  1.00  0.00     0.028 A 
BRANCH  14  22
ATOM     22  O   UNL A   1      27.469  26.334  24.200  1.00  0.00    -0.507 OA
ATOM     23  H   UNL A   1      26.538  26.396  24.114  1.00  0.00     0.293 HD
ENDBRANCH  14  22
ENDBRANCH   7  12
ENDBRANCH   4   7
ENDBRANCH   2   3
ENDBRANCH   1   2
BRANCH   1  24
ATOM     24  C   UNL A   1      33.627  28.609  27.262  1.00  0.00     0.118 C 
BRANCH  24  25
ATOM     25  N   UNL A   1      33.661  30.000  27.692  1.00  0.00    -0.352 N 
ATOM     26  C   UNL A   1      34.671  30.712  28.296  1.00  0.00     0.251 C 
ATOM     27  H   UNL A   1      32.835  30.508  27.525  1.00  0.00     0.163 HD
ATOM     28  O   UNL A   1      34.453  31.839  28.722  1.00  0.00    -0.269 OA
BRANCH  26  29
ATOM     29  C   UNL A   1      36.008  30.102  28.464  1.00  0.00     0.039 A 
ATOM     30  C   UNL A   1      36.927  30.206  27.418  1.00  0.00     0.014 A 
ATOM     31  C   UNL A   1      36.361  29.445  29.646  1.00  0.00     0.014 A 
ATOM     32  C   UNL A   1      38.225  29.725  27.590  1.00  0.00     0.010 A 
ATOM     33  C   UNL A   1      37.681  29.048  29.848  1.00  0.00     0.010 A 
ATOM     34  C   UNL A   1      38.628  29.190  28.825  1.00  0.00    -0.014 A 
BRANCH  34  35
ATOM     35  C   UNL A   1      40.042  28.804  29.068  1.00  0.00     0.031 A 
ATOM     36  C   UNL A   1      40.997  29.769  29.716  1.00  0.00     0.074 A 
ATOM     37  C   UNL A   1      40.482  27.602  28.643  1.00  0.00     0.049 A 
ATOM     38  N   UNL A   1      42.276  29.630  29.953  1.00  0.00    -0.248 NA
ATOM     39  C   UNL A   1      40.448  31.070  30.132  1.00  0.00     0.031 C 
ATOM     40  C   UNL A   1      39.667  26.597  27.956  1.00  0.00     0.029 A 
ATOM     41  N   UNL A   1      41.724  27.024  28.718  1.00  0.00    -0.354 N 
ATOM     42  C   UNL A   1      42.685  30.823  30.535  1.00  0.00     0.074 A 
ATOM     43  C   UNL A   1      41.532  31.696  30.569  1.00  0.00     0.031 C 
ATOM     44  C   UNL A   1      40.424  25.518  27.697  1.00  0.00     0.029 A 
ATOM     45  C   UNL A   1      41.786  25.771  28.156  1.00  0.00     0.049 A 
ATOM     46  H   UNL A   1      42.499  27.465  29.137  1.00  0.00     0.167 HD
ATOM     47  C   UNL A   1      43.908  31.152  31.016  1.00  0.00     0.037 A 
ATOM     48  C   UNL A   1      42.825  24.927  28.011  1.00  0.00     0.037 A 
ATOM     49  C   UNL A   1      45.048  30.274  31.002  1.00  0.00     0.049 A 
ATOM     50  C   UNL A   1      44.175  25.331  28.536  1.00  0.00     0.074 A 
ATOM     51  C   UNL A   1      46.310  30.495  31.525  1.00  0.00     0.029 A 
ATOM     52  N   UNL A   1      45.068  29.011  30.428  1.00  0.00    -0.354 N 
ATOM     53  N   UNL A   1      44.526  26.431  29.157  1.00  0.00    -0.248 NA
ATOM     54  C   UNL A   1      45.273  24.373  28.346  1.00  0.00     0.031 C 
ATOM     55  C   UNL A   1      47.110  29.391  31.219  1.00  0.00     0.029 A 
ATOM     56  C   UNL A   1      46.330  28.456  30.558  1.00  0.00     0.049 A 
ATOM     57  H   UNL A   1      44.300  28.576  29.994  1.00  0.00     0.167 HD
ATOM     58  C   UNL A   1      45.875  26.285  29.456  1.00  0.00     0.074 A 
ATOM     59  C   UNL A   1      46.272  24.981  28.968  1.00  0.00     0.031 C 
ATOM     60  C   UNL A   1      46.710  27.153  30.076  1.00  0.00     0.037 A 
BRANCH  47  61
ATOM     61  C   UNL A   1      44.083  32.521  31.607  1.00  0.00     0.057 A 
ATOM     62  C   UNL A   1      44.447  33.624  30.824  1.00  0.00     0.134 A 
ATOM     63  C   UNL A   1      43.814  32.753  32.963  1.00  0.00     0.134 A 
ATOM     64  F   UNL A   1      44.730  33.470  29.522  1.00  0.00    -0.206 F 
ATOM     65  C   UNL A   1      44.550  34.905  31.369  1.00  0.00     0.040 A 
ATOM     66  C   UNL A   1      43.887  34.033  33.514  1.00  0.00     0.040 A 
ATOM     67  F   UNL A   1      43.455  31.743  33.769  1.00  0.00    -0.206 F 
ATOM     68  C   UNL A   1      44.259  35.114  32.717  1.00  0.00     0.006 A 
ENDBRANCH  47  61
BRANCH  48  69
ATOM     69  C   UNL A   1      42.639  23.613  27.340  1.00  0.00     0.057 A 
ATOM     70  C   UNL A   1      42.247  22.480  28.062  1.00  0.00     0.134 A 
ATOM     71  C   UNL A   1      42.888  23.448  25.973  1.00  0.00     0.134 A 
ATOM     72  F   UNL A   1      42.012  22.567  29.380  1.00  0.00    -0.206 F 
ATOM     73  C   UNL A   1      42.141  21.225  27.459  1.00  0.00     0.040 A 
ATOM     74  C   UNL A   1      42.756  22.206  25.348  1.00  0.00     0.040 A 
ATOM     75  F   UNL A   1      43.260  24.495  25.220  1.00  0.00    -0.206 F 
ATOM     76  C   UNL A   1      42.394  21.088  26.096  1.00  0.00     0.006 A 
ENDBRANCH  48  69
BRANCH  60  77
ATOM     77  C   UNL A   1      48.127  26.706  30.296  1.00  0.00     0.057 A 
ATOM     78  C   UNL A   1      49.149  27.007  29.388  1.00  0.00     0.134 A 
ATOM     79  C   UNL A   1      48.477  25.993  31.450  1.00  0.00     0.134 A 
ATOM     80  F   UNL A   1      48.880  27.675  28.257  1.00  0.00    -0.206 F 
ATOM     81  C   UNL A   1      50.464  26.590  29.606  1.00  0.00     0.040 A 
ATOM     82  C   UNL A   1      49.792  25.598  31.694  1.00  0.00     0.040 A 
ATOM     83  F   UNL A   1      47.548  25.681  32.367  1.00  0.00    -0.206 F 
ATOM     84  C   UNL A   1      50.790  25.890  30.766  1.00  0.00     0.006 A 
ENDBRANCH  60  77
ENDBRANCH  34  35
ENDBRANCH  26  29
ENDBRANCH  24  25
ENDBRANCH   1  24
TORSDOF 13
ENDMDL
MODEL 2
REMARK VINA RESULT:     -11.2      0.327      6.482
REMARK SMILES [NH3+][C@H](C(=O)NCCCNC(=O)c1ccc(-c2c3nc(c(-c4c(F)cccc4F)c4ccc([nH]4)c(-c4c(F)cccc4F)c4nc(c(-c5c(F)cccc5F)c5ccc2[nH]5)C=C4)C=C3)cc1)c1cc2[nH]ccc2cc1O
REMARK SMILES IDX 7 1 6 2 5 3 3 4 4 5 2 7 1 8 66 12 67 13 74 14 68 15 73 16
REMARK SMILES IDX 69 17 72 18 70 19 71 21 75 22 8 24 9 25 10 26 11 28 12 29
REMARK SMILES IDX 13 30 65 31 14 32 64 33 15 34 16 35 17 36 58 37 18 38 63 39
REMARK SMILES IDX 57 40 59 41 19 42 62 43 56 44 55 45 20 47 46 48 29 49 45 50
REMARK SMILES IDX 30 51 33 52 44 53 60 54 31 55 32 56 43 58 61 59 34 60 21 61
REMARK SMILES IDX 22 62 27 63 23 64 24 65 26 66 28 67 25 68 47 69 48 70 53 71
REMARK SMILES IDX 49 72 50 73 52 74 54 75 51 76 35 77 36 78 41 79 37 80 38 81
REMARK SMILES IDX 40 82 42 83 39 84
REMARK H PARENT 5 6 1 9 1 10 1 11 69 20 75 23 9 27 59 46 33 57
REMARK Flexibility Score: inf
ROOT
ATOM      1  C   UNL A   1      34.049  28.249  25.839  1.00  0.00     0.042 C 
ENDROOT
BRANCH   1   2
ATOM      2  C   UNL A   1      33.415  27.033  25.184  1.00  0.00     0.118 C 
BRANCH   2   3
ATOM      3  N   UNL A   1      32.296  26.513  25.954  1.00  0.00    -0.351 N 
ATOM      4  C   UNL A   1      31.070  26.067  25.564  1.00  0.00     0.283 C 
ATOM      5  O   UNL A   1      30.375  25.544  26.442  1.00  0.00    -0.268 OA
ATOM      6  H   UNL A   1      32.451  26.477  26.925  1.00  0.00     0.163 HD
BRANCH   4   7
ATOM      7  C   UNL A   1      30.561  26.168  24.115  1.00  0.00     0.306 C 
BRANCH   7   8
ATOM      8  N   UNL A   1      29.978  24.882  23.658  1.00  0.00    -0.343 N 
ATOM      9  H   UNL A   1      29.194  24.631  24.259  1.00  0.00     0.345 HD
ATOM     10  H   UNL A   1      30.688  24.151  23.703  1.00  0.00     0.345 HD
ATOM     11  H   UNL A   1      29.651  24.979  22.697  1.00  0.00     0.345 HD
ENDBRANCH   7   8
BRANCH   7  12
ATOM     12  C   UNL A   1      29.652  27.338  23.750  1.00  0.00     0.063 A 
ATOM     13  C   UNL A   1      30.326  28.519  23.357  1.00  0.00     0.041 A 
ATOM     14  C   UNL A   1      28.256  27.317  23.644  1.00  0.00     0.126 A 
ATOM     15  C   UNL A   1      29.605  29.538  22.727  1.00  0.00     0.046 A 
ATOM     16  C   UNL A   1      27.548  28.327  22.978  1.00  0.00     0.057 A 
ATOM     17  N   UNL A   1      30.024  30.745  22.221  1.00  0.00    -0.361 N 
ATOM     18  C   UNL A   1      28.241  29.436  22.471  1.00  0.00     0.003 A 
ATOM     19  C   UNL A   1      29.005  31.340  21.526  1.00  0.00     0.083 A 
ATOM     20  H   UNL A   1      30.925  31.126  22.341  1.00  0.00     0.166 HD
ATOM     21  C   UNL A   1      27.881  30.560  21.679  1.00  0.00     0.028 A 
BRANCH  14  22
ATOM     22  O   UNL A   1      27.458  26.325  24.143  1.00  0.00    -0.507 OA
ATOM     23  H   UNL A   1      27.286  25.560  23.629  1.00  0.00     0.293 HD
ENDBRANCH  14  22
ENDBRANCH   7  12
ENDBRANCH   4   7
ENDBRANCH   2   3
ENDBRANCH   1   2
BRANCH   1  24
ATOM     24  C   UNL A   1      33.586  28.487  27.270  1.00  0.00     0.118 C 
BRANCH  24  25
ATOM     25  N   UNL A   1      33.575  29.895  27.642  1.00  0.00    -0.352 N 
ATOM     26  C   UNL A   1      34.563  30.665  28.208  1.00  0.00     0.251 C 
ATOM     27  H   UNL A   1      32.731  30.367  27.460  1.00  0.00     0.163 HD
ATOM     28  O   UNL A   1      34.310  31.800  28.588  1.00  0.00    -0.269 OA
BRANCH  26  29
ATOM     29  C   UNL A   1      35.921  30.109  28.392  1.00  0.00     0.039 A 
ATOM     30  C   UNL A   1      36.836  30.215  27.342  1.00  0.00     0.014 A 
ATOM     31  C   UNL A   1      36.298  29.497  29.591  1.00  0.00     0.014 A 
ATOM     32  C   UNL A   1      38.151  29.787  27.526  1.00  0.00     0.010 A 
ATOM     33  C   UNL A   1      37.631  29.153  29.802  1.00  0.00     0.010 A 
ATOM     34  C   UNL A   1      38.573  29.301  28.775  1.00  0.00    -0.014 A 
BRANCH  34  35
ATOM     35  C   UNL A   1      40.000  28.973  29.027  1.00  0.00     0.031 A 
ATOM     36  C   UNL A   1      40.566  27.648  28.595  1.00  0.00     0.074 A 
ATOM     37  C   UNL A   1      40.769  29.848  29.706  1.00  0.00     0.049 A 
ATOM     38  N   UNL A   1      41.769  27.165  28.782  1.00  0.00    -0.248 NA
ATOM     39  C   UNL A   1      39.659  26.737  27.879  1.00  0.00     0.031 C 
ATOM     40  C   UNL A   1      40.323  31.144  30.223  1.00  0.00     0.029 A 
ATOM     41  N   UNL A   1      42.085  29.777  30.086  1.00  0.00    -0.354 N 
ATOM     42  C   UNL A   1      41.759  25.897  28.217  1.00  0.00     0.074 A 
ATOM     43  C   UNL A   1      40.418  25.661  27.727  1.00  0.00     0.031 C 
ATOM     44  C   UNL A   1      41.353  31.756  30.828  1.00  0.00     0.029 A 
ATOM     45  C   UNL A   1      42.519  30.879  30.785  1.00  0.00     0.049 A 
ATOM     46  H   UNL A   1      42.666  29.009  29.877  1.00  0.00     0.167 HD
ATOM     47  C   UNL A   1      42.781  25.016  28.101  1.00  0.00     0.037 A 
ATOM     48  C   UNL A   1      43.716  31.147  31.342  1.00  0.00     0.037 A 
ATOM     49  C   UNL A   1      44.120  25.261  28.570  1.00  0.00     0.049 A 
ATOM     50  C   UNL A   1      44.825  30.139  31.214  1.00  0.00     0.074 A 
ATOM     51  C   UNL A   1      45.238  24.456  28.439  1.00  0.00     0.029 A 
ATOM     52  N   UNL A   1      44.520  26.392  29.267  1.00  0.00    -0.354 N 
ATOM     53  N   UNL A   1      44.821  28.977  30.606  1.00  0.00    -0.248 NA
ATOM     54  C   UNL A   1      46.107  30.482  31.846  1.00  0.00     0.031 C 
ATOM     55  C   UNL A   1      46.301  25.072  29.106  1.00  0.00     0.029 A 
ATOM     56  C   UNL A   1      45.861  26.289  29.600  1.00  0.00     0.049 A 
ATOM     57  H   UNL A   1      43.938  27.153  29.492  1.00  0.00     0.167 HD
ATOM     58  C   UNL A   1      46.105  28.466  30.757  1.00  0.00     0.074 A 
ATOM     59  C   UNL A   1      46.864  29.453  31.494  1.00  0.00     0.031 C 
ATOM     60  C   UNL A   1      46.608  27.284  30.326  1.00  0.00     0.037 A 
BRANCH  47  61
ATOM     61  C   UNL A   1      42.501  23.700  27.435  1.00  0.00     0.057 A 
ATOM     62  C   UNL A   1      42.629  23.530  26.050  1.00  0.00     0.134 A 
ATOM     63  C   UNL A   1      42.171  22.571  28.195  1.00  0.00     0.134 A 
ATOM     64  F   UNL A   1      42.932  24.572  25.262  1.00  0.00    -0.206 F 
ATOM     65  C   UNL A   1      42.425  22.289  25.444  1.00  0.00     0.040 A 
ATOM     66  C   UNL A   1      41.992  21.319  27.605  1.00  0.00     0.040 A 
ATOM     67  F   UNL A   1      42.039  22.661  29.527  1.00  0.00    -0.206 F 
ATOM     68  C   UNL A   1      42.116  21.175  26.225  1.00  0.00     0.006 A 
ENDBRANCH  47  61
BRANCH  48  69
ATOM     69  C   UNL A   1      43.936  32.422  32.074  1.00  0.00     0.057 A 
ATOM     70  C   UNL A   1      44.448  33.551  31.423  1.00  0.00     0.134 A 
ATOM     71  C   UNL A   1      43.681  32.532  33.445  1.00  0.00     0.134 A 
ATOM     72  F   UNL A   1      44.733  33.504  30.113  1.00  0.00    -0.206 F 
ATOM     73  C   UNL A   1      44.730  34.731  32.115  1.00  0.00     0.040 A 
ATOM     74  C   UNL A   1      43.928  33.716  34.144  1.00  0.00     0.040 A 
ATOM     75  F   UNL A   1      43.182  31.491  34.127  1.00  0.00    -0.206 F 
ATOM     76  C   UNL A   1      44.466  34.815  33.480  1.00  0.00     0.006 A 
ENDBRANCH  48  69
BRANCH  60  77
ATOM     77  C   UNL A   1      48.057  27.010  30.608  1.00  0.00     0.057 A 
ATOM     78  C   UNL A   1      48.469  26.274  31.726  1.00  0.00     0.134 A 
ATOM     79  C   UNL A   1      49.050  27.461  29.729  1.00  0.00     0.134 A 
ATOM     80  F   UNL A   1      47.569  25.823  32.613  1.00  0.00    -0.206 F 
ATOM     81  C   UNL A   1      49.819  26.021  31.975  1.00  0.00     0.040 A 
ATOM     82  C   UNL A   1      50.400  27.188  29.951  1.00  0.00     0.040 A 
ATOM     83  F   UNL A   1      48.724  28.163  28.634  1.00  0.00    -0.206 F 
ATOM     84  C   UNL A   1      50.789  26.472  31.082  1.00  0.00     0.006 A 
ENDBRANCH  60  77
ENDBRANCH  34  35
ENDBRANCH  26  29
ENDBRANCH  24  25
ENDBRANCH   1  24
TORSDOF 13
ENDMDL
MODEL 3
REMARK VINA RESULT:     -11.2      3.159      4.103
REMARK SMILES [NH3+][C@H](C(=O)NCCCNC(=O)c1ccc(-c2c3nc(c(-c4c(F)cccc4F)c4ccc([nH]4)c(-c4c(F)cccc4F)c4nc(c(-c5c(F)cccc5F)c5ccc2[nH]5)C=C4)C=C3)cc1)c1cc2[nH]ccc2cc1O
REMARK SMILES IDX 7 1 6 2 5 3 3 4 4 5 2 7 1 8 66 12 67 13 74 14 68 15 73 16
REMARK SMILES IDX 69 17 72 18 70 19 71 21 75 22 8 24 9 25 10 26 11 28 12 29
REMARK SMILES IDX 13 30 65 31 14 32 64 33 15 34 16 35 17 36 58 37 18 38 63 39
REMARK SMILES IDX 57 40 59 41 19 42 62 43 56 44 55 45 20 47 46 48 29 49 45 50
REMARK SMILES IDX 30 51 33 52 44 53 60 54 31 55 32 56 43 58 61 59 34 60 21 61
REMARK SMILES IDX 22 62 27 63 23 64 24 65 26 66 28 67 25 68 47 69 48 70 53 71
REMARK SMILES IDX 49 72 50 73 52 74 54 75 51 76 35 77 36 78 41 79 37 80 38 81
REMARK SMILES IDX 40 82 42 83 39 84
REMARK H PARENT 5 6 1 9 1 10 1 11 69 20 75 23 9 27 59 46 33 57
REMARK Flexibility Score: inf
ROOT
ATOM      1  C   UNL A   1      31.913  28.869  26.637  1.00  0.00     0.042 C 
ENDROOT
BRANCH   1   2
ATOM      2  C   UNL A   1      32.348  27.420  26.492  1.00  0.00     0.118 C 
BRANCH   2   3
ATOM      3  N   UNL A   1      31.270  26.490  26.785  1.00  0.00    -0.351 N 
ATOM      4  C   UNL A   1      30.416  25.820  25.963  1.00  0.00     0.283 C 
ATOM      5  O   UNL A   1      29.690  24.977  26.501  1.00  0.00    -0.268 OA
ATOM      6  H   UNL A   1      31.133  26.313  27.744  1.00  0.00     0.163 HD
BRANCH   4   7
ATOM      7  C   UNL A   1      30.355  26.055  24.444  1.00  0.00     0.306 C 
BRANCH   7   8
ATOM      8  N   UNL A   1      30.020  24.804  23.718  1.00  0.00    -0.343 N 
ATOM      9  H   UNL A   1      30.878  24.361  23.391  1.00  0.00     0.345 HD
ATOM     10  H   UNL A   1      29.425  25.023  22.919  1.00  0.00     0.345 HD
ATOM     11  H   UNL A   1      29.527  24.168  24.345  1.00  0.00     0.345 HD
ENDBRANCH   7   8
BRANCH   7  12
ATOM     12  C   UNL A   1      29.522  27.224  23.928  1.00  0.00     0.063 A 
ATOM     13  C   UNL A   1      30.269  28.344  23.489  1.00  0.00     0.041 A 
ATOM     14  C   UNL A   1      28.136  27.246  23.730  1.00  0.00     0.126 A 
ATOM     15  C   UNL A   1      29.633  29.333  22.734  1.00  0.00     0.046 A 
ATOM     16  C   UNL A   1      27.515  28.224  22.940  1.00  0.00     0.057 A 
ATOM     17  N   UNL A   1      30.135  30.479  22.164  1.00  0.00    -0.361 N 
ATOM     18  C   UNL A   1      28.286  29.262  22.396  1.00  0.00     0.003 A 
ATOM     19  C   UNL A   1      29.188  31.053  21.357  1.00  0.00     0.083 A 
ATOM     20  H   UNL A   1      31.041  30.835  22.314  1.00  0.00     0.166 HD
ATOM     21  C   UNL A   1      28.025  30.331  21.496  1.00  0.00     0.028 A 
BRANCH  14  22
ATOM     22  O   UNL A   1      27.267  26.328  24.250  1.00  0.00    -0.507 OA
ATOM     23  H   UNL A   1      26.437  26.184  23.840  1.00  0.00     0.293 HD
ENDBRANCH  14  22
ENDBRANCH   7  12
ENDBRANCH   4   7
ENDBRANCH   2   3
ENDBRANCH   1   2
BRANCH   1  24
ATOM     24  C   UNL A   1      32.834  29.860  25.937  1.00  0.00     0.118 C 
BRANCH  24  25
ATOM     25  N   UNL A   1      32.643  31.233  26.384  1.00  0.00    -0.352 N 
ATOM     26  C   UNL A   1      33.366  31.975  27.287  1.00  0.00     0.251 C 
ATOM     27  H   UNL A   1      31.877  31.700  25.978  1.00  0.00     0.163 HD
ATOM     28  O   UNL A   1      32.955  33.070  27.647  1.00  0.00    -0.269 OA
BRANCH  26  29
ATOM     29  C   UNL A   1      34.622  31.435  27.852  1.00  0.00     0.039 A 
ATOM     30  C   UNL A   1      35.713  32.293  27.999  1.00  0.00     0.014 A 
ATOM     31  C   UNL A   1      34.723  30.098  28.246  1.00  0.00     0.014 A 
ATOM     32  C   UNL A   1      36.875  31.833  28.620  1.00  0.00     0.010 A 
ATOM     33  C   UNL A   1      35.848  29.666  28.944  1.00  0.00     0.010 A 
ATOM     34  C   UNL A   1      36.933  30.530  29.144  1.00  0.00    -0.014 A 
BRANCH  34  35
ATOM     35  C   UNL A   1      38.109  30.072  29.929  1.00  0.00     0.031 A 
ATOM     36  C   UNL A   1      38.332  30.570  31.330  1.00  0.00     0.074 A 
ATOM     37  C   UNL A   1      39.012  29.255  29.350  1.00  0.00     0.049 A 
ATOM     38  N   UNL A   1      39.329  30.327  32.143  1.00  0.00    -0.248 NA
ATOM     39  C   UNL A   1      37.315  31.477  31.885  1.00  0.00     0.031 C 
ATOM     40  C   UNL A   1      38.935  28.742  27.980  1.00  0.00     0.029 A 
ATOM     41  N   UNL A   1      40.176  28.717  29.838  1.00  0.00    -0.354 N 
ATOM     42  C   UNL A   1      39.064  31.055  33.296  1.00  0.00     0.074 A 
ATOM     43  C   UNL A   1      37.841  31.791  33.061  1.00  0.00     0.031 C 
ATOM     44  C   UNL A   1      39.991  27.946  27.747  1.00  0.00     0.029 A 
ATOM     45  C   UNL A   1      40.843  27.927  28.932  1.00  0.00     0.049 A 
ATOM     46  H   UNL A   1      40.504  28.881  30.753  1.00  0.00     0.167 HD
ATOM     47  C   UNL A   1      39.768  31.091  34.452  1.00  0.00     0.037 A 
ATOM     48  C   UNL A   1      42.015  27.273  29.036  1.00  0.00     0.037 A 
ATOM     49  C   UNL A   1      40.973  30.342  34.691  1.00  0.00     0.049 A 
ATOM     50  C   UNL A   1      42.784  27.350  30.327  1.00  0.00     0.074 A 
ATOM     51  C   UNL A   1      41.720  30.263  35.854  1.00  0.00     0.029 A 
ATOM     52  N   UNL A   1      41.613  29.548  33.750  1.00  0.00    -0.354 N 
ATOM     53  N   UNL A   1      42.478  27.979  31.436  1.00  0.00    -0.248 NA
ATOM     54  C   UNL A   1      44.059  26.622  30.382  1.00  0.00     0.031 C 
ATOM     55  C   UNL A   1      42.842  29.468  35.600  1.00  0.00     0.029 A 
ATOM     56  C   UNL A   1      42.762  29.002  34.298  1.00  0.00     0.049 A 
ATOM     57  H   UNL A   1      41.296  29.397  32.831  1.00  0.00     0.167 HD
ATOM     58  C   UNL A   1      43.506  27.698  32.327  1.00  0.00     0.074 A 
ATOM     59  C   UNL A   1      44.432  26.826  31.637  1.00  0.00     0.031 C 
ATOM     60  C   UNL A   1      43.670  28.127  33.602  1.00  0.00     0.037 A 
BRANCH  47  61
ATOM     61  C   UNL A   1      39.254  31.966  35.559  1.00  0.00     0.057 A 
ATOM     62  C   UNL A   1      39.612  33.317  35.661  1.00  0.00     0.134 A 
ATOM     63  C   UNL A   1      38.333  31.471  36.491  1.00  0.00     0.134 A 
ATOM     64  F   UNL A   1      40.498  33.852  34.808  1.00  0.00    -0.206 F 
ATOM     65  C   UNL A   1      39.084  34.140  36.657  1.00  0.00     0.040 A 
ATOM     66  C   UNL A   1      37.777  32.290  37.475  1.00  0.00     0.040 A 
ATOM     67  F   UNL A   1      37.942  30.189  36.448  1.00  0.00    -0.206 F 
ATOM     68  C   UNL A   1      38.154  33.629  37.562  1.00  0.00     0.006 A 
ENDBRANCH  47  61
BRANCH  48  69
ATOM     69  C   UNL A   1      42.543  26.486  27.891  1.00  0.00     0.057 A 
ATOM     70  C   UNL A   1      43.302  27.094  26.883  1.00  0.00     0.134 A 
ATOM     71  C   UNL A   1      42.269  25.120  27.752  1.00  0.00     0.134 A 
ATOM     72  F   UNL A   1      43.583  28.404  26.947  1.00  0.00    -0.206 F 
ATOM     73  C   UNL A   1      43.740  26.382  25.764  1.00  0.00     0.040 A 
ATOM     74  C   UNL A   1      42.726  24.388  26.655  1.00  0.00     0.040 A 
ATOM     75  F   UNL A   1      41.554  24.475  28.686  1.00  0.00    -0.206 F 
ATOM     76  C   UNL A   1      43.454  25.023  25.651  1.00  0.00     0.006 A 
ENDBRANCH  48  69
BRANCH  60  77
ATOM     77  C   UNL A   1      44.876  27.628  34.345  1.00  0.00     0.057 A 
ATOM     78  C   UNL A   1      46.113  28.279  34.274  1.00  0.00     0.134 A 
ATOM     79  C   UNL A   1      44.786  26.499  35.171  1.00  0.00     0.134 A 
ATOM     80  F   UNL A   1      46.270  29.358  33.493  1.00  0.00    -0.206 F 
ATOM     81  C   UNL A   1      47.226  27.809  34.974  1.00  0.00     0.040 A 
ATOM     82  C   UNL A   1      45.882  26.038  35.900  1.00  0.00     0.040 A 
ATOM     83  F   UNL A   1      43.627  25.835  35.293  1.00  0.00    -0.206 F 
ATOM     84  C   UNL A   1      47.110  26.690  35.796  1.00  0.00     0.006 A 
ENDBRANCH  60  77
ENDBRANCH  34  35
ENDBRANCH  26  29
ENDBRANCH  24  25
ENDBRANCH   1  24
TORSDOF 13
ENDMDL
