MODEL 1
REMARK VINA RESULT:     -11.9      0.000      0.000
REMARK SMILES CC[C@@H]1CCCN1C(=O)N[C@H]1C=C[C@@H](C(=O)NCCCNC(=O)c2ccc(-c3c4nc(c(-c5c(F)cccc5F)c5ccc([nH]5)c(-c5c(F)cccc5F)c5nc(c(-c6c(F)cccc6F)c6ccc3[nH]6)C=C5)C=C4)cc2)C1
REMARK SMILES IDX 18 1 17 2 15 3 16 4 14 6 11 7 12 8 78 9 13 10 10 11 8 12
REMARK SMILES IDX 9 13 7 15 3 16 4 17 5 18 6 19 2 20 1 21 19 22 20 23 21 24
REMARK SMILES IDX 22 25 23 27 24 28 25 29 77 30 26 31 76 32 27 33 28 34 29 35
REMARK SMILES IDX 70 36 30 37 75 38 69 39 71 40 31 41 74 42 68 43 67 44 32 46
REMARK SMILES IDX 58 47 41 48 57 49 42 50 45 51 56 52 72 53 43 54 44 55 55 57
REMARK SMILES IDX 73 58 46 59 33 60 34 61 39 62 35 63 36 64 38 65 40 66 37 67
REMARK SMILES IDX 59 68 60 69 65 70 61 71 62 72 64 73 66 74 63 75 47 76 48 77
REMARK SMILES IDX 53 78 49 79 50 80 52 81 54 82 51 83
REMARK H PARENT 17 5 10 14 21 26 71 45 45 56
REMARK Flexibility Score: inf
ROOT
ATOM      1  C   UNL A   1      31.796  30.457  25.767  1.00  0.00     0.117 C 
ENDROOT
BRANCH   1   2
ATOM      2  N   UNL A   1      30.892  30.201  24.661  1.00  0.00    -0.356 N 
ATOM      3  C   UNL A   1      30.646  29.063  23.963  1.00  0.00     0.227 C 
ATOM      4  O   UNL A   1      29.850  29.134  23.022  1.00  0.00    -0.274 OA
ATOM      5  H   UNL A   1      30.371  30.984  24.368  1.00  0.00     0.163 HD
BRANCH   3   6
ATOM      6  C   UNL A   1      31.383  27.759  24.247  1.00  0.00     0.103 C 
ATOM      7  C   UNL A   1      31.322  25.710  25.466  1.00  0.00     0.107 C 
ATOM      8  C   UNL A   1      31.023  25.442  24.029  1.00  0.00    -0.006 C 
ATOM      9  C   UNL A   1      30.930  27.173  25.572  1.00  0.00     0.047 C 
ATOM     10  C   UNL A   1      31.178  26.583  23.330  1.00  0.00    -0.016 C 
BRANCH   7  11
ATOM     11  N   UNL A   1      30.685  24.907  26.434  1.00  0.00    -0.332 N 
ATOM     12  C   UNL A   1      30.914  23.615  26.736  1.00  0.00     0.318 C 
ATOM     13  O   UNL A   1      30.145  23.155  27.589  1.00  0.00    -0.249 OA
ATOM     14  H   UNL A   1      29.979  25.350  26.957  1.00  0.00     0.165 HD
BRANCH  12  15
ATOM     15  N   UNL A   1      31.918  22.843  26.189  1.00  0.00    -0.322 N 
ATOM     16  C   UNL A   1      33.375  22.533  26.432  1.00  0.00     0.086 C 
ATOM     17  C   UNL A   1      33.734  21.599  25.258  1.00  0.00     0.027 C 
ATOM     18  C   UNL A   1      32.472  20.799  25.065  1.00  0.00     0.024 C 
ATOM     19  C   UNL A   1      31.399  21.857  25.230  1.00  0.00     0.122 C 
BRANCH  16  20
ATOM     20  C   UNL A   1      34.461  23.628  26.491  1.00  0.00     0.022 C 
ATOM     21  C   UNL A   1      34.662  24.376  25.173  1.00  0.00     0.006 C 
ENDBRANCH  16  20
ENDBRANCH  12  15
ENDBRANCH   7  11
ENDBRANCH   3   6
ENDBRANCH   1   2
BRANCH   1  22
ATOM     22  C   UNL A   1      31.467  31.752  26.495  1.00  0.00     0.042 C 
BRANCH  22  23
ATOM     23  C   UNL A   1      32.669  32.335  27.221  1.00  0.00     0.118 C 
BRANCH  23  24
ATOM     24  N   UNL A   1      32.513  33.768  27.448  1.00  0.00    -0.352 N 
ATOM     25  C   UNL A   1      33.038  34.548  28.442  1.00  0.00     0.251 C 
ATOM     26  H   UNL A   1      31.949  34.241  26.794  1.00  0.00     0.163 HD
ATOM     27  O   UNL A   1      32.531  35.647  28.697  1.00  0.00    -0.269 OA
BRANCH  25  28
ATOM     28  C   UNL A   1      34.202  34.077  29.210  1.00  0.00     0.039 A 
ATOM     29  C   UNL A   1      34.013  33.304  30.357  1.00  0.00     0.014 A 
ATOM     30  C   UNL A   1      35.492  34.411  28.790  1.00  0.00     0.014 A 
ATOM     31  C   UNL A   1      35.122  32.802  31.039  1.00  0.00     0.010 A 
ATOM     32  C   UNL A   1      36.590  33.835  29.411  1.00  0.00     0.010 A 
ATOM     33  C   UNL A   1      36.417  33.027  30.545  1.00  0.00    -0.014 A 
BRANCH  33  34
ATOM     34  C   UNL A   1      37.614  32.426  31.179  1.00  0.00     0.031 A 
ATOM     35  C   UNL A   1      38.305  31.264  30.521  1.00  0.00     0.074 A 
ATOM     36  C   UNL A   1      38.004  32.854  32.395  1.00  0.00     0.049 A 
ATOM     37  N   UNL A   1      39.269  30.508  30.981  1.00  0.00    -0.248 NA
ATOM     38  C   UNL A   1      37.825  30.876  29.184  1.00  0.00     0.031 C 
ATOM     39  C   UNL A   1      37.372  33.934  33.157  1.00  0.00     0.029 A 
ATOM     40  N   UNL A   1      39.008  32.413  33.218  1.00  0.00    -0.354 N 
ATOM     41  C   UNL A   1      39.492  29.546  30.005  1.00  0.00     0.074 A 
ATOM     42  C   UNL A   1      38.536  29.784  28.946  1.00  0.00     0.031 C 
ATOM     43  C   UNL A   1      38.007  34.075  34.331  1.00  0.00     0.029 A 
ATOM     44  C   UNL A   1      39.058  33.068  34.426  1.00  0.00     0.049 A 
ATOM     45  H   UNL A   1      39.635  31.696  32.968  1.00  0.00     0.167 HD
ATOM     46  C   UNL A   1      40.422  28.563  29.989  1.00  0.00     0.037 A 
ATOM     47  C   UNL A   1      39.845  32.862  35.498  1.00  0.00     0.037 A 
ATOM     48  C   UNL A   1      41.396  28.359  31.028  1.00  0.00     0.049 A 
ATOM     49  C   UNL A   1      40.874  31.767  35.447  1.00  0.00     0.074 A 
ATOM     50  C   UNL A   1      42.441  27.454  31.062  1.00  0.00     0.029 A 
ATOM     51  N   UNL A   1      41.439  29.069  32.218  1.00  0.00    -0.354 N 
ATOM     52  N   UNL A   1      41.133  30.920  34.480  1.00  0.00    -0.248 NA
ATOM     53  C   UNL A   1      41.722  31.599  36.636  1.00  0.00     0.031 C 
ATOM     54  C   UNL A   1      43.086  27.581  32.295  1.00  0.00     0.029 A 
ATOM     55  C   UNL A   1      42.474  28.599  33.009  1.00  0.00     0.049 A 
ATOM     56  H   UNL A   1      40.825  29.798  32.465  1.00  0.00     0.167 HD
ATOM     57  C   UNL A   1      42.184  30.134  34.934  1.00  0.00     0.074 A 
ATOM     58  C   UNL A   1      42.529  30.619  36.254  1.00  0.00     0.031 C 
ATOM     59  C   UNL A   1      42.803  29.098  34.318  1.00  0.00     0.037 A 
BRANCH  46  60
ATOM     60  C   UNL A   1      40.445  27.636  28.809  1.00  0.00     0.057 A 
ATOM     61  C   UNL A   1      39.657  26.479  28.763  1.00  0.00     0.134 A 
ATOM     62  C   UNL A   1      41.213  27.941  27.679  1.00  0.00     0.134 A 
ATOM     63  F   UNL A   1      38.908  26.123  29.818  1.00  0.00    -0.206 F 
ATOM     64  C   UNL A   1      39.642  25.652  27.639  1.00  0.00     0.040 A 
ATOM     65  C   UNL A   1      41.187  27.136  26.539  1.00  0.00     0.040 A 
ATOM     66  F   UNL A   1      41.987  29.037  27.656  1.00  0.00    -0.206 F 
ATOM     67  C   UNL A   1      40.402  25.986  26.518  1.00  0.00     0.006 A 
ENDBRANCH  46  60
BRANCH  47  68
ATOM     68  C   UNL A   1      39.688  33.698  36.715  1.00  0.00     0.057 A 
ATOM     69  C   UNL A   1      38.866  33.292  37.772  1.00  0.00     0.134 A 
ATOM     70  C   UNL A   1      40.335  34.934  36.840  1.00  0.00     0.134 A 
ATOM     71  F   UNL A   1      38.204  32.128  37.704  1.00  0.00    -0.206 F 
ATOM     72  C   UNL A   1      38.669  34.096  38.897  1.00  0.00     0.040 A 
ATOM     73  C   UNL A   1      40.171  35.735  37.972  1.00  0.00     0.040 A 
ATOM     74  F   UNL A   1      41.143  35.378  35.866  1.00  0.00    -0.206 F 
ATOM     75  C   UNL A   1      39.326  35.320  39.000  1.00  0.00     0.006 A 
ENDBRANCH  47  68
BRANCH  59  76
ATOM     76  C   UNL A   1      43.931  28.439  35.055  1.00  0.00     0.057 A 
ATOM     77  C   UNL A   1      45.249  28.901  34.950  1.00  0.00     0.134 A 
ATOM     78  C   UNL A   1      43.688  27.358  35.911  1.00  0.00     0.134 A 
ATOM     79  F   UNL A   1      45.548  29.925  34.135  1.00  0.00    -0.206 F 
ATOM     80  C   UNL A   1      46.290  28.296  35.654  1.00  0.00     0.040 A 
ATOM     81  C   UNL A   1      44.717  26.764  36.642  1.00  0.00     0.040 A 
ATOM     82  F   UNL A   1      42.447  26.874  36.064  1.00  0.00    -0.206 F 
ATOM     83  C   UNL A   1      46.024  27.230  36.511  1.00  0.00     0.006 A 
ENDBRANCH  59  76
ENDBRANCH  33  34
ENDBRANCH  25  28
ENDBRANCH  23  24
ENDBRANCH  22  23
ENDBRANCH   1  22
TORSDOF 13
ENDMDL
MODEL 2
REMARK VINA RESULT:     -11.8      0.161      1.333
REMARK SMILES CC[C@@H]1CCCN1C(=O)N[C@H]1C=C[C@@H](C(=O)NCCCNC(=O)c2ccc(-c3c4nc(c(-c5c(F)cccc5F)c5ccc([nH]5)c(-c5c(F)cccc5F)c5nc(c(-c6c(F)cccc6F)c6ccc3[nH]6)C=C5)C=C4)cc2)C1
REMARK SMILES IDX 18 1 17 2 15 3 16 4 14 6 11 7 12 8 78 9 13 10 10 11 8 12
REMARK SMILES IDX 9 13 7 15 3 16 4 17 5 18 6 19 2 20 1 21 19 22 20 23 21 24
REMARK SMILES IDX 22 25 23 27 24 28 25 29 77 30 26 31 76 32 27 33 28 34 29 35
REMARK SMILES IDX 70 36 30 37 75 38 69 39 71 40 31 41 74 42 68 43 67 44 32 46
REMARK SMILES IDX 58 47 41 48 57 49 42 50 45 51 56 52 72 53 43 54 44 55 55 57
REMARK SMILES IDX 73 58 46 59 33 60 34 61 39 62 35 63 36 64 38 65 40 66 37 67
REMARK SMILES IDX 59 68 60 69 65 70 61 71 62 72 64 73 66 74 63 75 47 76 48 77
REMARK SMILES IDX 53 78 49 79 50 80 52 81 54 82 51 83
REMARK H PARENT 17 5 10 14 21 26 71 45 45 56
REMARK Flexibility Score: inf
ROOT
ATOM      1  C   UNL A   1      31.839  30.481  25.753  1.00  0.00     0.117 C 
ENDROOT
BRANCH   1   2
ATOM      2  N   UNL A   1      30.884  30.152  24.710  1.00  0.00    -0.356 N 
ATOM      3  C   UNL A   1      30.647  28.982  24.063  1.00  0.00     0.227 C 
ATOM      4  O   UNL A   1      29.797  28.989  23.169  1.00  0.00    -0.274 OA
ATOM      5  H   UNL A   1      30.315  30.902  24.424  1.00  0.00     0.163 HD
BRANCH   3   6
ATOM      6  C   UNL A   1      31.454  27.719  24.344  1.00  0.00     0.103 C 
ATOM      7  C   UNL A   1      31.503  25.665  25.554  1.00  0.00     0.107 C 
ATOM      8  C   UNL A   1      31.222  25.387  24.115  1.00  0.00    -0.006 C 
ATOM      9  C   UNL A   1      31.030  27.103  25.665  1.00  0.00     0.047 C 
ATOM     10  C   UNL A   1      31.316  26.538  23.421  1.00  0.00    -0.016 C 
BRANCH   7  11
ATOM     11  N   UNL A   1      30.908  24.823  26.516  1.00  0.00    -0.332 N 
ATOM     12  C   UNL A   1      31.151  23.521  26.758  1.00  0.00     0.318 C 
ATOM     13  O   UNL A   1      30.419  23.027  27.625  1.00  0.00    -0.249 OA
ATOM     14  H   UNL A   1      30.224  25.244  27.085  1.00  0.00     0.165 HD
BRANCH  12  15
ATOM     15  N   UNL A   1      32.131  22.773  26.140  1.00  0.00    -0.322 N 
ATOM     16  C   UNL A   1      33.622  22.553  26.232  1.00  0.00     0.086 C 
ATOM     17  C   UNL A   1      33.903  21.576  25.072  1.00  0.00     0.027 C 
ATOM     18  C   UNL A   1      32.675  20.703  25.061  1.00  0.00     0.024 C 
ATOM     19  C   UNL A   1      31.568  21.711  25.294  1.00  0.00     0.122 C 
BRANCH  16  20
ATOM     20  C   UNL A   1      34.643  23.704  26.116  1.00  0.00     0.022 C 
ATOM     21  C   UNL A   1      34.780  24.273  24.703  1.00  0.00     0.006 C 
ENDBRANCH  16  20
ENDBRANCH  12  15
ENDBRANCH   7  11
ENDBRANCH   3   6
ENDBRANCH   1   2
BRANCH   1  22
ATOM     22  C   UNL A   1      31.467  31.756  26.496  1.00  0.00     0.042 C 
BRANCH  22  23
ATOM     23  C   UNL A   1      32.634  32.336  27.279  1.00  0.00     0.118 C 
BRANCH  23  24
ATOM     24  N   UNL A   1      32.486  33.775  27.471  1.00  0.00    -0.352 N 
ATOM     25  C   UNL A   1      33.028  34.579  28.436  1.00  0.00     0.251 C 
ATOM     26  H   UNL A   1      31.914  34.232  26.813  1.00  0.00     0.163 HD
ATOM     27  O   UNL A   1      32.529  35.687  28.669  1.00  0.00    -0.269 OA
BRANCH  25  28
ATOM     28  C   UNL A   1      34.203  34.124  29.198  1.00  0.00     0.039 A 
ATOM     29  C   UNL A   1      34.028  33.424  30.394  1.00  0.00     0.014 A 
ATOM     30  C   UNL A   1      35.487  34.402  28.725  1.00  0.00     0.014 A 
ATOM     31  C   UNL A   1      35.144  32.935  31.073  1.00  0.00     0.010 A 
ATOM     32  C   UNL A   1      36.589  33.835  29.349  1.00  0.00     0.010 A 
ATOM     33  C   UNL A   1      36.429  33.098  30.531  1.00  0.00    -0.014 A 
BRANCH  33  34
ATOM     34  C   UNL A   1      37.630  32.505  31.167  1.00  0.00     0.031 A 
ATOM     35  C   UNL A   1      38.323  31.342  30.515  1.00  0.00     0.074 A 
ATOM     36  C   UNL A   1      38.021  32.942  32.380  1.00  0.00     0.049 A 
ATOM     37  N   UNL A   1      39.290  30.592  30.978  1.00  0.00    -0.248 NA
ATOM     38  C   UNL A   1      37.843  30.944  29.181  1.00  0.00     0.031 C 
ATOM     39  C   UNL A   1      37.386  34.024  33.137  1.00  0.00     0.029 A 
ATOM     40  N   UNL A   1      39.028  32.509  33.204  1.00  0.00    -0.354 N 
ATOM     41  C   UNL A   1      39.515  29.624  30.007  1.00  0.00     0.074 A 
ATOM     42  C   UNL A   1      38.557  29.852  28.948  1.00  0.00     0.031 C 
ATOM     43  C   UNL A   1      38.022  34.174  34.309  1.00  0.00     0.029 A 
ATOM     44  C   UNL A   1      39.077  33.172  34.407  1.00  0.00     0.049 A 
ATOM     45  H   UNL A   1      39.657  31.793  32.957  1.00  0.00     0.167 HD
ATOM     46  C   UNL A   1      40.449  28.645  29.995  1.00  0.00     0.037 A 
ATOM     47  C   UNL A   1      39.867  32.975  35.480  1.00  0.00     0.037 A 
ATOM     48  C   UNL A   1      41.425  28.450  31.034  1.00  0.00     0.049 A 
ATOM     49  C   UNL A   1      40.900  31.883  35.433  1.00  0.00     0.074 A 
ATOM     50  C   UNL A   1      42.473  27.549  31.072  1.00  0.00     0.029 A 
ATOM     51  N   UNL A   1      41.468  29.167  32.219  1.00  0.00    -0.354 N 
ATOM     52  N   UNL A   1      41.160  31.031  34.471  1.00  0.00    -0.248 NA
ATOM     53  C   UNL A   1      41.750  31.725  36.621  1.00  0.00     0.031 C 
ATOM     54  C   UNL A   1      43.120  27.685  32.303  1.00  0.00     0.029 A 
ATOM     55  C   UNL A   1      42.506  28.706  33.011  1.00  0.00     0.049 A 
ATOM     56  H   UNL A   1      40.852  29.896  32.463  1.00  0.00     0.167 HD
ATOM     57  C   UNL A   1      42.214  30.252  34.928  1.00  0.00     0.074 A 
ATOM     58  C   UNL A   1      42.560  30.746  36.244  1.00  0.00     0.031 C 
ATOM     59  C   UNL A   1      42.836  29.214  34.316  1.00  0.00     0.037 A 
BRANCH  46  60
ATOM     60  C   UNL A   1      40.472  27.710  28.821  1.00  0.00     0.057 A 
ATOM     61  C   UNL A   1      41.296  27.935  27.712  1.00  0.00     0.134 A 
ATOM     62  C   UNL A   1      39.710  26.535  28.834  1.00  0.00     0.134 A 
ATOM     63  F   UNL A   1      42.042  29.049  27.633  1.00  0.00    -0.206 F 
ATOM     64  C   UNL A   1      41.353  27.032  26.650  1.00  0.00     0.040 A 
ATOM     65  C   UNL A   1      39.778  25.611  27.789  1.00  0.00     0.040 A 
ATOM     66  F   UNL A   1      38.903  26.256  29.868  1.00  0.00    -0.206 F 
ATOM     67  C   UNL A   1      40.599  25.860  26.692  1.00  0.00     0.006 A 
ENDBRANCH  46  60
BRANCH  47  68
ATOM     68  C   UNL A   1      39.710  33.818  36.692  1.00  0.00     0.057 A 
ATOM     69  C   UNL A   1      40.376  35.042  36.815  1.00  0.00     0.134 A 
ATOM     70  C   UNL A   1      38.909  33.409  37.766  1.00  0.00     0.134 A 
ATOM     71  F   UNL A   1      41.172  35.479  35.828  1.00  0.00    -0.206 F 
ATOM     72  C   UNL A   1      40.277  35.816  37.973  1.00  0.00     0.040 A 
ATOM     73  C   UNL A   1      38.777  34.187  38.918  1.00  0.00     0.040 A 
ATOM     74  F   UNL A   1      38.238  32.249  37.708  1.00  0.00    -0.206 F 
ATOM     75  C   UNL A   1      39.472  35.390  39.027  1.00  0.00     0.006 A 
ENDBRANCH  47  68
BRANCH  59  76
ATOM     76  C   UNL A   1      43.967  28.563  35.055  1.00  0.00     0.057 A 
ATOM     77  C   UNL A   1      45.284  29.024  34.940  1.00  0.00     0.134 A 
ATOM     78  C   UNL A   1      43.729  27.490  35.924  1.00  0.00     0.134 A 
ATOM     79  F   UNL A   1      45.579  30.040  34.113  1.00  0.00    -0.206 F 
ATOM     80  C   UNL A   1      46.329  28.428  35.646  1.00  0.00     0.040 A 
ATOM     81  C   UNL A   1      44.761  26.905  36.657  1.00  0.00     0.040 A 
ATOM     82  F   UNL A   1      42.489  27.007  36.087  1.00  0.00    -0.206 F 
ATOM     83  C   UNL A   1      46.067  27.370  36.515  1.00  0.00     0.006 A 
ENDBRANCH  59  76
ENDBRANCH  33  34
ENDBRANCH  25  28
ENDBRANCH  23  24
ENDBRANCH  22  23
ENDBRANCH   1  22
TORSDOF 13
ENDMDL
MODEL 3
REMARK VINA RESULT:     -11.8      5.253     10.340
REMARK SMILES CC[C@@H]1CCCN1C(=O)N[C@H]1C=C[C@@H](C(=O)NCCCNC(=O)c2ccc(-c3c4nc(c(-c5c(F)cccc5F)c5ccc([nH]5)c(-c5c(F)cccc5F)c5nc(c(-c6c(F)cccc6F)c6ccc3[nH]6)C=C5)C=C4)cc2)C1
REMARK SMILES IDX 18 1 17 2 15 3 16 4 14 6 11 7 12 8 78 9 13 10 10 11 8 12
REMARK SMILES IDX 9 13 7 15 3 16 4 17 5 18 6 19 2 20 1 21 19 22 20 23 21 24
REMARK SMILES IDX 22 25 23 27 24 28 25 29 77 30 26 31 76 32 27 33 28 34 29 35
REMARK SMILES IDX 70 36 30 37 75 38 69 39 71 40 31 41 74 42 68 43 67 44 32 46
REMARK SMILES IDX 58 47 41 48 57 49 42 50 45 51 56 52 72 53 43 54 44 55 55 57
REMARK SMILES IDX 73 58 46 59 33 60 34 61 39 62 35 63 36 64 38 65 40 66 37 67
REMARK SMILES IDX 59 68 60 69 65 70 61 71 62 72 64 73 66 74 63 75 47 76 48 77
REMARK SMILES IDX 53 78 49 79 50 80 52 81 54 82 51 83
REMARK H PARENT 17 5 10 14 21 26 71 45 45 56
REMARK Flexibility Score: inf
ROOT
ATOM      1  C   UNL A   1      36.507  20.727  25.190  1.00  0.00     0.117 C 
ENDROOT
BRANCH   1   2
ATOM      2  N   UNL A   1      35.331  19.897  25.000  1.00  0.00    -0.356 N 
ATOM      3  C   UNL A   1      34.027  20.234  24.829  1.00  0.00     0.227 C 
ATOM      4  O   UNL A   1      33.209  19.314  24.737  1.00  0.00    -0.274 OA
ATOM      5  H   UNL A   1      35.510  18.929  24.994  1.00  0.00     0.163 HD
BRANCH   3   6
ATOM      6  C   UNL A   1      33.553  21.683  24.846  1.00  0.00     0.103 C 
ATOM      7  C   UNL A   1      33.203  23.636  23.524  1.00  0.00     0.107 C 
ATOM      8  C   UNL A   1      31.887  23.008  23.839  1.00  0.00    -0.006 C 
ATOM      9  C   UNL A   1      34.131  22.443  23.667  1.00  0.00     0.047 C 
ATOM     10  C   UNL A   1      32.086  21.978  24.684  1.00  0.00    -0.016 C 
BRANCH   7  11
ATOM     11  N   UNL A   1      33.343  24.285  22.280  1.00  0.00    -0.332 N 
ATOM     12  C   UNL A   1      32.962  25.530  21.935  1.00  0.00     0.318 C 
ATOM     13  O   UNL A   1      33.155  25.801  20.742  1.00  0.00    -0.249 OA
ATOM     14  H   UNL A   1      33.777  23.759  21.571  1.00  0.00     0.165 HD
BRANCH  12  15
ATOM     15  N   UNL A   1      32.424  26.459  22.800  1.00  0.00    -0.322 N 
ATOM     16  C   UNL A   1      32.873  27.356  23.928  1.00  0.00     0.086 C 
ATOM     17  C   UNL A   1      31.559  28.020  24.390  1.00  0.00     0.027 C 
ATOM     18  C   UNL A   1      30.798  28.194  23.102  1.00  0.00     0.024 C 
ATOM     19  C   UNL A   1      31.079  26.887  22.390  1.00  0.00     0.122 C 
BRANCH  16  20
ATOM     20  C   UNL A   1      33.580  26.819  25.190  1.00  0.00     0.022 C 
ATOM     21  C   UNL A   1      32.658  26.055  26.141  1.00  0.00     0.006 C 
ENDBRANCH  16  20
ENDBRANCH  12  15
ENDBRANCH   7  11
ENDBRANCH   3   6
ENDBRANCH   1   2
BRANCH   1  22
ATOM     22  C   UNL A   1      37.796  19.983  24.876  1.00  0.00     0.042 C 
BRANCH  22  23
ATOM     23  C   UNL A   1      38.947  20.404  25.776  1.00  0.00     0.118 C 
BRANCH  23  24
ATOM     24  N   UNL A   1      39.916  19.327  25.945  1.00  0.00    -0.352 N 
ATOM     25  C   UNL A   1      41.276  19.399  26.074  1.00  0.00     0.251 C 
ATOM     26  H   UNL A   1      39.538  18.418  25.967  1.00  0.00     0.163 HD
ATOM     27  O   UNL A   1      41.972  18.401  25.850  1.00  0.00    -0.269 OA
BRANCH  25  28
ATOM     28  C   UNL A   1      41.910  20.665  26.476  1.00  0.00     0.039 A 
ATOM     29  C   UNL A   1      42.433  21.521  25.504  1.00  0.00     0.014 A 
ATOM     30  C   UNL A   1      41.993  21.001  27.830  1.00  0.00     0.014 A 
ATOM     31  C   UNL A   1      42.969  22.751  25.888  1.00  0.00     0.010 A 
ATOM     32  C   UNL A   1      42.438  22.262  28.201  1.00  0.00     0.010 A 
ATOM     33  C   UNL A   1      42.934  23.148  27.235  1.00  0.00    -0.014 A 
BRANCH  33  34
ATOM     34  C   UNL A   1      43.397  24.488  27.670  1.00  0.00     0.031 A 
ATOM     35  C   UNL A   1      42.392  25.535  28.062  1.00  0.00     0.074 A 
ATOM     36  C   UNL A   1      44.708  24.789  27.601  1.00  0.00     0.049 A 
ATOM     37  N   UNL A   1      42.581  26.802  28.328  1.00  0.00    -0.248 NA
ATOM     38  C   UNL A   1      40.983  25.112  28.129  1.00  0.00     0.031 C 
ATOM     39  C   UNL A   1      45.768  23.872  27.176  1.00  0.00     0.029 A 
ATOM     40  N   UNL A   1      45.370  25.962  27.859  1.00  0.00    -0.354 N 
ATOM     41  C   UNL A   1      41.319  27.329  28.568  1.00  0.00     0.074 A 
ATOM     42  C   UNL A   1      40.366  26.259  28.375  1.00  0.00     0.031 C 
ATOM     43  C   UNL A   1      46.946  24.514  27.209  1.00  0.00     0.029 A 
ATOM     44  C   UNL A   1      46.720  25.898  27.611  1.00  0.00     0.049 A 
ATOM     45  H   UNL A   1      44.921  26.773  28.191  1.00  0.00     0.167 HD
ATOM     46  C   UNL A   1      40.989  28.590  28.933  1.00  0.00     0.037 A 
ATOM     47  C   UNL A   1      47.666  26.855  27.676  1.00  0.00     0.037 A 
ATOM     48  C   UNL A   1      41.947  29.639  29.162  1.00  0.00     0.049 A 
ATOM     49  C   UNL A   1      47.268  28.244  28.091  1.00  0.00     0.074 A 
ATOM     50  C   UNL A   1      41.723  30.922  29.626  1.00  0.00     0.029 A 
ATOM     51  N   UNL A   1      43.310  29.524  28.939  1.00  0.00    -0.354 N 
ATOM     52  N   UNL A   1      46.082  28.707  28.402  1.00  0.00    -0.248 NA
ATOM     53  C   UNL A   1      48.342  29.245  28.166  1.00  0.00     0.031 C 
ATOM     54  C   UNL A   1      42.945  31.601  29.636  1.00  0.00     0.029 A 
ATOM     55  C   UNL A   1      43.937  30.725  29.225  1.00  0.00     0.049 A 
ATOM     56  H   UNL A   1      43.766  28.710  28.624  1.00  0.00     0.167 HD
ATOM     57  C   UNL A   1      46.268  30.044  28.727  1.00  0.00     0.074 A 
ATOM     58  C   UNL A   1      47.685  30.311  28.599  1.00  0.00     0.031 C 
ATOM     59  C   UNL A   1      45.349  30.970  29.094  1.00  0.00     0.037 A 
BRANCH  46  60
ATOM     60  C   UNL A   1      39.535  28.911  29.118  1.00  0.00     0.057 A 
ATOM     61  C   UNL A   1      38.721  29.299  28.048  1.00  0.00     0.134 A 
ATOM     62  C   UNL A   1      38.928  28.762  30.372  1.00  0.00     0.134 A 
ATOM     63  F   UNL A   1      39.243  29.472  26.824  1.00  0.00    -0.206 F 
ATOM     64  C   UNL A   1      37.357  29.541  28.219  1.00  0.00     0.040 A 
ATOM     65  C   UNL A   1      37.561  28.976  30.551  1.00  0.00     0.040 A 
ATOM     66  F   UNL A   1      39.650  28.388  31.439  1.00  0.00    -0.206 F 
ATOM     67  C   UNL A   1      36.771  29.369  29.473  1.00  0.00     0.006 A 
ENDBRANCH  46  60
BRANCH  47  68
ATOM     68  C   UNL A   1      49.075  26.540  27.329  1.00  0.00     0.057 A 
ATOM     69  C   UNL A   1      49.571  26.762  26.040  1.00  0.00     0.134 A 
ATOM     70  C   UNL A   1      49.952  25.988  28.271  1.00  0.00     0.134 A 
ATOM     71  F   UNL A   1      48.775  27.272  25.089  1.00  0.00    -0.206 F 
ATOM     72  C   UNL A   1      50.879  26.420  25.690  1.00  0.00     0.040 A 
ATOM     73  C   UNL A   1      51.271  25.668  27.944  1.00  0.00     0.040 A 
ATOM     74  F   UNL A   1      49.541  25.757  29.527  1.00  0.00    -0.206 F 
ATOM     75  C   UNL A   1      51.734  25.875  26.645  1.00  0.00     0.006 A 
ENDBRANCH  47  68
BRANCH  59  76
ATOM     76  C   UNL A   1      45.852  32.348  29.403  1.00  0.00     0.057 A 
ATOM     77  C   UNL A   1      45.907  33.349  28.425  1.00  0.00     0.134 A 
ATOM     78  C   UNL A   1      46.244  32.690  30.704  1.00  0.00     0.134 A 
ATOM     79  F   UNL A   1      45.558  33.080  27.157  1.00  0.00    -0.206 F 
ATOM     80  C   UNL A   1      46.356  34.635  28.724  1.00  0.00     0.040 A 
ATOM     81  C   UNL A   1      46.667  33.980  31.020  1.00  0.00     0.040 A 
ATOM     82  F   UNL A   1      46.205  31.781  31.688  1.00  0.00    -0.206 F 
ATOM     83  C   UNL A   1      46.730  34.956  30.028  1.00  0.00     0.006 A 
ENDBRANCH  59  76
ENDBRANCH  33  34
ENDBRANCH  25  28
ENDBRANCH  23  24
ENDBRANCH  22  23
ENDBRANCH   1  22
TORSDOF 13
ENDMDL
