MODEL 1
REMARK VINA RESULT:     -11.2      0.000      0.000
REMARK SMILES CN(Cc1csc(Br)c1)c1cccc(F)c1C(=O)NCCCNC(=O)c1ccc(-c2c3nc(c(-c4c(F)cccc4F)c4ccc([nH]4)c(-c4c(F)cccc4F)c4nc(c(-c5c(F)cccc5F)c5ccc2[nH]5)C=C4)C=C3)cc1
REMARK SMILES IDX 20 1 19 2 17 3 18 4 16 6 10 7 11 8 12 9 14 10 13 11 15 12
REMARK SMILES IDX 2 13 1 14 3 15 4 16 5 17 9 18 6 19 7 20 8 21 21 22 22 23
REMARK SMILES IDX 23 24 24 25 25 27 26 28 27 29 79 30 28 31 78 32 29 33 30 34
REMARK SMILES IDX 31 35 72 36 32 37 77 38 71 39 73 40 33 41 76 42 70 43 69 44
REMARK SMILES IDX 34 46 60 47 43 48 59 49 44 50 47 51 58 52 74 53 45 54 46 55
REMARK SMILES IDX 57 57 75 58 48 59 35 60 36 61 41 62 37 63 38 64 40 65 42 66
REMARK SMILES IDX 39 67 61 68 62 69 67 70 63 71 64 72 66 73 68 74 65 75 49 76
REMARK SMILES IDX 50 77 55 78 51 79 52 80 54 81 56 82 53 83
REMARK H PARENT 19 5 23 26 73 45 47 56
REMARK Flexibility Score: inf
ROOT
ATOM      1  C   UNL A   1      36.520  21.112  24.758  1.00  0.00     0.118 C 
ENDROOT
BRANCH   1   2
ATOM      2  N   UNL A   1      35.684  21.202  25.946  1.00  0.00    -0.352 N 
ATOM      3  C   UNL A   1      34.309  21.297  26.081  1.00  0.00     0.256 C 
ATOM      4  O   UNL A   1      33.813  21.012  27.170  1.00  0.00    -0.269 OA
ATOM      5  H   UNL A   1      36.179  21.195  26.797  1.00  0.00     0.163 HD
BRANCH   3   6
ATOM      6  C   UNL A   1      33.443  21.752  24.965  1.00  0.00     0.098 A 
ATOM      7  C   UNL A   1      32.945  23.078  24.896  1.00  0.00     0.053 A 
ATOM      8  C   UNL A   1      32.163  23.430  23.773  1.00  0.00     0.027 A 
ATOM      9  C   UNL A   1      31.838  22.506  22.779  1.00  0.00     0.005 A 
ATOM     10  C   UNL A   1      33.023  20.818  24.011  1.00  0.00     0.138 A 
ATOM     11  C   UNL A   1      32.254  21.190  22.911  1.00  0.00     0.040 A 
ATOM     12  F   UNL A   1      33.330  19.517  24.135  1.00  0.00    -0.206 F 
BRANCH   7  13
ATOM     13  N   UNL A   1      33.126  24.034  25.894  1.00  0.00    -0.370 N 
ATOM     14  C   UNL A   1      31.961  24.373  26.701  1.00  0.00     0.144 C 
BRANCH  13  15
ATOM     15  C   UNL A   1      34.209  25.008  25.785  1.00  0.00     0.152 C 
BRANCH  15  16
ATOM     16  C   UNL A   1      33.812  26.410  25.415  1.00  0.00    -0.017 A 
ATOM     17  C   UNL A   1      33.632  26.866  24.119  1.00  0.00     0.071 A 
ATOM     18  C   UNL A   1      33.585  27.470  26.362  1.00  0.00     0.033 A 
ATOM     19  S   UNL A   1      33.176  28.515  24.058  1.00  0.00    -0.136 S 
ATOM     20  C   UNL A   1      33.264  28.650  25.742  1.00  0.00     0.070 A 
ATOM     21  Br  UNL A   1      32.954  30.254  26.657  1.00  0.00    -0.039 Br
ENDBRANCH  15  16
ENDBRANCH  13  15
ENDBRANCH   7  13
ENDBRANCH   3   6
ENDBRANCH   1   2
BRANCH   1  22
ATOM     22  C   UNL A   1      37.639  20.081  24.814  1.00  0.00     0.042 C 
BRANCH  22  23
ATOM     23  C   UNL A   1      38.686  20.264  25.904  1.00  0.00     0.118 C 
BRANCH  23  24
ATOM     24  N   UNL A   1      39.859  19.415  25.762  1.00  0.00    -0.352 N 
ATOM     25  C   UNL A   1      41.190  19.621  26.030  1.00  0.00     0.251 C 
ATOM     26  H   UNL A   1      39.660  18.520  25.405  1.00  0.00     0.163 HD
ATOM     27  O   UNL A   1      41.996  18.734  25.744  1.00  0.00    -0.269 OA
BRANCH  25  28
ATOM     28  C   UNL A   1      41.696  20.889  26.607  1.00  0.00     0.039 A 
ATOM     29  C   UNL A   1      42.066  21.914  25.727  1.00  0.00     0.014 A 
ATOM     30  C   UNL A   1      41.858  21.080  27.979  1.00  0.00     0.014 A 
ATOM     31  C   UNL A   1      42.506  23.145  26.222  1.00  0.00     0.010 A 
ATOM     32  C   UNL A   1      42.206  22.336  28.476  1.00  0.00     0.010 A 
ATOM     33  C   UNL A   1      42.530  23.386  27.604  1.00  0.00    -0.014 A 
BRANCH  33  34
ATOM     34  C   UNL A   1      42.876  24.727  28.151  1.00  0.00     0.031 A 
ATOM     35  C   UNL A   1      41.809  25.768  28.363  1.00  0.00     0.074 A 
ATOM     36  C   UNL A   1      44.165  25.033  28.402  1.00  0.00     0.049 A 
ATOM     37  N   UNL A   1      41.934  27.011  28.750  1.00  0.00    -0.248 NA
ATOM     38  C   UNL A   1      40.422  25.365  28.080  1.00  0.00     0.031 C 
ATOM     39  C   UNL A   1      45.301  24.130  28.206  1.00  0.00     0.029 A 
ATOM     40  N   UNL A   1      44.742  26.189  28.868  1.00  0.00    -0.354 N 
ATOM     41  C   UNL A   1      40.650  27.542  28.744  1.00  0.00     0.074 A 
ATOM     42  C   UNL A   1      39.766  26.502  28.264  1.00  0.00     0.031 C 
ATOM     43  C   UNL A   1      46.430  24.754  28.577  1.00  0.00     0.029 A 
ATOM     44  C   UNL A   1      46.109  26.116  28.990  1.00  0.00     0.049 A 
ATOM     45  H   UNL A   1      44.224  26.996  29.093  1.00  0.00     0.167 HD
ATOM     46  C   UNL A   1      40.241  28.774  29.127  1.00  0.00     0.037 A 
ATOM     47  C   UNL A   1      47.008  27.041  29.381  1.00  0.00     0.037 A 
ATOM     48  C   UNL A   1      41.117  29.799  29.632  1.00  0.00     0.049 A 
ATOM     49  C   UNL A   1      46.531  28.409  29.782  1.00  0.00     0.074 A 
ATOM     50  C   UNL A   1      40.785  31.060  30.097  1.00  0.00     0.029 A 
ATOM     51  N   UNL A   1      42.495  29.681  29.739  1.00  0.00    -0.354 N 
ATOM     52  N   UNL A   1      45.308  28.877  29.817  1.00  0.00    -0.248 NA
ATOM     53  C   UNL A   1      47.557  29.376  30.198  1.00  0.00     0.031 C 
ATOM     54  C   UNL A   1      41.966  31.725  30.436  1.00  0.00     0.029 A 
ATOM     55  C   UNL A   1      43.029  30.857  30.240  1.00  0.00     0.049 A 
ATOM     56  H   UNL A   1      43.015  28.882  29.497  1.00  0.00     0.167 HD
ATOM     57  C   UNL A   1      45.413  30.182  30.282  1.00  0.00     0.074 A 
ATOM     58  C   UNL A   1      46.818  30.428  30.526  1.00  0.00     0.031 C 
ATOM     59  C   UNL A   1      44.429  31.091  30.488  1.00  0.00     0.037 A 
BRANCH  46  60
ATOM     60  C   UNL A   1      38.776  29.090  29.032  1.00  0.00     0.057 A 
ATOM     61  C   UNL A   1      38.219  29.558  27.834  1.00  0.00     0.134 A 
ATOM     62  C   UNL A   1      37.932  29.012  30.148  1.00  0.00     0.134 A 
ATOM     63  F   UNL A   1      38.972  29.666  26.729  1.00  0.00    -0.206 F 
ATOM     64  C   UNL A   1      36.880  29.947  27.754  1.00  0.00     0.040 A 
ATOM     65  C   UNL A   1      36.585  29.373  30.072  1.00  0.00     0.040 A 
ATOM     66  F   UNL A   1      38.399  28.566  31.324  1.00  0.00    -0.206 F 
ATOM     67  C   UNL A   1      36.059  29.853  28.875  1.00  0.00     0.006 A 
ENDBRANCH  46  60
BRANCH  47  68
ATOM     68  C   UNL A   1      48.449  26.687  29.436  1.00  0.00     0.057 A 
ATOM     69  C   UNL A   1      49.015  26.080  30.564  1.00  0.00     0.134 A 
ATOM     70  C   UNL A   1      49.303  26.975  28.365  1.00  0.00     0.134 A 
ATOM     71  F   UNL A   1      48.253  25.783  31.627  1.00  0.00    -0.206 F 
ATOM     72  C   UNL A   1      50.379  25.792  30.635  1.00  0.00     0.040 A 
ATOM     73  C   UNL A   1      50.664  26.669  28.411  1.00  0.00     0.040 A 
ATOM     74  F   UNL A   1      48.819  27.538  27.249  1.00  0.00    -0.206 F 
ATOM     75  C   UNL A   1      51.207  26.084  29.553  1.00  0.00     0.006 A 
ENDBRANCH  47  68
BRANCH  59  76
ATOM     76  C   UNL A   1      44.819  32.436  31.028  1.00  0.00     0.057 A 
ATOM     77  C   UNL A   1      45.184  33.473  30.160  1.00  0.00     0.134 A 
ATOM     78  C   UNL A   1      44.926  32.676  32.402  1.00  0.00     0.134 A 
ATOM     79  F   UNL A   1      45.116  33.304  28.830  1.00  0.00    -0.206 F 
ATOM     80  C   UNL A   1      45.660  34.694  30.639  1.00  0.00     0.040 A 
ATOM     81  C   UNL A   1      45.375  33.903  32.895  1.00  0.00     0.040 A 
ATOM     82  F   UNL A   1      44.583  31.728  33.289  1.00  0.00    -0.206 F 
ATOM     83  C   UNL A   1      45.755  34.912  32.011  1.00  0.00     0.006 A 
ENDBRANCH  59  76
ENDBRANCH  33  34
ENDBRANCH  25  28
ENDBRANCH  23  24
ENDBRANCH  22  23
ENDBRANCH   1  22
TORSDOF 13
ENDMDL
MODEL 2
REMARK VINA RESULT:     -11.2      0.343      6.385
REMARK SMILES CN(Cc1csc(Br)c1)c1cccc(F)c1C(=O)NCCCNC(=O)c1ccc(-c2c3nc(c(-c4c(F)cccc4F)c4ccc([nH]4)c(-c4c(F)cccc4F)c4nc(c(-c5c(F)cccc5F)c5ccc2[nH]5)C=C4)C=C3)cc1
REMARK SMILES IDX 20 1 19 2 17 3 18 4 16 6 10 7 11 8 12 9 14 10 13 11 15 12
REMARK SMILES IDX 2 13 1 14 3 15 4 16 5 17 9 18 6 19 7 20 8 21 21 22 22 23
REMARK SMILES IDX 23 24 24 25 25 27 26 28 27 29 79 30 28 31 78 32 29 33 30 34
REMARK SMILES IDX 31 35 72 36 32 37 77 38 71 39 73 40 33 41 76 42 70 43 69 44
REMARK SMILES IDX 34 46 60 47 43 48 59 49 44 50 47 51 58 52 74 53 45 54 46 55
REMARK SMILES IDX 57 57 75 58 48 59 35 60 36 61 41 62 37 63 38 64 40 65 42 66
REMARK SMILES IDX 39 67 61 68 62 69 67 70 63 71 64 72 66 73 68 74 65 75 49 76
REMARK SMILES IDX 50 77 55 78 51 79 52 80 54 81 56 82 53 83
REMARK H PARENT 19 5 23 26 73 45 47 56
REMARK Flexibility Score: inf
ROOT
ATOM      1  C   UNL A   1      36.869  21.092  24.755  1.00  0.00     0.118 C 
ENDROOT
BRANCH   1   2
ATOM      2  N   UNL A   1      36.131  21.421  25.965  1.00  0.00    -0.352 N 
ATOM      3  C   UNL A   1      34.769  21.500  26.203  1.00  0.00     0.256 C 
ATOM      4  O   UNL A   1      34.381  21.452  27.369  1.00  0.00    -0.269 OA
ATOM      5  H   UNL A   1      36.695  21.623  26.747  1.00  0.00     0.163 HD
BRANCH   3   6
ATOM      6  C   UNL A   1      33.790  21.664  25.099  1.00  0.00     0.098 A 
ATOM      7  C   UNL A   1      33.147  22.902  24.846  1.00  0.00     0.053 A 
ATOM      8  C   UNL A   1      32.262  22.971  23.747  1.00  0.00     0.027 A 
ATOM      9  C   UNL A   1      31.979  21.858  22.954  1.00  0.00     0.005 A 
ATOM     10  C   UNL A   1      33.416  20.539  24.356  1.00  0.00     0.138 A 
ATOM     11  C   UNL A   1      32.544  20.633  23.274  1.00  0.00     0.040 A 
ATOM     12  F   UNL A   1      33.870  19.316  24.674  1.00  0.00    -0.206 F 
BRANCH   7  13
ATOM     13  N   UNL A   1      33.285  24.032  25.649  1.00  0.00    -0.370 N 
ATOM     14  C   UNL A   1      32.154  24.378  26.500  1.00  0.00     0.144 C 
BRANCH  13  15
ATOM     15  C   UNL A   1      34.224  25.085  25.273  1.00  0.00     0.152 C 
BRANCH  15  16
ATOM     16  C   UNL A   1      33.652  26.467  25.115  1.00  0.00    -0.017 A 
ATOM     17  C   UNL A   1      33.050  26.948  23.964  1.00  0.00     0.071 A 
ATOM     18  C   UNL A   1      33.673  27.480  26.138  1.00  0.00     0.033 A 
ATOM     19  S   UNL A   1      32.506  28.562  24.129  1.00  0.00    -0.136 S 
ATOM     20  C   UNL A   1      33.108  28.653  25.708  1.00  0.00     0.070 A 
ATOM     21  Br  UNL A   1      33.009  30.203  26.752  1.00  0.00    -0.039 Br
ENDBRANCH  15  16
ENDBRANCH  13  15
ENDBRANCH   7  13
ENDBRANCH   3   6
ENDBRANCH   1   2
BRANCH   1  22
ATOM     22  C   UNL A   1      37.867  19.949  24.878  1.00  0.00     0.042 C 
BRANCH  22  23
ATOM     23  C   UNL A   1      38.840  20.013  26.047  1.00  0.00     0.118 C 
BRANCH  23  24
ATOM     24  N   UNL A   1      40.054  19.232  25.864  1.00  0.00    -0.352 N 
ATOM     25  C   UNL A   1      41.382  19.523  26.058  1.00  0.00     0.251 C 
ATOM     26  H   UNL A   1      39.892  18.317  25.538  1.00  0.00     0.163 HD
ATOM     27  O   UNL A   1      42.225  18.679  25.751  1.00  0.00    -0.269 OA
BRANCH  25  28
ATOM     28  C   UNL A   1      41.839  20.832  26.580  1.00  0.00     0.039 A 
ATOM     29  C   UNL A   1      42.257  21.801  25.658  1.00  0.00     0.014 A 
ATOM     30  C   UNL A   1      41.908  21.118  27.943  1.00  0.00     0.014 A 
ATOM     31  C   UNL A   1      42.654  23.068  26.096  1.00  0.00     0.010 A 
ATOM     32  C   UNL A   1      42.213  22.409  28.375  1.00  0.00     0.010 A 
ATOM     33  C   UNL A   1      42.585  23.402  27.458  1.00  0.00    -0.014 A 
BRANCH  33  34
ATOM     34  C   UNL A   1      42.883  24.781  27.933  1.00  0.00     0.031 A 
ATOM     35  C   UNL A   1      44.297  25.195  28.243  1.00  0.00     0.074 A 
ATOM     36  C   UNL A   1      41.872  25.647  28.145  1.00  0.00     0.049 A 
ATOM     37  N   UNL A   1      44.735  26.322  28.744  1.00  0.00    -0.248 NA
ATOM     38  C   UNL A   1      45.354  24.206  27.979  1.00  0.00     0.031 C 
ATOM     39  C   UNL A   1      40.454  25.360  27.919  1.00  0.00     0.029 A 
ATOM     40  N   UNL A   1      41.877  26.941  28.606  1.00  0.00    -0.354 N 
ATOM     41  C   UNL A   1      46.111  26.173  28.867  1.00  0.00     0.074 A 
ATOM     42  C   UNL A   1      46.430  24.829  28.439  1.00  0.00     0.031 C 
ATOM     43  C   UNL A   1      39.731  26.453  28.212  1.00  0.00     0.029 A 
ATOM     44  C   UNL A   1      40.625  27.502  28.693  1.00  0.00     0.049 A 
ATOM     45  H   UNL A   1      42.700  27.421  28.851  1.00  0.00     0.167 HD
ATOM     46  C   UNL A   1      47.028  27.082  29.275  1.00  0.00     0.037 A 
ATOM     47  C   UNL A   1      40.235  28.719  29.119  1.00  0.00     0.037 A 
ATOM     48  C   UNL A   1      46.714  28.429  29.673  1.00  0.00     0.049 A 
ATOM     49  C   UNL A   1      41.270  29.704  29.587  1.00  0.00     0.074 A 
ATOM     50  C   UNL A   1      47.583  29.438  30.049  1.00  0.00     0.029 A 
ATOM     51  N   UNL A   1      45.433  28.955  29.746  1.00  0.00    -0.354 N 
ATOM     52  N   UNL A   1      42.571  29.563  29.650  1.00  0.00    -0.248 NA
ATOM     53  C   UNL A   1      40.785  31.015  30.042  1.00  0.00     0.031 C 
ATOM     54  C   UNL A   1      46.826  30.559  30.400  1.00  0.00     0.029 A 
ATOM     55  C   UNL A   1      45.489  30.268  30.184  1.00  0.00     0.049 A 
ATOM     56  H   UNL A   1      44.608  28.470  29.519  1.00  0.00     0.167 HD
ATOM     57  C   UNL A   1      43.063  30.771  30.125  1.00  0.00     0.074 A 
ATOM     58  C   UNL A   1      41.921  31.639  30.324  1.00  0.00     0.031 C 
ATOM     59  C   UNL A   1      44.347  31.127  30.372  1.00  0.00     0.037 A 
BRANCH  46  60
ATOM     60  C   UNL A   1      48.470  26.662  29.302  1.00  0.00     0.057 A 
ATOM     61  C   UNL A   1      49.017  26.046  30.436  1.00  0.00     0.134 A 
ATOM     62  C   UNL A   1      49.339  26.942  28.239  1.00  0.00     0.134 A 
ATOM     63  F   UNL A   1      48.244  25.757  31.494  1.00  0.00    -0.206 F 
ATOM     64  C   UNL A   1      50.376  25.737  30.516  1.00  0.00     0.040 A 
ATOM     65  C   UNL A   1      50.694  26.613  28.297  1.00  0.00     0.040 A 
ATOM     66  F   UNL A   1      48.879  27.524  27.121  1.00  0.00    -0.206 F 
ATOM     67  C   UNL A   1      51.218  26.018  29.443  1.00  0.00     0.006 A 
ENDBRANCH  46  60
BRANCH  47  68
ATOM     68  C   UNL A   1      38.794  29.079  29.095  1.00  0.00     0.057 A 
ATOM     69  C   UNL A   1      38.177  29.566  27.936  1.00  0.00     0.134 A 
ATOM     70  C   UNL A   1      38.005  28.968  30.245  1.00  0.00     0.134 A 
ATOM     71  F   UNL A   1      38.879  29.703  26.801  1.00  0.00    -0.206 F 
ATOM     72  C   UNL A   1      36.835  29.951  27.926  1.00  0.00     0.040 A 
ATOM     73  C   UNL A   1      36.654  29.324  30.244  1.00  0.00     0.040 A 
ATOM     74  F   UNL A   1      38.531  28.490  31.382  1.00  0.00    -0.206 F 
ATOM     75  C   UNL A   1      36.069  29.826  29.083  1.00  0.00     0.006 A 
ENDBRANCH  47  68
BRANCH  59  76
ATOM     76  C   UNL A   1      44.606  32.522  30.862  1.00  0.00     0.057 A 
ATOM     77  C   UNL A   1      44.607  32.806  32.235  1.00  0.00     0.134 A 
ATOM     78  C   UNL A   1      44.760  33.597  29.981  1.00  0.00     0.134 A 
ATOM     79  F   UNL A   1      44.452  31.821  33.134  1.00  0.00    -0.206 F 
ATOM     80  C   UNL A   1      44.730  34.111  32.711  1.00  0.00     0.040 A 
ATOM     81  C   UNL A   1      44.913  34.905  30.445  1.00  0.00     0.040 A 
ATOM     82  F   UNL A   1      44.779  33.393  28.654  1.00  0.00    -0.206 F 
ATOM     83  C   UNL A   1      44.886  35.166  31.814  1.00  0.00     0.006 A 
ENDBRANCH  59  76
ENDBRANCH  33  34
ENDBRANCH  25  28
ENDBRANCH  23  24
ENDBRANCH  22  23
ENDBRANCH   1  22
TORSDOF 13
ENDMDL
MODEL 3
REMARK VINA RESULT:     -11.1      1.058      1.767
REMARK SMILES CN(Cc1csc(Br)c1)c1cccc(F)c1C(=O)NCCCNC(=O)c1ccc(-c2c3nc(c(-c4c(F)cccc4F)c4ccc([nH]4)c(-c4c(F)cccc4F)c4nc(c(-c5c(F)cccc5F)c5ccc2[nH]5)C=C4)C=C3)cc1
REMARK SMILES IDX 20 1 19 2 17 3 18 4 16 6 10 7 11 8 12 9 14 10 13 11 15 12
REMARK SMILES IDX 2 13 1 14 3 15 4 16 5 17 9 18 6 19 7 20 8 21 21 22 22 23
REMARK SMILES IDX 23 24 24 25 25 27 26 28 27 29 79 30 28 31 78 32 29 33 30 34
REMARK SMILES IDX 31 35 72 36 32 37 77 38 71 39 73 40 33 41 76 42 70 43 69 44
REMARK SMILES IDX 34 46 60 47 43 48 59 49 44 50 47 51 58 52 74 53 45 54 46 55
REMARK SMILES IDX 57 57 75 58 48 59 35 60 36 61 41 62 37 63 38 64 40 65 42 66
REMARK SMILES IDX 39 67 61 68 62 69 67 70 63 71 64 72 66 73 68 74 65 75 49 76
REMARK SMILES IDX 50 77 55 78 51 79 52 80 54 81 56 82 53 83
REMARK H PARENT 19 5 23 26 73 45 47 56
REMARK Flexibility Score: inf
ROOT
ATOM      1  C   UNL A   1      36.442  20.810  24.817  1.00  0.00     0.118 C 
ENDROOT
BRANCH   1   2
ATOM      2  N   UNL A   1      35.602  21.059  25.979  1.00  0.00    -0.352 N 
ATOM      3  C   UNL A   1      34.232  21.239  26.086  1.00  0.00     0.256 C 
ATOM      4  O   UNL A   1      33.713  21.087  27.190  1.00  0.00    -0.269 OA
ATOM      5  H   UNL A   1      36.089  21.108  26.834  1.00  0.00     0.163 HD
BRANCH   3   6
ATOM      6  C   UNL A   1      33.402  21.630  24.919  1.00  0.00     0.098 A 
ATOM      7  C   UNL A   1      32.984  22.968  24.712  1.00  0.00     0.053 A 
ATOM      8  C   UNL A   1      32.230  23.250  23.551  1.00  0.00     0.027 A 
ATOM      9  C   UNL A   1      31.857  22.252  22.651  1.00  0.00     0.005 A 
ATOM     10  C   UNL A   1      32.933  20.631  24.059  1.00  0.00     0.138 A 
ATOM     11  C   UNL A   1      32.194  20.934  22.918  1.00  0.00     0.040 A 
ATOM     12  F   UNL A   1      33.161  19.333  24.316  1.00  0.00    -0.206 F 
BRANCH   7  13
ATOM     13  N   UNL A   1      33.215  24.007  25.612  1.00  0.00    -0.370 N 
ATOM     14  C   UNL A   1      32.116  24.369  26.499  1.00  0.00     0.144 C 
BRANCH  13  15
ATOM     15  C   UNL A   1      34.240  25.007  25.325  1.00  0.00     0.152 C 
BRANCH  15  16
ATOM     16  C   UNL A   1      33.771  26.431  25.206  1.00  0.00    -0.017 A 
ATOM     17  C   UNL A   1      33.162  26.972  24.085  1.00  0.00     0.071 A 
ATOM     18  C   UNL A   1      33.910  27.425  26.237  1.00  0.00     0.033 A 
ATOM     19  S   UNL A   1      32.750  28.621  24.290  1.00  0.00    -0.136 S 
ATOM     20  C   UNL A   1      33.421  28.644  25.843  1.00  0.00     0.070 A 
ATOM     21  Br  UNL A   1      33.484  30.182  26.908  1.00  0.00    -0.039 Br
ENDBRANCH  15  16
ENDBRANCH  13  15
ENDBRANCH   7  13
ENDBRANCH   3   6
ENDBRANCH   1   2
BRANCH   1  22
ATOM     22  C   UNL A   1      37.550  19.784  25.009  1.00  0.00     0.042 C 
BRANCH  22  23
ATOM     23  C   UNL A   1      38.780  20.240  25.782  1.00  0.00     0.118 C 
BRANCH  23  24
ATOM     24  N   UNL A   1      39.872  19.280  25.799  1.00  0.00    -0.352 N 
ATOM     25  C   UNL A   1      41.209  19.401  26.088  1.00  0.00     0.251 C 
ATOM     26  H   UNL A   1      39.600  18.365  25.555  1.00  0.00     0.163 HD
ATOM     27  O   UNL A   1      41.936  18.417  25.952  1.00  0.00    -0.269 OA
BRANCH  25  28
ATOM     28  C   UNL A   1      41.815  20.685  26.512  1.00  0.00     0.039 A 
ATOM     29  C   UNL A   1      42.171  21.607  25.519  1.00  0.00     0.014 A 
ATOM     30  C   UNL A   1      42.082  20.988  27.846  1.00  0.00     0.014 A 
ATOM     31  C   UNL A   1      42.705  22.851  25.868  1.00  0.00     0.010 A 
ATOM     32  C   UNL A   1      42.525  22.263  28.202  1.00  0.00     0.010 A 
ATOM     33  C   UNL A   1      42.837  23.212  27.218  1.00  0.00    -0.014 A 
BRANCH  33  34
ATOM     34  C   UNL A   1      43.285  24.575  27.615  1.00  0.00     0.031 A 
ATOM     35  C   UNL A   1      42.284  25.624  28.020  1.00  0.00     0.074 A 
ATOM     36  C   UNL A   1      44.595  24.891  27.554  1.00  0.00     0.049 A 
ATOM     37  N   UNL A   1      42.482  26.883  28.317  1.00  0.00    -0.248 NA
ATOM     38  C   UNL A   1      40.873  25.210  28.077  1.00  0.00     0.031 C 
ATOM     39  C   UNL A   1      45.665  23.980  27.143  1.00  0.00     0.029 A 
ATOM     40  N   UNL A   1      45.251  26.066  27.828  1.00  0.00    -0.354 N 
ATOM     41  C   UNL A   1      41.225  27.413  28.580  1.00  0.00     0.074 A 
ATOM     42  C   UNL A   1      40.265  26.354  28.358  1.00  0.00     0.031 C 
ATOM     43  C   UNL A   1      46.843  24.619  27.222  1.00  0.00     0.029 A 
ATOM     44  C   UNL A   1      46.610  25.998  27.640  1.00  0.00     0.049 A 
ATOM     45  H   UNL A   1      44.790  26.882  28.131  1.00  0.00     0.167 HD
ATOM     46  C   UNL A   1      40.902  28.661  28.994  1.00  0.00     0.037 A 
ATOM     47  C   UNL A   1      47.566  26.939  27.777  1.00  0.00     0.037 A 
ATOM     48  C   UNL A   1      41.860  29.706  29.244  1.00  0.00     0.049 A 
ATOM     49  C   UNL A   1      47.180  28.323  28.219  1.00  0.00     0.074 A 
ATOM     50  C   UNL A   1      41.630  30.986  29.719  1.00  0.00     0.029 A 
ATOM     51  N   UNL A   1      43.227  29.593  29.041  1.00  0.00    -0.354 N 
ATOM     52  N   UNL A   1      45.992  28.792  28.511  1.00  0.00    -0.248 NA
ATOM     53  C   UNL A   1      48.264  29.307  28.350  1.00  0.00     0.031 C 
ATOM     54  C   UNL A   1      42.851  31.664  29.753  1.00  0.00     0.029 A 
ATOM     55  C   UNL A   1      43.849  30.789  29.358  1.00  0.00     0.049 A 
ATOM     56  H   UNL A   1      43.686  28.784  28.720  1.00  0.00     0.167 HD
ATOM     57  C   UNL A   1      46.187  30.116  28.885  1.00  0.00     0.074 A 
ATOM     58  C   UNL A   1      47.609  30.372  28.794  1.00  0.00     0.031 C 
ATOM     59  C   UNL A   1      45.267  31.033  29.271  1.00  0.00     0.037 A 
BRANCH  46  60
ATOM     60  C   UNL A   1      39.450  28.973  29.222  1.00  0.00     0.057 A 
ATOM     61  C   UNL A   1      38.861  28.768  30.477  1.00  0.00     0.134 A 
ATOM     62  C   UNL A   1      38.615  29.396  28.179  1.00  0.00     0.134 A 
ATOM     63  F   UNL A   1      39.601  28.355  31.517  1.00  0.00    -0.206 F 
ATOM     64  C   UNL A   1      37.494  28.961  30.683  1.00  0.00     0.040 A 
ATOM     65  C   UNL A   1      37.252  29.618  28.380  1.00  0.00     0.040 A 
ATOM     66  F   UNL A   1      39.116  29.617  26.954  1.00  0.00    -0.206 F 
ATOM     67  C   UNL A   1      36.686  29.390  29.632  1.00  0.00     0.006 A 
ENDBRANCH  46  60
BRANCH  47  68
ATOM     68  C   UNL A   1      48.985  26.587  27.518  1.00  0.00     0.057 A 
ATOM     69  C   UNL A   1      49.560  26.732  26.249  1.00  0.00     0.134 A 
ATOM     70  C   UNL A   1      49.796  26.069  28.535  1.00  0.00     0.134 A 
ATOM     71  F   UNL A   1      48.835  27.216  25.230  1.00  0.00    -0.206 F 
ATOM     72  C   UNL A   1      50.879  26.355  25.994  1.00  0.00     0.040 A 
ATOM     73  C   UNL A   1      51.126  25.713  28.302  1.00  0.00     0.040 A 
ATOM     74  F   UNL A   1      49.312  25.924  29.777  1.00  0.00    -0.206 F 
ATOM     75  C   UNL A   1      51.668  25.848  27.025  1.00  0.00     0.006 A 
ENDBRANCH  47  68
BRANCH  59  76
ATOM     76  C   UNL A   1      45.757  32.399  29.652  1.00  0.00     0.057 A 
ATOM     77  C   UNL A   1      45.886  33.405  28.684  1.00  0.00     0.134 A 
ATOM     78  C   UNL A   1      46.189  32.693  30.950  1.00  0.00     0.134 A 
ATOM     79  F   UNL A   1      45.501  33.184  27.418  1.00  0.00    -0.206 F 
ATOM     80  C   UNL A   1      46.446  34.645  28.990  1.00  0.00     0.040 A 
ATOM     81  C   UNL A   1      46.725  33.940  31.275  1.00  0.00     0.040 A 
ATOM     82  F   UNL A   1      46.084  31.778  31.926  1.00  0.00    -0.206 F 
ATOM     83  C   UNL A   1      46.867  34.916  30.290  1.00  0.00     0.006 A 
ENDBRANCH  59  76
ENDBRANCH  33  34
ENDBRANCH  25  28
ENDBRANCH  23  24
ENDBRANCH  22  23
ENDBRANCH   1  22
TORSDOF 13
ENDMDL
