MODEL 1
REMARK VINA RESULT:     -11.7      0.000      0.000
REMARK SMILES CS(=O)(=O)Nc1cc(NS(C)(=O)=O)cc(C(=O)NCCCNC(=O)c2ccc(-c3c4nc(c(-c5c(F)cccc5F)c5ccc([nH]5)c(-c5c(F)cccc5F)c5nc(c(-c6c(F)cccc6F)c6ccc3[nH]6)C=C5)C=C4)cc2)c1
REMARK SMILES IDX 20 1 19 2 18 3 16 4 17 5 15 7 6 8 7 9 79 10 8 11 14 12 5 13
REMARK SMILES IDX 2 15 1 16 3 17 4 18 9 19 10 21 11 22 12 23 13 24 21 25 22 26
REMARK SMILES IDX 23 27 24 29 25 30 26 31 78 32 27 33 77 34 28 35 29 36 30 37
REMARK SMILES IDX 71 38 31 39 76 40 70 41 72 42 32 43 75 44 69 45 68 46 33 48
REMARK SMILES IDX 59 49 42 50 58 51 43 52 46 53 57 54 73 55 44 56 45 57 56 59
REMARK SMILES IDX 74 60 47 61 34 62 35 63 40 64 36 65 37 66 39 67 41 68 38 69
REMARK SMILES IDX 60 70 61 71 66 72 62 73 63 74 65 75 67 76 64 77 48 78 49 79
REMARK SMILES IDX 54 80 50 81 51 82 53 83 55 84 52 85
REMARK H PARENT 18 6 5 14 9 20 22 28 72 47 46 58
REMARK Flexibility Score: inf
ROOT
ATOM      1  C   UNL A   1      32.318  27.838  27.092  1.00  0.00     0.042 C 
ENDROOT
BRANCH   1   2
ATOM      2  C   UNL A   1      32.264  26.578  26.233  1.00  0.00     0.118 C 
BRANCH   2   3
ATOM      3  N   UNL A   1      31.415  25.567  26.836  1.00  0.00    -0.352 N 
ATOM      4  C   UNL A   1      31.120  24.272  26.497  1.00  0.00     0.251 C 
ATOM      5  O   UNL A   1      30.378  23.651  27.258  1.00  0.00    -0.269 OA
ATOM      6  H   UNL A   1      30.960  25.873  27.652  1.00  0.00     0.163 HD
BRANCH   4   7
ATOM      7  C   UNL A   1      31.695  23.562  25.318  1.00  0.00     0.043 A 
ATOM      8  C   UNL A   1      32.363  23.401  23.000  1.00  0.00     0.051 A 
ATOM      9  C   UNL A   1      33.070  22.232  23.285  1.00  0.00     0.053 A 
ATOM     10  C   UNL A   1      31.607  24.005  24.000  1.00  0.00     0.040 A 
ATOM     11  C   UNL A   1      32.995  21.645  24.545  1.00  0.00     0.051 A 
ATOM     12  C   UNL A   1      32.380  22.362  25.575  1.00  0.00     0.040 A 
BRANCH   8  13
ATOM     13  N   UNL A   1      32.457  23.911  21.677  1.00  0.00    -0.284 N 
ATOM     14  H   UNL A   1      32.257  23.287  20.942  1.00  0.00     0.180 HD
BRANCH  13  15
ATOM     15  S   UNL A   1      32.874  25.466  21.258  1.00  0.00     0.229 S 
ATOM     16  C   UNL A   1      31.498  26.449  21.831  1.00  0.00     0.183 C 
ATOM     17  O   UNL A   1      32.941  25.567  19.816  1.00  0.00    -0.207 OA
ATOM     18  O   UNL A   1      34.021  25.794  22.078  1.00  0.00    -0.207 OA
ENDBRANCH  13  15
ENDBRANCH   8  13
BRANCH  11  19
ATOM     19  N   UNL A   1      33.693  20.439  24.901  1.00  0.00    -0.284 N 
ATOM     20  H   UNL A   1      34.566  20.490  25.354  1.00  0.00     0.180 HD
BRANCH  19  21
ATOM     21  S   UNL A   1      33.010  18.921  24.538  1.00  0.00     0.229 S 
ATOM     22  C   UNL A   1      34.500  17.977  24.326  1.00  0.00     0.183 C 
ATOM     23  O   UNL A   1      32.360  18.471  25.752  1.00  0.00    -0.207 OA
ATOM     24  O   UNL A   1      32.322  18.938  23.270  1.00  0.00    -0.207 OA
ENDBRANCH  19  21
ENDBRANCH  11  19
ENDBRANCH   4   7
ENDBRANCH   2   3
ENDBRANCH   1   2
BRANCH   1  25
ATOM     25  C   UNL A   1      33.723  28.418  27.168  1.00  0.00     0.118 C 
BRANCH  25  26
ATOM     26  N   UNL A   1      33.705  29.821  27.574  1.00  0.00    -0.352 N 
ATOM     27  C   UNL A   1      34.639  30.555  28.260  1.00  0.00     0.251 C 
ATOM     28  H   UNL A   1      32.896  30.318  27.314  1.00  0.00     0.163 HD
ATOM     29  O   UNL A   1      34.332  31.648  28.727  1.00  0.00    -0.269 OA
BRANCH  27  30
ATOM     30  C   UNL A   1      36.006  30.029  28.439  1.00  0.00     0.039 A 
ATOM     31  C   UNL A   1      36.925  30.148  27.391  1.00  0.00     0.014 A 
ATOM     32  C   UNL A   1      36.375  29.405  29.631  1.00  0.00     0.014 A 
ATOM     33  C   UNL A   1      38.234  29.702  27.571  1.00  0.00     0.010 A 
ATOM     34  C   UNL A   1      37.702  29.052  29.843  1.00  0.00     0.010 A 
ATOM     35  C   UNL A   1      38.642  29.190  28.813  1.00  0.00    -0.014 A 
BRANCH  35  36
ATOM     36  C   UNL A   1      40.049  28.793  29.064  1.00  0.00     0.031 A 
ATOM     37  C   UNL A   1      41.003  29.766  29.700  1.00  0.00     0.074 A 
ATOM     38  C   UNL A   1      40.484  27.589  28.645  1.00  0.00     0.049 A 
ATOM     39  N   UNL A   1      42.288  29.645  29.916  1.00  0.00    -0.248 NA
ATOM     40  C   UNL A   1      40.444  31.062  30.118  1.00  0.00     0.031 C 
ATOM     41  C   UNL A   1      39.665  26.579  27.974  1.00  0.00     0.029 A 
ATOM     42  N   UNL A   1      41.728  27.015  28.713  1.00  0.00    -0.354 N 
ATOM     43  C   UNL A   1      42.691  30.848  30.481  1.00  0.00     0.074 A 
ATOM     44  C   UNL A   1      41.530  31.711  30.512  1.00  0.00     0.031 C 
ATOM     45  C   UNL A   1      40.418  25.499  27.718  1.00  0.00     0.029 A 
ATOM     46  C   UNL A   1      41.784  25.758  28.161  1.00  0.00     0.049 A 
ATOM     47  H   UNL A   1      42.507  27.461  29.119  1.00  0.00     0.167 HD
ATOM     48  C   UNL A   1      43.911  31.193  30.955  1.00  0.00     0.037 A 
ATOM     49  C   UNL A   1      42.823  24.915  28.018  1.00  0.00     0.037 A 
ATOM     50  C   UNL A   1      45.057  30.323  30.930  1.00  0.00     0.049 A 
ATOM     51  C   UNL A   1      44.177  25.334  28.524  1.00  0.00     0.074 A 
ATOM     52  C   UNL A   1      46.326  30.555  31.430  1.00  0.00     0.029 A 
ATOM     53  N   UNL A   1      45.073  29.055  30.367  1.00  0.00    -0.354 N 
ATOM     54  N   UNL A   1      44.529  26.447  29.119  1.00  0.00    -0.248 NA
ATOM     55  C   UNL A   1      45.276  24.376  28.340  1.00  0.00     0.031 C 
ATOM     56  C   UNL A   1      47.125  29.450  31.119  1.00  0.00     0.029 A 
ATOM     57  C   UNL A   1      46.338  28.503  30.482  1.00  0.00     0.049 A 
ATOM     58  H   UNL A   1      44.299  28.613  29.948  1.00  0.00     0.167 HD
ATOM     59  C   UNL A   1      45.881  26.313  29.408  1.00  0.00     0.074 A 
ATOM     60  C   UNL A   1      46.279  25.004  28.936  1.00  0.00     0.031 C 
ATOM     61  C   UNL A   1      46.716  27.194  30.012  1.00  0.00     0.037 A 
BRANCH  48  62
ATOM     62  C   UNL A   1      44.064  32.570  31.535  1.00  0.00     0.057 A 
ATOM     63  C   UNL A   1      44.435  33.670  30.748  1.00  0.00     0.134 A 
ATOM     64  C   UNL A   1      43.818  32.807  32.894  1.00  0.00     0.134 A 
ATOM     65  F   UNL A   1      44.697  33.513  29.441  1.00  0.00    -0.206 F 
ATOM     66  C   UNL A   1      44.590  34.945  31.296  1.00  0.00     0.040 A 
ATOM     67  C   UNL A   1      43.938  34.084  33.447  1.00  0.00     0.040 A 
ATOM     68  F   UNL A   1      43.453  31.805  33.706  1.00  0.00    -0.206 F 
ATOM     69  C   UNL A   1      44.335  35.155  32.649  1.00  0.00     0.006 A 
ENDBRANCH  48  62
BRANCH  49  70
ATOM     70  C   UNL A   1      42.622  23.585  27.389  1.00  0.00     0.057 A 
ATOM     71  C   UNL A   1      42.234  22.477  28.152  1.00  0.00     0.134 A 
ATOM     72  C   UNL A   1      42.814  23.385  26.017  1.00  0.00     0.134 A 
ATOM     73  F   UNL A   1      42.051  22.601  29.475  1.00  0.00    -0.206 F 
ATOM     74  C   UNL A   1      42.064  21.216  27.579  1.00  0.00     0.040 A 
ATOM     75  C   UNL A   1      42.619  22.136  25.425  1.00  0.00     0.040 A 
ATOM     76  F   UNL A   1      43.177  24.406  25.227  1.00  0.00    -0.206 F 
ATOM     77  C   UNL A   1      42.252  21.044  26.210  1.00  0.00     0.006 A 
ENDBRANCH  49  70
BRANCH  61  78
ATOM     78  C   UNL A   1      48.136  26.756  30.231  1.00  0.00     0.057 A 
ATOM     79  C   UNL A   1      48.527  26.050  31.376  1.00  0.00     0.134 A 
ATOM     80  C   UNL A   1      49.113  27.002  29.258  1.00  0.00     0.134 A 
ATOM     81  F   UNL A   1      47.642  25.792  32.352  1.00  0.00    -0.206 F 
ATOM     82  C   UNL A   1      49.845  25.628  31.556  1.00  0.00     0.040 A 
ATOM     83  C   UNL A   1      50.427  26.557  29.413  1.00  0.00     0.040 A 
ATOM     84  F   UNL A   1      48.804  27.664  28.133  1.00  0.00    -0.206 F 
ATOM     85  C   UNL A   1      50.796  25.874  30.568  1.00  0.00     0.006 A 
ENDBRANCH  61  78
ENDBRANCH  35  36
ENDBRANCH  27  30
ENDBRANCH  25  26
ENDBRANCH   1  25
TORSDOF 14
ENDMDL
MODEL 2
REMARK VINA RESULT:     -11.6      4.364      8.875
REMARK SMILES CS(=O)(=O)Nc1cc(NS(C)(=O)=O)cc(C(=O)NCCCNC(=O)c2ccc(-c3c4nc(c(-c5c(F)cccc5F)c5ccc([nH]5)c(-c5c(F)cccc5F)c5nc(c(-c6c(F)cccc6F)c6ccc3[nH]6)C=C5)C=C4)cc2)c1
REMARK SMILES IDX 20 1 19 2 18 3 16 4 17 5 15 7 6 8 7 9 79 10 8 11 14 12 5 13
REMARK SMILES IDX 2 15 1 16 3 17 4 18 9 19 10 21 11 22 12 23 13 24 21 25 22 26
REMARK SMILES IDX 23 27 24 29 25 30 26 31 78 32 27 33 77 34 28 35 29 36 30 37
REMARK SMILES IDX 71 38 31 39 76 40 70 41 72 42 32 43 75 44 69 45 68 46 33 48
REMARK SMILES IDX 59 49 42 50 58 51 43 52 46 53 57 54 73 55 44 56 45 57 56 59
REMARK SMILES IDX 74 60 47 61 34 62 35 63 40 64 36 65 37 66 39 67 41 68 38 69
REMARK SMILES IDX 60 70 61 71 66 72 62 73 63 74 65 75 67 76 64 77 48 78 49 79
REMARK SMILES IDX 54 80 50 81 51 82 53 83 55 84 52 85
REMARK H PARENT 18 6 5 14 9 20 22 28 72 47 46 58
REMARK Flexibility Score: inf
ROOT
ATOM      1  C   UNL A   1      31.572  32.406  26.536  1.00  0.00     0.042 C 
ENDROOT
BRANCH   1   2
ATOM      2  C   UNL A   1      31.402  30.911  26.792  1.00  0.00     0.118 C 
BRANCH   2   3
ATOM      3  N   UNL A   1      32.598  30.175  26.426  1.00  0.00    -0.352 N 
ATOM      4  C   UNL A   1      32.801  28.983  25.781  1.00  0.00     0.251 C 
ATOM      5  O   UNL A   1      33.969  28.647  25.581  1.00  0.00    -0.269 OA
ATOM      6  H   UNL A   1      33.431  30.623  26.696  1.00  0.00     0.163 HD
BRANCH   4   7
ATOM      7  C   UNL A   1      31.705  28.120  25.250  1.00  0.00     0.043 A 
ATOM      8  C   UNL A   1      30.195  26.235  25.345  1.00  0.00     0.051 A 
ATOM      9  C   UNL A   1      29.451  26.778  24.297  1.00  0.00     0.053 A 
ATOM     10  C   UNL A   1      31.367  26.864  25.751  1.00  0.00     0.040 A 
ATOM     11  C   UNL A   1      29.889  27.919  23.631  1.00  0.00     0.051 A 
ATOM     12  C   UNL A   1      30.966  28.629  24.169  1.00  0.00     0.040 A 
BRANCH   8  13
ATOM     13  N   UNL A   1      29.702  25.043  25.943  1.00  0.00    -0.284 N 
ATOM     14  H   UNL A   1      28.736  25.005  26.131  1.00  0.00     0.180 HD
BRANCH  13  15
ATOM     15  S   UNL A   1      30.608  23.710  26.355  1.00  0.00     0.229 S 
ATOM     16  C   UNL A   1      29.422  22.595  27.088  1.00  0.00     0.183 C 
ATOM     17  O   UNL A   1      31.571  24.085  27.366  1.00  0.00    -0.207 OA
ATOM     18  O   UNL A   1      31.038  23.132  25.099  1.00  0.00    -0.207 OA
ENDBRANCH  13  15
ENDBRANCH   8  13
BRANCH  11  19
ATOM     19  N   UNL A   1      29.174  28.526  22.540  1.00  0.00    -0.284 N 
ATOM     20  H   UNL A   1      29.276  28.172  21.627  1.00  0.00     0.180 HD
BRANCH  19  21
ATOM     21  S   UNL A   1      28.153  29.858  22.828  1.00  0.00     0.229 S 
ATOM     22  C   UNL A   1      28.030  30.490  21.172  1.00  0.00     0.183 C 
ATOM     23  O   UNL A   1      26.865  29.306  23.196  1.00  0.00    -0.207 OA
ATOM     24  O   UNL A   1      28.806  30.865  23.630  1.00  0.00    -0.207 OA
ENDBRANCH  19  21
ENDBRANCH  11  19
ENDBRANCH   4   7
ENDBRANCH   2   3
ENDBRANCH   1   2
BRANCH   1  25
ATOM     25  C   UNL A   1      32.762  32.984  27.288  1.00  0.00     0.118 C 
BRANCH  25  26
ATOM     26  N   UNL A   1      32.537  34.377  27.663  1.00  0.00    -0.352 N 
ATOM     27  C   UNL A   1      33.065  35.111  28.695  1.00  0.00     0.251 C 
ATOM     28  H   UNL A   1      31.909  34.866  27.085  1.00  0.00     0.163 HD
ATOM     29  O   UNL A   1      32.560  36.189  28.997  1.00  0.00    -0.269 OA
BRANCH  27  30
ATOM     30  C   UNL A   1      34.232  34.603  29.441  1.00  0.00     0.039 A 
ATOM     31  C   UNL A   1      34.038  34.028  30.701  1.00  0.00     0.014 A 
ATOM     32  C   UNL A   1      35.517  34.709  28.907  1.00  0.00     0.014 A 
ATOM     33  C   UNL A   1      35.129  33.496  31.390  1.00  0.00     0.010 A 
ATOM     34  C   UNL A   1      36.584  34.092  29.547  1.00  0.00     0.010 A 
ATOM     35  C   UNL A   1      36.403  33.487  30.798  1.00  0.00    -0.014 A 
BRANCH  35  36
ATOM     36  C   UNL A   1      37.563  32.848  31.464  1.00  0.00     0.031 A 
ATOM     37  C   UNL A   1      38.221  31.648  30.841  1.00  0.00     0.074 A 
ATOM     38  C   UNL A   1      37.969  33.298  32.667  1.00  0.00     0.049 A 
ATOM     39  N   UNL A   1      39.182  30.894  31.310  1.00  0.00    -0.248 NA
ATOM     40  C   UNL A   1      37.708  31.219  29.529  1.00  0.00     0.031 C 
ATOM     41  C   UNL A   1      37.378  34.423  33.394  1.00  0.00     0.029 A 
ATOM     42  N   UNL A   1      38.967  32.855  33.497  1.00  0.00    -0.354 N 
ATOM     43  C   UNL A   1      39.378  29.898  30.362  1.00  0.00     0.074 A 
ATOM     44  C   UNL A   1      38.392  30.104  29.323  1.00  0.00     0.031 C 
ATOM     45  C   UNL A   1      38.042  34.602  34.545  1.00  0.00     0.029 A 
ATOM     46  C   UNL A   1      39.073  33.575  34.662  1.00  0.00     0.049 A 
ATOM     47  H   UNL A   1      39.553  32.095  33.278  1.00  0.00     0.167 HD
ATOM     48  C   UNL A   1      40.312  28.919  30.345  1.00  0.00     0.037 A 
ATOM     49  C   UNL A   1      39.899  33.417  35.712  1.00  0.00     0.037 A 
ATOM     50  C   UNL A   1      41.296  28.730  31.377  1.00  0.00     0.049 A 
ATOM     51  C   UNL A   1      40.907  32.301  35.685  1.00  0.00     0.074 A 
ATOM     52  C   UNL A   1      42.320  27.800  31.433  1.00  0.00     0.029 A 
ATOM     53  N   UNL A   1      41.374  29.482  32.540  1.00  0.00    -0.354 N 
ATOM     54  N   UNL A   1      41.128  31.408  34.750  1.00  0.00    -0.248 NA
ATOM     55  C   UNL A   1      41.783  32.172  36.857  1.00  0.00     0.031 C 
ATOM     56  C   UNL A   1      42.981  27.954  32.656  1.00  0.00     0.029 A 
ATOM     57  C   UNL A   1      42.411  29.020  33.333  1.00  0.00     0.049 A 
ATOM     58  H   UNL A   1      40.781  30.235  32.767  1.00  0.00     0.167 HD
ATOM     59  C   UNL A   1      42.186  30.632  35.206  1.00  0.00     0.074 A 
ATOM     60  C   UNL A   1      42.571  31.170  36.494  1.00  0.00     0.031 C 
ATOM     61  C   UNL A   1      42.785  29.572  34.612  1.00  0.00     0.037 A 
BRANCH  48  62
ATOM     62  C   UNL A   1      40.305  27.977  29.174  1.00  0.00     0.057 A 
ATOM     63  C   UNL A   1      41.050  28.231  28.013  1.00  0.00     0.134 A 
ATOM     64  C   UNL A   1      39.561  26.791  29.211  1.00  0.00     0.134 A 
ATOM     65  F   UNL A   1      41.777  29.354  27.905  1.00  0.00    -0.206 F 
ATOM     66  C   UNL A   1      41.028  27.360  26.922  1.00  0.00     0.040 A 
ATOM     67  C   UNL A   1      39.556  25.896  28.139  1.00  0.00     0.040 A 
ATOM     68  F   UNL A   1      38.829  26.478  30.291  1.00  0.00    -0.206 F 
ATOM     69  C   UNL A   1      40.285  26.184  26.987  1.00  0.00     0.006 A 
ENDBRANCH  48  62
BRANCH  49  70
ATOM     70  C   UNL A   1      39.824  34.348  36.867  1.00  0.00     0.057 A 
ATOM     71  C   UNL A   1      39.053  34.040  37.994  1.00  0.00     0.134 A 
ATOM     72  C   UNL A   1      40.515  35.566  36.873  1.00  0.00     0.134 A 
ATOM     73  F   UNL A   1      38.355  32.896  38.041  1.00  0.00    -0.206 F 
ATOM     74  C   UNL A   1      38.956  34.916  39.076  1.00  0.00     0.040 A 
ATOM     75  C   UNL A   1      40.450  36.438  37.961  1.00  0.00     0.040 A 
ATOM     76  F   UNL A   1      41.279  35.918  35.828  1.00  0.00    -0.206 F 
ATOM     77  C   UNL A   1      39.660  36.118  39.063  1.00  0.00     0.006 A 
ENDBRANCH  49  70
BRANCH  61  78
ATOM     78  C   UNL A   1      43.946  28.946  35.330  1.00  0.00     0.057 A 
ATOM     79  C   UNL A   1      45.264  29.373  35.126  1.00  0.00     0.134 A 
ATOM     80  C   UNL A   1      43.733  27.934  36.276  1.00  0.00     0.134 A 
ATOM     81  F   UNL A   1      45.537  30.330  34.225  1.00  0.00    -0.206 F 
ATOM     82  C   UNL A   1      46.331  28.799  35.818  1.00  0.00     0.040 A 
ATOM     83  C   UNL A   1      44.789  27.375  36.997  1.00  0.00     0.040 A 
ATOM     84  F   UNL A   1      42.494  27.485  36.528  1.00  0.00    -0.206 F 
ATOM     85  C   UNL A   1      46.093  27.803  36.763  1.00  0.00     0.006 A 
ENDBRANCH  61  78
ENDBRANCH  35  36
ENDBRANCH  27  30
ENDBRANCH  25  26
ENDBRANCH   1  25
TORSDOF 14
ENDMDL
MODEL 3
REMARK VINA RESULT:     -11.6      2.994      7.630
REMARK SMILES CS(=O)(=O)Nc1cc(NS(C)(=O)=O)cc(C(=O)NCCCNC(=O)c2ccc(-c3c4nc(c(-c5c(F)cccc5F)c5ccc([nH]5)c(-c5c(F)cccc5F)c5nc(c(-c6c(F)cccc6F)c6ccc3[nH]6)C=C5)C=C4)cc2)c1
REMARK SMILES IDX 20 1 19 2 18 3 16 4 17 5 15 7 6 8 7 9 79 10 8 11 14 12 5 13
REMARK SMILES IDX 2 15 1 16 3 17 4 18 9 19 10 21 11 22 12 23 13 24 21 25 22 26
REMARK SMILES IDX 23 27 24 29 25 30 26 31 78 32 27 33 77 34 28 35 29 36 30 37
REMARK SMILES IDX 71 38 31 39 76 40 70 41 72 42 32 43 75 44 69 45 68 46 33 48
REMARK SMILES IDX 59 49 42 50 58 51 43 52 46 53 57 54 73 55 44 56 45 57 56 59
REMARK SMILES IDX 74 60 47 61 34 62 35 63 40 64 36 65 37 66 39 67 41 68 38 69
REMARK SMILES IDX 60 70 61 71 66 72 62 73 63 74 65 75 67 76 64 77 48 78 49 79
REMARK SMILES IDX 54 80 50 81 51 82 53 83 55 84 52 85
REMARK H PARENT 18 6 5 14 9 20 22 28 72 47 46 58
REMARK Flexibility Score: inf
ROOT
ATOM      1  C   UNL A   1      34.133  29.968  26.681  1.00  0.00     0.042 C 
ENDROOT
BRANCH   1   2
ATOM      2  C   UNL A   1      32.688  30.198  27.117  1.00  0.00     0.118 C 
BRANCH   2   3
ATOM      3  N   UNL A   1      32.014  28.942  27.386  1.00  0.00    -0.352 N 
ATOM      4  C   UNL A   1      31.370  28.036  26.583  1.00  0.00     0.251 C 
ATOM      5  O   UNL A   1      30.929  27.023  27.126  1.00  0.00    -0.269 OA
ATOM      6  H   UNL A   1      32.019  28.690  28.336  1.00  0.00     0.163 HD
BRANCH   4   7
ATOM      7  C   UNL A   1      31.241  28.171  25.103  1.00  0.00     0.043 A 
ATOM      8  C   UNL A   1      31.282  27.324  22.839  1.00  0.00     0.051 A 
ATOM      9  C   UNL A   1      30.667  28.493  22.390  1.00  0.00     0.053 A 
ATOM     10  C   UNL A   1      31.646  27.211  24.177  1.00  0.00     0.040 A 
ATOM     11  C   UNL A   1      30.450  29.560  23.257  1.00  0.00     0.051 A 
ATOM     12  C   UNL A   1      30.659  29.357  24.624  1.00  0.00     0.040 A 
BRANCH   8  13
ATOM     13  N   UNL A   1      31.508  26.299  21.881  1.00  0.00    -0.284 N 
ATOM     14  H   UNL A   1      30.714  25.906  21.451  1.00  0.00     0.180 HD
BRANCH  13  15
ATOM     15  S   UNL A   1      32.992  25.701  21.421  1.00  0.00     0.229 S 
ATOM     16  C   UNL A   1      33.152  24.187  22.353  1.00  0.00     0.183 C 
ATOM     17  O   UNL A   1      34.025  26.616  21.851  1.00  0.00    -0.207 OA
ATOM     18  O   UNL A   1      32.850  25.345  20.025  1.00  0.00    -0.207 OA
ENDBRANCH  13  15
ENDBRANCH   8  13
BRANCH  11  19
ATOM     19  N   UNL A   1      29.828  30.794  22.858  1.00  0.00    -0.284 N 
ATOM     20  H   UNL A   1      30.321  31.642  22.937  1.00  0.00     0.180 HD
BRANCH  19  21
ATOM     21  S   UNL A   1      28.237  30.787  22.250  1.00  0.00     0.229 S 
ATOM     22  C   UNL A   1      28.058  32.518  21.889  1.00  0.00     0.183 C 
ATOM     23  O   UNL A   1      28.289  30.068  20.993  1.00  0.00    -0.207 OA
ATOM     24  O   UNL A   1      27.278  30.456  23.275  1.00  0.00    -0.207 OA
ENDBRANCH  19  21
ENDBRANCH  11  19
ENDBRANCH   4   7
ENDBRANCH   2   3
ENDBRANCH   1   2
BRANCH   1  25
ATOM     25  C   UNL A   1      34.962  29.309  27.773  1.00  0.00     0.118 C 
BRANCH  25  26
ATOM     26  N   UNL A   1      35.131  30.189  28.926  1.00  0.00    -0.352 N 
ATOM     27  C   UNL A   1      36.213  30.368  29.751  1.00  0.00     0.251 C 
ATOM     28  H   UNL A   1      34.346  30.741  29.146  1.00  0.00     0.163 HD
ATOM     29  O   UNL A   1      36.075  30.963  30.816  1.00  0.00    -0.269 OA
BRANCH  27  30
ATOM     30  C   UNL A   1      37.535  29.842  29.360  1.00  0.00     0.039 A 
ATOM     31  C   UNL A   1      37.936  29.932  28.024  1.00  0.00     0.014 A 
ATOM     32  C   UNL A   1      38.369  29.245  30.306  1.00  0.00     0.014 A 
ATOM     33  C   UNL A   1      39.206  29.486  27.656  1.00  0.00     0.010 A 
ATOM     34  C   UNL A   1      39.667  28.893  29.959  1.00  0.00     0.010 A 
ATOM     35  C   UNL A   1      40.095  29.003  28.629  1.00  0.00    -0.014 A 
BRANCH  35  36
ATOM     36  C   UNL A   1      41.482  28.608  28.284  1.00  0.00     0.031 A 
ATOM     37  C   UNL A   1      41.797  27.175  27.955  1.00  0.00     0.074 A 
ATOM     38  C   UNL A   1      42.469  29.524  28.346  1.00  0.00     0.049 A 
ATOM     39  N   UNL A   1      42.956  26.615  27.721  1.00  0.00    -0.248 NA
ATOM     40  C   UNL A   1      40.661  26.240  27.919  1.00  0.00     0.031 C 
ATOM     41  C   UNL A   1      42.293  30.934  28.699  1.00  0.00     0.029 A 
ATOM     42  N   UNL A   1      43.816  29.403  28.125  1.00  0.00    -0.354 N 
ATOM     43  C   UNL A   1      42.690  25.266  27.524  1.00  0.00     0.074 A 
ATOM     44  C   UNL A   1      41.271  25.080  27.731  1.00  0.00     0.031 C 
ATOM     45  C   UNL A   1      43.482  31.553  28.641  1.00  0.00     0.029 A 
ATOM     46  C   UNL A   1      44.510  30.576  28.298  1.00  0.00     0.049 A 
ATOM     47  H   UNL A   1      44.247  28.555  27.867  1.00  0.00     0.167 HD
ATOM     48  C   UNL A   1      43.547  24.278  27.174  1.00  0.00     0.037 A 
ATOM     49  C   UNL A   1      45.827  30.832  28.202  1.00  0.00     0.037 A 
ATOM     50  C   UNL A   1      44.955  24.475  26.957  1.00  0.00     0.049 A 
ATOM     51  C   UNL A   1      46.764  29.710  27.843  1.00  0.00     0.074 A 
ATOM     52  C   UNL A   1      45.903  23.553  26.551  1.00  0.00     0.029 A 
ATOM     53  N   UNL A   1      45.620  25.680  27.137  1.00  0.00    -0.354 N 
ATOM     54  N   UNL A   1      46.490  28.453  27.591  1.00  0.00    -0.248 NA
ATOM     55  C   UNL A   1      48.191  30.044  27.754  1.00  0.00     0.031 C 
ATOM     56  C   UNL A   1      47.150  24.185  26.540  1.00  0.00     0.029 A 
ATOM     57  C   UNL A   1      46.971  25.517  26.877  1.00  0.00     0.049 A 
ATOM     58  H   UNL A   1      45.194  26.525  27.409  1.00  0.00     0.167 HD
ATOM     59  C   UNL A   1      47.704  27.853  27.284  1.00  0.00     0.074 A 
ATOM     60  C   UNL A   1      48.713  28.889  27.366  1.00  0.00     0.031 C 
ATOM     61  C   UNL A   1      47.961  26.562  26.959  1.00  0.00     0.037 A 
BRANCH  48  62
ATOM     62  C   UNL A   1      42.979  22.896  27.009  1.00  0.00     0.057 A 
ATOM     63  C   UNL A   1      42.771  22.325  25.746  1.00  0.00     0.134 A 
ATOM     64  C   UNL A   1      42.652  22.117  28.128  1.00  0.00     0.134 A 
ATOM     65  F   UNL A   1      43.052  23.019  24.632  1.00  0.00    -0.206 F 
ATOM     66  C   UNL A   1      42.229  21.046  25.599  1.00  0.00     0.040 A 
ATOM     67  C   UNL A   1      42.139  20.825  27.994  1.00  0.00     0.040 A 
ATOM     68  F   UNL A   1      42.829  22.596  29.368  1.00  0.00    -0.206 F 
ATOM     69  C   UNL A   1      41.918  20.291  26.727  1.00  0.00     0.006 A 
ENDBRANCH  48  62
BRANCH  49  70
ATOM     70  C   UNL A   1      46.338  32.208  28.426  1.00  0.00     0.057 A 
ATOM     71  C   UNL A   1      46.716  32.639  29.704  1.00  0.00     0.134 A 
ATOM     72  C   UNL A   1      46.458  33.127  27.376  1.00  0.00     0.134 A 
ATOM     73  F   UNL A   1      46.608  31.810  30.753  1.00  0.00    -0.206 F 
ATOM     74  C   UNL A   1      47.175  33.936  29.933  1.00  0.00     0.040 A 
ATOM     75  C   UNL A   1      46.944  34.419  27.587  1.00  0.00     0.040 A 
ATOM     76  F   UNL A   1      46.122  32.775  26.127  1.00  0.00    -0.206 F 
ATOM     77  C   UNL A   1      47.295  34.830  28.871  1.00  0.00     0.006 A 
ENDBRANCH  49  70
BRANCH  61  78
ATOM     78  C   UNL A   1      49.382  26.205  26.632  1.00  0.00     0.057 A 
ATOM     79  C   UNL A   1      49.881  26.260  25.325  1.00  0.00     0.134 A 
ATOM     80  C   UNL A   1      50.276  25.847  27.651  1.00  0.00     0.134 A 
ATOM     81  F   UNL A   1      49.074  26.583  24.302  1.00  0.00    -0.206 F 
ATOM     82  C   UNL A   1      51.211  25.948  25.039  1.00  0.00     0.040 A 
ATOM     83  C   UNL A   1      51.616  25.564  27.380  1.00  0.00     0.040 A 
ATOM     84  F   UNL A   1      49.867  25.785  28.927  1.00  0.00    -0.206 F 
ATOM     85  C   UNL A   1      52.084  25.608  26.070  1.00  0.00     0.006 A 
ENDBRANCH  61  78
ENDBRANCH  35  36
ENDBRANCH  27  30
ENDBRANCH  25  26
ENDBRANCH   1  25
TORSDOF 14
ENDMDL
