MODEL 1
REMARK VINA RESULT:     -12.3      0.000      0.000
REMARK SMILES Cc1ccc(Cl)c(Nc2ccccc2C(=O)NCC(=O)NCCCNC(=O)c2ccc(-c3c4nc(c(-c5c(F)cccc5F)c5ccc([nH]5)c(-c5c(F)cccc5F)c5nc(c(-c6c(F)cccc6F)c6ccc3[nH]6)C=C5)C=C4)cc2)c1Cl
REMARK SMILES IDX 22 1 21 2 19 3 20 4 18 6 17 7 15 8 16 9 14 11 9 12 10 13
REMARK SMILES IDX 11 14 13 15 12 16 8 17 7 19 1 20 2 21 3 22 82 23 4 24 83 25
REMARK SMILES IDX 5 26 6 27 23 28 24 29 25 30 26 31 27 33 28 34 29 35 81 36
REMARK SMILES IDX 30 37 80 38 31 39 32 40 33 41 74 42 34 43 79 44 73 45 75 46
REMARK SMILES IDX 35 47 78 48 72 49 71 50 36 52 62 53 45 54 61 55 46 56 49 57
REMARK SMILES IDX 60 58 76 59 47 60 48 61 59 63 77 64 50 65 37 66 38 67 43 68
REMARK SMILES IDX 39 69 40 70 42 71 44 72 41 73 63 74 64 75 69 76 65 77 66 78
REMARK SMILES IDX 68 79 70 80 67 81 51 82 52 83 57 84 53 85 54 86 56 87 58 88
REMARK SMILES IDX 55 89
REMARK H PARENT 21 5 17 10 8 18 25 32 75 51 49 62
REMARK Flexibility Score: inf
ROOT
ATOM      1  C   UNL A   1      31.222  30.860  26.526  1.00  0.00     0.117 C 
ENDROOT
BRANCH   1   2
ATOM      2  N   UNL A   1      32.307  30.187  25.852  1.00  0.00    -0.355 N 
ATOM      3  C   UNL A   1      32.960  29.068  26.274  1.00  0.00     0.239 C 
ATOM      4  O   UNL A   1      33.974  28.716  25.671  1.00  0.00    -0.273 OA
ATOM      5  H   UNL A   1      32.607  30.578  25.000  1.00  0.00     0.163 HD
BRANCH   3   6
ATOM      6  C   UNL A   1      32.273  28.155  27.284  1.00  0.00     0.216 C 
BRANCH   6   7
ATOM      7  N   UNL A   1      31.328  27.115  26.945  1.00  0.00    -0.343 N 
ATOM      8  C   UNL A   1      31.488  25.866  26.390  1.00  0.00     0.253 C 
ATOM      9  O   UNL A   1      30.602  25.058  26.694  1.00  0.00    -0.269 OA
ATOM     10  H   UNL A   1      30.393  27.344  27.150  1.00  0.00     0.164 HD
BRANCH   8  11
ATOM     11  C   UNL A   1      32.472  25.461  25.316  1.00  0.00     0.063 A 
ATOM     12  C   UNL A   1      32.390  25.475  23.903  1.00  0.00     0.051 A 
ATOM     13  C   UNL A   1      33.460  24.897  23.165  1.00  0.00     0.027 A 
ATOM     14  C   UNL A   1      34.612  24.398  23.769  1.00  0.00     0.002 A 
ATOM     15  C   UNL A   1      33.669  24.958  25.898  1.00  0.00     0.016 A 
ATOM     16  C   UNL A   1      34.727  24.450  25.144  1.00  0.00     0.001 A 
BRANCH  12  17
ATOM     17  N   UNL A   1      31.438  26.112  23.078  1.00  0.00    -0.352 N 
ATOM     18  H   UNL A   1      31.162  25.565  22.308  1.00  0.00     0.167 HD
BRANCH  17  19
ATOM     19  C   UNL A   1      30.796  27.375  23.125  1.00  0.00     0.077 A 
ATOM     20  C   UNL A   1      27.279  28.880  23.126  1.00  0.00     0.046 C 
ATOM     21  C   UNL A   1      28.772  28.743  23.014  1.00  0.00    -0.030 A 
ATOM     22  C   UNL A   1      29.522  29.805  22.484  1.00  0.00     0.006 A 
ATOM     23  C   UNL A   1      29.422  27.547  23.374  1.00  0.00     0.069 A 
ATOM     24  C   UNL A   1      30.904  29.702  22.358  1.00  0.00     0.023 A 
ATOM     25  Cl  UNL A   1      28.520  26.329  24.225  1.00  0.00    -0.082 Cl
ATOM     26  C   UNL A   1      31.534  28.506  22.688  1.00  0.00     0.066 A 
ATOM     27  Cl  UNL A   1      33.243  28.388  22.399  1.00  0.00    -0.082 Cl
ENDBRANCH  17  19
ENDBRANCH  12  17
ENDBRANCH   8  11
ENDBRANCH   6   7
ENDBRANCH   3   6
ENDBRANCH   1   2
BRANCH   1  28
ATOM     28  C   UNL A   1      31.407  32.367  26.442  1.00  0.00     0.042 C 
BRANCH  28  29
ATOM     29  C   UNL A   1      32.620  32.825  27.236  1.00  0.00     0.118 C 
BRANCH  29  30
ATOM     30  N   UNL A   1      32.487  34.205  27.679  1.00  0.00    -0.352 N 
ATOM     31  C   UNL A   1      33.133  34.835  28.710  1.00  0.00     0.251 C 
ATOM     32  H   UNL A   1      31.850  34.758  27.171  1.00  0.00     0.163 HD
ATOM     33  O   UNL A   1      32.756  35.930  29.104  1.00  0.00    -0.269 OA
BRANCH  31  34
ATOM     34  C   UNL A   1      34.278  34.159  29.347  1.00  0.00     0.039 A 
ATOM     35  C   UNL A   1      34.034  33.235  30.362  1.00  0.00     0.014 A 
ATOM     36  C   UNL A   1      35.582  34.422  28.917  1.00  0.00     0.014 A 
ATOM     37  C   UNL A   1      35.104  32.541  30.922  1.00  0.00     0.010 A 
ATOM     38  C   UNL A   1      36.633  33.661  29.408  1.00  0.00     0.010 A 
ATOM     39  C   UNL A   1      36.407  32.728  30.429  1.00  0.00    -0.014 A 
BRANCH  39  40
ATOM     40  C   UNL A   1      37.551  31.974  30.990  1.00  0.00     0.031 A 
ATOM     41  C   UNL A   1      38.031  32.269  32.384  1.00  0.00     0.074 A 
ATOM     42  C   UNL A   1      38.184  31.063  30.228  1.00  0.00     0.049 A 
ATOM     43  N   UNL A   1      39.037  31.749  33.039  1.00  0.00    -0.248 NA
ATOM     44  C   UNL A   1      37.303  33.309  33.131  1.00  0.00     0.031 C 
ATOM     45  C   UNL A   1      37.842  30.731  28.843  1.00  0.00     0.029 A 
ATOM     46  N   UNL A   1      39.252  30.250  30.510  1.00  0.00    -0.354 N 
ATOM     47  C   UNL A   1      39.068  32.405  34.262  1.00  0.00     0.074 A 
ATOM     48  C   UNL A   1      38.024  33.405  34.237  1.00  0.00     0.031 C 
ATOM     49  C   UNL A   1      38.663  29.763  28.408  1.00  0.00     0.029 A 
ATOM     50  C   UNL A   1      39.613  29.434  29.466  1.00  0.00     0.049 A 
ATOM     51  H   UNL A   1      39.716  30.252  31.377  1.00  0.00     0.167 HD
ATOM     52  C   UNL A   1      39.875  32.174  35.324  1.00  0.00     0.037 A 
ATOM     53  C   UNL A   1      40.601  28.526  29.373  1.00  0.00     0.037 A 
ATOM     54  C   UNL A   1      40.897  31.162  35.349  1.00  0.00     0.049 A 
ATOM     55  C   UNL A   1      41.490  28.293  30.565  1.00  0.00     0.074 A 
ATOM     56  C   UNL A   1      41.732  30.806  36.394  1.00  0.00     0.029 A 
ATOM     57  N   UNL A   1      41.224  30.345  34.277  1.00  0.00    -0.354 N 
ATOM     58  N   UNL A   1      41.461  28.867  31.743  1.00  0.00    -0.248 NA
ATOM     59  C   UNL A   1      42.543  27.281  30.415  1.00  0.00     0.031 C 
ATOM     60  C   UNL A   1      42.598  29.808  35.937  1.00  0.00     0.029 A 
ATOM     61  C   UNL A   1      42.266  29.503  34.627  1.00  0.00     0.049 A 
ATOM     62  H   UNL A   1      40.782  30.362  33.398  1.00  0.00     0.167 HD
ATOM     63  C   UNL A   1      42.469  28.266  32.484  1.00  0.00     0.074 A 
ATOM     64  C   UNL A   1      43.080  27.272  31.627  1.00  0.00     0.031 C 
ATOM     65  C   UNL A   1      42.856  28.514  33.760  1.00  0.00     0.037 A 
BRANCH  52  66
ATOM     66  C   UNL A   1      39.680  33.031  36.542  1.00  0.00     0.057 A 
ATOM     67  C   UNL A   1      38.763  32.693  37.546  1.00  0.00     0.134 A 
ATOM     68  C   UNL A   1      40.438  34.195  36.727  1.00  0.00     0.134 A 
ATOM     69  F   UNL A   1      37.994  31.600  37.426  1.00  0.00    -0.206 F 
ATOM     70  C   UNL A   1      38.585  33.495  38.675  1.00  0.00     0.040 A 
ATOM     71  C   UNL A   1      40.291  34.988  37.865  1.00  0.00     0.040 A 
ATOM     72  F   UNL A   1      41.337  34.576  35.807  1.00  0.00    -0.206 F 
ATOM     73  C   UNL A   1      39.357  34.643  38.841  1.00  0.00     0.006 A 
ENDBRANCH  52  66
BRANCH  53  74
ATOM     74  C   UNL A   1      40.788  27.752  28.120  1.00  0.00     0.057 A 
ATOM     75  C   UNL A   1      40.188  26.500  27.948  1.00  0.00     0.134 A 
ATOM     76  C   UNL A   1      41.575  28.240  27.070  1.00  0.00     0.134 A 
ATOM     77  F   UNL A   1      39.435  25.971  28.924  1.00  0.00    -0.206 F 
ATOM     78  C   UNL A   1      40.381  25.749  26.787  1.00  0.00     0.040 A 
ATOM     79  C   UNL A   1      41.754  27.513  25.892  1.00  0.00     0.040 A 
ATOM     80  F   UNL A   1      42.169  29.438  27.168  1.00  0.00    -0.206 F 
ATOM     81  C   UNL A   1      41.163  26.259  25.752  1.00  0.00     0.006 A 
ENDBRANCH  53  74
BRANCH  65  82
ATOM     82  C   UNL A   1      43.966  27.670  34.317  1.00  0.00     0.057 A 
ATOM     83  C   UNL A   1      45.309  28.053  34.219  1.00  0.00     0.134 A 
ATOM     84  C   UNL A   1      43.680  26.476  34.991  1.00  0.00     0.134 A 
ATOM     85  F   UNL A   1      45.651  29.179  33.576  1.00  0.00    -0.206 F 
ATOM     86  C   UNL A   1      46.331  27.265  34.751  1.00  0.00     0.040 A 
ATOM     87  C   UNL A   1      44.691  25.696  35.553  1.00  0.00     0.040 A 
ATOM     88  F   UNL A   1      42.414  26.056  35.129  1.00  0.00    -0.206 F 
ATOM     89  C   UNL A   1      46.022  26.086  35.427  1.00  0.00     0.006 A 
ENDBRANCH  65  82
ENDBRANCH  39  40
ENDBRANCH  31  34
ENDBRANCH  29  30
ENDBRANCH  28  29
ENDBRANCH   1  28
TORSDOF 14
ENDMDL
MODEL 2
REMARK VINA RESULT:     -12.1      5.420     10.258
REMARK SMILES Cc1ccc(Cl)c(Nc2ccccc2C(=O)NCC(=O)NCCCNC(=O)c2ccc(-c3c4nc(c(-c5c(F)cccc5F)c5ccc([nH]5)c(-c5c(F)cccc5F)c5nc(c(-c6c(F)cccc6F)c6ccc3[nH]6)C=C5)C=C4)cc2)c1Cl
REMARK SMILES IDX 22 1 21 2 19 3 20 4 18 6 17 7 15 8 16 9 14 11 9 12 10 13
REMARK SMILES IDX 11 14 13 15 12 16 8 17 7 19 1 20 2 21 3 22 82 23 4 24 83 25
REMARK SMILES IDX 5 26 6 27 23 28 24 29 25 30 26 31 27 33 28 34 29 35 81 36
REMARK SMILES IDX 30 37 80 38 31 39 32 40 33 41 74 42 34 43 79 44 73 45 75 46
REMARK SMILES IDX 35 47 78 48 72 49 71 50 36 52 62 53 45 54 61 55 46 56 49 57
REMARK SMILES IDX 60 58 76 59 47 60 48 61 59 63 77 64 50 65 37 66 38 67 43 68
REMARK SMILES IDX 39 69 40 70 42 71 44 72 41 73 63 74 64 75 69 76 65 77 66 78
REMARK SMILES IDX 68 79 70 80 67 81 51 82 52 83 57 84 53 85 54 86 56 87 58 88
REMARK SMILES IDX 55 89
REMARK H PARENT 21 5 17 10 8 18 25 32 75 51 49 62
REMARK Flexibility Score: inf
ROOT
ATOM      1  C   UNL A   1      37.050  20.394  24.618  1.00  0.00     0.117 C 
ENDROOT
BRANCH   1   2
ATOM      2  N   UNL A   1      36.784  21.414  25.605  1.00  0.00    -0.355 N 
ATOM      3  C   UNL A   1      36.837  22.762  25.420  1.00  0.00     0.239 C 
ATOM      4  O   UNL A   1      36.749  23.495  26.405  1.00  0.00    -0.273 OA
ATOM      5  H   UNL A   1      36.540  21.101  26.507  1.00  0.00     0.163 HD
BRANCH   3   6
ATOM      6  C   UNL A   1      36.729  23.312  24.001  1.00  0.00     0.216 C 
BRANCH   6   7
ATOM      7  N   UNL A   1      35.575  23.160  23.145  1.00  0.00    -0.343 N 
ATOM      8  C   UNL A   1      34.359  23.803  23.110  1.00  0.00     0.253 C 
ATOM      9  O   UNL A   1      33.820  23.812  21.996  1.00  0.00    -0.269 OA
ATOM     10  H   UNL A   1      35.678  22.465  22.455  1.00  0.00     0.164 HD
BRANCH   8  11
ATOM     11  C   UNL A   1      33.546  24.288  24.289  1.00  0.00     0.063 A 
ATOM     12  C   UNL A   1      32.451  23.717  24.983  1.00  0.00     0.051 A 
ATOM     13  C   UNL A   1      31.815  24.499  25.986  1.00  0.00     0.027 A 
ATOM     14  C   UNL A   1      32.273  25.758  26.368  1.00  0.00     0.002 A 
ATOM     15  C   UNL A   1      33.996  25.569  24.715  1.00  0.00     0.016 A 
ATOM     16  C   UNL A   1      33.386  26.286  25.744  1.00  0.00     0.001 A 
BRANCH  12  17
ATOM     17  N   UNL A   1      31.957  22.396  24.921  1.00  0.00    -0.352 N 
ATOM     18  H   UNL A   1      30.987  22.337  25.076  1.00  0.00     0.167 HD
BRANCH  17  19
ATOM     19  C   UNL A   1      32.564  21.137  24.685  1.00  0.00     0.077 A 
ATOM     20  C   UNL A   1      32.227  18.107  22.375  1.00  0.00     0.046 C 
ATOM     21  C   UNL A   1      32.619  18.980  23.535  1.00  0.00    -0.030 A 
ATOM     22  C   UNL A   1      33.228  18.399  24.658  1.00  0.00     0.006 A 
ATOM     23  C   UNL A   1      32.330  20.359  23.537  1.00  0.00     0.069 A 
ATOM     24  C   UNL A   1      33.590  19.181  25.750  1.00  0.00     0.023 A 
ATOM     25  Cl  UNL A   1      31.779  21.100  22.064  1.00  0.00    -0.082 Cl
ATOM     26  C   UNL A   1      33.274  20.537  25.757  1.00  0.00     0.066 A 
ATOM     27  Cl  UNL A   1      33.640  21.444  27.192  1.00  0.00    -0.082 Cl
ENDBRANCH  17  19
ENDBRANCH  12  17
ENDBRANCH   8  11
ENDBRANCH   6   7
ENDBRANCH   3   6
ENDBRANCH   1   2
BRANCH   1  28
ATOM     28  C   UNL A   1      37.968  19.330  25.197  1.00  0.00     0.042 C 
BRANCH  28  29
ATOM     29  C   UNL A   1      39.248  19.937  25.750  1.00  0.00     0.118 C 
BRANCH  29  30
ATOM     30  N   UNL A   1      40.305  18.947  25.879  1.00  0.00    -0.352 N 
ATOM     31  C   UNL A   1      41.648  19.152  26.065  1.00  0.00     0.251 C 
ATOM     32  H   UNL A   1      40.019  18.006  25.827  1.00  0.00     0.163 HD
ATOM     33  O   UNL A   1      42.442  18.231  25.932  1.00  0.00    -0.269 OA
BRANCH  31  34
ATOM     34  C   UNL A   1      42.116  20.506  26.408  1.00  0.00     0.039 A 
ATOM     35  C   UNL A   1      42.366  21.413  25.379  1.00  0.00     0.014 A 
ATOM     36  C   UNL A   1      42.277  20.880  27.746  1.00  0.00     0.014 A 
ATOM     37  C   UNL A   1      42.742  22.716  25.697  1.00  0.00     0.010 A 
ATOM     38  C   UNL A   1      42.557  22.202  28.060  1.00  0.00     0.010 A 
ATOM     39  C   UNL A   1      42.812  23.128  27.039  1.00  0.00    -0.014 A 
BRANCH  39  40
ATOM     40  C   UNL A   1      43.179  24.517  27.393  1.00  0.00     0.031 A 
ATOM     41  C   UNL A   1      44.617  24.949  27.343  1.00  0.00     0.074 A 
ATOM     42  C   UNL A   1      42.223  25.372  27.804  1.00  0.00     0.049 A 
ATOM     43  N   UNL A   1      45.145  26.105  27.652  1.00  0.00    -0.248 NA
ATOM     44  C   UNL A   1      45.600  23.937  26.919  1.00  0.00     0.031 C 
ATOM     45  C   UNL A   1      40.801  25.050  27.944  1.00  0.00     0.029 A 
ATOM     46  N   UNL A   1      42.305  26.687  28.184  1.00  0.00    -0.354 N 
ATOM     47  C   UNL A   1      46.514  25.954  27.473  1.00  0.00     0.074 A 
ATOM     48  C   UNL A   1      46.745  24.579  27.091  1.00  0.00     0.031 C 
ATOM     49  C   UNL A   1      40.140  26.146  28.348  1.00  0.00     0.029 A 
ATOM     50  C   UNL A   1      41.094  27.234  28.534  1.00  0.00     0.049 A 
ATOM     51  H   UNL A   1      43.150  27.190  28.206  1.00  0.00     0.167 HD
ATOM     52  C   UNL A   1      47.488  26.887  27.586  1.00  0.00     0.037 A 
ATOM     53  C   UNL A   1      40.792  28.474  28.960  1.00  0.00     0.037 A 
ATOM     54  C   UNL A   1      47.247  28.259  27.946  1.00  0.00     0.049 A 
ATOM     55  C   UNL A   1      41.894  29.490  29.086  1.00  0.00     0.074 A 
ATOM     56  C   UNL A   1      48.156  29.299  28.033  1.00  0.00     0.029 A 
ATOM     57  N   UNL A   1      46.006  28.780  28.280  1.00  0.00    -0.354 N 
ATOM     58  N   UNL A   1      43.175  29.356  28.840  1.00  0.00    -0.248 NA
ATOM     59  C   UNL A   1      41.507  30.832  29.541  1.00  0.00     0.031 C 
ATOM     60  C   UNL A   1      47.472  30.438  28.469  1.00  0.00     0.029 A 
ATOM     61  C   UNL A   1      46.129  30.122  28.598  1.00  0.00     0.049 A 
ATOM     62  H   UNL A   1      45.163  28.272  28.290  1.00  0.00     0.167 HD
ATOM     63  C   UNL A   1      43.741  30.601  29.080  1.00  0.00     0.074 A 
ATOM     64  C   UNL A   1      42.661  31.480  29.476  1.00  0.00     0.031 C 
ATOM     65  C   UNL A   1      45.038  30.983  28.983  1.00  0.00     0.037 A 
BRANCH  52  66
ATOM     66  C   UNL A   1      48.899  26.450  27.317  1.00  0.00     0.057 A 
ATOM     67  C   UNL A   1      49.738  25.982  28.338  1.00  0.00     0.134 A 
ATOM     68  C   UNL A   1      49.420  26.473  26.016  1.00  0.00     0.134 A 
ATOM     69  F   UNL A   1      49.308  25.948  29.609  1.00  0.00    -0.206 F 
ATOM     70  C   UNL A   1      51.050  25.580  28.081  1.00  0.00     0.040 A 
ATOM     71  C   UNL A   1      50.720  26.045  25.743  1.00  0.00     0.040 A 
ATOM     72  F   UNL A   1      48.672  26.905  24.990  1.00  0.00    -0.206 F 
ATOM     73  C   UNL A   1      51.542  25.603  26.778  1.00  0.00     0.006 A 
ENDBRANCH  52  66
BRANCH  53  74
ATOM     74  C   UNL A   1      39.385  28.832  29.274  1.00  0.00     0.057 A 
ATOM     75  C   UNL A   1      38.861  28.643  30.557  1.00  0.00     0.134 A 
ATOM     76  C   UNL A   1      38.532  29.365  28.301  1.00  0.00     0.134 A 
ATOM     77  F   UNL A   1      39.624  28.122  31.529  1.00  0.00    -0.206 F 
ATOM     78  C   UNL A   1      37.532  28.947  30.857  1.00  0.00     0.040 A 
ATOM     79  C   UNL A   1      37.209  29.700  28.593  1.00  0.00     0.040 A 
ATOM     80  F   UNL A   1      38.976  29.581  27.054  1.00  0.00    -0.206 F 
ATOM     81  C   UNL A   1      36.703  29.483  29.873  1.00  0.00     0.006 A 
ENDBRANCH  53  74
BRANCH  65  82
ATOM     82  C   UNL A   1      45.353  32.422  29.272  1.00  0.00     0.057 A 
ATOM     83  C   UNL A   1      45.670  32.868  30.561  1.00  0.00     0.134 A 
ATOM     84  C   UNL A   1      45.375  33.366  28.237  1.00  0.00     0.134 A 
ATOM     85  F   UNL A   1      45.656  32.017  31.599  1.00  0.00    -0.206 F 
ATOM     86  C   UNL A   1      45.972  34.206  30.815  1.00  0.00     0.040 A 
ATOM     87  C   UNL A   1      45.706  34.700  28.474  1.00  0.00     0.040 A 
ATOM     88  F   UNL A   1      45.092  33.003  26.977  1.00  0.00    -0.206 F 
ATOM     89  C   UNL A   1      45.997  35.125  29.767  1.00  0.00     0.006 A 
ENDBRANCH  65  82
ENDBRANCH  39  40
ENDBRANCH  31  34
ENDBRANCH  29  30
ENDBRANCH  28  29
ENDBRANCH   1  28
TORSDOF 14
ENDMDL
MODEL 3
REMARK VINA RESULT:     -12.1      0.934      6.068
REMARK SMILES Cc1ccc(Cl)c(Nc2ccccc2C(=O)NCC(=O)NCCCNC(=O)c2ccc(-c3c4nc(c(-c5c(F)cccc5F)c5ccc([nH]5)c(-c5c(F)cccc5F)c5nc(c(-c6c(F)cccc6F)c6ccc3[nH]6)C=C5)C=C4)cc2)c1Cl
REMARK SMILES IDX 22 1 21 2 19 3 20 4 18 6 17 7 15 8 16 9 14 11 9 12 10 13
REMARK SMILES IDX 11 14 13 15 12 16 8 17 7 19 1 20 2 21 3 22 82 23 4 24 83 25
REMARK SMILES IDX 5 26 6 27 23 28 24 29 25 30 26 31 27 33 28 34 29 35 81 36
REMARK SMILES IDX 30 37 80 38 31 39 32 40 33 41 74 42 34 43 79 44 73 45 75 46
REMARK SMILES IDX 35 47 78 48 72 49 71 50 36 52 62 53 45 54 61 55 46 56 49 57
REMARK SMILES IDX 60 58 76 59 47 60 48 61 59 63 77 64 50 65 37 66 38 67 43 68
REMARK SMILES IDX 39 69 40 70 42 71 44 72 41 73 63 74 64 75 69 76 65 77 66 78
REMARK SMILES IDX 68 79 70 80 67 81 51 82 52 83 57 84 53 85 54 86 56 87 58 88
REMARK SMILES IDX 55 89
REMARK H PARENT 21 5 17 10 8 18 25 32 75 51 49 62
REMARK Flexibility Score: inf
ROOT
ATOM      1  C   UNL A   1      31.394  30.742  26.756  1.00  0.00     0.117 C 
ENDROOT
BRANCH   1   2
ATOM      2  N   UNL A   1      32.393  30.018  26.007  1.00  0.00    -0.355 N 
ATOM      3  C   UNL A   1      32.951  28.819  26.336  1.00  0.00     0.239 C 
ATOM      4  O   UNL A   1      33.911  28.417  25.679  1.00  0.00    -0.273 OA
ATOM      5  H   UNL A   1      32.704  30.434  25.170  1.00  0.00     0.163 HD
BRANCH   3   6
ATOM      6  C   UNL A   1      32.209  27.909  27.310  1.00  0.00     0.216 C 
BRANCH   6   7
ATOM      7  N   UNL A   1      31.299  26.856  26.923  1.00  0.00    -0.343 N 
ATOM      8  C   UNL A   1      31.504  25.617  26.359  1.00  0.00     0.253 C 
ATOM      9  O   UNL A   1      30.623  24.788  26.620  1.00  0.00    -0.269 OA
ATOM     10  H   UNL A   1      30.352  27.064  27.094  1.00  0.00     0.164 HD
BRANCH   8  11
ATOM     11  C   UNL A   1      32.536  25.244  25.320  1.00  0.00     0.063 A 
ATOM     12  C   UNL A   1      32.519  25.299  23.905  1.00  0.00     0.051 A 
ATOM     13  C   UNL A   1      33.622  24.744  23.201  1.00  0.00     0.027 A 
ATOM     14  C   UNL A   1      34.746  24.228  23.841  1.00  0.00     0.002 A 
ATOM     15  C   UNL A   1      33.707  24.724  25.941  1.00  0.00     0.016 A 
ATOM     16  C   UNL A   1      34.799  24.240  25.221  1.00  0.00     0.001 A 
BRANCH  12  17
ATOM     17  N   UNL A   1      31.604  25.960  23.057  1.00  0.00    -0.352 N 
ATOM     18  H   UNL A   1      31.352  25.429  22.268  1.00  0.00     0.167 HD
BRANCH  17  19
ATOM     19  C   UNL A   1      30.972  27.229  23.103  1.00  0.00     0.077 A 
ATOM     20  C   UNL A   1      27.469  28.764  23.076  1.00  0.00     0.046 C 
ATOM     21  C   UNL A   1      28.962  28.614  22.977  1.00  0.00    -0.030 A 
ATOM     22  C   UNL A   1      29.725  29.672  22.458  1.00  0.00     0.006 A 
ATOM     23  C   UNL A   1      29.598  27.411  23.339  1.00  0.00     0.069 A 
ATOM     24  C   UNL A   1      31.107  29.557  22.344  1.00  0.00     0.023 A 
ATOM     25  Cl  UNL A   1      28.677  26.198  24.178  1.00  0.00    -0.082 Cl
ATOM     26  C   UNL A   1      31.724  28.354  22.676  1.00  0.00     0.066 A 
ATOM     27  Cl  UNL A   1      33.435  28.222  22.403  1.00  0.00    -0.082 Cl
ENDBRANCH  17  19
ENDBRANCH  12  17
ENDBRANCH   8  11
ENDBRANCH   6   7
ENDBRANCH   3   6
ENDBRANCH   1   2
BRANCH   1  28
ATOM     28  C   UNL A   1      31.525  32.235  26.499  1.00  0.00     0.042 C 
BRANCH  28  29
ATOM     29  C   UNL A   1      32.668  32.840  27.297  1.00  0.00     0.118 C 
BRANCH  29  30
ATOM     30  N   UNL A   1      32.425  34.239  27.615  1.00  0.00    -0.352 N 
ATOM     31  C   UNL A   1      33.005  35.005  28.593  1.00  0.00     0.251 C 
ATOM     32  H   UNL A   1      31.756  34.695  27.055  1.00  0.00     0.163 HD
ATOM     33  O   UNL A   1      32.540  36.098  28.884  1.00  0.00    -0.269 OA
BRANCH  31  34
ATOM     34  C   UNL A   1      34.187  34.476  29.297  1.00  0.00     0.039 A 
ATOM     35  C   UNL A   1      34.004  33.793  30.499  1.00  0.00     0.014 A 
ATOM     36  C   UNL A   1      35.464  34.636  28.752  1.00  0.00     0.014 A 
ATOM     37  C   UNL A   1      35.108  33.230  31.137  1.00  0.00     0.010 A 
ATOM     38  C   UNL A   1      36.546  33.993  29.338  1.00  0.00     0.010 A 
ATOM     39  C   UNL A   1      36.381  33.302  30.546  1.00  0.00    -0.014 A 
BRANCH  39  40
ATOM     40  C   UNL A   1      37.559  32.682  31.194  1.00  0.00     0.031 A 
ATOM     41  C   UNL A   1      38.208  31.477  30.573  1.00  0.00     0.074 A 
ATOM     42  C   UNL A   1      38.010  33.174  32.363  1.00  0.00     0.049 A 
ATOM     43  N   UNL A   1      39.219  30.767  31.004  1.00  0.00    -0.248 NA
ATOM     44  C   UNL A   1      37.624  30.983  29.314  1.00  0.00     0.031 C 
ATOM     45  C   UNL A   1      37.427  34.306  33.087  1.00  0.00     0.029 A 
ATOM     46  N   UNL A   1      39.062  32.782  33.150  1.00  0.00    -0.354 N 
ATOM     47  C   UNL A   1      39.381  29.743  30.081  1.00  0.00     0.074 A 
ATOM     48  C   UNL A   1      38.327  29.881  29.101  1.00  0.00     0.031 C 
ATOM     49  C   UNL A   1      38.149  34.536  34.195  1.00  0.00     0.029 A 
ATOM     50  C   UNL A   1      39.218  33.547  34.281  1.00  0.00     0.049 A 
ATOM     51  H   UNL A   1      39.649  32.025  32.927  1.00  0.00     0.167 HD
ATOM     52  C   UNL A   1      40.341  28.790  30.037  1.00  0.00     0.037 A 
ATOM     53  C   UNL A   1      40.120  33.456  35.275  1.00  0.00     0.037 A 
ATOM     54  C   UNL A   1      41.399  28.673  31.004  1.00  0.00     0.049 A 
ATOM     55  C   UNL A   1      41.173  32.383  35.206  1.00  0.00     0.074 A 
ATOM     56  C   UNL A   1      42.456  27.780  31.020  1.00  0.00     0.029 A 
ATOM     57  N   UNL A   1      41.532  29.474  32.128  1.00  0.00    -0.354 N 
ATOM     58  N   UNL A   1      41.361  31.466  34.288  1.00  0.00    -0.248 NA
ATOM     59  C   UNL A   1      42.141  32.337  36.308  1.00  0.00     0.031 C 
ATOM     60  C   UNL A   1      43.200  28.008  32.182  1.00  0.00     0.029 A 
ATOM     61  C   UNL A   1      42.640  29.080  32.859  1.00  0.00     0.049 A 
ATOM     62  H   UNL A   1      40.929  30.213  32.371  1.00  0.00     0.167 HD
ATOM     63  C   UNL A   1      42.486  30.755  34.685  1.00  0.00     0.074 A 
ATOM     64  C   UNL A   1      42.945  31.357  35.919  1.00  0.00     0.031 C 
ATOM     65  C   UNL A   1      43.085  29.698  34.083  1.00  0.00     0.037 A 
BRANCH  52  66
ATOM     66  C   UNL A   1      40.288  27.805  28.905  1.00  0.00     0.057 A 
ATOM     67  C   UNL A   1      39.530  26.628  28.982  1.00  0.00     0.134 A 
ATOM     68  C   UNL A   1      40.981  28.047  27.711  1.00  0.00     0.134 A 
ATOM     69  F   UNL A   1      38.853  26.327  30.101  1.00  0.00    -0.206 F 
ATOM     70  C   UNL A   1      39.486  25.715  27.927  1.00  0.00     0.040 A 
ATOM     71  C   UNL A   1      40.920  27.156  26.639  1.00  0.00     0.040 A 
ATOM     72  F   UNL A   1      41.723  29.155  27.567  1.00  0.00    -0.206 F 
ATOM     73  C   UNL A   1      40.177  25.982  26.747  1.00  0.00     0.006 A 
ENDBRANCH  52  66
BRANCH  53  74
ATOM     74  C   UNL A   1      40.086  34.419  36.404  1.00  0.00     0.057 A 
ATOM     75  C   UNL A   1      39.337  34.156  37.556  1.00  0.00     0.134 A 
ATOM     76  C   UNL A   1      40.795  35.626  36.356  1.00  0.00     0.134 A 
ATOM     77  F   UNL A   1      38.624  33.024  37.654  1.00  0.00    -0.206 F 
ATOM     78  C   UNL A   1      39.273  35.068  38.611  1.00  0.00     0.040 A 
ATOM     79  C   UNL A   1      40.762  36.534  37.416  1.00  0.00     0.040 A 
ATOM     80  F   UNL A   1      41.540  35.933  35.285  1.00  0.00    -0.206 F 
ATOM     81  C   UNL A   1      39.992  36.260  38.544  1.00  0.00     0.006 A 
ENDBRANCH  53  74
BRANCH  65  82
ATOM     82  C   UNL A   1      44.325  29.152  34.731  1.00  0.00     0.057 A 
ATOM     83  C   UNL A   1      45.599  29.649  34.432  1.00  0.00     0.134 A 
ATOM     84  C   UNL A   1      44.234  28.139  35.695  1.00  0.00     0.134 A 
ATOM     85  F   UNL A   1      45.756  30.611  33.510  1.00  0.00    -0.206 F 
ATOM     86  C   UNL A   1      46.742  29.141  35.049  1.00  0.00     0.040 A 
ATOM     87  C   UNL A   1      45.367  27.645  36.341  1.00  0.00     0.040 A 
ATOM     88  F   UNL A   1      43.043  27.626  36.035  1.00  0.00    -0.206 F 
ATOM     89  C   UNL A   1      46.627  28.140  36.013  1.00  0.00     0.006 A 
ENDBRANCH  65  82
ENDBRANCH  39  40
ENDBRANCH  31  34
ENDBRANCH  29  30
ENDBRANCH  28  29
ENDBRANCH   1  28
TORSDOF 14
ENDMDL
