MODEL 1
REMARK VINA RESULT:     -10.6      0.000      0.000
REMARK SMILES C[NH2+]C[C@H](C)C(=O)N1CC[C@@](C(=O)NCCCNC(=O)c2ccc(-c3c4nc(c(-c5c(F)cccc5F)c5ccc([nH]5)c(-c5c(F)cccc5F)c5nc(c(-c6c(F)cccc6F)c6ccc3[nH]6)C=C5)C=C4)cc2)(C(F)(F)F)C1
REMARK SMILES IDX 15 1 14 2 12 3 13 4 11 6 8 7 9 8 79 9 10 10 6 11 7 12 4 13
REMARK SMILES IDX 5 14 3 15 2 16 1 17 75 20 76 21 77 22 78 23 16 24 17 25
REMARK SMILES IDX 18 26 19 27 20 29 21 30 22 31 74 32 23 33 73 34 24 35 25 36
REMARK SMILES IDX 26 37 67 38 27 39 72 40 66 41 68 42 28 43 71 44 65 45 64 46
REMARK SMILES IDX 29 48 55 49 38 50 54 51 39 52 42 53 53 54 69 55 40 56 41 57
REMARK SMILES IDX 52 59 70 60 43 61 30 62 31 63 36 64 32 65 33 66 35 67 37 68
REMARK SMILES IDX 34 69 56 70 57 71 62 72 58 73 59 74 61 75 63 76 60 77 44 78
REMARK SMILES IDX 45 79 50 80 46 81 47 82 49 83 51 84 48 85
REMARK H PARENT 14 5 2 18 2 19 18 28 68 47 42 58
REMARK Flexibility Score: inf
ROOT
ATOM      1  C   UNL A   1      37.266  20.756  25.137  1.00  0.00     0.117 C 
ENDROOT
BRANCH   1   2
ATOM      2  N   UNL A   1      36.806  21.653  24.089  1.00  0.00    -0.355 N 
ATOM      3  C   UNL A   1      35.645  22.349  23.910  1.00  0.00     0.237 C 
ATOM      4  O   UNL A   1      35.634  23.090  22.925  1.00  0.00    -0.274 OA
ATOM      5  H   UNL A   1      37.461  21.785  23.366  1.00  0.00     0.163 HD
BRANCH   3   6
ATOM      6  C   UNL A   1      34.431  22.202  24.821  1.00  0.00     0.163 C 
ATOM      7  N   UNL A   1      32.989  20.302  24.901  1.00  0.00    -0.341 N 
ATOM      8  C   UNL A   1      32.155  21.400  24.464  1.00  0.00     0.121 C 
ATOM      9  C   UNL A   1      34.277  20.791  25.384  1.00  0.00     0.146 C 
ATOM     10  C   UNL A   1      33.119  22.508  24.075  1.00  0.00     0.050 C 
BRANCH   7  11
ATOM     11  C   UNL A   1      32.678  18.969  25.031  1.00  0.00     0.231 C 
ATOM     12  O   UNL A   1      32.415  18.506  26.147  1.00  0.00    -0.274 OA
BRANCH  11  13
ATOM     13  C   UNL A   1      32.860  17.997  23.864  1.00  0.00     0.130 C 
ATOM     14  C   UNL A   1      32.465  18.527  22.489  1.00  0.00     0.024 C 
BRANCH  13  15
ATOM     15  C   UNL A   1      34.291  17.422  23.867  1.00  0.00     0.273 C 
BRANCH  15  16
ATOM     16  N   UNL A   1      34.869  17.144  25.191  1.00  0.00    -0.348 N 
ATOM     17  C   UNL A   1      35.460  15.813  25.277  1.00  0.00     0.330 C 
ATOM     18  H   UNL A   1      35.592  17.836  25.384  1.00  0.00     0.346 HD
ATOM     19  H   UNL A   1      34.112  17.190  25.873  1.00  0.00     0.346 HD
ENDBRANCH  15  16
ENDBRANCH  13  15
ENDBRANCH  11  13
ENDBRANCH   7  11
BRANCH   6  20
ATOM     20  C   UNL A   1      34.603  23.153  25.992  1.00  0.00     0.404 C 
ATOM     21  F   UNL A   1      34.679  22.450  27.154  1.00  0.00    -0.170 F 
ATOM     22  F   UNL A   1      35.737  23.880  25.908  1.00  0.00    -0.170 F 
ATOM     23  F   UNL A   1      33.558  23.996  26.135  1.00  0.00    -0.170 F 
ENDBRANCH   6  20
ENDBRANCH   3   6
ENDBRANCH   1   2
BRANCH   1  24
ATOM     24  C   UNL A   1      38.759  20.458  25.072  1.00  0.00     0.042 C 
BRANCH  24  25
ATOM     25  C   UNL A   1      39.260  19.503  26.147  1.00  0.00     0.118 C 
BRANCH  25  26
ATOM     26  N   UNL A   1      40.584  18.970  25.862  1.00  0.00    -0.352 N 
ATOM     27  C   UNL A   1      41.817  19.571  25.892  1.00  0.00     0.251 C 
ATOM     28  H   UNL A   1      40.597  18.020  25.603  1.00  0.00     0.163 HD
ATOM     29  O   UNL A   1      42.797  18.962  25.459  1.00  0.00    -0.269 OA
BRANCH  27  30
ATOM     30  C   UNL A   1      41.992  20.944  26.417  1.00  0.00     0.039 A 
ATOM     31  C   UNL A   1      41.892  21.154  27.796  1.00  0.00     0.014 A 
ATOM     32  C   UNL A   1      42.214  22.030  25.567  1.00  0.00     0.014 A 
ATOM     33  C   UNL A   1      42.086  22.432  28.326  1.00  0.00     0.010 A 
ATOM     34  C   UNL A   1      42.491  23.287  26.100  1.00  0.00     0.010 A 
ATOM     35  C   UNL A   1      42.426  23.504  27.485  1.00  0.00    -0.014 A 
BRANCH  35  36
ATOM     36  C   UNL A   1      42.719  24.855  28.031  1.00  0.00     0.031 A 
ATOM     37  C   UNL A   1      44.112  25.205  28.480  1.00  0.00     0.074 A 
ATOM     38  C   UNL A   1      41.717  25.743  28.192  1.00  0.00     0.049 A 
ATOM     39  N   UNL A   1      44.543  26.292  29.071  1.00  0.00    -0.248 NA
ATOM     40  C   UNL A   1      45.155  24.190  28.261  1.00  0.00     0.031 C 
ATOM     41  C   UNL A   1      40.314  25.510  27.843  1.00  0.00     0.029 A 
ATOM     42  N   UNL A   1      41.724  27.014  28.708  1.00  0.00    -0.354 N 
ATOM     43  C   UNL A   1      45.894  26.082  29.313  1.00  0.00     0.074 A 
ATOM     44  C   UNL A   1      46.205  24.749  28.847  1.00  0.00     0.031 C 
ATOM     45  C   UNL A   1      39.599  26.607  28.139  1.00  0.00     0.029 A 
ATOM     46  C   UNL A   1      40.483  27.606  28.732  1.00  0.00     0.049 A 
ATOM     47  H   UNL A   1      42.539  27.462  29.029  1.00  0.00     0.167 HD
ATOM     48  C   UNL A   1      46.798  26.930  29.858  1.00  0.00     0.037 A 
ATOM     49  C   UNL A   1      40.098  28.812  29.192  1.00  0.00     0.037 A 
ATOM     50  C   UNL A   1      46.498  28.272  30.284  1.00  0.00     0.049 A 
ATOM     51  C   UNL A   1      41.126  29.738  29.779  1.00  0.00     0.074 A 
ATOM     52  C   UNL A   1      47.364  29.231  30.781  1.00  0.00     0.029 A 
ATOM     53  N   UNL A   1      45.237  28.845  30.259  1.00  0.00    -0.354 N 
ATOM     54  N   UNL A   1      42.413  29.548  29.941  1.00  0.00    -0.248 NA
ATOM     55  C   UNL A   1      40.649  31.050  30.242  1.00  0.00     0.031 C 
ATOM     56  C   UNL A   1      46.619  30.372  31.092  1.00  0.00     0.029 A 
ATOM     57  C   UNL A   1      45.297  30.138  30.749  1.00  0.00     0.049 A 
ATOM     58  H   UNL A   1      44.419  28.398  29.941  1.00  0.00     0.167 HD
ATOM     59  C   UNL A   1      42.903  30.723  30.496  1.00  0.00     0.074 A 
ATOM     60  C   UNL A   1      41.779  31.625  30.631  1.00  0.00     0.031 C 
ATOM     61  C   UNL A   1      44.171  31.028  30.864  1.00  0.00     0.037 A 
BRANCH  48  62
ATOM     62  C   UNL A   1      48.208  26.439  30.014  1.00  0.00     0.057 A 
ATOM     63  C   UNL A   1      49.179  26.660  29.030  1.00  0.00     0.134 A 
ATOM     64  C   UNL A   1      48.612  25.790  31.188  1.00  0.00     0.134 A 
ATOM     65  F   UNL A   1      48.855  27.267  27.879  1.00  0.00    -0.206 F 
ATOM     66  C   UNL A   1      50.499  26.235  29.199  1.00  0.00     0.040 A 
ATOM     67  C   UNL A   1      49.933  25.382  31.379  1.00  0.00     0.040 A 
ATOM     68  F   UNL A   1      47.732  25.553  32.174  1.00  0.00    -0.206 F 
ATOM     69  C   UNL A   1      50.880  25.602  30.381  1.00  0.00     0.006 A 
ENDBRANCH  48  62
BRANCH  49  70
ATOM     70  C   UNL A   1      38.674  29.224  29.106  1.00  0.00     0.057 A 
ATOM     71  C   UNL A   1      37.838  29.167  30.227  1.00  0.00     0.134 A 
ATOM     72  C   UNL A   1      38.110  29.660  27.902  1.00  0.00     0.134 A 
ATOM     73  F   UNL A   1      38.316  28.739  31.404  1.00  0.00    -0.206 F 
ATOM     74  C   UNL A   1      36.486  29.504  30.148  1.00  0.00     0.040 A 
ATOM     75  C   UNL A   1      36.765  30.023  27.814  1.00  0.00     0.040 A 
ATOM     76  F   UNL A   1      38.860  29.744  26.792  1.00  0.00    -0.206 F 
ATOM     77  C   UNL A   1      35.946  29.936  28.939  1.00  0.00     0.006 A 
ENDBRANCH  49  70
BRANCH  61  78
ATOM     78  C   UNL A   1      44.417  32.403  31.408  1.00  0.00     0.057 A 
ATOM     79  C   UNL A   1      44.356  32.676  32.781  1.00  0.00     0.134 A 
ATOM     80  C   UNL A   1      44.756  33.459  30.552  1.00  0.00     0.134 A 
ATOM     81  F   UNL A   1      44.023  31.711  33.652  1.00  0.00    -0.206 F 
ATOM     82  C   UNL A   1      44.603  33.956  33.280  1.00  0.00     0.040 A 
ATOM     83  C   UNL A   1      45.030  34.736  31.041  1.00  0.00     0.040 A 
ATOM     84  F   UNL A   1      44.839  33.261  29.227  1.00  0.00    -0.206 F 
ATOM     85  C   UNL A   1      44.949  34.988  32.410  1.00  0.00     0.006 A 
ENDBRANCH  61  78
ENDBRANCH  35  36
ENDBRANCH  27  30
ENDBRANCH  25  26
ENDBRANCH  24  25
ENDBRANCH   1  24
TORSDOF 15
ENDMDL
MODEL 2
REMARK VINA RESULT:     -10.5      5.582     10.039
REMARK SMILES C[NH2+]C[C@H](C)C(=O)N1CC[C@@](C(=O)NCCCNC(=O)c2ccc(-c3c4nc(c(-c5c(F)cccc5F)c5ccc([nH]5)c(-c5c(F)cccc5F)c5nc(c(-c6c(F)cccc6F)c6ccc3[nH]6)C=C5)C=C4)cc2)(C(F)(F)F)C1
REMARK SMILES IDX 15 1 14 2 12 3 13 4 11 6 8 7 9 8 79 9 10 10 6 11 7 12 4 13
REMARK SMILES IDX 5 14 3 15 2 16 1 17 75 20 76 21 77 22 78 23 16 24 17 25
REMARK SMILES IDX 18 26 19 27 20 29 21 30 22 31 74 32 23 33 73 34 24 35 25 36
REMARK SMILES IDX 26 37 67 38 27 39 72 40 66 41 68 42 28 43 71 44 65 45 64 46
REMARK SMILES IDX 29 48 55 49 38 50 54 51 39 52 42 53 53 54 69 55 40 56 41 57
REMARK SMILES IDX 52 59 70 60 43 61 30 62 31 63 36 64 32 65 33 66 35 67 37 68
REMARK SMILES IDX 34 69 56 70 57 71 62 72 58 73 59 74 61 75 63 76 60 77 44 78
REMARK SMILES IDX 45 79 50 80 46 81 47 82 49 83 51 84 48 85
REMARK H PARENT 14 5 2 18 2 19 18 28 68 47 42 58
REMARK Flexibility Score: inf
ROOT
ATOM      1  C   UNL A   1      33.461  30.374  26.714  1.00  0.00     0.117 C 
ENDROOT
BRANCH   1   2
ATOM      2  N   UNL A   1      32.468  29.577  27.417  1.00  0.00    -0.355 N 
ATOM      3  C   UNL A   1      31.783  28.445  27.082  1.00  0.00     0.237 C 
ATOM      4  O   UNL A   1      31.066  27.991  27.976  1.00  0.00    -0.274 OA
ATOM      5  H   UNL A   1      32.247  29.922  28.313  1.00  0.00     0.163 HD
BRANCH   3   6
ATOM      6  C   UNL A   1      31.852  27.802  25.701  1.00  0.00     0.163 C 
ATOM      7  N   UNL A   1      30.590  28.488  23.795  1.00  0.00    -0.341 N 
ATOM      8  C   UNL A   1      30.159  27.135  24.075  1.00  0.00     0.121 C 
ATOM      9  C   UNL A   1      31.784  28.821  24.566  1.00  0.00     0.146 C 
ATOM     10  C   UNL A   1      30.684  26.826  25.467  1.00  0.00     0.050 C 
BRANCH   7  11
ATOM     11  C   UNL A   1      30.118  29.376  22.858  1.00  0.00     0.231 C 
ATOM     12  O   UNL A   1      30.811  29.651  21.870  1.00  0.00    -0.274 OA
BRANCH  11  13
ATOM     13  C   UNL A   1      28.853  30.198  23.111  1.00  0.00     0.130 C 
ATOM     14  C   UNL A   1      29.034  31.451  23.963  1.00  0.00     0.024 C 
BRANCH  13  15
ATOM     15  C   UNL A   1      28.142  30.508  21.779  1.00  0.00     0.273 C 
BRANCH  15  16
ATOM     16  N   UNL A   1      28.733  31.587  20.972  1.00  0.00    -0.348 N 
ATOM     17  C   UNL A   1      27.774  32.640  20.655  1.00  0.00     0.330 C 
ATOM     18  H   UNL A   1      29.508  31.997  21.492  1.00  0.00     0.346 HD
ATOM     19  H   UNL A   1      29.044  31.178  20.091  1.00  0.00     0.346 HD
ENDBRANCH  15  16
ENDBRANCH  13  15
ENDBRANCH  11  13
ENDBRANCH   7  11
BRANCH   6  20
ATOM     20  C   UNL A   1      33.177  27.070  25.588  1.00  0.00     0.404 C 
ATOM     21  F   UNL A   1      33.823  27.090  26.785  1.00  0.00    -0.170 F 
ATOM     22  F   UNL A   1      33.026  25.770  25.256  1.00  0.00    -0.170 F 
ATOM     23  F   UNL A   1      34.018  27.648  24.703  1.00  0.00    -0.170 F 
ENDBRANCH   6  20
ENDBRANCH   3   6
ENDBRANCH   1   2
BRANCH   1  24
ATOM     24  C   UNL A   1      33.584  31.798  27.242  1.00  0.00     0.042 C 
BRANCH  24  25
ATOM     25  C   UNL A   1      32.256  32.513  27.446  1.00  0.00     0.118 C 
BRANCH  25  26
ATOM     26  N   UNL A   1      32.408  33.945  27.663  1.00  0.00    -0.352 N 
ATOM     27  C   UNL A   1      33.308  34.643  28.429  1.00  0.00     0.251 C 
ATOM     28  H   UNL A   1      31.757  34.505  27.182  1.00  0.00     0.163 HD
ATOM     29  O   UNL A   1      33.152  35.855  28.588  1.00  0.00    -0.269 OA
BRANCH  27  30
ATOM     30  C   UNL A   1      34.451  33.968  29.083  1.00  0.00     0.039 A 
ATOM     31  C   UNL A   1      34.197  33.096  30.147  1.00  0.00     0.014 A 
ATOM     32  C   UNL A   1      35.769  34.210  28.687  1.00  0.00     0.014 A 
ATOM     33  C   UNL A   1      35.252  32.417  30.762  1.00  0.00     0.010 A 
ATOM     34  C   UNL A   1      36.810  33.471  29.242  1.00  0.00     0.010 A 
ATOM     35  C   UNL A   1      36.565  32.569  30.289  1.00  0.00    -0.014 A 
BRANCH  35  36
ATOM     36  C   UNL A   1      37.693  31.796  30.872  1.00  0.00     0.031 A 
ATOM     37  C   UNL A   1      38.193  32.113  32.256  1.00  0.00     0.074 A 
ATOM     38  C   UNL A   1      38.316  30.859  30.130  1.00  0.00     0.049 A 
ATOM     39  N   UNL A   1      39.224  31.619  32.896  1.00  0.00    -0.248 NA
ATOM     40  C   UNL A   1      37.455  33.138  33.010  1.00  0.00     0.031 C 
ATOM     41  C   UNL A   1      37.961  30.490  28.758  1.00  0.00     0.029 A 
ATOM     42  N   UNL A   1      39.391  30.058  30.420  1.00  0.00    -0.354 N 
ATOM     43  C   UNL A   1      39.270  32.288  34.113  1.00  0.00     0.074 A 
ATOM     44  C   UNL A   1      38.192  33.254  34.106  1.00  0.00     0.031 C 
ATOM     45  C   UNL A   1      38.791  29.525  28.332  1.00  0.00     0.029 A 
ATOM     46  C   UNL A   1      39.760  29.233  29.384  1.00  0.00     0.049 A 
ATOM     47  H   UNL A   1      39.854  30.070  31.288  1.00  0.00     0.167 HD
ATOM     48  C   UNL A   1      40.121  32.102  35.149  1.00  0.00     0.037 A 
ATOM     49  C   UNL A   1      40.772  28.349  29.287  1.00  0.00     0.037 A 
ATOM     50  C   UNL A   1      41.166  31.114  35.173  1.00  0.00     0.049 A 
ATOM     51  C   UNL A   1      41.693  28.154  30.459  1.00  0.00     0.074 A 
ATOM     52  C   UNL A   1      42.033  30.801  36.207  1.00  0.00     0.029 A 
ATOM     53  N   UNL A   1      41.485  30.275  34.117  1.00  0.00    -0.354 N 
ATOM     54  N   UNL A   1      41.682  28.749  31.626  1.00  0.00    -0.248 NA
ATOM     55  C   UNL A   1      42.764  27.159  30.301  1.00  0.00     0.031 C 
ATOM     56  C   UNL A   1      42.900  29.799  35.762  1.00  0.00     0.029 A 
ATOM     57  C   UNL A   1      42.546  29.458  34.468  1.00  0.00     0.049 A 
ATOM     58  H   UNL A   1      41.024  30.262  33.247  1.00  0.00     0.167 HD
ATOM     59  C   UNL A   1      42.722  28.182  32.351  1.00  0.00     0.074 A 
ATOM     60  C   UNL A   1      43.335  27.186  31.498  1.00  0.00     0.031 C 
ATOM     61  C   UNL A   1      43.135  28.461  33.611  1.00  0.00     0.037 A 
BRANCH  48  62
ATOM     62  C   UNL A   1      39.951  32.979  36.356  1.00  0.00     0.057 A 
ATOM     63  C   UNL A   1      40.672  34.170  36.509  1.00  0.00     0.134 A 
ATOM     64  C   UNL A   1      39.015  32.657  37.347  1.00  0.00     0.134 A 
ATOM     65  F   UNL A   1      41.592  34.529  35.602  1.00  0.00    -0.206 F 
ATOM     66  C   UNL A   1      40.482  35.000  37.616  1.00  0.00     0.040 A 
ATOM     67  C   UNL A   1      38.798  33.491  38.444  1.00  0.00     0.040 A 
ATOM     68  F   UNL A   1      38.286  31.534  37.257  1.00  0.00    -0.206 F 
ATOM     69  C   UNL A   1      39.535  34.666  38.582  1.00  0.00     0.006 A 
ENDBRANCH  48  62
BRANCH  49  70
ATOM     70  C   UNL A   1      40.965  27.568  28.038  1.00  0.00     0.057 A 
ATOM     71  C   UNL A   1      41.741  28.069  26.987  1.00  0.00     0.134 A 
ATOM     72  C   UNL A   1      40.360  26.320  27.856  1.00  0.00     0.134 A 
ATOM     73  F   UNL A   1      42.329  29.269  27.095  1.00  0.00    -0.206 F 
ATOM     74  C   UNL A   1      41.889  27.368  25.789  1.00  0.00     0.040 A 
ATOM     75  C   UNL A   1      40.520  25.596  26.673  1.00  0.00     0.040 A 
ATOM     76  F   UNL A   1      39.609  25.781  28.829  1.00  0.00    -0.206 F 
ATOM     77  C   UNL A   1      41.279  26.126  25.631  1.00  0.00     0.006 A 
ENDBRANCH  49  70
BRANCH  61  78
ATOM     78  C   UNL A   1      44.276  27.655  34.156  1.00  0.00     0.057 A 
ATOM     79  C   UNL A   1      44.075  26.416  34.776  1.00  0.00     0.134 A 
ATOM     80  C   UNL A   1      45.595  28.108  34.023  1.00  0.00     0.134 A 
ATOM     81  F   UNL A   1      42.835  25.934  34.946  1.00  0.00    -0.206 F 
ATOM     82  C   UNL A   1      45.145  25.665  35.265  1.00  0.00     0.040 A 
ATOM     83  C   UNL A   1      46.674  27.354  34.484  1.00  0.00     0.040 A 
ATOM     84  F   UNL A   1      45.855  29.283  33.430  1.00  0.00    -0.206 F 
ATOM     85  C   UNL A   1      46.450  26.130  35.113  1.00  0.00     0.006 A 
ENDBRANCH  61  78
ENDBRANCH  35  36
ENDBRANCH  27  30
ENDBRANCH  25  26
ENDBRANCH  24  25
ENDBRANCH   1  24
TORSDOF 15
ENDMDL
MODEL 3
REMARK VINA RESULT:     -10.5      0.428      6.329
REMARK SMILES C[NH2+]C[C@H](C)C(=O)N1CC[C@@](C(=O)NCCCNC(=O)c2ccc(-c3c4nc(c(-c5c(F)cccc5F)c5ccc([nH]5)c(-c5c(F)cccc5F)c5nc(c(-c6c(F)cccc6F)c6ccc3[nH]6)C=C5)C=C4)cc2)(C(F)(F)F)C1
REMARK SMILES IDX 15 1 14 2 12 3 13 4 11 6 8 7 9 8 79 9 10 10 6 11 7 12 4 13
REMARK SMILES IDX 5 14 3 15 2 16 1 17 75 20 76 21 77 22 78 23 16 24 17 25
REMARK SMILES IDX 18 26 19 27 20 29 21 30 22 31 74 32 23 33 73 34 24 35 25 36
REMARK SMILES IDX 26 37 67 38 27 39 72 40 66 41 68 42 28 43 71 44 65 45 64 46
REMARK SMILES IDX 29 48 55 49 38 50 54 51 39 52 42 53 53 54 69 55 40 56 41 57
REMARK SMILES IDX 52 59 70 60 43 61 30 62 31 63 36 64 32 65 33 66 35 67 37 68
REMARK SMILES IDX 34 69 56 70 57 71 62 72 58 73 59 74 61 75 63 76 60 77 44 78
REMARK SMILES IDX 45 79 50 80 46 81 47 82 49 83 51 84 48 85
REMARK H PARENT 14 5 2 18 2 19 18 28 68 47 42 58
REMARK Flexibility Score: inf
ROOT
ATOM      1  C   UNL A   1      37.270  20.732  25.015  1.00  0.00     0.117 C 
ENDROOT
BRANCH   1   2
ATOM      2  N   UNL A   1      36.832  21.676  23.999  1.00  0.00    -0.355 N 
ATOM      3  C   UNL A   1      35.687  22.403  23.843  1.00  0.00     0.237 C 
ATOM      4  O   UNL A   1      35.694  23.179  22.885  1.00  0.00    -0.274 OA
ATOM      5  H   UNL A   1      37.491  21.819  23.282  1.00  0.00     0.163 HD
BRANCH   3   6
ATOM      6  C   UNL A   1      34.468  22.251  24.747  1.00  0.00     0.163 C 
ATOM      7  N   UNL A   1      32.946  20.413  24.711  1.00  0.00    -0.341 N 
ATOM      8  C   UNL A   1      32.159  21.571  24.347  1.00  0.00     0.121 C 
ATOM      9  C   UNL A   1      34.254  20.815  25.220  1.00  0.00     0.146 C 
ATOM     10  C   UNL A   1      33.170  22.659  24.026  1.00  0.00     0.050 C 
BRANCH   7  11
ATOM     11  C   UNL A   1      32.578  19.089  24.757  1.00  0.00     0.231 C 
ATOM     12  O   UNL A   1      32.443  18.527  25.851  1.00  0.00    -0.274 OA
BRANCH  11  13
ATOM     13  C   UNL A   1      32.542  18.233  23.489  1.00  0.00     0.130 C 
ATOM     14  C   UNL A   1      32.351  18.993  22.180  1.00  0.00     0.024 C 
BRANCH  13  15
ATOM     15  C   UNL A   1      33.770  17.303  23.438  1.00  0.00     0.273 C 
BRANCH  15  16
ATOM     16  N   UNL A   1      33.718  16.121  24.314  1.00  0.00    -0.348 N 
ATOM     17  C   UNL A   1      34.912  15.981  25.139  1.00  0.00     0.330 C 
ATOM     18  H   UNL A   1      32.906  16.203  24.925  1.00  0.00     0.346 HD
ATOM     19  H   UNL A   1      33.657  15.297  23.715  1.00  0.00     0.346 HD
ENDBRANCH  15  16
ENDBRANCH  13  15
ENDBRANCH  11  13
ENDBRANCH   7  11
BRANCH   6  20
ATOM     20  C   UNL A   1      34.681  23.117  25.975  1.00  0.00     0.404 C 
ATOM     21  F   UNL A   1      35.769  23.914  25.799  1.00  0.00    -0.170 F 
ATOM     22  F   UNL A   1      33.638  23.940  26.217  1.00  0.00    -0.170 F 
ATOM     23  F   UNL A   1      34.928  22.392  27.087  1.00  0.00    -0.170 F 
ENDBRANCH   6  20
ENDBRANCH   3   6
ENDBRANCH   1   2
BRANCH   1  24
ATOM     24  C   UNL A   1      38.785  20.642  25.150  1.00  0.00     0.042 C 
BRANCH  24  25
ATOM     25  C   UNL A   1      39.268  19.617  26.166  1.00  0.00     0.118 C 
BRANCH  25  26
ATOM     26  N   UNL A   1      40.572  19.059  25.834  1.00  0.00    -0.352 N 
ATOM     27  C   UNL A   1      41.822  19.623  25.866  1.00  0.00     0.251 C 
ATOM     28  H   UNL A   1      40.553  18.120  25.537  1.00  0.00     0.163 HD
ATOM     29  O   UNL A   1      42.776  19.005  25.391  1.00  0.00    -0.269 OA
BRANCH  27  30
ATOM     30  C   UNL A   1      42.045  20.968  26.444  1.00  0.00     0.039 A 
ATOM     31  C   UNL A   1      41.994  21.120  27.833  1.00  0.00     0.014 A 
ATOM     32  C   UNL A   1      42.267  22.085  25.634  1.00  0.00     0.014 A 
ATOM     33  C   UNL A   1      42.234  22.369  28.410  1.00  0.00     0.010 A 
ATOM     34  C   UNL A   1      42.590  23.311  26.211  1.00  0.00     0.010 A 
ATOM     35  C   UNL A   1      42.574  23.469  27.605  1.00  0.00    -0.014 A 
BRANCH  35  36
ATOM     36  C   UNL A   1      42.915  24.788  28.199  1.00  0.00     0.031 A 
ATOM     37  C   UNL A   1      41.840  25.817  28.426  1.00  0.00     0.074 A 
ATOM     38  C   UNL A   1      44.201  25.089  28.465  1.00  0.00     0.049 A 
ATOM     39  N   UNL A   1      41.953  27.055  28.840  1.00  0.00    -0.248 NA
ATOM     40  C   UNL A   1      40.458  25.412  28.123  1.00  0.00     0.031 C 
ATOM     41  C   UNL A   1      45.343  24.199  28.246  1.00  0.00     0.029 A 
ATOM     42  N   UNL A   1      44.766  26.236  28.964  1.00  0.00    -0.354 N 
ATOM     43  C   UNL A   1      40.667  27.579  28.823  1.00  0.00     0.074 A 
ATOM     44  C   UNL A   1      39.794  26.542  28.319  1.00  0.00     0.031 C 
ATOM     45  C   UNL A   1      46.469  24.826  28.622  1.00  0.00     0.029 A 
ATOM     46  C   UNL A   1      46.135  26.173  29.074  1.00  0.00     0.049 A 
ATOM     47  H   UNL A   1      44.242  27.029  29.220  1.00  0.00     0.167 HD
ATOM     48  C   UNL A   1      40.248  28.806  29.212  1.00  0.00     0.037 A 
ATOM     49  C   UNL A   1      47.023  27.100  29.481  1.00  0.00     0.037 A 
ATOM     50  C   UNL A   1      41.111  29.824  29.753  1.00  0.00     0.049 A 
ATOM     51  C   UNL A   1      46.528  28.451  29.920  1.00  0.00     0.074 A 
ATOM     52  C   UNL A   1      40.767  31.073  30.243  1.00  0.00     0.029 A 
ATOM     53  N   UNL A   1      42.486  29.709  29.881  1.00  0.00    -0.354 N 
ATOM     54  N   UNL A   1      45.301  28.908  29.960  1.00  0.00    -0.248 NA
ATOM     55  C   UNL A   1      47.543  29.412  30.376  1.00  0.00     0.031 C 
ATOM     56  C   UNL A   1      41.940  31.727  30.631  1.00  0.00     0.029 A 
ATOM     57  C   UNL A   1      43.008  30.870  30.424  1.00  0.00     0.049 A 
ATOM     58  H   UNL A   1      43.013  28.917  29.623  1.00  0.00     0.167 HD
ATOM     59  C   UNL A   1      45.392  30.196  30.472  1.00  0.00     0.074 A 
ATOM     60  C   UNL A   1      46.793  30.443  30.740  1.00  0.00     0.031 C 
ATOM     61  C   UNL A   1      44.404  31.095  30.698  1.00  0.00     0.037 A 
BRANCH  48  62
ATOM     62  C   UNL A   1      38.787  29.119  29.080  1.00  0.00     0.057 A 
ATOM     63  C   UNL A   1      37.913  29.038  30.172  1.00  0.00     0.134 A 
ATOM     64  C   UNL A   1      38.258  29.561  27.860  1.00  0.00     0.134 A 
ATOM     65  F   UNL A   1      38.354  28.611  31.364  1.00  0.00    -0.206 F 
ATOM     66  C   UNL A   1      36.562  29.367  30.051  1.00  0.00     0.040 A 
ATOM     67  C   UNL A   1      36.915  29.917  27.733  1.00  0.00     0.040 A 
ATOM     68  F   UNL A   1      39.042  29.668  26.776  1.00  0.00    -0.206 F 
ATOM     69  C   UNL A   1      36.061  29.818  28.831  1.00  0.00     0.006 A 
ENDBRANCH  48  62
BRANCH  49  70
ATOM     70  C   UNL A   1      48.474  26.785  29.508  1.00  0.00     0.057 A 
ATOM     71  C   UNL A   1      49.300  27.096  28.421  1.00  0.00     0.134 A 
ATOM     72  C   UNL A   1      49.063  26.144  30.603  1.00  0.00     0.134 A 
ATOM     73  F   UNL A   1      48.789  27.692  27.335  1.00  0.00    -0.206 F 
ATOM     74  C   UNL A   1      50.654  26.760  28.412  1.00  0.00     0.040 A 
ATOM     75  C   UNL A   1      50.421  25.823  30.618  1.00  0.00     0.040 A 
ATOM     76  F   UNL A   1      48.328  25.825  31.679  1.00  0.00    -0.206 F 
ATOM     77  C   UNL A   1      51.219  26.123  29.515  1.00  0.00     0.006 A 
ENDBRANCH  49  70
BRANCH  61  78
ATOM     78  C   UNL A   1      44.797  32.412  31.298  1.00  0.00     0.057 A 
ATOM     79  C   UNL A   1      44.865  32.601  32.684  1.00  0.00     0.134 A 
ATOM     80  C   UNL A   1      45.146  33.492  30.478  1.00  0.00     0.134 A 
ATOM     81  F   UNL A   1      44.529  31.609  33.523  1.00  0.00    -0.206 F 
ATOM     82  C   UNL A   1      45.248  33.825  33.233  1.00  0.00     0.040 A 
ATOM     83  C   UNL A   1      45.556  34.713  31.015  1.00  0.00     0.040 A 
ATOM     84  F   UNL A   1      45.109  33.373  29.142  1.00  0.00    -0.206 F 
ATOM     85  C   UNL A   1      45.602  34.883  32.398  1.00  0.00     0.006 A 
ENDBRANCH  61  78
ENDBRANCH  35  36
ENDBRANCH  27  30
ENDBRANCH  25  26
ENDBRANCH  24  25
ENDBRANCH   1  24
TORSDOF 15
ENDMDL
