MODEL 1
REMARK VINA RESULT:     -12.4      0.000      0.000
REMARK SMILES Cc1ccc(NC(=O)C[N@H+]2CCC[C@@H](C(=O)NCCCNC(=O)c3ccc(-c4c5nc(c(-c6c(F)cccc6F)c6ccc([nH]6)c(-c6c(F)cccc6F)c6nc(c(-c7c(F)cccc7F)c7ccc4[nH]7)C=C6)C=C5)cc3)C2)cc1F
REMARK SMILES IDX 18 1 17 2 15 3 16 4 14 6 10 7 11 8 78 9 12 11 13 12 9 13
REMARK SMILES IDX 7 14 6 15 8 17 5 18 1 19 2 20 3 21 80 22 4 23 79 24 81 25
REMARK SMILES IDX 19 26 20 27 21 28 22 29 23 31 24 32 25 33 77 34 26 35 76 36
REMARK SMILES IDX 27 37 28 38 29 39 70 40 30 41 75 42 69 43 71 44 31 45 74 46
REMARK SMILES IDX 68 47 67 48 32 50 58 51 41 52 57 53 42 54 45 55 56 56 72 57
REMARK SMILES IDX 43 58 44 59 55 61 73 62 46 63 33 64 34 65 39 66 35 67 36 68
REMARK SMILES IDX 38 69 40 70 37 71 59 72 60 73 65 74 61 75 62 76 64 77 66 78
REMARK SMILES IDX 63 79 47 80 48 81 53 82 49 83 50 84 52 85 54 86 51 87
REMARK H PARENT 17 5 10 10 6 16 21 30 71 49 45 60
REMARK Flexibility Score: inf
ROOT
ATOM      1  C   UNL A   1      33.360  29.079  24.495  1.00  0.00     0.117 C 
ENDROOT
BRANCH   1   2
ATOM      2  N   UNL A   1      32.255  29.055  23.552  1.00  0.00    -0.356 N 
ATOM      3  C   UNL A   1      31.685  27.939  22.996  1.00  0.00     0.228 C 
ATOM      4  O   UNL A   1      30.697  28.056  22.277  1.00  0.00    -0.275 OA
ATOM      5  H   UNL A   1      31.878  29.926  23.288  1.00  0.00     0.163 HD
BRANCH   3   6
ATOM      6  C   UNL A   1      32.321  26.610  23.344  1.00  0.00     0.133 C 
ATOM      7  N   UNL A   1      31.841  24.422  24.375  1.00  0.00    -0.326 N 
ATOM      8  C   UNL A   1      32.686  23.760  23.359  1.00  0.00     0.262 C 
ATOM      9  C   UNL A   1      31.229  25.624  23.792  1.00  0.00     0.276 C 
ATOM     10  H   UNL A   1      32.397  24.752  25.164  1.00  0.00     0.348 HD
ATOM     11  C   UNL A   1      33.745  24.693  22.752  1.00  0.00     0.062 C 
ATOM     12  C   UNL A   1      33.131  25.987  22.220  1.00  0.00     0.025 C 
BRANCH   7  13
ATOM     13  C   UNL A   1      30.884  23.443  24.966  1.00  0.00     0.363 C 
BRANCH  13  14
ATOM     14  C   UNL A   1      31.084  23.101  26.441  1.00  0.00     0.279 C 
ATOM     15  N   UNL A   1      32.220  22.555  26.962  1.00  0.00    -0.321 N 
ATOM     16  H   UNL A   1      32.159  22.413  27.934  1.00  0.00     0.170 HD
ATOM     17  O   UNL A   1      30.180  23.356  27.250  1.00  0.00    -0.268 OA
BRANCH  15  18
ATOM     18  C   UNL A   1      33.457  22.146  26.436  1.00  0.00     0.044 A 
ATOM     19  C   UNL A   1      37.302  21.286  24.643  1.00  0.00     0.047 C 
ATOM     20  C   UNL A   1      36.008  21.581  25.341  1.00  0.00    -0.015 A 
ATOM     21  C   UNL A   1      35.769  22.793  25.993  1.00  0.00     0.008 A 
ATOM     22  C   UNL A   1      34.967  20.661  25.271  1.00  0.00     0.128 A 
ATOM     23  C   UNL A   1      34.504  23.078  26.519  1.00  0.00     0.026 A 
ATOM     24  C   UNL A   1      33.713  20.926  25.820  1.00  0.00     0.065 A 
ATOM     25  F   UNL A   1      35.153  19.501  24.626  1.00  0.00    -0.207 F 
ENDBRANCH  15  18
ENDBRANCH  13  14
ENDBRANCH   7  13
ENDBRANCH   3   6
ENDBRANCH   1   2
BRANCH   1  26
ATOM     26  C   UNL A   1      32.916  29.208  25.933  1.00  0.00     0.042 C 
BRANCH  26  27
ATOM     27  C   UNL A   1      34.102  29.394  26.838  1.00  0.00     0.118 C 
BRANCH  27  28
ATOM     28  N   UNL A   1      34.270  30.772  27.335  1.00  0.00    -0.352 N 
ATOM     29  C   UNL A   1      35.204  31.273  28.223  1.00  0.00     0.251 C 
ATOM     30  H   UNL A   1      33.625  31.430  26.986  1.00  0.00     0.163 HD
ATOM     31  O   UNL A   1      35.182  32.410  28.660  1.00  0.00    -0.269 OA
BRANCH  29  32
ATOM     32  C   UNL A   1      36.314  30.395  28.550  1.00  0.00     0.039 A 
ATOM     33  C   UNL A   1      36.347  29.528  29.644  1.00  0.00     0.014 A 
ATOM     34  C   UNL A   1      37.375  30.517  27.669  1.00  0.00     0.014 A 
ATOM     35  C   UNL A   1      37.517  28.814  29.848  1.00  0.00     0.010 A 
ATOM     36  C   UNL A   1      38.297  29.546  27.641  1.00  0.00     0.010 A 
ATOM     37  C   UNL A   1      38.482  28.880  28.843  1.00  0.00    -0.014 A 
BRANCH  37  38
ATOM     38  C   UNL A   1      39.855  28.459  28.938  1.00  0.00     0.031 A 
ATOM     39  C   UNL A   1      40.152  27.085  28.586  1.00  0.00     0.074 A 
ATOM     40  C   UNL A   1      40.725  29.494  29.031  1.00  0.00     0.049 A 
ATOM     41  N   UNL A   1      41.083  26.388  29.121  1.00  0.00    -0.248 NA
ATOM     42  C   UNL A   1      39.350  26.351  27.608  1.00  0.00     0.031 C 
ATOM     43  C   UNL A   1      42.130  29.607  28.700  1.00  0.00     0.029 A 
ATOM     44  N   UNL A   1      40.405  30.774  29.502  1.00  0.00    -0.354 N 
ATOM     45  C   UNL A   1      41.286  25.345  28.249  1.00  0.00     0.074 A 
ATOM     46  C   UNL A   1      40.063  25.228  27.488  1.00  0.00     0.031 C 
ATOM     47  C   UNL A   1      42.614  30.737  29.262  1.00  0.00     0.029 A 
ATOM     48  C   UNL A   1      41.551  31.340  30.056  1.00  0.00     0.049 A 
ATOM     49  H   UNL A   1      39.520  31.202  29.451  1.00  0.00     0.167 HD
ATOM     50  C   UNL A   1      42.563  24.918  28.031  1.00  0.00     0.037 A 
ATOM     51  C   UNL A   1      41.536  31.515  31.411  1.00  0.00     0.037 A 
ATOM     52  C   UNL A   1      43.506  25.815  28.718  1.00  0.00     0.049 A 
ATOM     53  C   UNL A   1      42.382  30.459  32.078  1.00  0.00     0.074 A 
ATOM     54  C   UNL A   1      44.299  26.857  28.256  1.00  0.00     0.029 A 
ATOM     55  N   UNL A   1      43.424  25.986  30.099  1.00  0.00    -0.354 N 
ATOM     56  N   UNL A   1      42.711  29.326  31.516  1.00  0.00    -0.248 NA
ATOM     57  C   UNL A   1      43.006  30.639  33.380  1.00  0.00     0.031 C 
ATOM     58  C   UNL A   1      44.664  27.667  29.367  1.00  0.00     0.029 A 
ATOM     59  C   UNL A   1      44.084  27.132  30.504  1.00  0.00     0.049 A 
ATOM     60  H   UNL A   1      42.956  25.369  30.707  1.00  0.00     0.167 HD
ATOM     61  C   UNL A   1      43.612  28.662  32.300  1.00  0.00     0.074 A 
ATOM     62  C   UNL A   1      43.765  29.530  33.456  1.00  0.00     0.031 C 
ATOM     63  C   UNL A   1      44.168  27.470  31.924  1.00  0.00     0.037 A 
BRANCH  50  64
ATOM     64  C   UNL A   1      42.952  23.957  26.932  1.00  0.00     0.057 A 
ATOM     65  C   UNL A   1      42.938  22.566  27.140  1.00  0.00     0.134 A 
ATOM     66  C   UNL A   1      43.315  24.342  25.625  1.00  0.00     0.134 A 
ATOM     67  F   UNL A   1      42.525  22.030  28.295  1.00  0.00    -0.206 F 
ATOM     68  C   UNL A   1      43.331  21.642  26.164  1.00  0.00     0.040 A 
ATOM     69  C   UNL A   1      43.759  23.432  24.654  1.00  0.00     0.040 A 
ATOM     70  F   UNL A   1      43.197  25.609  25.206  1.00  0.00    -0.206 F 
ATOM     71  C   UNL A   1      43.768  22.073  24.922  1.00  0.00     0.006 A 
ENDBRANCH  50  64
BRANCH  51  72
ATOM     72  C   UNL A   1      40.206  32.053  31.865  1.00  0.00     0.057 A 
ATOM     73  C   UNL A   1      39.895  33.367  31.453  1.00  0.00     0.134 A 
ATOM     74  C   UNL A   1      39.118  31.214  32.144  1.00  0.00     0.134 A 
ATOM     75  F   UNL A   1      40.885  34.239  31.200  1.00  0.00    -0.206 F 
ATOM     76  C   UNL A   1      38.593  33.759  31.127  1.00  0.00     0.040 A 
ATOM     77  C   UNL A   1      37.803  31.609  31.848  1.00  0.00     0.040 A 
ATOM     78  F   UNL A   1      39.313  29.956  32.564  1.00  0.00    -0.206 F 
ATOM     79  C   UNL A   1      37.546  32.858  31.280  1.00  0.00     0.006 A 
ENDBRANCH  51  72
BRANCH  63  80
ATOM     80  C   UNL A   1      44.909  26.509  32.826  1.00  0.00     0.057 A 
ATOM     81  C   UNL A   1      44.307  25.736  33.828  1.00  0.00     0.134 A 
ATOM     82  C   UNL A   1      46.270  26.201  32.582  1.00  0.00     0.134 A 
ATOM     83  F   UNL A   1      43.000  25.817  34.102  1.00  0.00    -0.206 F 
ATOM     84  C   UNL A   1      45.013  24.777  34.563  1.00  0.00     0.040 A 
ATOM     85  C   UNL A   1      46.957  25.185  33.247  1.00  0.00     0.040 A 
ATOM     86  F   UNL A   1      47.000  26.849  31.661  1.00  0.00    -0.206 F 
ATOM     87  C   UNL A   1      46.334  24.480  34.258  1.00  0.00     0.006 A 
ENDBRANCH  63  80
ENDBRANCH  37  38
ENDBRANCH  29  32
ENDBRANCH  27  28
ENDBRANCH  26  27
ENDBRANCH   1  26
TORSDOF 13
ENDMDL
MODEL 2
REMARK VINA RESULT:     -12.3      3.491      8.300
REMARK SMILES Cc1ccc(NC(=O)C[N@H+]2CCC[C@@H](C(=O)NCCCNC(=O)c3ccc(-c4c5nc(c(-c6c(F)cccc6F)c6ccc([nH]6)c(-c6c(F)cccc6F)c6nc(c(-c7c(F)cccc7F)c7ccc4[nH]7)C=C6)C=C5)cc3)C2)cc1F
REMARK SMILES IDX 18 1 17 2 15 3 16 4 14 6 10 7 11 8 78 9 12 11 13 12 9 13
REMARK SMILES IDX 7 14 6 15 8 17 5 18 1 19 2 20 3 21 80 22 4 23 79 24 81 25
REMARK SMILES IDX 19 26 20 27 21 28 22 29 23 31 24 32 25 33 77 34 26 35 76 36
REMARK SMILES IDX 27 37 28 38 29 39 70 40 30 41 75 42 69 43 71 44 31 45 74 46
REMARK SMILES IDX 68 47 67 48 32 50 58 51 41 52 57 53 42 54 45 55 56 56 72 57
REMARK SMILES IDX 43 58 44 59 55 61 73 62 46 63 33 64 34 65 39 66 35 67 36 68
REMARK SMILES IDX 38 69 40 70 37 71 59 72 60 73 65 74 61 75 62 76 64 77 66 78
REMARK SMILES IDX 63 79 47 80 48 81 53 82 49 83 50 84 52 85 54 86 51 87
REMARK H PARENT 17 5 10 10 6 16 21 30 71 49 45 60
REMARK Flexibility Score: inf
ROOT
ATOM      1  C   UNL A   1      37.683  23.007  25.636  1.00  0.00     0.117 C 
ENDROOT
BRANCH   1   2
ATOM      2  N   UNL A   1      37.267  23.229  24.262  1.00  0.00    -0.356 N 
ATOM      3  C   UNL A   1      36.016  23.008  23.744  1.00  0.00     0.228 C 
ATOM      4  O   UNL A   1      35.777  23.320  22.582  1.00  0.00    -0.275 OA
ATOM      5  H   UNL A   1      37.950  23.573  23.641  1.00  0.00     0.163 HD
BRANCH   3   6
ATOM      6  C   UNL A   1      34.993  22.404  24.683  1.00  0.00     0.133 C 
ATOM      7  N   UNL A   1      32.640  22.590  25.391  1.00  0.00    -0.326 N 
ATOM      8  C   UNL A   1      32.552  21.118  25.483  1.00  0.00     0.262 C 
ATOM      9  C   UNL A   1      33.600  22.958  24.342  1.00  0.00     0.276 C 
ATOM     10  H   UNL A   1      33.006  22.995  26.253  1.00  0.00     0.348 HD
ATOM     11  C   UNL A   1      33.915  20.444  25.705  1.00  0.00     0.062 C 
ATOM     12  C   UNL A   1      34.949  20.886  24.671  1.00  0.00     0.025 C 
BRANCH   7  13
ATOM     13  C   UNL A   1      31.277  23.178  25.243  1.00  0.00     0.363 C 
BRANCH  13  14
ATOM     14  C   UNL A   1      30.709  23.897  26.464  1.00  0.00     0.279 C 
ATOM     15  N   UNL A   1      30.351  25.213  26.491  1.00  0.00    -0.321 N 
ATOM     16  H   UNL A   1      30.000  25.491  27.368  1.00  0.00     0.170 HD
ATOM     17  O   UNL A   1      30.519  23.259  27.510  1.00  0.00    -0.268 OA
BRANCH  15  18
ATOM     18  C   UNL A   1      30.368  26.265  25.560  1.00  0.00     0.044 A 
ATOM     19  C   UNL A   1      30.367  29.204  22.382  1.00  0.00     0.047 C 
ATOM     20  C   UNL A   1      30.291  28.217  23.507  1.00  0.00    -0.015 A 
ATOM     21  C   UNL A   1      29.379  27.158  23.514  1.00  0.00     0.008 A 
ATOM     22  C   UNL A   1      31.211  28.291  24.547  1.00  0.00     0.128 A 
ATOM     23  C   UNL A   1      29.429  26.186  24.519  1.00  0.00     0.026 A 
ATOM     24  C   UNL A   1      31.247  27.343  25.569  1.00  0.00     0.065 A 
ATOM     25  F   UNL A   1      32.120  29.277  24.555  1.00  0.00    -0.207 F 
ENDBRANCH  15  18
ENDBRANCH  13  14
ENDBRANCH   7  13
ENDBRANCH   3   6
ENDBRANCH   1   2
BRANCH   1  26
ATOM     26  C   UNL A   1      38.538  21.775  25.810  1.00  0.00     0.042 C 
BRANCH  26  27
ATOM     27  C   UNL A   1      39.854  22.129  26.443  1.00  0.00     0.118 C 
BRANCH  27  28
ATOM     28  N   UNL A   1      41.030  21.600  25.728  1.00  0.00    -0.352 N 
ATOM     29  C   UNL A   1      42.312  22.113  25.655  1.00  0.00     0.251 C 
ATOM     30  H   UNL A   1      40.881  20.763  25.230  1.00  0.00     0.163 HD
ATOM     31  O   UNL A   1      43.184  21.657  24.935  1.00  0.00    -0.269 OA
BRANCH  29  32
ATOM     32  C   UNL A   1      42.626  23.191  26.576  1.00  0.00     0.039 A 
ATOM     33  C   UNL A   1      42.914  23.020  27.931  1.00  0.00     0.014 A 
ATOM     34  C   UNL A   1      42.590  24.439  25.978  1.00  0.00     0.014 A 
ATOM     35  C   UNL A   1      43.121  24.167  28.682  1.00  0.00     0.010 A 
ATOM     36  C   UNL A   1      43.185  25.464  26.602  1.00  0.00     0.010 A 
ATOM     37  C   UNL A   1      43.211  25.372  27.984  1.00  0.00    -0.014 A 
BRANCH  37  38
ATOM     38  C   UNL A   1      43.152  26.697  28.544  1.00  0.00     0.031 A 
ATOM     39  C   UNL A   1      41.848  27.321  28.630  1.00  0.00     0.074 A 
ATOM     40  C   UNL A   1      44.280  27.046  29.209  1.00  0.00     0.049 A 
ATOM     41  N   UNL A   1      41.641  28.580  28.526  1.00  0.00    -0.248 NA
ATOM     42  C   UNL A   1      40.627  26.532  28.787  1.00  0.00     0.031 C 
ATOM     43  C   UNL A   1      44.520  28.007  30.265  1.00  0.00     0.029 A 
ATOM     44  N   UNL A   1      45.548  26.490  28.991  1.00  0.00    -0.354 N 
ATOM     45  C   UNL A   1      40.392  28.777  29.063  1.00  0.00     0.074 A 
ATOM     46  C   UNL A   1      39.724  27.498  28.978  1.00  0.00     0.031 C 
ATOM     47  C   UNL A   1      45.852  28.205  30.371  1.00  0.00     0.029 A 
ATOM     48  C   UNL A   1      46.510  27.443  29.316  1.00  0.00     0.049 A 
ATOM     49  H   UNL A   1      45.729  25.580  28.662  1.00  0.00     0.167 HD
ATOM     50  C   UNL A   1      40.176  29.891  29.819  1.00  0.00     0.037 A 
ATOM     51  C   UNL A   1      47.233  27.944  28.270  1.00  0.00     0.037 A 
ATOM     52  C   UNL A   1      41.446  30.608  30.014  1.00  0.00     0.049 A 
ATOM     53  C   UNL A   1      46.747  29.329  27.922  1.00  0.00     0.074 A 
ATOM     54  C   UNL A   1      42.331  30.654  31.083  1.00  0.00     0.029 A 
ATOM     55  N   UNL A   1      42.163  31.066  28.910  1.00  0.00    -0.354 N 
ATOM     56  N   UNL A   1      45.574  29.796  28.256  1.00  0.00    -0.248 NA
ATOM     57  C   UNL A   1      47.580  30.326  27.266  1.00  0.00     0.031 C 
ATOM     58  C   UNL A   1      43.589  31.113  30.603  1.00  0.00     0.029 A 
ATOM     59  C   UNL A   1      43.479  31.334  29.241  1.00  0.00     0.049 A 
ATOM     60  H   UNL A   1      41.781  31.183  28.010  1.00  0.00     0.167 HD
ATOM     61  C   UNL A   1      45.496  31.124  27.946  1.00  0.00     0.074 A 
ATOM     62  C   UNL A   1      46.783  31.408  27.329  1.00  0.00     0.031 C 
ATOM     63  C   UNL A   1      44.393  31.879  28.239  1.00  0.00     0.037 A 
BRANCH  50  64
ATOM     64  C   UNL A   1      38.940  30.111  30.660  1.00  0.00     0.057 A 
ATOM     65  C   UNL A   1      38.799  29.508  31.923  1.00  0.00     0.134 A 
ATOM     66  C   UNL A   1      37.863  30.944  30.296  1.00  0.00     0.134 A 
ATOM     67  F   UNL A   1      39.773  28.763  32.462  1.00  0.00    -0.206 F 
ATOM     68  C   UNL A   1      37.654  29.651  32.717  1.00  0.00     0.040 A 
ATOM     69  C   UNL A   1      36.690  31.057  31.056  1.00  0.00     0.040 A 
ATOM     70  F   UNL A   1      37.921  31.738  29.218  1.00  0.00    -0.206 F 
ATOM     71  C   UNL A   1      36.581  30.408  32.275  1.00  0.00     0.006 A 
ENDBRANCH  50  64
BRANCH  51  72
ATOM     72  C   UNL A   1      47.635  26.843  27.325  1.00  0.00     0.057 A 
ATOM     73  C   UNL A   1      47.006  26.850  26.061  1.00  0.00     0.134 A 
ATOM     74  C   UNL A   1      48.891  26.225  27.393  1.00  0.00     0.134 A 
ATOM     75  F   UNL A   1      45.786  27.395  25.926  1.00  0.00    -0.206 F 
ATOM     76  C   UNL A   1      47.673  26.465  24.894  1.00  0.00     0.040 A 
ATOM     77  C   UNL A   1      49.557  25.807  26.228  1.00  0.00     0.040 A 
ATOM     78  F   UNL A   1      49.556  26.149  28.553  1.00  0.00    -0.206 F 
ATOM     79  C   UNL A   1      48.974  25.985  24.972  1.00  0.00     0.006 A 
ENDBRANCH  51  72
BRANCH  63  80
ATOM     80  C   UNL A   1      44.071  33.243  27.670  1.00  0.00     0.057 A 
ATOM     81  C   UNL A   1      43.853  33.505  26.312  1.00  0.00     0.134 A 
ATOM     82  C   UNL A   1      43.794  34.332  28.533  1.00  0.00     0.134 A 
ATOM     83  F   UNL A   1      43.953  32.553  25.377  1.00  0.00    -0.206 F 
ATOM     84  C   UNL A   1      43.445  34.760  25.844  1.00  0.00     0.040 A 
ATOM     85  C   UNL A   1      43.302  35.558  28.085  1.00  0.00     0.040 A 
ATOM     86  F   UNL A   1      43.956  34.255  29.863  1.00  0.00    -0.206 F 
ATOM     87  C   UNL A   1      43.144  35.784  26.731  1.00  0.00     0.006 A 
ENDBRANCH  63  80
ENDBRANCH  37  38
ENDBRANCH  29  32
ENDBRANCH  27  28
ENDBRANCH  26  27
ENDBRANCH   1  26
TORSDOF 13
ENDMDL
MODEL 3
REMARK VINA RESULT:     -12.2      2.943      8.118
REMARK SMILES Cc1ccc(NC(=O)C[N@H+]2CCC[C@@H](C(=O)NCCCNC(=O)c3ccc(-c4c5nc(c(-c6c(F)cccc6F)c6ccc([nH]6)c(-c6c(F)cccc6F)c6nc(c(-c7c(F)cccc7F)c7ccc4[nH]7)C=C6)C=C5)cc3)C2)cc1F
REMARK SMILES IDX 18 1 17 2 15 3 16 4 14 6 10 7 11 8 78 9 12 11 13 12 9 13
REMARK SMILES IDX 7 14 6 15 8 17 5 18 1 19 2 20 3 21 80 22 4 23 79 24 81 25
REMARK SMILES IDX 19 26 20 27 21 28 22 29 23 31 24 32 25 33 77 34 26 35 76 36
REMARK SMILES IDX 27 37 28 38 29 39 70 40 30 41 75 42 69 43 71 44 31 45 74 46
REMARK SMILES IDX 68 47 67 48 32 50 58 51 41 52 57 53 42 54 45 55 56 56 72 57
REMARK SMILES IDX 43 58 44 59 55 61 73 62 46 63 33 64 34 65 39 66 35 67 36 68
REMARK SMILES IDX 38 69 40 70 37 71 59 72 60 73 65 74 61 75 62 76 64 77 66 78
REMARK SMILES IDX 63 79 47 80 48 81 53 82 49 83 50 84 52 85 54 86 51 87
REMARK H PARENT 17 5 10 10 6 16 21 30 71 49 45 60
REMARK Flexibility Score: inf
ROOT
ATOM      1  C   UNL A   1      35.824  21.871  25.962  1.00  0.00     0.117 C 
ENDROOT
BRANCH   1   2
ATOM      2  N   UNL A   1      35.033  20.821  25.344  1.00  0.00    -0.356 N 
ATOM      3  C   UNL A   1      33.772  20.952  24.822  1.00  0.00     0.228 C 
ATOM      4  O   UNL A   1      33.250  20.001  24.250  1.00  0.00    -0.275 OA
ATOM      5  H   UNL A   1      35.444  19.927  25.295  1.00  0.00     0.163 HD
BRANCH   3   6
ATOM      6  C   UNL A   1      33.115  22.308  24.974  1.00  0.00     0.133 C 
ATOM      7  N   UNL A   1      32.178  24.183  23.676  1.00  0.00    -0.326 N 
ATOM      8  C   UNL A   1      31.101  24.335  24.676  1.00  0.00     0.262 C 
ATOM      9  C   UNL A   1      32.585  22.773  23.608  1.00  0.00     0.276 C 
ATOM     10  H   UNL A   1      33.015  24.698  23.950  1.00  0.00     0.348 HD
ATOM     11  C   UNL A   1      31.481  23.790  26.062  1.00  0.00     0.062 C 
ATOM     12  C   UNL A   1      31.989  22.351  25.992  1.00  0.00     0.025 C 
BRANCH   7  13
ATOM     13  C   UNL A   1      31.765  24.791  22.379  1.00  0.00     0.363 C 
BRANCH  13  14
ATOM     14  C   UNL A   1      32.773  25.725  21.713  1.00  0.00     0.279 C 
ATOM     15  N   UNL A   1      33.202  26.907  22.243  1.00  0.00    -0.321 N 
ATOM     16  H   UNL A   1      33.857  27.363  21.667  1.00  0.00     0.170 HD
ATOM     17  O   UNL A   1      33.278  25.398  20.629  1.00  0.00    -0.268 OA
BRANCH  15  18
ATOM     18  C   UNL A   1      32.926  27.625  23.418  1.00  0.00     0.044 A 
ATOM     19  C   UNL A   1      32.094  29.458  27.251  1.00  0.00     0.047 C 
ATOM     20  C   UNL A   1      32.459  28.861  25.925  1.00  0.00    -0.015 A 
ATOM     21  C   UNL A   1      33.439  27.875  25.792  1.00  0.00     0.008 A 
ATOM     22  C   UNL A   1      31.746  29.228  24.788  1.00  0.00     0.128 A 
ATOM     23  C   UNL A   1      33.657  27.253  24.557  1.00  0.00     0.026 A 
ATOM     24  C   UNL A   1      31.979  28.635  23.548  1.00  0.00     0.065 A 
ATOM     25  F   UNL A   1      30.777  30.150  24.886  1.00  0.00    -0.207 F 
ENDBRANCH  15  18
ENDBRANCH  13  14
ENDBRANCH   7  13
ENDBRANCH   3   6
ENDBRANCH   1   2
BRANCH   1  26
ATOM     26  C   UNL A   1      36.742  22.576  24.992  1.00  0.00     0.042 C 
BRANCH  26  27
ATOM     27  C   UNL A   1      37.733  23.433  25.729  1.00  0.00     0.118 C 
BRANCH  27  28
ATOM     28  N   UNL A   1      38.937  22.712  26.180  1.00  0.00    -0.352 N 
ATOM     29  C   UNL A   1      40.118  23.217  26.693  1.00  0.00     0.251 C 
ATOM     30  H   UNL A   1      38.895  21.731  26.106  1.00  0.00     0.163 HD
ATOM     31  O   UNL A   1      41.101  22.536  26.927  1.00  0.00    -0.269 OA
BRANCH  29  32
ATOM     32  C   UNL A   1      40.112  24.624  27.053  1.00  0.00     0.039 A 
ATOM     33  C   UNL A   1      40.438  25.668  26.185  1.00  0.00     0.014 A 
ATOM     34  C   UNL A   1      39.767  24.840  28.376  1.00  0.00     0.014 A 
ATOM     35  C   UNL A   1      40.450  26.949  26.716  1.00  0.00     0.010 A 
ATOM     36  C   UNL A   1      39.388  26.071  28.745  1.00  0.00     0.010 A 
ATOM     37  C   UNL A   1      39.953  27.101  28.011  1.00  0.00    -0.014 A 
BRANCH  37  38
ATOM     38  C   UNL A   1      40.107  28.253  28.862  1.00  0.00     0.031 A 
ATOM     39  C   UNL A   1      39.105  29.294  28.753  1.00  0.00     0.074 A 
ATOM     40  C   UNL A   1      40.984  28.054  29.875  1.00  0.00     0.049 A 
ATOM     41  N   UNL A   1      39.336  30.540  28.932  1.00  0.00    -0.248 NA
ATOM     42  C   UNL A   1      37.728  28.998  28.360  1.00  0.00     0.031 C 
ATOM     43  C   UNL A   1      41.121  28.685  31.171  1.00  0.00     0.029 A 
ATOM     44  N   UNL A   1      42.018  27.109  29.870  1.00  0.00    -0.354 N 
ATOM     45  C   UNL A   1      38.099  31.100  29.143  1.00  0.00     0.074 A 
ATOM     46  C   UNL A   1      37.150  30.188  28.546  1.00  0.00     0.031 C 
ATOM     47  C   UNL A   1      42.329  28.358  31.682  1.00  0.00     0.029 A 
ATOM     48  C   UNL A   1      43.048  27.577  30.683  1.00  0.00     0.049 A 
ATOM     49  H   UNL A   1      42.019  26.258  29.375  1.00  0.00     0.167 HD
ATOM     50  C   UNL A   1      37.981  32.086  30.078  1.00  0.00     0.037 A 
ATOM     51  C   UNL A   1      44.203  27.929  30.042  1.00  0.00     0.037 A 
ATOM     52  C   UNL A   1      39.259  32.243  30.791  1.00  0.00     0.049 A 
ATOM     53  C   UNL A   1      44.309  29.430  29.953  1.00  0.00     0.074 A 
ATOM     54  C   UNL A   1      39.689  31.795  32.033  1.00  0.00     0.029 A 
ATOM     55  N   UNL A   1      40.416  32.567  30.084  1.00  0.00    -0.354 N 
ATOM     56  N   UNL A   1      43.291  30.241  30.068  1.00  0.00    -0.248 NA
ATOM     57  C   UNL A   1      45.576  30.137  29.834  1.00  0.00     0.031 C 
ATOM     58  C   UNL A   1      41.112  31.825  32.050  1.00  0.00     0.029 A 
ATOM     59  C   UNL A   1      41.552  32.275  30.818  1.00  0.00     0.049 A 
ATOM     60  H   UNL A   1      40.423  32.953  29.178  1.00  0.00     0.167 HD
ATOM     61  C   UNL A   1      43.729  31.535  30.109  1.00  0.00     0.074 A 
ATOM     62  C   UNL A   1      45.171  31.413  29.962  1.00  0.00     0.031 C 
ATOM     63  C   UNL A   1      42.875  32.590  30.281  1.00  0.00     0.037 A 
BRANCH  50  64
ATOM     64  C   UNL A   1      36.658  32.616  30.580  1.00  0.00     0.057 A 
ATOM     65  C   UNL A   1      35.977  33.641  29.897  1.00  0.00     0.134 A 
ATOM     66  C   UNL A   1      35.980  32.128  31.714  1.00  0.00     0.134 A 
ATOM     67  F   UNL A   1      36.436  34.149  28.747  1.00  0.00    -0.206 F 
ATOM     68  C   UNL A   1      34.771  34.191  30.348  1.00  0.00     0.040 A 
ATOM     69  C   UNL A   1      34.798  32.702  32.206  1.00  0.00     0.040 A 
ATOM     70  F   UNL A   1      36.394  31.033  32.365  1.00  0.00    -0.206 F 
ATOM     71  C   UNL A   1      34.187  33.740  31.522  1.00  0.00     0.006 A 
ENDBRANCH  50  64
BRANCH  51  72
ATOM     72  C   UNL A   1      44.556  26.915  28.987  1.00  0.00     0.057 A 
ATOM     73  C   UNL A   1      44.955  25.644  29.456  1.00  0.00     0.134 A 
ATOM     74  C   UNL A   1      44.009  26.960  27.697  1.00  0.00     0.134 A 
ATOM     75  F   UNL A   1      45.519  25.527  30.669  1.00  0.00    -0.206 F 
ATOM     76  C   UNL A   1      44.630  24.464  28.779  1.00  0.00     0.040 A 
ATOM     77  C   UNL A   1      43.707  25.780  26.997  1.00  0.00     0.040 A 
ATOM     78  F   UNL A   1      43.623  28.123  27.157  1.00  0.00    -0.206 F 
ATOM     79  C   UNL A   1      43.959  24.530  27.565  1.00  0.00     0.006 A 
ENDBRANCH  51  72
BRANCH  63  80
ATOM     80  C   UNL A   1      43.195  34.046  30.026  1.00  0.00     0.057 A 
ATOM     81  C   UNL A   1      43.368  35.008  31.030  1.00  0.00     0.134 A 
ATOM     82  C   UNL A   1      43.519  34.491  28.721  1.00  0.00     0.134 A 
ATOM     83  F   UNL A   1      43.221  34.717  32.328  1.00  0.00    -0.206 F 
ATOM     84  C   UNL A   1      43.776  36.318  30.754  1.00  0.00     0.040 A 
ATOM     85  C   UNL A   1      44.011  35.768  28.448  1.00  0.00     0.040 A 
ATOM     86  F   UNL A   1      43.404  33.701  27.643  1.00  0.00    -0.206 F 
ATOM     87  C   UNL A   1      44.123  36.696  29.465  1.00  0.00     0.006 A 
ENDBRANCH  63  80
ENDBRANCH  37  38
ENDBRANCH  29  32
ENDBRANCH  27  28
ENDBRANCH  26  27
ENDBRANCH   1  26
TORSDOF 13
ENDMDL
