MODEL 1
REMARK VINA RESULT:     -12.4      0.000      0.000
REMARK SMILES C[C@H]1C[N@H+]2CCC[C@@H]2CN1c1cc(Cl)ccc1C(=O)NCCCNC(=O)c1ccc(-c2c3nc(c(-c4c(F)cccc4F)c4ccc([nH]4)c(-c4c(F)cccc4F)c4nc(c(-c5c(F)cccc5F)c5ccc2[nH]5)C=C4)C=C3)cc1
REMARK SMILES IDX 22 1 21 2 20 3 18 4 19 5 17 7 11 8 12 9 13 10 16 11 14 12
REMARK SMILES IDX 15 13 10 14 1 15 2 16 3 17 4 18 9 19 5 20 8 21 6 23 7 24
REMARK SMILES IDX 23 25 24 26 25 27 26 29 27 30 28 31 80 32 29 33 79 34 30 35
REMARK SMILES IDX 31 36 32 37 73 38 33 39 78 40 72 41 74 42 34 43 77 44 71 45
REMARK SMILES IDX 70 46 35 48 61 49 44 50 60 51 45 52 48 53 59 54 75 55 46 56
REMARK SMILES IDX 47 57 58 59 76 60 49 61 36 62 37 63 42 64 38 65 39 66 41 67
REMARK SMILES IDX 43 68 40 69 62 70 63 71 68 72 64 73 65 74 67 75 69 76 66 77
REMARK SMILES IDX 50 78 51 79 56 80 52 81 53 82 55 83 57 84 54 85
REMARK H PARENT 20 6 4 22 24 28 74 47 48 58
REMARK Flexibility Score: inf
ROOT
ATOM      1  C   UNL A   1      33.040  28.259  27.071  1.00  0.00     0.042 C 
ENDROOT
BRANCH   1   2
ATOM      2  C   UNL A   1      33.207  26.997  26.225  1.00  0.00     0.118 C 
BRANCH   2   3
ATOM      3  N   UNL A   1      32.228  25.947  26.396  1.00  0.00    -0.352 N 
ATOM      4  C   UNL A   1      31.780  25.038  25.468  1.00  0.00     0.253 C 
ATOM      5  O   UNL A   1      31.011  24.154  25.848  1.00  0.00    -0.269 OA
ATOM      6  H   UNL A   1      31.831  25.876  27.293  1.00  0.00     0.163 HD
BRANCH   4   7
ATOM      7  C   UNL A   1      32.104  25.126  24.017  1.00  0.00     0.063 A 
ATOM      8  C   UNL A   1      33.147  24.427  23.359  1.00  0.00     0.052 A 
ATOM      9  C   UNL A   1      33.253  24.594  21.965  1.00  0.00     0.047 A 
ATOM     10  C   UNL A   1      32.370  25.410  21.253  1.00  0.00     0.043 A 
ATOM     11  C   UNL A   1      31.204  25.925  23.282  1.00  0.00     0.017 A 
ATOM     12  Cl  UNL A   1      32.547  25.578  19.549  1.00  0.00    -0.084 Cl
ATOM     13  C   UNL A   1      31.341  26.074  21.905  1.00  0.00     0.021 A 
BRANCH   8  14
ATOM     14  N   UNL A   1      34.008  23.557  24.017  1.00  0.00    -0.357 N 
ATOM     15  C   UNL A   1      32.683  21.457  23.546  1.00  0.00     0.037 C 
ATOM     16  C   UNL A   1      33.630  22.192  24.506  1.00  0.00     0.134 C 
ATOM     17  C   UNL A   1      34.918  21.298  24.694  1.00  0.00     0.287 C 
ATOM     18  N   UNL A   1      35.984  21.979  25.437  1.00  0.00    -0.329 N 
ATOM     19  C   UNL A   1      35.089  24.207  24.804  1.00  0.00     0.182 C 
ATOM     20  C   UNL A   1      37.263  21.275  25.484  1.00  0.00     0.262 C 
ATOM     21  C   UNL A   1      36.299  23.273  24.806  1.00  0.00     0.203 C 
ATOM     22  H   UNL A   1      35.603  22.051  26.381  1.00  0.00     0.348 HD
ATOM     23  C   UNL A   1      38.280  22.393  25.751  1.00  0.00     0.068 C 
ATOM     24  C   UNL A   1      37.495  23.700  25.629  1.00  0.00     0.073 C 
ENDBRANCH   8  14
ENDBRANCH   4   7
ENDBRANCH   2   3
ENDBRANCH   1   2
BRANCH   1  25
ATOM     25  C   UNL A   1      34.076  29.364  26.899  1.00  0.00     0.118 C 
BRANCH  25  26
ATOM     26  N   UNL A   1      34.222  30.305  27.997  1.00  0.00    -0.352 N 
ATOM     27  C   UNL A   1      35.300  30.737  28.730  1.00  0.00     0.251 C 
ATOM     28  H   UNL A   1      33.372  30.717  28.273  1.00  0.00     0.163 HD
ATOM     29  O   UNL A   1      35.157  31.706  29.473  1.00  0.00    -0.269 OA
BRANCH  27  30
ATOM     30  C   UNL A   1      36.619  30.065  28.723  1.00  0.00     0.039 A 
ATOM     31  C   UNL A   1      37.053  29.463  29.918  1.00  0.00     0.014 A 
ATOM     32  C   UNL A   1      37.480  30.097  27.631  1.00  0.00     0.014 A 
ATOM     33  C   UNL A   1      38.317  28.873  30.006  1.00  0.00     0.010 A 
ATOM     34  C   UNL A   1      38.707  29.445  27.692  1.00  0.00     0.010 A 
ATOM     35  C   UNL A   1      39.149  28.850  28.884  1.00  0.00    -0.014 A 
BRANCH  35  36
ATOM     36  C   UNL A   1      40.535  28.324  28.908  1.00  0.00     0.031 A 
ATOM     37  C   UNL A   1      41.661  29.304  29.089  1.00  0.00     0.074 A 
ATOM     38  C   UNL A   1      40.785  27.036  28.617  1.00  0.00     0.049 A 
ATOM     39  N   UNL A   1      42.924  29.190  28.777  1.00  0.00    -0.248 NA
ATOM     40  C   UNL A   1      41.290  30.618  29.641  1.00  0.00     0.031 C 
ATOM     41  C   UNL A   1      39.776  25.995  28.426  1.00  0.00     0.029 A 
ATOM     42  N   UNL A   1      41.976  26.398  28.380  1.00  0.00    -0.354 N 
ATOM     43  C   UNL A   1      43.485  30.435  29.032  1.00  0.00     0.074 A 
ATOM     44  C   UNL A   1      42.419  31.295  29.501  1.00  0.00     0.031 C 
ATOM     45  C   UNL A   1      40.388  24.852  28.075  1.00  0.00     0.029 A 
ATOM     46  C   UNL A   1      41.822  25.098  27.963  1.00  0.00     0.049 A 
ATOM     47  H   UNL A   1      42.853  26.830  28.496  1.00  0.00     0.167 HD
ATOM     48  C   UNL A   1      44.775  30.821  28.891  1.00  0.00     0.037 A 
ATOM     49  C   UNL A   1      42.735  24.223  27.501  1.00  0.00     0.037 A 
ATOM     50  C   UNL A   1      45.829  29.932  28.476  1.00  0.00     0.049 A 
ATOM     51  C   UNL A   1      44.171  24.658  27.390  1.00  0.00     0.074 A 
ATOM     52  C   UNL A   1      47.180  30.193  28.340  1.00  0.00     0.029 A 
ATOM     53  N   UNL A   1      45.643  28.595  28.153  1.00  0.00    -0.354 N 
ATOM     54  N   UNL A   1      44.696  25.838  27.618  1.00  0.00    -0.248 NA
ATOM     55  C   UNL A   1      45.140  23.642  26.958  1.00  0.00     0.031 C 
ATOM     56  C   UNL A   1      47.809  29.017  27.915  1.00  0.00     0.029 A 
ATOM     57  C   UNL A   1      46.855  28.016  27.824  1.00  0.00     0.049 A 
ATOM     58  H   UNL A   1      44.776  28.128  28.157  1.00  0.00     0.167 HD
ATOM     59  C   UNL A   1      46.058  25.701  27.382  1.00  0.00     0.074 A 
ATOM     60  C   UNL A   1      46.278  24.320  27.005  1.00  0.00     0.031 C 
ATOM     61  C   UNL A   1      47.040  26.632  27.467  1.00  0.00     0.037 A 
BRANCH  48  62
ATOM     62  C   UNL A   1      45.107  32.257  29.180  1.00  0.00     0.057 A 
ATOM     63  C   UNL A   1      45.530  32.680  30.447  1.00  0.00     0.134 A 
ATOM     64  C   UNL A   1      45.008  33.231  28.178  1.00  0.00     0.134 A 
ATOM     65  F   UNL A   1      45.632  31.803  31.458  1.00  0.00    -0.206 F 
ATOM     66  C   UNL A   1      45.807  34.022  30.717  1.00  0.00     0.040 A 
ATOM     67  C   UNL A   1      45.311  34.571  28.427  1.00  0.00     0.040 A 
ATOM     68  F   UNL A   1      44.613  32.898  26.940  1.00  0.00    -0.206 F 
ATOM     69  C   UNL A   1      45.702  34.972  29.703  1.00  0.00     0.006 A 
ENDBRANCH  48  62
BRANCH  49  70
ATOM     70  C   UNL A   1      42.317  22.854  27.109  1.00  0.00     0.057 A 
ATOM     71  C   UNL A   1      42.302  22.465  25.764  1.00  0.00     0.134 A 
ATOM     72  C   UNL A   1      41.937  21.898  28.059  1.00  0.00     0.134 A 
ATOM     73  F   UNL A   1      42.638  23.342  24.806  1.00  0.00    -0.206 F 
ATOM     74  C   UNL A   1      41.909  21.184  25.376  1.00  0.00     0.040 A 
ATOM     75  C   UNL A   1      41.565  20.605  27.687  1.00  0.00     0.040 A 
ATOM     76  F   UNL A   1      41.940  22.203  29.365  1.00  0.00    -0.206 F 
ATOM     77  C   UNL A   1      41.546  20.246  26.340  1.00  0.00     0.006 A 
ENDBRANCH  49  70
BRANCH  61  78
ATOM     78  C   UNL A   1      48.440  26.172  27.191  1.00  0.00     0.057 A 
ATOM     79  C   UNL A   1      49.038  26.335  25.937  1.00  0.00     0.134 A 
ATOM     80  C   UNL A   1      49.210  25.597  28.211  1.00  0.00     0.134 A 
ATOM     81  F   UNL A   1      48.347  26.868  24.918  1.00  0.00    -0.206 F 
ATOM     82  C   UNL A   1      50.350  25.925  25.699  1.00  0.00     0.040 A 
ATOM     83  C   UNL A   1      50.529  25.204  27.991  1.00  0.00     0.040 A 
ATOM     84  F   UNL A   1      48.694  25.421  29.437  1.00  0.00    -0.206 F 
ATOM     85  C   UNL A   1      51.102  25.363  26.730  1.00  0.00     0.006 A 
ENDBRANCH  61  78
ENDBRANCH  35  36
ENDBRANCH  27  30
ENDBRANCH  25  26
ENDBRANCH   1  25
TORSDOF 11
ENDMDL
MODEL 2
REMARK VINA RESULT:     -12.4      4.545      9.239
REMARK SMILES C[C@H]1C[N@H+]2CCC[C@@H]2CN1c1cc(Cl)ccc1C(=O)NCCCNC(=O)c1ccc(-c2c3nc(c(-c4c(F)cccc4F)c4ccc([nH]4)c(-c4c(F)cccc4F)c4nc(c(-c5c(F)cccc5F)c5ccc2[nH]5)C=C4)C=C3)cc1
REMARK SMILES IDX 22 1 21 2 20 3 18 4 19 5 17 7 11 8 12 9 13 10 16 11 14 12
REMARK SMILES IDX 15 13 10 14 1 15 2 16 3 17 4 18 9 19 5 20 8 21 6 23 7 24
REMARK SMILES IDX 23 25 24 26 25 27 26 29 27 30 28 31 80 32 29 33 79 34 30 35
REMARK SMILES IDX 31 36 32 37 73 38 33 39 78 40 72 41 74 42 34 43 77 44 71 45
REMARK SMILES IDX 70 46 35 48 61 49 44 50 60 51 45 52 48 53 59 54 75 55 46 56
REMARK SMILES IDX 47 57 58 59 76 60 49 61 36 62 37 63 42 64 38 65 39 66 41 67
REMARK SMILES IDX 43 68 40 69 62 70 63 71 68 72 64 73 65 74 67 75 69 76 66 77
REMARK SMILES IDX 50 78 51 79 56 80 52 81 53 82 55 83 57 84 54 85
REMARK H PARENT 20 6 4 22 24 28 74 47 48 58
REMARK Flexibility Score: inf
ROOT
ATOM      1  C   UNL A   1      36.620  23.513  24.626  1.00  0.00     0.042 C 
ENDROOT
BRANCH   1   2
ATOM      2  C   UNL A   1      35.274  24.222  24.773  1.00  0.00     0.118 C 
BRANCH   2   3
ATOM      3  N   UNL A   1      34.488  24.413  23.575  1.00  0.00    -0.352 N 
ATOM      4  C   UNL A   1      33.121  24.468  23.450  1.00  0.00     0.253 C 
ATOM      5  O   UNL A   1      32.651  24.742  22.344  1.00  0.00    -0.269 OA
ATOM      6  H   UNL A   1      35.000  24.516  22.741  1.00  0.00     0.163 HD
BRANCH   4   7
ATOM      7  C   UNL A   1      32.186  24.125  24.557  1.00  0.00     0.063 A 
ATOM      8  C   UNL A   1      31.628  25.042  25.483  1.00  0.00     0.052 A 
ATOM      9  C   UNL A   1      30.710  24.531  26.420  1.00  0.00     0.047 A 
ATOM     10  C   UNL A   1      30.357  23.179  26.442  1.00  0.00     0.043 A 
ATOM     11  C   UNL A   1      31.800  22.768  24.573  1.00  0.00     0.017 A 
ATOM     12  Cl  UNL A   1      29.230  22.609  27.611  1.00  0.00    -0.084 Cl
ATOM     13  C   UNL A   1      30.894  22.294  25.518  1.00  0.00     0.021 A 
BRANCH   8  14
ATOM     14  N   UNL A   1      31.903  26.404  25.458  1.00  0.00    -0.357 N 
ATOM     15  C   UNL A   1      30.010  27.033  23.905  1.00  0.00     0.037 C 
ATOM     16  C   UNL A   1      31.432  27.348  24.395  1.00  0.00     0.134 C 
ATOM     17  C   UNL A   1      31.440  28.832  24.934  1.00  0.00     0.287 C 
ATOM     18  N   UNL A   1      32.693  29.190  25.608  1.00  0.00    -0.329 N 
ATOM     19  C   UNL A   1      33.177  26.807  26.108  1.00  0.00     0.182 C 
ATOM     20  C   UNL A   1      32.692  30.484  26.287  1.00  0.00     0.262 C 
ATOM     21  C   UNL A   1      32.995  28.217  26.672  1.00  0.00     0.203 C 
ATOM     22  H   UNL A   1      33.372  29.209  24.846  1.00  0.00     0.348 HD
ATOM     23  C   UNL A   1      33.797  30.338  27.342  1.00  0.00     0.068 C 
ATOM     24  C   UNL A   1      34.206  28.865  27.306  1.00  0.00     0.073 C 
ENDBRANCH   8  14
ENDBRANCH   4   7
ENDBRANCH   2   3
ENDBRANCH   1   2
BRANCH   1  25
ATOM     25  C   UNL A   1      37.351  23.119  25.905  1.00  0.00     0.118 C 
BRANCH  25  26
ATOM     26  N   UNL A   1      38.769  22.823  25.787  1.00  0.00    -0.352 N 
ATOM     27  C   UNL A   1      39.894  23.361  26.360  1.00  0.00     0.251 C 
ATOM     28  H   UNL A   1      38.962  22.083  25.167  1.00  0.00     0.163 HD
ATOM     29  O   UNL A   1      40.963  22.767  26.229  1.00  0.00    -0.269 OA
BRANCH  27  30
ATOM     30  C   UNL A   1      39.910  24.654  27.080  1.00  0.00     0.039 A 
ATOM     31  C   UNL A   1      40.624  25.718  26.499  1.00  0.00     0.014 A 
ATOM     32  C   UNL A   1      39.346  24.827  28.339  1.00  0.00     0.014 A 
ATOM     33  C   UNL A   1      40.743  26.946  27.157  1.00  0.00     0.010 A 
ATOM     34  C   UNL A   1      39.397  26.070  28.961  1.00  0.00     0.010 A 
ATOM     35  C   UNL A   1      40.116  27.132  28.391  1.00  0.00    -0.014 A 
BRANCH  35  36
ATOM     36  C   UNL A   1      40.257  28.368  29.198  1.00  0.00     0.031 A 
ATOM     37  C   UNL A   1      41.332  28.409  30.248  1.00  0.00     0.074 A 
ATOM     38  C   UNL A   1      39.352  29.357  29.103  1.00  0.00     0.049 A 
ATOM     39  N   UNL A   1      41.434  29.163  31.309  1.00  0.00    -0.248 NA
ATOM     40  C   UNL A   1      42.408  27.411  30.109  1.00  0.00     0.031 C 
ATOM     41  C   UNL A   1      38.269  29.429  28.123  1.00  0.00     0.029 A 
ATOM     42  N   UNL A   1      39.173  30.470  29.886  1.00  0.00    -0.354 N 
ATOM     43  C   UNL A   1      42.544  28.691  31.998  1.00  0.00     0.074 A 
ATOM     44  C   UNL A   1      43.066  27.569  31.247  1.00  0.00     0.031 C 
ATOM     45  C   UNL A   1      37.521  30.515  28.377  1.00  0.00     0.029 A 
ATOM     46  C   UNL A   1      38.039  31.179  29.569  1.00  0.00     0.049 A 
ATOM     47  H   UNL A   1      39.793  30.733  30.603  1.00  0.00     0.167 HD
ATOM     48  C   UNL A   1      43.079  29.156  33.151  1.00  0.00     0.037 A 
ATOM     49  C   UNL A   1      37.464  32.220  30.200  1.00  0.00     0.037 A 
ATOM     50  C   UNL A   1      42.576  30.308  33.852  1.00  0.00     0.049 A 
ATOM     51  C   UNL A   1      38.096  32.749  31.459  1.00  0.00     0.074 A 
ATOM     52  C   UNL A   1      43.058  30.902  35.003  1.00  0.00     0.029 A 
ATOM     53  N   UNL A   1      41.479  31.054  33.444  1.00  0.00    -0.354 N 
ATOM     54  N   UNL A   1      39.136  32.292  32.115  1.00  0.00    -0.248 NA
ATOM     55  C   UNL A   1      37.477  33.935  32.064  1.00  0.00     0.031 C 
ATOM     56  C   UNL A   1      42.241  31.998  35.303  1.00  0.00     0.029 A 
ATOM     57  C   UNL A   1      41.273  32.108  34.316  1.00  0.00     0.049 A 
ATOM     58  H   UNL A   1      40.928  30.862  32.650  1.00  0.00     0.167 HD
ATOM     59  C   UNL A   1      39.312  33.148  33.195  1.00  0.00     0.074 A 
ATOM     60  C   UNL A   1      38.277  34.157  33.097  1.00  0.00     0.031 C 
ATOM     61  C   UNL A   1      40.242  33.105  34.181  1.00  0.00     0.037 A 
BRANCH  48  62
ATOM     62  C   UNL A   1      44.256  28.416  33.720  1.00  0.00     0.057 A 
ATOM     63  C   UNL A   1      45.575  28.761  33.399  1.00  0.00     0.134 A 
ATOM     64  C   UNL A   1      44.070  27.346  34.606  1.00  0.00     0.134 A 
ATOM     65  F   UNL A   1      45.826  29.765  32.546  1.00  0.00    -0.206 F 
ATOM     66  C   UNL A   1      46.663  28.049  33.908  1.00  0.00     0.040 A 
ATOM     67  C   UNL A   1      45.150  26.645  35.145  1.00  0.00     0.040 A 
ATOM     68  F   UNL A   1      42.834  26.962  34.962  1.00  0.00    -0.206 F 
ATOM     69  C   UNL A   1      46.452  26.990  34.788  1.00  0.00     0.006 A 
ENDBRANCH  48  62
BRANCH  49  70
ATOM     70  C   UNL A   1      36.224  32.825  29.653  1.00  0.00     0.057 A 
ATOM     71  C   UNL A   1      36.262  33.627  28.506  1.00  0.00     0.134 A 
ATOM     72  C   UNL A   1      34.974  32.611  30.247  1.00  0.00     0.134 A 
ATOM     73  F   UNL A   1      37.432  33.884  27.904  1.00  0.00    -0.206 F 
ATOM     74  C   UNL A   1      35.107  34.206  27.979  1.00  0.00     0.040 A 
ATOM     75  C   UNL A   1      33.807  33.164  29.717  1.00  0.00     0.040 A 
ATOM     76  F   UNL A   1      34.868  31.844  31.343  1.00  0.00    -0.206 F 
ATOM     77  C   UNL A   1      33.874  33.970  28.581  1.00  0.00     0.006 A 
ENDBRANCH  49  70
BRANCH  61  78
ATOM     78  C   UNL A   1      40.206  34.204  35.198  1.00  0.00     0.057 A 
ATOM     79  C   UNL A   1      39.519  34.068  36.410  1.00  0.00     0.134 A 
ATOM     80  C   UNL A   1      40.907  35.397  34.977  1.00  0.00     0.134 A 
ATOM     81  F   UNL A   1      38.819  32.954  36.673  1.00  0.00    -0.206 F 
ATOM     82  C   UNL A   1      39.513  35.089  37.360  1.00  0.00     0.040 A 
ATOM     83  C   UNL A   1      40.927  36.415  35.929  1.00  0.00     0.040 A 
ATOM     84  F   UNL A   1      41.591  35.584  33.838  1.00  0.00    -0.206 F 
ATOM     85  C   UNL A   1      40.225  36.265  37.124  1.00  0.00     0.006 A 
ENDBRANCH  61  78
ENDBRANCH  35  36
ENDBRANCH  27  30
ENDBRANCH  25  26
ENDBRANCH   1  25
TORSDOF 11
ENDMDL
MODEL 3
REMARK VINA RESULT:     -12.3      4.568      9.248
REMARK SMILES C[C@H]1C[N@H+]2CCC[C@@H]2CN1c1cc(Cl)ccc1C(=O)NCCCNC(=O)c1ccc(-c2c3nc(c(-c4c(F)cccc4F)c4ccc([nH]4)c(-c4c(F)cccc4F)c4nc(c(-c5c(F)cccc5F)c5ccc2[nH]5)C=C4)C=C3)cc1
REMARK SMILES IDX 22 1 21 2 20 3 18 4 19 5 17 7 11 8 12 9 13 10 16 11 14 12
REMARK SMILES IDX 15 13 10 14 1 15 2 16 3 17 4 18 9 19 5 20 8 21 6 23 7 24
REMARK SMILES IDX 23 25 24 26 25 27 26 29 27 30 28 31 80 32 29 33 79 34 30 35
REMARK SMILES IDX 31 36 32 37 73 38 33 39 78 40 72 41 74 42 34 43 77 44 71 45
REMARK SMILES IDX 70 46 35 48 61 49 44 50 60 51 45 52 48 53 59 54 75 55 46 56
REMARK SMILES IDX 47 57 58 59 76 60 49 61 36 62 37 63 42 64 38 65 39 66 41 67
REMARK SMILES IDX 43 68 40 69 62 70 63 71 68 72 64 73 65 74 67 75 69 76 66 77
REMARK SMILES IDX 50 78 51 79 56 80 52 81 53 82 55 83 57 84 54 85
REMARK H PARENT 20 6 4 22 24 28 74 47 48 58
REMARK Flexibility Score: inf
ROOT
ATOM      1  C   UNL A   1      36.484  23.179  24.708  1.00  0.00     0.042 C 
ENDROOT
BRANCH   1   2
ATOM      2  C   UNL A   1      35.287  24.126  24.795  1.00  0.00     0.118 C 
BRANCH   2   3
ATOM      3  N   UNL A   1      34.508  24.325  23.596  1.00  0.00    -0.352 N 
ATOM      4  C   UNL A   1      33.141  24.397  23.467  1.00  0.00     0.253 C 
ATOM      5  O   UNL A   1      32.677  24.676  22.360  1.00  0.00    -0.269 OA
ATOM      6  H   UNL A   1      35.023  24.422  22.763  1.00  0.00     0.163 HD
BRANCH   4   7
ATOM      7  C   UNL A   1      32.200  24.065  24.571  1.00  0.00     0.063 A 
ATOM      8  C   UNL A   1      31.626  24.993  25.476  1.00  0.00     0.052 A 
ATOM      9  C   UNL A   1      30.704  24.491  26.414  1.00  0.00     0.047 A 
ATOM     10  C   UNL A   1      30.362  23.137  26.457  1.00  0.00     0.043 A 
ATOM     11  C   UNL A   1      31.825  22.706  24.608  1.00  0.00     0.017 A 
ATOM     12  Cl  UNL A   1      29.229  22.578  27.626  1.00  0.00    -0.084 Cl
ATOM     13  C   UNL A   1      30.914  22.241  25.553  1.00  0.00     0.021 A 
BRANCH   8  14
ATOM     14  N   UNL A   1      31.889  26.357  25.429  1.00  0.00    -0.357 N 
ATOM     15  C   UNL A   1      29.984  26.948  23.877  1.00  0.00     0.037 C 
ATOM     16  C   UNL A   1      31.405  27.282  24.355  1.00  0.00     0.134 C 
ATOM     17  C   UNL A   1      31.403  28.774  24.871  1.00  0.00     0.287 C 
ATOM     18  N   UNL A   1      32.657  29.151  25.533  1.00  0.00    -0.329 N 
ATOM     19  C   UNL A   1      33.163  26.781  26.067  1.00  0.00     0.182 C 
ATOM     20  C   UNL A   1      32.649  30.455  26.192  1.00  0.00     0.262 C 
ATOM     21  C   UNL A   1      32.973  28.197  26.611  1.00  0.00     0.203 C 
ATOM     22  H   UNL A   1      33.332  29.165  24.768  1.00  0.00     0.348 HD
ATOM     23  C   UNL A   1      33.761  30.334  27.244  1.00  0.00     0.068 C 
ATOM     24  C   UNL A   1      34.182  28.864  27.228  1.00  0.00     0.073 C 
ENDBRANCH   8  14
ENDBRANCH   4   7
ENDBRANCH   2   3
ENDBRANCH   1   2
BRANCH   1  25
ATOM     25  C   UNL A   1      37.315  22.977  25.970  1.00  0.00     0.118 C 
BRANCH  25  26
ATOM     26  N   UNL A   1      38.732  22.709  25.788  1.00  0.00    -0.352 N 
ATOM     27  C   UNL A   1      39.871  23.266  26.315  1.00  0.00     0.251 C 
ATOM     28  H   UNL A   1      38.913  21.977  25.155  1.00  0.00     0.163 HD
ATOM     29  O   UNL A   1      40.945  22.694  26.134  1.00  0.00    -0.269 OA
BRANCH  27  30
ATOM     30  C   UNL A   1      39.893  24.554  27.044  1.00  0.00     0.039 A 
ATOM     31  C   UNL A   1      40.650  25.604  26.494  1.00  0.00     0.014 A 
ATOM     32  C   UNL A   1      39.292  24.733  28.285  1.00  0.00     0.014 A 
ATOM     33  C   UNL A   1      40.776  26.825  27.163  1.00  0.00     0.010 A 
ATOM     34  C   UNL A   1      39.351  25.971  28.916  1.00  0.00     0.010 A 
ATOM     35  C   UNL A   1      40.113  27.019  28.377  1.00  0.00    -0.014 A 
BRANCH  35  36
ATOM     36  C   UNL A   1      40.256  28.246  29.197  1.00  0.00     0.031 A 
ATOM     37  C   UNL A   1      41.318  28.267  30.261  1.00  0.00     0.074 A 
ATOM     38  C   UNL A   1      39.362  29.245  29.098  1.00  0.00     0.049 A 
ATOM     39  N   UNL A   1      41.412  29.012  31.330  1.00  0.00    -0.248 NA
ATOM     40  C   UNL A   1      42.384  27.260  30.128  1.00  0.00     0.031 C 
ATOM     41  C   UNL A   1      38.293  29.337  28.104  1.00  0.00     0.029 A 
ATOM     42  N   UNL A   1      39.184  30.353  29.887  1.00  0.00    -0.354 N 
ATOM     43  C   UNL A   1      42.509  28.522  32.030  1.00  0.00     0.074 A 
ATOM     44  C   UNL A   1      43.029  27.401  31.275  1.00  0.00     0.031 C 
ATOM     45  C   UNL A   1      37.553  30.428  28.358  1.00  0.00     0.029 A 
ATOM     46  C   UNL A   1      38.062  31.077  29.562  1.00  0.00     0.049 A 
ATOM     47  H   UNL A   1      39.798  30.604  30.615  1.00  0.00     0.167 HD
ATOM     48  C   UNL A   1      43.033  28.972  33.193  1.00  0.00     0.037 A 
ATOM     49  C   UNL A   1      37.489  32.119  30.194  1.00  0.00     0.037 A 
ATOM     50  C   UNL A   1      42.532  30.124  33.897  1.00  0.00     0.049 A 
ATOM     51  C   UNL A   1      38.110  32.630  31.465  1.00  0.00     0.074 A 
ATOM     52  C   UNL A   1      43.005  30.703  35.060  1.00  0.00     0.029 A 
ATOM     53  N   UNL A   1      41.448  30.885  33.480  1.00  0.00    -0.354 N 
ATOM     54  N   UNL A   1      39.136  32.157  32.131  1.00  0.00    -0.248 NA
ATOM     55  C   UNL A   1      37.495  33.817  32.072  1.00  0.00     0.031 C 
ATOM     56  C   UNL A   1      42.195  31.805  35.357  1.00  0.00     0.029 A 
ATOM     57  C   UNL A   1      41.241  31.933  34.359  1.00  0.00     0.049 A 
ATOM     58  H   UNL A   1      40.906  30.704  32.678  1.00  0.00     0.167 HD
ATOM     59  C   UNL A   1      39.306  33.002  33.221  1.00  0.00     0.074 A 
ATOM     60  C   UNL A   1      38.283  34.023  33.118  1.00  0.00     0.031 C 
ATOM     61  C   UNL A   1      40.223  32.941  34.218  1.00  0.00     0.037 A 
BRANCH  48  62
ATOM     62  C   UNL A   1      44.194  28.215  33.772  1.00  0.00     0.057 A 
ATOM     63  C   UNL A   1      45.522  28.562  33.486  1.00  0.00     0.134 A 
ATOM     64  C   UNL A   1      43.985  27.128  34.630  1.00  0.00     0.134 A 
ATOM     65  F   UNL A   1      45.795  29.583  32.660  1.00  0.00    -0.206 F 
ATOM     66  C   UNL A   1      46.596  27.834  34.003  1.00  0.00     0.040 A 
ATOM     67  C   UNL A   1      45.051  26.411  35.177  1.00  0.00     0.040 A 
ATOM     68  F   UNL A   1      42.741  26.742  34.952  1.00  0.00    -0.206 F 
ATOM     69  C   UNL A   1      46.362  26.758  34.855  1.00  0.00     0.006 A 
ENDBRANCH  48  62
BRANCH  49  70
ATOM     70  C   UNL A   1      36.263  32.741  29.636  1.00  0.00     0.057 A 
ATOM     71  C   UNL A   1      35.014  32.526  30.231  1.00  0.00     0.134 A 
ATOM     72  C   UNL A   1      36.305  33.573  28.511  1.00  0.00     0.134 A 
ATOM     73  F   UNL A   1      34.907  31.725  31.300  1.00  0.00    -0.206 F 
ATOM     74  C   UNL A   1      33.850  33.101  29.719  1.00  0.00     0.040 A 
ATOM     75  C   UNL A   1      35.152  34.174  28.001  1.00  0.00     0.040 A 
ATOM     76  F   UNL A   1      37.471  33.828  27.900  1.00  0.00    -0.206 F 
ATOM     77  C   UNL A   1      33.918  33.934  28.605  1.00  0.00     0.006 A 
ENDBRANCH  49  70
BRANCH  61  78
ATOM     78  C   UNL A   1      40.184  34.032  35.245  1.00  0.00     0.057 A 
ATOM     79  C   UNL A   1      40.847  35.250  35.054  1.00  0.00     0.134 A 
ATOM     80  C   UNL A   1      39.438  33.873  36.420  1.00  0.00     0.134 A 
ATOM     81  F   UNL A   1      41.587  35.457  33.955  1.00  0.00    -0.206 F 
ATOM     82  C   UNL A   1      40.784  36.269  36.006  1.00  0.00     0.040 A 
ATOM     83  C   UNL A   1      39.349  34.892  37.368  1.00  0.00     0.040 A 
ATOM     84  F   UNL A   1      38.775  32.732  36.656  1.00  0.00    -0.206 F 
ATOM     85  C   UNL A   1      40.027  36.093  37.165  1.00  0.00     0.006 A 
ENDBRANCH  61  78
ENDBRANCH  35  36
ENDBRANCH  27  30
ENDBRANCH  25  26
ENDBRANCH   1  25
TORSDOF 11
ENDMDL
