MODEL 1
REMARK VINA RESULT:     -11.7      0.000      0.000
REMARK SMILES C[NH2+][C@]1(C(=O)NCCCNC(=O)c2ccc(-c3c4nc(c(-c5c(F)cccc5F)c5ccc([nH]5)c(-c5c(F)cccc5F)c5nc(c(-c6c(F)cccc6F)c6ccc3[nH]6)C=C5)C=C4)cc2)CCC[C@H]1CC[NH+]1C[C@@H](C)O[C@H](C)C1
REMARK SMILES IDX 7 1 6 2 4 3 5 4 3 6 67 7 70 8 68 9 69 10 2 11 1 12 71 15
REMARK SMILES IDX 72 16 73 17 74 18 80 19 75 21 78 22 76 23 77 24 79 25 8 26
REMARK SMILES IDX 9 27 10 28 11 29 12 31 13 32 14 33 66 34 15 35 65 36 16 37
REMARK SMILES IDX 17 38 18 39 59 40 19 41 64 42 58 43 60 44 20 45 63 46 57 47
REMARK SMILES IDX 56 48 21 50 47 51 30 52 46 53 31 54 34 55 45 56 61 57 32 58
REMARK SMILES IDX 33 59 44 61 62 62 35 63 22 64 23 65 28 66 24 67 25 68 27 69
REMARK SMILES IDX 29 70 26 71 48 72 49 73 54 74 50 75 51 76 53 77 55 78 52 79
REMARK SMILES IDX 36 80 37 81 42 82 38 83 39 84 41 85 43 86 40 87
REMARK H PARENT 6 5 2 13 2 14 73 20 10 30 60 49 34 60
REMARK Flexibility Score: inf
ROOT
ATOM      1  C   UNL A   1      31.943  30.251  26.444  1.00  0.00     0.118 C 
ENDROOT
BRANCH   1   2
ATOM      2  N   UNL A   1      32.750  30.078  25.253  1.00  0.00    -0.351 N 
ATOM      3  C   UNL A   1      33.011  29.016  24.450  1.00  0.00     0.281 C 
ATOM      4  O   UNL A   1      33.777  29.254  23.504  1.00  0.00    -0.268 OA
ATOM      5  H   UNL A   1      33.205  30.903  24.968  1.00  0.00     0.163 HD
BRANCH   3   6
ATOM      6  C   UNL A   1      32.363  27.606  24.613  1.00  0.00     0.178 C 
ATOM      7  C   UNL A   1      32.075  27.157  26.057  1.00  0.00     0.079 C 
ATOM      8  C   UNL A   1      30.996  27.432  23.871  1.00  0.00     0.066 C 
ATOM      9  C   UNL A   1      31.085  26.014  25.927  1.00  0.00     0.008 C 
ATOM     10  C   UNL A   1      30.298  26.280  24.648  1.00  0.00     0.011 C 
BRANCH   6  11
ATOM     11  N   UNL A   1      33.261  26.603  23.929  1.00  0.00    -0.336 N 
ATOM     12  C   UNL A   1      32.983  26.357  22.520  1.00  0.00     0.331 C 
ATOM     13  H   UNL A   1      34.221  26.939  24.005  1.00  0.00     0.346 HD
ATOM     14  H   UNL A   1      33.094  25.714  24.404  1.00  0.00     0.346 HD
ENDBRANCH   6  11
BRANCH   8  15
ATOM     15  C   UNL A   1      30.005  28.602  23.757  1.00  0.00     0.072 C 
BRANCH  15  16
ATOM     16  C   UNL A   1      29.599  29.109  22.358  1.00  0.00     0.262 C 
BRANCH  16  17
ATOM     17  N   UNL A   1      28.194  29.477  22.141  1.00  0.00    -0.331 N 
ATOM     18  C   UNL A   1      27.484  30.127  23.256  1.00  0.00     0.294 C 
ATOM     19  C   UNL A   1      28.026  30.340  20.940  1.00  0.00     0.294 C 
ATOM     20  H   UNL A   1      27.762  28.561  22.023  1.00  0.00     0.348 HD
ATOM     21  C   UNL A   1      27.799  31.622  23.501  1.00  0.00     0.170 C 
ATOM     22  C   UNL A   1      28.388  31.829  21.187  1.00  0.00     0.170 C 
ATOM     23  C   UNL A   1      29.138  31.953  24.155  1.00  0.00     0.045 C 
ATOM     24  O   UNL A   1      27.653  32.381  22.291  1.00  0.00    -0.364 OA
ATOM     25  C   UNL A   1      28.060  32.703  19.982  1.00  0.00     0.045 C 
ENDBRANCH  16  17
ENDBRANCH  15  16
ENDBRANCH   8  15
ENDBRANCH   3   6
ENDBRANCH   1   2
BRANCH   1  26
ATOM     26  C   UNL A   1      31.635  31.708  26.705  1.00  0.00     0.042 C 
BRANCH  26  27
ATOM     27  C   UNL A   1      32.844  32.440  27.251  1.00  0.00     0.118 C 
BRANCH  27  28
ATOM     28  N   UNL A   1      32.551  33.845  27.522  1.00  0.00    -0.352 N 
ATOM     29  C   UNL A   1      33.049  34.654  28.513  1.00  0.00     0.251 C 
ATOM     30  H   UNL A   1      31.908  34.271  26.910  1.00  0.00     0.163 HD
ATOM     31  O   UNL A   1      32.528  35.740  28.751  1.00  0.00    -0.269 OA
BRANCH  29  32
ATOM     32  C   UNL A   1      34.205  34.187  29.297  1.00  0.00     0.039 A 
ATOM     33  C   UNL A   1      33.994  33.427  30.447  1.00  0.00     0.014 A 
ATOM     34  C   UNL A   1      35.501  34.465  28.855  1.00  0.00     0.014 A 
ATOM     35  C   UNL A   1      35.091  32.885  31.115  1.00  0.00     0.010 A 
ATOM     36  C   UNL A   1      36.577  33.825  29.447  1.00  0.00     0.010 A 
ATOM     37  C   UNL A   1      36.386  33.046  30.595  1.00  0.00    -0.014 A 
BRANCH  37  38
ATOM     38  C   UNL A   1      37.565  32.433  31.248  1.00  0.00     0.031 A 
ATOM     39  C   UNL A   1      38.256  31.269  30.595  1.00  0.00     0.074 A 
ATOM     40  C   UNL A   1      37.967  32.878  32.455  1.00  0.00     0.049 A 
ATOM     41  N   UNL A   1      39.256  30.548  31.033  1.00  0.00    -0.248 NA
ATOM     42  C   UNL A   1      37.729  30.830  29.291  1.00  0.00     0.031 C 
ATOM     43  C   UNL A   1      37.337  33.963  33.212  1.00  0.00     0.029 A 
ATOM     44  N   UNL A   1      38.997  32.466  33.260  1.00  0.00    -0.354 N 
ATOM     45  C   UNL A   1      39.464  29.569  30.069  1.00  0.00     0.074 A 
ATOM     46  C   UNL A   1      38.442  29.739  29.061  1.00  0.00     0.031 C 
ATOM     47  C   UNL A   1      38.016  34.153  34.354  1.00  0.00     0.029 A 
ATOM     48  C   UNL A   1      39.098  33.177  34.431  1.00  0.00     0.049 A 
ATOM     49  H   UNL A   1      39.606  31.731  33.020  1.00  0.00     0.167 HD
ATOM     50  C   UNL A   1      40.437  28.631  30.015  1.00  0.00     0.037 A 
ATOM     51  C   UNL A   1      39.966  33.050  35.452  1.00  0.00     0.037 A 
ATOM     52  C   UNL A   1      41.465  28.485  31.010  1.00  0.00     0.049 A 
ATOM     53  C   UNL A   1      41.034  31.994  35.372  1.00  0.00     0.074 A 
ATOM     54  C   UNL A   1      42.536  27.611  31.021  1.00  0.00     0.029 A 
ATOM     55  N   UNL A   1      41.543  29.234  32.176  1.00  0.00    -0.354 N 
ATOM     56  N   UNL A   1      41.268  31.124  34.419  1.00  0.00    -0.248 NA
ATOM     57  C   UNL A   1      41.962  31.905  36.507  1.00  0.00     0.031 C 
ATOM     58  C   UNL A   1      43.231  27.792  32.220  1.00  0.00     0.029 A 
ATOM     59  C   UNL A   1      42.630  28.821  32.928  1.00  0.00     0.049 A 
ATOM     60  H   UNL A   1      40.919  29.951  32.430  1.00  0.00     0.167 HD
ATOM     61  C   UNL A   1      42.385  30.405  34.824  1.00  0.00     0.074 A 
ATOM     62  C   UNL A   1      42.790  30.954  36.102  1.00  0.00     0.031 C 
ATOM     63  C   UNL A   1      43.019  29.384  34.197  1.00  0.00     0.037 A 
BRANCH  50  64
ATOM     64  C   UNL A   1      40.433  27.698  28.837  1.00  0.00     0.057 A 
ATOM     65  C   UNL A   1      39.653  26.533  28.816  1.00  0.00     0.134 A 
ATOM     66  C   UNL A   1      41.204  27.977  27.702  1.00  0.00     0.134 A 
ATOM     67  F   UNL A   1      38.903  26.198  29.877  1.00  0.00    -0.206 F 
ATOM     68  C   UNL A   1      39.664  25.665  27.723  1.00  0.00     0.040 A 
ATOM     69  C   UNL A   1      41.199  27.133  26.590  1.00  0.00     0.040 A 
ATOM     70  F   UNL A   1      41.972  29.076  27.652  1.00  0.00    -0.206 F 
ATOM     71  C   UNL A   1      40.434  25.968  26.602  1.00  0.00     0.006 A 
ENDBRANCH  50  64
BRANCH  51  72
ATOM     72  C   UNL A   1      39.877  33.959  36.623  1.00  0.00     0.057 A 
ATOM     73  C   UNL A   1      39.141  33.603  37.759  1.00  0.00     0.134 A 
ATOM     74  C   UNL A   1      40.519  35.204  36.636  1.00  0.00     0.134 A 
ATOM     75  F   UNL A   1      38.490  32.431  37.803  1.00  0.00    -0.206 F 
ATOM     76  C   UNL A   1      39.026  34.460  38.855  1.00  0.00     0.040 A 
ATOM     77  C   UNL A   1      40.436  36.059  37.736  1.00  0.00     0.040 A 
ATOM     78  F   UNL A   1      41.251  35.599  35.584  1.00  0.00    -0.206 F 
ATOM     79  C   UNL A   1      39.678  35.691  38.846  1.00  0.00     0.006 A 
ENDBRANCH  51  72
BRANCH  63  80
ATOM     80  C   UNL A   1      44.237  28.817  34.867  1.00  0.00     0.057 A 
ATOM     81  C   UNL A   1      45.514  29.350  34.656  1.00  0.00     0.134 A 
ATOM     82  C   UNL A   1      44.120  27.751  35.768  1.00  0.00     0.134 A 
ATOM     83  F   UNL A   1      45.696  30.363  33.796  1.00  0.00    -0.206 F 
ATOM     84  C   UNL A   1      46.637  28.823  35.298  1.00  0.00     0.040 A 
ATOM     85  C   UNL A   1      45.230  27.238  36.438  1.00  0.00     0.040 A 
ATOM     86  F   UNL A   1      42.922  27.202  36.023  1.00  0.00    -0.206 F 
ATOM     87  C   UNL A   1      46.494  27.770  36.198  1.00  0.00     0.006 A 
ENDBRANCH  63  80
ENDBRANCH  37  38
ENDBRANCH  29  32
ENDBRANCH  27  28
ENDBRANCH  26  27
ENDBRANCH   1  26
TORSDOF 14
ENDMDL
MODEL 2
REMARK VINA RESULT:     -11.6      5.005      9.690
REMARK SMILES C[NH2+][C@]1(C(=O)NCCCNC(=O)c2ccc(-c3c4nc(c(-c5c(F)cccc5F)c5ccc([nH]5)c(-c5c(F)cccc5F)c5nc(c(-c6c(F)cccc6F)c6ccc3[nH]6)C=C5)C=C4)cc2)CCC[C@H]1CC[NH+]1C[C@@H](C)O[C@H](C)C1
REMARK SMILES IDX 7 1 6 2 4 3 5 4 3 6 67 7 70 8 68 9 69 10 2 11 1 12 71 15
REMARK SMILES IDX 72 16 73 17 74 18 80 19 75 21 78 22 76 23 77 24 79 25 8 26
REMARK SMILES IDX 9 27 10 28 11 29 12 31 13 32 14 33 66 34 15 35 65 36 16 37
REMARK SMILES IDX 17 38 18 39 59 40 19 41 64 42 58 43 60 44 20 45 63 46 57 47
REMARK SMILES IDX 56 48 21 50 47 51 30 52 46 53 31 54 34 55 45 56 61 57 32 58
REMARK SMILES IDX 33 59 44 61 62 62 35 63 22 64 23 65 28 66 24 67 25 68 27 69
REMARK SMILES IDX 29 70 26 71 48 72 49 73 54 74 50 75 51 76 53 77 55 78 52 79
REMARK SMILES IDX 36 80 37 81 42 82 38 83 39 84 41 85 43 86 40 87
REMARK H PARENT 6 5 2 13 2 14 73 20 10 30 60 49 34 60
REMARK Flexibility Score: inf
ROOT
ATOM      1  C   UNL A   1      36.704  21.381  24.893  1.00  0.00     0.118 C 
ENDROOT
BRANCH   1   2
ATOM      2  N   UNL A   1      35.932  21.492  26.114  1.00  0.00    -0.351 N 
ATOM      3  C   UNL A   1      34.632  21.783  26.372  1.00  0.00     0.281 C 
ATOM      4  O   UNL A   1      34.330  21.795  27.574  1.00  0.00    -0.268 OA
ATOM      5  H   UNL A   1      36.461  21.323  26.927  1.00  0.00     0.163 HD
BRANCH   3   6
ATOM      6  C   UNL A   1      33.545  22.015  25.277  1.00  0.00     0.178 C 
ATOM      7  C   UNL A   1      32.107  22.225  25.784  1.00  0.00     0.079 C 
ATOM      8  C   UNL A   1      33.814  23.246  24.349  1.00  0.00     0.066 C 
ATOM      9  C   UNL A   1      31.362  22.848  24.619  1.00  0.00     0.008 C 
ATOM     10  C   UNL A   1      32.402  23.624  23.818  1.00  0.00     0.011 C 
BRANCH   6  11
ATOM     11  N   UNL A   1      33.591  20.844  24.325  1.00  0.00    -0.336 N 
ATOM     12  C   UNL A   1      33.103  19.576  24.852  1.00  0.00     0.331 C 
ATOM     13  H   UNL A   1      33.027  21.082  23.509  1.00  0.00     0.346 HD
ATOM     14  H   UNL A   1      34.579  20.695  24.117  1.00  0.00     0.346 HD
ENDBRANCH   6  11
BRANCH   8  15
ATOM     15  C   UNL A   1      34.476  24.520  24.898  1.00  0.00     0.072 C 
BRANCH  15  16
ATOM     16  C   UNL A   1      33.584  25.654  25.445  1.00  0.00     0.262 C 
BRANCH  16  17
ATOM     17  N   UNL A   1      33.652  26.963  24.783  1.00  0.00    -0.331 N 
ATOM     18  C   UNL A   1      32.603  27.279  23.798  1.00  0.00     0.294 C 
ATOM     19  C   UNL A   1      33.695  28.079  25.765  1.00  0.00     0.294 C 
ATOM     20  H   UNL A   1      34.521  26.876  24.256  1.00  0.00     0.348 HD
ATOM     21  C   UNL A   1      31.219  27.679  24.363  1.00  0.00     0.170 C 
ATOM     22  C   UNL A   1      32.307  28.442  26.358  1.00  0.00     0.170 C 
ATOM     23  C   UNL A   1      30.352  26.560  24.935  1.00  0.00     0.045 C 
ATOM     24  O   UNL A   1      31.347  28.732  25.330  1.00  0.00    -0.364 OA
ATOM     25  C   UNL A   1      32.370  29.683  27.240  1.00  0.00     0.045 C 
ENDBRANCH  16  17
ENDBRANCH  15  16
ENDBRANCH   8  15
ENDBRANCH   3   6
ENDBRANCH   1   2
BRANCH   1  26
ATOM     26  C   UNL A   1      37.712  20.257  24.968  1.00  0.00     0.042 C 
BRANCH  26  27
ATOM     27  C   UNL A   1      38.940  20.667  25.755  1.00  0.00     0.118 C 
BRANCH  27  28
ATOM     28  N   UNL A   1      39.895  19.568  25.882  1.00  0.00    -0.352 N 
ATOM     29  C   UNL A   1      41.243  19.622  26.127  1.00  0.00     0.251 C 
ATOM     30  H   UNL A   1      39.518  18.664  25.777  1.00  0.00     0.163 HD
ATOM     31  O   UNL A   1      41.946  18.628  25.970  1.00  0.00    -0.269 OA
BRANCH  29  32
ATOM     32  C   UNL A   1      41.836  20.899  26.562  1.00  0.00     0.039 A 
ATOM     33  C   UNL A   1      42.259  21.822  25.606  1.00  0.00     0.014 A 
ATOM     34  C   UNL A   1      41.920  21.195  27.925  1.00  0.00     0.014 A 
ATOM     35  C   UNL A   1      42.704  23.076  26.021  1.00  0.00     0.010 A 
ATOM     36  C   UNL A   1      42.244  22.481  28.326  1.00  0.00     0.010 A 
ATOM     37  C   UNL A   1      42.659  23.428  27.381  1.00  0.00    -0.014 A 
BRANCH  37  38
ATOM     38  C   UNL A   1      43.068  24.773  27.847  1.00  0.00     0.031 A 
ATOM     39  C   UNL A   1      42.020  25.812  28.132  1.00  0.00     0.074 A 
ATOM     40  C   UNL A   1      44.377  25.076  27.945  1.00  0.00     0.049 A 
ATOM     41  N   UNL A   1      42.170  27.064  28.480  1.00  0.00    -0.248 NA
ATOM     42  C   UNL A   1      40.615  25.401  27.968  1.00  0.00     0.031 C 
ATOM     43  C   UNL A   1      45.484  24.166  27.638  1.00  0.00     0.029 A 
ATOM     44  N   UNL A   1      44.998  26.238  28.323  1.00  0.00    -0.354 N 
ATOM     45  C   UNL A   1      40.886  27.587  28.559  1.00  0.00     0.074 A 
ATOM     46  C   UNL A   1      39.973  26.543  28.153  1.00  0.00     0.031 C 
ATOM     47  C   UNL A   1      46.647  24.794  27.874  1.00  0.00     0.029 A 
ATOM     48  C   UNL A   1      46.369  26.161  28.305  1.00  0.00     0.049 A 
ATOM     49  H   UNL A   1      44.507  27.050  28.584  1.00  0.00     0.167 HD
ATOM     50  C   UNL A   1      40.499  28.819  28.965  1.00  0.00     0.037 A 
ATOM     51  C   UNL A   1      47.296  27.092  28.599  1.00  0.00     0.037 A 
ATOM     52  C   UNL A   1      41.413  29.844  29.391  1.00  0.00     0.049 A 
ATOM     53  C   UNL A   1      46.842  28.456  29.039  1.00  0.00     0.074 A 
ATOM     54  C   UNL A   1      41.126  31.105  29.881  1.00  0.00     0.029 A 
ATOM     55  N   UNL A   1      42.795  29.724  29.372  1.00  0.00    -0.354 N 
ATOM     56  N   UNL A   1      45.622  28.915  29.185  1.00  0.00    -0.248 NA
ATOM     57  C   UNL A   1      47.893  29.431  29.358  1.00  0.00     0.031 C 
ATOM     58  C   UNL A   1      42.335  31.768  30.107  1.00  0.00     0.029 A 
ATOM     59  C   UNL A   1      43.376  30.900  29.816  1.00  0.00     0.049 A 
ATOM     60  H   UNL A   1      43.289  28.922  29.087  1.00  0.00     0.167 HD
ATOM     61  C   UNL A   1      45.758  30.220  29.641  1.00  0.00     0.074 A 
ATOM     62  C   UNL A   1      47.179  30.472  29.763  1.00  0.00     0.031 C 
ATOM     63  C   UNL A   1      44.795  31.128  29.934  1.00  0.00     0.037 A 
BRANCH  50  64
ATOM     64  C   UNL A   1      39.027  29.116  28.967  1.00  0.00     0.057 A 
ATOM     65  C   UNL A   1      38.249  29.003  30.128  1.00  0.00     0.134 A 
ATOM     66  C   UNL A   1      38.382  29.540  27.798  1.00  0.00     0.134 A 
ATOM     67  F   UNL A   1      38.799  28.587  31.278  1.00  0.00    -0.206 F 
ATOM     68  C   UNL A   1      36.878  29.270  30.118  1.00  0.00     0.040 A 
ATOM     69  C   UNL A   1      37.019  29.840  27.784  1.00  0.00     0.040 A 
ATOM     70  F   UNL A   1      39.066  29.674  26.652  1.00  0.00    -0.206 F 
ATOM     71  C   UNL A   1      36.261  29.697  28.945  1.00  0.00     0.006 A 
ENDBRANCH  50  64
BRANCH  51  72
ATOM     72  C   UNL A   1      48.741  26.759  28.512  1.00  0.00     0.057 A 
ATOM     73  C   UNL A   1      49.433  26.257  29.620  1.00  0.00     0.134 A 
ATOM     74  C   UNL A   1      49.465  26.936  27.327  1.00  0.00     0.134 A 
ATOM     75  F   UNL A   1      48.800  26.078  30.789  1.00  0.00    -0.206 F 
ATOM     76  C   UNL A   1      50.797  25.966  29.561  1.00  0.00     0.040 A 
ATOM     77  C   UNL A   1      50.822  26.623  27.245  1.00  0.00     0.040 A 
ATOM     78  F   UNL A   1      48.857  27.401  26.226  1.00  0.00    -0.206 F 
ATOM     79  C   UNL A   1      51.495  26.145  28.368  1.00  0.00     0.006 A 
ENDBRANCH  51  72
BRANCH  63  80
ATOM     80  C   UNL A   1      45.245  32.465  30.446  1.00  0.00     0.057 A 
ATOM     81  C   UNL A   1      45.474  33.549  29.590  1.00  0.00     0.134 A 
ATOM     82  C   UNL A   1      45.411  32.680  31.820  1.00  0.00     0.134 A 
ATOM     83  F   UNL A   1      45.345  33.406  28.262  1.00  0.00    -0.206 F 
ATOM     84  C   UNL A   1      45.877  34.792  30.080  1.00  0.00     0.040 A 
ATOM     85  C   UNL A   1      45.784  33.926  32.324  1.00  0.00     0.040 A 
ATOM     86  F   UNL A   1      45.197  31.686  32.697  1.00  0.00    -0.206 F 
ATOM     87  C   UNL A   1      46.025  34.984  31.452  1.00  0.00     0.006 A 
ENDBRANCH  63  80
ENDBRANCH  37  38
ENDBRANCH  29  32
ENDBRANCH  27  28
ENDBRANCH  26  27
ENDBRANCH   1  26
TORSDOF 14
ENDMDL
MODEL 3
REMARK VINA RESULT:     -11.6      5.204      9.499
REMARK SMILES C[NH2+][C@]1(C(=O)NCCCNC(=O)c2ccc(-c3c4nc(c(-c5c(F)cccc5F)c5ccc([nH]5)c(-c5c(F)cccc5F)c5nc(c(-c6c(F)cccc6F)c6ccc3[nH]6)C=C5)C=C4)cc2)CCC[C@H]1CC[NH+]1C[C@@H](C)O[C@H](C)C1
REMARK SMILES IDX 7 1 6 2 4 3 5 4 3 6 67 7 70 8 68 9 69 10 2 11 1 12 71 15
REMARK SMILES IDX 72 16 73 17 74 18 80 19 75 21 78 22 76 23 77 24 79 25 8 26
REMARK SMILES IDX 9 27 10 28 11 29 12 31 13 32 14 33 66 34 15 35 65 36 16 37
REMARK SMILES IDX 17 38 18 39 59 40 19 41 64 42 58 43 60 44 20 45 63 46 57 47
REMARK SMILES IDX 56 48 21 50 47 51 30 52 46 53 31 54 34 55 45 56 61 57 32 58
REMARK SMILES IDX 33 59 44 61 62 62 35 63 22 64 23 65 28 66 24 67 25 68 27 69
REMARK SMILES IDX 29 70 26 71 48 72 49 73 54 74 50 75 51 76 53 77 55 78 52 79
REMARK SMILES IDX 36 80 37 81 42 82 38 83 39 84 41 85 43 86 40 87
REMARK H PARENT 6 5 2 13 2 14 73 20 10 30 60 49 34 60
REMARK Flexibility Score: inf
ROOT
ATOM      1  C   UNL A   1      36.830  20.809  24.757  1.00  0.00     0.118 C 
ENDROOT
BRANCH   1   2
ATOM      2  N   UNL A   1      36.110  21.149  25.967  1.00  0.00    -0.351 N 
ATOM      3  C   UNL A   1      34.818  21.473  26.223  1.00  0.00     0.281 C 
ATOM      4  O   UNL A   1      34.568  21.716  27.414  1.00  0.00    -0.268 OA
ATOM      5  H   UNL A   1      36.677  21.145  26.772  1.00  0.00     0.163 HD
BRANCH   3   6
ATOM      6  C   UNL A   1      33.680  21.478  25.155  1.00  0.00     0.178 C 
ATOM      7  C   UNL A   1      32.294  21.933  25.646  1.00  0.00     0.079 C 
ATOM      8  C   UNL A   1      33.968  22.379  23.909  1.00  0.00     0.066 C 
ATOM      9  C   UNL A   1      31.517  22.266  24.386  1.00  0.00     0.008 C 
ATOM     10  C   UNL A   1      32.551  22.706  23.355  1.00  0.00     0.011 C 
BRANCH   6  11
ATOM     11  N   UNL A   1      33.591  20.089  24.569  1.00  0.00    -0.336 N 
ATOM     12  C   UNL A   1      32.943  19.086  25.404  1.00  0.00     0.331 C 
ATOM     13  H   UNL A   1      33.070  20.152  23.694  1.00  0.00     0.346 HD
ATOM     14  H   UNL A   1      34.555  19.774  24.456  1.00  0.00     0.346 HD
ENDBRANCH   6  11
BRANCH   8  15
ATOM     15  C   UNL A   1      34.743  23.699  24.050  1.00  0.00     0.072 C 
BRANCH  15  16
ATOM     16  C   UNL A   1      34.179  24.975  23.393  1.00  0.00     0.262 C 
BRANCH  16  17
ATOM     17  N   UNL A   1      33.951  26.147  24.249  1.00  0.00    -0.331 N 
ATOM     18  C   UNL A   1      33.529  27.395  23.591  1.00  0.00     0.294 C 
ATOM     19  C   UNL A   1      32.972  25.859  25.332  1.00  0.00     0.294 C 
ATOM     20  H   UNL A   1      34.889  26.317  24.610  1.00  0.00     0.348 HD
ATOM     21  C   UNL A   1      32.049  27.479  23.147  1.00  0.00     0.170 C 
ATOM     22  C   UNL A   1      31.493  25.902  24.865  1.00  0.00     0.170 C 
ATOM     23  C   UNL A   1      31.649  26.685  21.906  1.00  0.00     0.045 C 
ATOM     24  O   UNL A   1      31.170  27.151  24.233  1.00  0.00    -0.364 OA
ATOM     25  C   UNL A   1      30.522  25.753  26.029  1.00  0.00     0.045 C 
ENDBRANCH  16  17
ENDBRANCH  15  16
ENDBRANCH   8  15
ENDBRANCH   3   6
ENDBRANCH   1   2
BRANCH   1  26
ATOM     26  C   UNL A   1      37.837  19.708  24.994  1.00  0.00     0.042 C 
BRANCH  26  27
ATOM     27  C   UNL A   1      39.065  20.226  25.715  1.00  0.00     0.118 C 
BRANCH  27  28
ATOM     28  N   UNL A   1      40.091  19.195  25.849  1.00  0.00    -0.352 N 
ATOM     29  C   UNL A   1      41.438  19.342  26.063  1.00  0.00     0.251 C 
ATOM     30  H   UNL A   1      39.773  18.266  25.775  1.00  0.00     0.163 HD
ATOM     31  O   UNL A   1      42.201  18.392  25.916  1.00  0.00    -0.269 OA
BRANCH  29  32
ATOM     32  C   UNL A   1      41.955  20.666  26.452  1.00  0.00     0.039 A 
ATOM     33  C   UNL A   1      42.364  21.562  25.465  1.00  0.00     0.014 A 
ATOM     34  C   UNL A   1      41.982  21.030  27.802  1.00  0.00     0.014 A 
ATOM     35  C   UNL A   1      42.735  22.855  25.832  1.00  0.00     0.010 A 
ATOM     36  C   UNL A   1      42.231  22.348  28.149  1.00  0.00     0.010 A 
ATOM     37  C   UNL A   1      42.630  23.268  27.171  1.00  0.00    -0.014 A 
BRANCH  37  38
ATOM     38  C   UNL A   1      42.960  24.652  27.583  1.00  0.00     0.031 A 
ATOM     39  C   UNL A   1      44.399  25.075  27.683  1.00  0.00     0.074 A 
ATOM     40  C   UNL A   1      41.972  25.499  27.931  1.00  0.00     0.049 A 
ATOM     41  N   UNL A   1      44.901  26.213  28.090  1.00  0.00    -0.248 NA
ATOM     42  C   UNL A   1      45.413  24.073  27.313  1.00  0.00     0.031 C 
ATOM     43  C   UNL A   1      40.541  25.181  27.929  1.00  0.00     0.029 A 
ATOM     44  N   UNL A   1      42.022  26.799  28.360  1.00  0.00    -0.354 N 
ATOM     45  C   UNL A   1      46.280  26.055  28.038  1.00  0.00     0.074 A 
ATOM     46  C   UNL A   1      46.538  24.692  27.633  1.00  0.00     0.031 C 
ATOM     47  C   UNL A   1      39.850  26.268  28.304  1.00  0.00     0.029 A 
ATOM     48  C   UNL A   1      40.786  27.343  28.615  1.00  0.00     0.049 A 
ATOM     49  H   UNL A   1      42.864  27.297  28.475  1.00  0.00     0.167 HD
ATOM     50  C   UNL A   1      47.244  26.973  28.277  1.00  0.00     0.037 A 
ATOM     51  C   UNL A   1      40.451  28.570  29.056  1.00  0.00     0.037 A 
ATOM     52  C   UNL A   1      46.977  28.334  28.655  1.00  0.00     0.049 A 
ATOM     53  C   UNL A   1      41.541  29.570  29.322  1.00  0.00     0.074 A 
ATOM     54  C   UNL A   1      47.877  29.364  28.860  1.00  0.00     0.029 A 
ATOM     55  N   UNL A   1      45.711  28.852  28.890  1.00  0.00    -0.354 N 
ATOM     56  N   UNL A   1      42.839  29.433  29.195  1.00  0.00    -0.248 NA
ATOM     57  C   UNL A   1      41.120  30.897  29.790  1.00  0.00     0.031 C 
ATOM     58  C   UNL A   1      47.160  30.491  29.272  1.00  0.00     0.029 A 
ATOM     59  C   UNL A   1      45.808  30.181  29.266  1.00  0.00     0.049 A 
ATOM     60  H   UNL A   1      44.870  28.349  28.802  1.00  0.00     0.167 HD
ATOM     61  C   UNL A   1      43.388  30.662  29.538  1.00  0.00     0.074 A 
ATOM     62  C   UNL A   1      42.279  31.536  29.861  1.00  0.00     0.031 C 
ATOM     63  C   UNL A   1      44.691  31.035  29.580  1.00  0.00     0.037 A 
BRANCH  50  64
ATOM     64  C   UNL A   1      48.672  26.530  28.131  1.00  0.00     0.057 A 
ATOM     65  C   UNL A   1      49.354  26.614  26.908  1.00  0.00     0.134 A 
ATOM     66  C   UNL A   1      49.381  26.031  29.231  1.00  0.00     0.134 A 
ATOM     67  F   UNL A   1      48.730  27.068  25.811  1.00  0.00    -0.206 F 
ATOM     68  C   UNL A   1      50.678  26.189  26.779  1.00  0.00     0.040 A 
ATOM     69  C   UNL A   1      50.715  25.632  29.120  1.00  0.00     0.040 A 
ATOM     70  F   UNL A   1      48.793  25.926  30.431  1.00  0.00    -0.206 F 
ATOM     71  C   UNL A   1      51.364  25.703  27.889  1.00  0.00     0.006 A 
ENDBRANCH  50  64
BRANCH  51  72
ATOM     72  C   UNL A   1      39.022  28.928  29.247  1.00  0.00     0.057 A 
ATOM     73  C   UNL A   1      38.273  29.488  28.205  1.00  0.00     0.134 A 
ATOM     74  C   UNL A   1      38.372  28.725  30.470  1.00  0.00     0.134 A 
ATOM     75  F   UNL A   1      38.842  29.722  27.013  1.00  0.00    -0.206 F 
ATOM     76  C   UNL A   1      36.938  29.856  28.379  1.00  0.00     0.040 A 
ATOM     77  C   UNL A   1      37.029  29.061  30.650  1.00  0.00     0.040 A 
ATOM     78  F   UNL A   1      39.029  28.181  31.504  1.00  0.00    -0.206 F 
ATOM     79  C   UNL A   1      36.311  29.638  29.604  1.00  0.00     0.006 A 
ENDBRANCH  51  72
BRANCH  63  80
ATOM     80  C   UNL A   1      44.985  32.458  29.958  1.00  0.00     0.057 A 
ATOM     81  C   UNL A   1      45.274  32.831  31.276  1.00  0.00     0.134 A 
ATOM     82  C   UNL A   1      45.021  33.459  28.979  1.00  0.00     0.134 A 
ATOM     83  F   UNL A   1      45.244  31.921  32.262  1.00  0.00    -0.206 F 
ATOM     84  C   UNL A   1      45.562  34.155  31.611  1.00  0.00     0.040 A 
ATOM     85  C   UNL A   1      45.337  34.780  29.298  1.00  0.00     0.040 A 
ATOM     86  F   UNL A   1      44.764  33.167  27.694  1.00  0.00    -0.206 F 
ATOM     87  C   UNL A   1      45.602  35.131  30.619  1.00  0.00     0.006 A 
ENDBRANCH  63  80
ENDBRANCH  37  38
ENDBRANCH  29  32
ENDBRANCH  27  28
ENDBRANCH  26  27
ENDBRANCH   1  26
TORSDOF 14
ENDMDL
