MODEL 1
REMARK VINA RESULT:     -11.6      0.000      0.000
REMARK SMILES O=C(NCCCNC(=O)[C@@H]1C[NH2+]CCN1C(=O)N[C@@H]1CCOC1)c1ccc(-c2c3nc(c(-c4c(F)cccc4F)c4ccc([nH]4)c(-c4c(F)cccc4F)c4nc(c(-c5c(F)cccc5F)c5ccc2[nH]5)C=C4)C=C3)cc1
REMARK SMILES IDX 5 1 4 2 3 3 1 4 2 5 24 7 25 8 77 9 26 10 76 11 27 12 28 13
REMARK SMILES IDX 29 14 70 15 30 16 75 17 69 18 71 19 31 20 74 21 68 22 67 23
REMARK SMILES IDX 32 25 58 26 41 27 57 28 42 29 45 30 56 31 72 32 43 33 44 34
REMARK SMILES IDX 55 36 73 37 46 38 33 39 34 40 39 41 35 42 36 43 38 44 40 45
REMARK SMILES IDX 37 46 59 47 60 48 65 49 61 50 62 51 64 52 66 53 63 54 47 55
REMARK SMILES IDX 48 56 53 57 49 58 50 59 52 60 54 61 51 62 6 63 7 64 8 65
REMARK SMILES IDX 9 67 10 68 11 69 15 70 12 71 14 72 13 73 16 76 17 77 18 78
REMARK SMILES IDX 19 80 20 81 23 82 21 83 22 84
REMARK H PARENT 3 6 71 24 45 35 7 66 12 74 12 75 18 79
REMARK Flexibility Score: inf
ROOT
ATOM      1  C   UNL A   1      37.450  19.667  25.008  1.00  0.00     0.042 C 
ENDROOT
BRANCH   1   2
ATOM      2  C   UNL A   1      38.735  20.340  25.487  1.00  0.00     0.118 C 
BRANCH   2   3
ATOM      3  N   UNL A   1      39.819  19.396  25.738  1.00  0.00    -0.352 N 
ATOM      4  O   UNL A   1      41.933  18.676  26.008  1.00  0.00    -0.269 OA
ATOM      5  C   UNL A   1      41.117  19.604  26.112  1.00  0.00     0.251 C 
ATOM      6  H   UNL A   1      39.575  18.450  25.615  1.00  0.00     0.163 HD
BRANCH   5   7
ATOM      7  C   UNL A   1      41.570  20.908  26.628  1.00  0.00     0.039 A 
ATOM      8  C   UNL A   1      41.993  21.913  25.756  1.00  0.00     0.014 A 
ATOM      9  C   UNL A   1      41.486  21.165  28.001  1.00  0.00     0.014 A 
ATOM     10  C   UNL A   1      42.447  23.129  26.262  1.00  0.00     0.010 A 
ATOM     11  C   UNL A   1      41.868  22.411  28.501  1.00  0.00     0.010 A 
ATOM     12  C   UNL A   1      42.371  23.396  27.636  1.00  0.00    -0.014 A 
BRANCH  12  13
ATOM     13  C   UNL A   1      42.759  24.730  28.156  1.00  0.00     0.031 A 
ATOM     14  C   UNL A   1      41.721  25.782  28.415  1.00  0.00     0.074 A 
ATOM     15  C   UNL A   1      44.063  24.997  28.365  1.00  0.00     0.049 A 
ATOM     16  N   UNL A   1      41.881  27.027  28.782  1.00  0.00    -0.248 NA
ATOM     17  C   UNL A   1      40.319  25.384  28.227  1.00  0.00     0.031 C 
ATOM     18  C   UNL A   1      45.159  24.052  28.145  1.00  0.00     0.029 A 
ATOM     19  N   UNL A   1      44.687  26.138  28.799  1.00  0.00    -0.354 N 
ATOM     20  C   UNL A   1      40.603  27.570  28.843  1.00  0.00     0.074 A 
ATOM     21  C   UNL A   1      39.682  26.523  28.455  1.00  0.00     0.031 C 
ATOM     22  C   UNL A   1      46.320  24.648  28.453  1.00  0.00     0.029 A 
ATOM     23  C   UNL A   1      46.056  26.033  28.828  1.00  0.00     0.049 A 
ATOM     24  H   UNL A   1      44.202  26.953  29.061  1.00  0.00     0.167 HD
ATOM     25  C   UNL A   1      40.238  28.828  29.191  1.00  0.00     0.037 A 
ATOM     26  C   UNL A   1      46.999  26.957  29.087  1.00  0.00     0.037 A 
ATOM     27  C   UNL A   1      41.167  29.858  29.582  1.00  0.00     0.049 A 
ATOM     28  C   UNL A   1      46.576  28.352  29.437  1.00  0.00     0.074 A 
ATOM     29  C   UNL A   1      40.899  31.153  29.991  1.00  0.00     0.029 A 
ATOM     30  N   UNL A   1      42.548  29.711  29.599  1.00  0.00    -0.354 N 
ATOM     31  N   UNL A   1      45.365  28.846  29.521  1.00  0.00    -0.248 NA
ATOM     32  C   UNL A   1      47.643  29.319  29.724  1.00  0.00     0.031 C 
ATOM     33  C   UNL A   1      42.118  31.804  30.204  1.00  0.00     0.029 A 
ATOM     34  C   UNL A   1      43.145  30.899  29.985  1.00  0.00     0.049 A 
ATOM     35  H   UNL A   1      43.030  28.885  29.370  1.00  0.00     0.167 HD
ATOM     36  C   UNL A   1      45.519  30.174  29.893  1.00  0.00     0.074 A 
ATOM     37  C   UNL A   1      46.945  30.407  30.022  1.00  0.00     0.031 C 
ATOM     38  C   UNL A   1      44.566  31.111  30.115  1.00  0.00     0.037 A 
BRANCH  25  39
ATOM     39  C   UNL A   1      38.775  29.165  29.127  1.00  0.00     0.057 A 
ATOM     40  C   UNL A   1      37.939  29.084  30.248  1.00  0.00     0.134 A 
ATOM     41  C   UNL A   1      38.196  29.584  27.922  1.00  0.00     0.134 A 
ATOM     42  F   UNL A   1      38.426  28.679  31.431  1.00  0.00    -0.206 F 
ATOM     43  C   UNL A   1      36.575  29.370  30.165  1.00  0.00     0.040 A 
ATOM     44  C   UNL A   1      36.839  29.900  27.833  1.00  0.00     0.040 A 
ATOM     45  F   UNL A   1      38.938  29.693  26.810  1.00  0.00    -0.206 F 
ATOM     46  C   UNL A   1      36.021  29.784  28.955  1.00  0.00     0.006 A 
ENDBRANCH  25  39
BRANCH  26  47
ATOM     47  C   UNL A   1      48.429  26.572  29.003  1.00  0.00     0.057 A 
ATOM     48  C   UNL A   1      49.077  25.946  30.073  1.00  0.00     0.134 A 
ATOM     49  C   UNL A   1      49.162  26.762  27.825  1.00  0.00     0.134 A 
ATOM     50  F   UNL A   1      48.431  25.748  31.231  1.00  0.00    -0.206 F 
ATOM     51  C   UNL A   1      50.402  25.521  29.973  1.00  0.00     0.040 A 
ATOM     52  C   UNL A   1      50.479  26.319  27.703  1.00  0.00     0.040 A 
ATOM     53  F   UNL A   1      48.592  27.345  26.760  1.00  0.00    -0.206 F 
ATOM     54  C   UNL A   1      51.104  25.697  28.782  1.00  0.00     0.006 A 
ENDBRANCH  26  47
BRANCH  38  55
ATOM     55  C   UNL A   1      45.024  32.467  30.561  1.00  0.00     0.057 A 
ATOM     56  C   UNL A   1      45.257  33.507  29.655  1.00  0.00     0.134 A 
ATOM     57  C   UNL A   1      45.163  32.752  31.927  1.00  0.00     0.134 A 
ATOM     58  F   UNL A   1      45.155  33.294  28.334  1.00  0.00    -0.206 F 
ATOM     59  C   UNL A   1      45.619  34.783  30.089  1.00  0.00     0.040 A 
ATOM     60  C   UNL A   1      45.501  34.029  32.373  1.00  0.00     0.040 A 
ATOM     61  F   UNL A   1      44.948  31.800  32.846  1.00  0.00    -0.206 F 
ATOM     62  C   UNL A   1      45.732  35.049  31.453  1.00  0.00     0.006 A 
ENDBRANCH  38  55
ENDBRANCH  12  13
ENDBRANCH   5   7
ENDBRANCH   2   3
ENDBRANCH   1   2
BRANCH   1  63
ATOM     63  C   UNL A   1      36.300  20.629  24.744  1.00  0.00     0.117 C 
BRANCH  63  64
ATOM     64  N   UNL A   1      35.753  21.256  25.933  1.00  0.00    -0.354 N 
ATOM     65  C   UNL A   1      34.480  21.502  26.341  1.00  0.00     0.248 C 
ATOM     66  H   UNL A   1      36.438  21.564  26.569  1.00  0.00     0.163 HD
ATOM     67  O   UNL A   1      34.297  21.303  27.552  1.00  0.00    -0.272 OA
BRANCH  65  68
ATOM     68  C   UNL A   1      33.324  22.075  25.482  1.00  0.00     0.231 C 
ATOM     69  C   UNL A   1      32.020  22.437  26.223  1.00  0.00     0.296 C 
ATOM     70  N   UNL A   1      33.039  21.768  24.018  1.00  0.00    -0.302 N 
ATOM     71  N   UNL A   1      31.292  23.577  25.612  1.00  0.00    -0.343 N 
ATOM     72  C   UNL A   1      32.417  22.977  23.420  1.00  0.00     0.183 C 
ATOM     73  C   UNL A   1      31.102  23.349  24.164  1.00  0.00     0.282 C 
ATOM     74  H   UNL A   1      31.830  24.432  25.749  1.00  0.00     0.346 HD
ATOM     75  H   UNL A   1      30.379  23.662  26.056  1.00  0.00     0.346 HD
BRANCH  70  76
ATOM     76  C   UNL A   1      32.506  20.635  23.462  1.00  0.00     0.318 C 
ATOM     77  O   UNL A   1      31.890  20.685  22.385  1.00  0.00    -0.249 OA
ATOM     78  N   UNL A   1      32.658  19.374  23.868  1.00  0.00    -0.333 N 
ATOM     79  H   UNL A   1      32.045  18.825  23.329  1.00  0.00     0.165 HD
BRANCH  78  80
ATOM     80  C   UNL A   1      33.358  18.459  24.783  1.00  0.00     0.112 C 
ATOM     81  C   UNL A   1      34.457  17.652  24.195  1.00  0.00     0.056 C 
ATOM     82  C   UNL A   1      32.507  17.358  25.418  1.00  0.00     0.185 C 
ATOM     83  C   UNL A   1      33.707  16.449  23.666  1.00  0.00     0.162 C 
ATOM     84  O   UNL A   1      32.689  16.166  24.638  1.00  0.00    -0.379 OA
ENDBRANCH  78  80
ENDBRANCH  70  76
ENDBRANCH  65  68
ENDBRANCH  63  64
ENDBRANCH   1  63
TORSDOF 12
ENDMDL
MODEL 2
REMARK VINA RESULT:     -11.6      5.619     10.285
REMARK SMILES O=C(NCCCNC(=O)[C@@H]1C[NH2+]CCN1C(=O)N[C@@H]1CCOC1)c1ccc(-c2c3nc(c(-c4c(F)cccc4F)c4ccc([nH]4)c(-c4c(F)cccc4F)c4nc(c(-c5c(F)cccc5F)c5ccc2[nH]5)C=C4)C=C3)cc1
REMARK SMILES IDX 5 1 4 2 3 3 1 4 2 5 24 7 25 8 77 9 26 10 76 11 27 12 28 13
REMARK SMILES IDX 29 14 70 15 30 16 75 17 69 18 71 19 31 20 74 21 68 22 67 23
REMARK SMILES IDX 32 25 58 26 41 27 57 28 42 29 45 30 56 31 72 32 43 33 44 34
REMARK SMILES IDX 55 36 73 37 46 38 33 39 34 40 39 41 35 42 36 43 38 44 40 45
REMARK SMILES IDX 37 46 59 47 60 48 65 49 61 50 62 51 64 52 66 53 63 54 47 55
REMARK SMILES IDX 48 56 53 57 49 58 50 59 52 60 54 61 51 62 6 63 7 64 8 65
REMARK SMILES IDX 9 67 10 68 11 69 15 70 12 71 14 72 13 73 16 76 17 77 18 78
REMARK SMILES IDX 19 80 20 81 23 82 21 83 22 84
REMARK H PARENT 3 6 71 24 45 35 7 66 12 74 12 75 18 79
REMARK Flexibility Score: inf
ROOT
ATOM      1  C   UNL A   1      31.331  32.114  26.848  1.00  0.00     0.042 C 
ENDROOT
BRANCH   1   2
ATOM      2  C   UNL A   1      32.668  32.819  27.065  1.00  0.00     0.118 C 
BRANCH   2   3
ATOM      3  N   UNL A   1      32.528  34.159  27.626  1.00  0.00    -0.352 N 
ATOM      4  O   UNL A   1      32.651  35.796  29.162  1.00  0.00    -0.269 OA
ATOM      5  C   UNL A   1      33.118  34.739  28.713  1.00  0.00     0.251 C 
ATOM      6  H   UNL A   1      31.901  34.742  27.140  1.00  0.00     0.163 HD
BRANCH   5   7
ATOM      7  C   UNL A   1      34.290  34.131  29.369  1.00  0.00     0.039 A 
ATOM      8  C   UNL A   1      34.130  33.171  30.370  1.00  0.00     0.014 A 
ATOM      9  C   UNL A   1      35.572  34.459  28.914  1.00  0.00     0.014 A 
ATOM     10  C   UNL A   1      35.247  32.629  31.001  1.00  0.00     0.010 A 
ATOM     11  C   UNL A   1      36.691  33.858  29.495  1.00  0.00     0.010 A 
ATOM     12  C   UNL A   1      36.537  32.952  30.557  1.00  0.00    -0.014 A 
BRANCH  12  13
ATOM     13  C   UNL A   1      37.719  32.293  31.164  1.00  0.00     0.031 A 
ATOM     14  C   UNL A   1      38.445  31.202  30.434  1.00  0.00     0.074 A 
ATOM     15  C   UNL A   1      38.116  32.668  32.395  1.00  0.00     0.049 A 
ATOM     16  N   UNL A   1      39.437  30.453  30.843  1.00  0.00    -0.248 NA
ATOM     17  C   UNL A   1      37.988  30.905  29.069  1.00  0.00     0.031 C 
ATOM     18  C   UNL A   1      37.485  33.716  33.199  1.00  0.00     0.029 A 
ATOM     19  N   UNL A   1      39.135  32.207  33.188  1.00  0.00    -0.354 N 
ATOM     20  C   UNL A   1      39.707  29.579  29.797  1.00  0.00     0.074 A 
ATOM     21  C   UNL A   1      38.759  29.877  28.744  1.00  0.00     0.031 C 
ATOM     22  C   UNL A   1      38.135  33.825  34.367  1.00  0.00     0.029 A 
ATOM     23  C   UNL A   1      39.184  32.813  34.419  1.00  0.00     0.049 A 
ATOM     24  H   UNL A   1      39.768  31.509  32.903  1.00  0.00     0.167 HD
ATOM     25  C   UNL A   1      40.658  28.617  29.727  1.00  0.00     0.037 A 
ATOM     26  C   UNL A   1      39.958  32.558  35.490  1.00  0.00     0.037 A 
ATOM     27  C   UNL A   1      41.599  28.337  30.782  1.00  0.00     0.049 A 
ATOM     28  C   UNL A   1      40.983  31.466  35.405  1.00  0.00     0.074 A 
ATOM     29  C   UNL A   1      42.628  27.411  30.797  1.00  0.00     0.029 A 
ATOM     30  N   UNL A   1      41.616  28.974  32.016  1.00  0.00    -0.354 N 
ATOM     31  N   UNL A   1      41.250  30.666  34.401  1.00  0.00    -0.248 NA
ATOM     32  C   UNL A   1      41.811  31.236  36.595  1.00  0.00     0.031 C 
ATOM     33  C   UNL A   1      43.233  27.452  32.059  1.00  0.00     0.029 A 
ATOM     34  C   UNL A   1      42.620  28.442  32.809  1.00  0.00     0.049 A 
ATOM     35  H   UNL A   1      41.005  29.696  32.286  1.00  0.00     0.167 HD
ATOM     36  C   UNL A   1      42.290  29.853  34.827  1.00  0.00     0.074 A 
ATOM     37  C   UNL A   1      42.609  30.261  36.182  1.00  0.00     0.031 C 
ATOM     38  C   UNL A   1      42.928  28.865  34.154  1.00  0.00     0.037 A 
BRANCH  25  39
ATOM     39  C   UNL A   1      40.701  27.776  28.483  1.00  0.00     0.057 A 
ATOM     40  C   UNL A   1      39.995  26.571  28.371  1.00  0.00     0.134 A 
ATOM     41  C   UNL A   1      41.458  28.183  27.376  1.00  0.00     0.134 A 
ATOM     42  F   UNL A   1      39.259  26.117  29.397  1.00  0.00    -0.206 F 
ATOM     43  C   UNL A   1      40.069  25.784  27.219  1.00  0.00     0.040 A 
ATOM     44  C   UNL A   1      41.517  27.419  26.209  1.00  0.00     0.040 A 
ATOM     45  F   UNL A   1      42.153  29.330  27.410  1.00  0.00    -0.206 F 
ATOM     46  C   UNL A   1      40.830  26.210  26.133  1.00  0.00     0.006 A 
ENDBRANCH  25  39
BRANCH  26  47
ATOM     47  C   UNL A   1      39.764  33.352  36.727  1.00  0.00     0.057 A 
ATOM     48  C   UNL A   1      40.487  34.528  36.956  1.00  0.00     0.134 A 
ATOM     49  C   UNL A   1      38.802  32.989  37.679  1.00  0.00     0.134 A 
ATOM     50  F   UNL A   1      41.429  34.921  36.088  1.00  0.00    -0.206 F 
ATOM     51  C   UNL A   1      40.257  35.314  38.086  1.00  0.00     0.040 A 
ATOM     52  C   UNL A   1      38.547  33.778  38.799  1.00  0.00     0.040 A 
ATOM     53  F   UNL A   1      38.069  31.878  37.508  1.00  0.00    -0.206 F 
ATOM     54  C   UNL A   1      39.277  34.946  39.006  1.00  0.00     0.006 A 
ENDBRANCH  26  47
BRANCH  38  55
ATOM     55  C   UNL A   1      44.064  28.179  34.850  1.00  0.00     0.057 A 
ATOM     56  C   UNL A   1      43.886  26.990  35.566  1.00  0.00     0.134 A 
ATOM     57  C   UNL A   1      45.368  28.682  34.738  1.00  0.00     0.134 A 
ATOM     58  F   UNL A   1      42.661  26.466  35.720  1.00  0.00    -0.206 F 
ATOM     59  C   UNL A   1      44.964  26.327  36.153  1.00  0.00     0.040 A 
ATOM     60  C   UNL A   1      46.456  28.015  35.302  1.00  0.00     0.040 A 
ATOM     61  F   UNL A   1      45.605  29.815  34.061  1.00  0.00    -0.206 F 
ATOM     62  C   UNL A   1      46.255  26.834  36.013  1.00  0.00     0.006 A 
ENDBRANCH  38  55
ENDBRANCH  12  13
ENDBRANCH   5   7
ENDBRANCH   2   3
ENDBRANCH   1   2
BRANCH   1  63
ATOM     63  C   UNL A   1      31.414  30.865  25.981  1.00  0.00     0.117 C 
BRANCH  63  64
ATOM     64  N   UNL A   1      32.404  29.896  26.413  1.00  0.00    -0.354 N 
ATOM     65  C   UNL A   1      33.279  29.110  25.733  1.00  0.00     0.248 C 
ATOM     66  H   UNL A   1      32.451  29.787  27.389  1.00  0.00     0.163 HD
ATOM     67  O   UNL A   1      34.396  29.028  26.267  1.00  0.00    -0.272 OA
BRANCH  65  68
ATOM     68  C   UNL A   1      32.981  28.270  24.464  1.00  0.00     0.231 C 
ATOM     69  C   UNL A   1      33.235  28.953  23.104  1.00  0.00     0.296 C 
ATOM     70  N   UNL A   1      31.938  27.171  24.324  1.00  0.00    -0.302 N 
ATOM     71  N   UNL A   1      33.653  28.007  22.039  1.00  0.00    -0.343 N 
ATOM     72  C   UNL A   1      32.453  26.189  23.336  1.00  0.00     0.183 C 
ATOM     73  C   UNL A   1      32.712  26.871  21.961  1.00  0.00     0.282 C 
ATOM     74  H   UNL A   1      34.587  27.656  22.249  1.00  0.00     0.346 HD
ATOM     75  H   UNL A   1      33.655  28.496  21.145  1.00  0.00     0.346 HD
BRANCH  70  76
ATOM     76  C   UNL A   1      30.577  27.281  24.221  1.00  0.00     0.318 C 
ATOM     77  O   UNL A   1      29.829  26.443  24.751  1.00  0.00    -0.249 OA
ATOM     78  N   UNL A   1      29.874  28.286  23.699  1.00  0.00    -0.333 N 
ATOM     79  H   UNL A   1      28.935  27.992  23.667  1.00  0.00     0.165 HD
BRANCH  78  80
ATOM     80  C   UNL A   1      29.912  29.651  23.152  1.00  0.00     0.112 C 
ATOM     81  C   UNL A   1      28.770  30.534  23.501  1.00  0.00     0.056 C 
ATOM     82  C   UNL A   1      29.903  29.767  21.627  1.00  0.00     0.185 C 
ATOM     83  C   UNL A   1      27.774  30.193  22.414  1.00  0.00     0.162 C 
ATOM     84  O   UNL A   1      28.548  30.011  21.219  1.00  0.00    -0.379 OA
ENDBRANCH  78  80
ENDBRANCH  70  76
ENDBRANCH  65  68
ENDBRANCH  63  64
ENDBRANCH   1  63
TORSDOF 12
ENDMDL
MODEL 3
REMARK VINA RESULT:     -11.5      4.476      8.479
REMARK SMILES O=C(NCCCNC(=O)[C@@H]1C[NH2+]CCN1C(=O)N[C@@H]1CCOC1)c1ccc(-c2c3nc(c(-c4c(F)cccc4F)c4ccc([nH]4)c(-c4c(F)cccc4F)c4nc(c(-c5c(F)cccc5F)c5ccc2[nH]5)C=C4)C=C3)cc1
REMARK SMILES IDX 5 1 4 2 3 3 1 4 2 5 24 7 25 8 77 9 26 10 76 11 27 12 28 13
REMARK SMILES IDX 29 14 70 15 30 16 75 17 69 18 71 19 31 20 74 21 68 22 67 23
REMARK SMILES IDX 32 25 58 26 41 27 57 28 42 29 45 30 56 31 72 32 43 33 44 34
REMARK SMILES IDX 55 36 73 37 46 38 33 39 34 40 39 41 35 42 36 43 38 44 40 45
REMARK SMILES IDX 37 46 59 47 60 48 65 49 61 50 62 51 64 52 66 53 63 54 47 55
REMARK SMILES IDX 48 56 53 57 49 58 50 59 52 60 54 61 51 62 6 63 7 64 8 65
REMARK SMILES IDX 9 67 10 68 11 69 15 70 12 71 14 72 13 73 16 76 17 77 18 78
REMARK SMILES IDX 19 80 20 81 23 82 21 83 22 84
REMARK H PARENT 3 6 71 24 45 35 7 66 12 74 12 75 18 79
REMARK Flexibility Score: inf
ROOT
ATOM      1  C   UNL A   1      33.391  28.256  27.186  1.00  0.00     0.042 C 
ENDROOT
BRANCH   1   2
ATOM      2  C   UNL A   1      34.185  29.307  26.413  1.00  0.00     0.118 C 
BRANCH   2   3
ATOM      3  N   UNL A   1      34.053  30.650  26.967  1.00  0.00    -0.352 N 
ATOM      4  O   UNL A   1      34.254  32.313  28.469  1.00  0.00    -0.269 OA
ATOM      5  C   UNL A   1      34.713  31.261  27.996  1.00  0.00     0.251 C 
ATOM      6  H   UNL A   1      33.373  31.210  26.527  1.00  0.00     0.163 HD
BRANCH   5   7
ATOM      7  C   UNL A   1      35.950  30.696  28.563  1.00  0.00     0.039 A 
ATOM      8  C   UNL A   1      35.898  29.710  29.550  1.00  0.00     0.014 A 
ATOM      9  C   UNL A   1      37.185  31.089  28.034  1.00  0.00     0.014 A 
ATOM     10  C   UNL A   1      37.077  29.208  30.096  1.00  0.00     0.010 A 
ATOM     11  C   UNL A   1      38.364  30.529  28.528  1.00  0.00     0.010 A 
ATOM     12  C   UNL A   1      38.319  29.598  29.578  1.00  0.00    -0.014 A 
BRANCH  12  13
ATOM     13  C   UNL A   1      39.566  28.981  30.093  1.00  0.00     0.031 A 
ATOM     14  C   UNL A   1      40.254  29.543  31.302  1.00  0.00     0.074 A 
ATOM     15  C   UNL A   1      40.091  27.924  29.444  1.00  0.00     0.049 A 
ATOM     16  N   UNL A   1      41.394  29.194  31.841  1.00  0.00    -0.248 NA
ATOM     17  C   UNL A   1      39.576  30.651  31.990  1.00  0.00     0.031 C 
ATOM     18  C   UNL A   1      39.509  27.295  28.256  1.00  0.00     0.029 A 
ATOM     19  N   UNL A   1      41.231  27.200  29.681  1.00  0.00    -0.354 N 
ATOM     20  C   UNL A   1      41.584  30.055  32.915  1.00  0.00     0.074 A 
ATOM     21  C   UNL A   1      40.452  30.957  32.937  1.00  0.00     0.031 C 
ATOM     22  C   UNL A   1      40.291  26.275  27.874  1.00  0.00     0.029 A 
ATOM     23  C   UNL A   1      41.457  26.219  28.747  1.00  0.00     0.049 A 
ATOM     24  H   UNL A   1      41.828  27.369  30.445  1.00  0.00     0.167 HD
ATOM     25  C   UNL A   1      42.612  30.088  33.797  1.00  0.00     0.037 A 
ATOM     26  C   UNL A   1      42.506  25.392  28.585  1.00  0.00     0.037 A 
ATOM     27  C   UNL A   1      43.730  29.179  33.765  1.00  0.00     0.049 A 
ATOM     28  C   UNL A   1      43.650  25.467  29.552  1.00  0.00     0.074 A 
ATOM     29  C   UNL A   1      44.803  29.100  34.636  1.00  0.00     0.029 A 
ATOM     30  N   UNL A   1      43.923  28.197  32.802  1.00  0.00    -0.354 N 
ATOM     31  N   UNL A   1      43.806  26.264  30.581  1.00  0.00    -0.248 NA
ATOM     32  C   UNL A   1      44.763  24.534  29.338  1.00  0.00     0.031 C 
ATOM     33  C   UNL A   1      45.671  28.107  34.169  1.00  0.00     0.029 A 
ATOM     34  C   UNL A   1      45.111  27.527  33.042  1.00  0.00     0.049 A 
ATOM     35  H   UNL A   1      43.306  28.006  32.060  1.00  0.00     0.167 HD
ATOM     36  C   UNL A   1      45.021  25.916  31.152  1.00  0.00     0.074 A 
ATOM     37  C   UNL A   1      45.560  24.831  30.356  1.00  0.00     0.031 C 
ATOM     38  C   UNL A   1      45.629  26.443  32.242  1.00  0.00     0.037 A 
BRANCH  25  39
ATOM     39  C   UNL A   1      42.589  31.164  34.845  1.00  0.00     0.057 A 
ATOM     40  C   UNL A   1      43.120  32.440  34.617  1.00  0.00     0.134 A 
ATOM     41  C   UNL A   1      42.022  30.918  36.102  1.00  0.00     0.134 A 
ATOM     42  F   UNL A   1      43.688  32.739  33.440  1.00  0.00    -0.206 F 
ATOM     43  C   UNL A   1      43.120  33.420  35.612  1.00  0.00     0.040 A 
ATOM     44  C   UNL A   1      41.990  31.899  37.096  1.00  0.00     0.040 A 
ATOM     45  F   UNL A   1      41.487  29.722  36.388  1.00  0.00    -0.206 F 
ATOM     46  C   UNL A   1      42.551  33.152  36.855  1.00  0.00     0.006 A 
ENDBRANCH  25  39
BRANCH  26  47
ATOM     47  C   UNL A   1      42.507  24.444  27.444  1.00  0.00     0.057 A 
ATOM     48  C   UNL A   1      43.057  24.796  26.207  1.00  0.00     0.134 A 
ATOM     49  C   UNL A   1      42.019  23.139  27.588  1.00  0.00     0.134 A 
ATOM     50  F   UNL A   1      43.529  26.034  26.006  1.00  0.00    -0.206 F 
ATOM     51  C   UNL A   1      43.122  23.882  25.154  1.00  0.00     0.040 A 
ATOM     52  C   UNL A   1      42.100  22.210  26.551  1.00  0.00     0.040 A 
ATOM     53  F   UNL A   1      41.492  22.738  28.754  1.00  0.00    -0.206 F 
ATOM     54  C   UNL A   1      42.652  22.582  25.328  1.00  0.00     0.006 A 
ENDBRANCH  26  47
BRANCH  38  55
ATOM     55  C   UNL A   1      46.929  25.831  32.669  1.00  0.00     0.057 A 
ATOM     56  C   UNL A   1      48.158  26.273  32.167  1.00  0.00     0.134 A 
ATOM     57  C   UNL A   1      46.950  24.832  33.652  1.00  0.00     0.134 A 
ATOM     58  F   UNL A   1      48.204  27.217  31.215  1.00  0.00    -0.206 F 
ATOM     59  C   UNL A   1      49.364  25.740  32.623  1.00  0.00     0.040 A 
ATOM     60  C   UNL A   1      48.151  24.307  34.131  1.00  0.00     0.040 A 
ATOM     61  F   UNL A   1      45.807  24.368  34.177  1.00  0.00    -0.206 F 
ATOM     62  C   UNL A   1      49.363  24.761  33.616  1.00  0.00     0.006 A 
ENDBRANCH  38  55
ENDBRANCH  12  13
ENDBRANCH   5   7
ENDBRANCH   2   3
ENDBRANCH   1   2
BRANCH   1  63
ATOM     63  C   UNL A   1      31.907  28.569  27.325  1.00  0.00     0.117 C 
BRANCH  63  64
ATOM     64  N   UNL A   1      31.028  27.438  27.094  1.00  0.00    -0.354 N 
ATOM     65  C   UNL A   1      31.053  26.422  26.193  1.00  0.00     0.248 C 
ATOM     66  H   UNL A   1      30.263  27.399  27.711  1.00  0.00     0.163 HD
ATOM     67  O   UNL A   1      30.732  25.322  26.670  1.00  0.00    -0.272 OA
BRANCH  65  68
ATOM     68  C   UNL A   1      31.340  26.535  24.673  1.00  0.00     0.231 C 
ATOM     69  C   UNL A   1      32.737  26.089  24.194  1.00  0.00     0.296 C 
ATOM     70  N   UNL A   1      30.741  27.548  23.707  1.00  0.00    -0.302 N 
ATOM     71  N   UNL A   1      32.735  25.523  22.821  1.00  0.00    -0.343 N 
ATOM     72  C   UNL A   1      30.653  26.898  22.375  1.00  0.00     0.183 C 
ATOM     73  C   UNL A   1      32.058  26.444  21.885  1.00  0.00     0.282 C 
ATOM     74  H   UNL A   1      32.244  24.629  22.827  1.00  0.00     0.346 HD
ATOM     75  H   UNL A   1      33.699  25.392  22.517  1.00  0.00     0.346 HD
BRANCH  70  76
ATOM     76  C   UNL A   1      31.027  28.881  23.568  1.00  0.00     0.318 C 
ATOM     77  O   UNL A   1      32.145  29.326  23.875  1.00  0.00    -0.249 OA
ATOM     78  N   UNL A   1      30.275  29.825  23.003  1.00  0.00    -0.333 N 
ATOM     79  H   UNL A   1      30.715  30.687  23.183  1.00  0.00     0.165 HD
BRANCH  78  80
ATOM     80  C   UNL A   1      29.063  30.120  22.223  1.00  0.00     0.112 C 
ATOM     81  C   UNL A   1      28.606  31.533  22.222  1.00  0.00     0.056 C 
ATOM     82  C   UNL A   1      27.784  29.409  22.668  1.00  0.00     0.185 C 
ATOM     83  C   UNL A   1      27.741  31.578  23.463  1.00  0.00     0.162 C 
ATOM     84  O   UNL A   1      27.051  30.320  23.502  1.00  0.00    -0.379 OA
ENDBRANCH  78  80
ENDBRANCH  70  76
ENDBRANCH  65  68
ENDBRANCH  63  64
ENDBRANCH   1  63
TORSDOF 12
ENDMDL
